MODEL 1
REMARK VINA RESULT: -5.401830725      0.000      0.000
REMARK  3 active torsions:
REMARK  status: ('A' for Active; 'I' for Inactive)
REMARK    1  A    between atoms: O1_1  and  C1_3 
REMARK    2  A    between atoms: C1_3  and  C2_4 
REMARK    3  A    between atoms: C6_8  and  O2_9 
ROOT
HETATM    1  C2  UNL     1     -37.110   7.139  44.313  1.00  0.00    -0.019 C 
HETATM    2  C3  UNL     1     -36.953   8.448  44.939  1.00  0.00     0.012 C 
HETATM    3  C4  UNL     1     -38.016   9.452  44.885  1.00  0.00     0.004 C 
HETATM    4  C5  UNL     1     -39.423   9.107  44.923  1.00  0.00     0.038 C 
HETATM    5  C6  UNL     1     -39.836   7.672  45.029  1.00  0.00     0.058 C 
HETATM    6  C7  UNL     1     -39.348   6.938  46.213  1.00  0.00     0.038 C 
HETATM    7  C8  UNL     1     -38.532   5.719  45.833  1.00  0.00     0.004 C 
HETATM    8  C9  UNL     1     -37.172   6.021  45.343  1.00  0.00     0.012 C 
HETATM    9  C10 UNL     1     -39.563   7.032  43.704  1.00  0.00     0.038 C 
HETATM   10  C11 UNL     1     -38.160   7.002  43.259  1.00  0.00     0.014 C 
ENDROOT
BRANCH   1  11
HETATM   11  C1  UNL     1     -35.818   6.786  43.532  1.00  0.00     0.173 C 
BRANCH  11  12
HETATM   12  O1  UNL     1     -36.084   5.893  42.516  1.00  0.00    -0.400 OA
ATOM     13  H1  UNL     1     -35.613   6.127  41.725  1.00  0.00     0.209 HD
ENDBRANCH  11  12
ENDBRANCH   1  11
BRANCH   5  14
HETATM   14  O2  UNL     1     -41.257   7.709  45.130  1.00  0.00    -0.390 OA
ATOM     15  H2  UNL     1     -41.538   6.829  44.914  1.00  0.00     0.210 HD
ENDBRANCH   5  14
TORSDOF 3
ENDMDL
MODEL 2
REMARK VINA RESULT: -5.280586739      2.883      4.017
REMARK  3 active torsions:
REMARK  status: ('A' for Active; 'I' for Inactive)
REMARK    1  A    between atoms: O1_1  and  C1_3 
REMARK    2  A    between atoms: C1_3  and  C2_4 
REMARK    3  A    between atoms: C6_8  and  O2_9 
ROOT
HETATM    1  C2  UNL     1     -36.464   9.566  44.099  1.00  0.00    -0.019 C 
HETATM    2  C3  UNL     1     -35.797  10.656  43.392  1.00  0.00     0.012 C 
HETATM    3  C4  UNL     1     -36.358  12.006  43.368  1.00  0.00     0.004 C 
HETATM    4  C5  UNL     1     -37.076  12.578  44.491  1.00  0.00     0.038 C 
HETATM    5  C6  UNL     1     -37.258  11.779  45.743  1.00  0.00     0.058 C 
HETATM    6  C7  UNL     1     -36.024  11.327  46.415  1.00  0.00     0.038 C 
HETATM    7  C8  UNL     1     -35.970   9.820  46.557  1.00  0.00     0.004 C 
HETATM    8  C9  UNL     1     -35.664   9.098  45.305  1.00  0.00     0.012 C 
HETATM    9  C10 UNL     1     -38.270  10.715  45.448  1.00  0.00     0.038 C 
HETATM   10  C11 UNL     1     -37.916   9.735  44.409  1.00  0.00     0.014 C 
ENDROOT
BRANCH   1  11
HETATM   11  C1  UNL     1     -36.468   8.301  43.203  1.00  0.00     0.173 C 
BRANCH  11  12
HETATM   12  O1  UNL     1     -37.719   8.078  42.670  1.00  0.00    -0.400 OA
ATOM     13  H1  UNL     1     -38.331   7.798  43.341  1.00  0.00     0.209 HD
ENDBRANCH  11  12
ENDBRANCH   1  11
BRANCH   5  14
HETATM   14  O2  UNL     1     -37.913  12.664  46.647  1.00  0.00    -0.390 OA
ATOM     15  H2  UNL     1     -38.509  12.112  47.138  1.00  0.00     0.210 HD
ENDBRANCH   5  14
TORSDOF 3
ENDMDL
MODEL 3
REMARK VINA RESULT: -5.275218972      1.499      3.850
REMARK  3 active torsions:
REMARK  status: ('A' for Active; 'I' for Inactive)
REMARK    1  A    between atoms: O1_1  and  C1_3 
REMARK    2  A    between atoms: C1_3  and  C2_4 
REMARK    3  A    between atoms: C6_8  and  O2_9 
ROOT
HETATM    1  C2  UNL     1     -39.004   7.771  44.992  1.00  0.00    -0.019 C 
HETATM    2  C3  UNL     1     -39.324   9.182  44.796  1.00  0.00     0.012 C 
HETATM    3  C4  UNL     1     -38.351  10.233  45.093  1.00  0.00     0.004 C 
HETATM    4  C5  UNL     1     -36.927  10.067  44.882  1.00  0.00     0.038 C 
HETATM    5  C6  UNL     1     -36.401   8.779  44.330  1.00  0.00     0.058 C 
HETATM    6  C7  UNL     1     -36.918   8.376  43.007  1.00  0.00     0.038 C 
HETATM    7  C8  UNL     1     -37.591   7.019  43.046  1.00  0.00     0.004 C 
HETATM    8  C9  UNL     1     -38.929   7.018  43.673  1.00  0.00     0.012 C 
HETATM    9  C10 UNL     1     -36.510   7.753  45.415  1.00  0.00     0.038 C 
HETATM   10  C11 UNL     1     -37.865   7.444  45.901  1.00  0.00     0.014 C 
ENDROOT
BRANCH   1  11
HETATM   11  C1  UNL     1     -40.193   7.070  45.696  1.00  0.00     0.173 C 
BRANCH  11  12
HETATM   12  O1  UNL     1     -41.387   7.680  45.375  1.00  0.00    -0.400 OA
ATOM     13  H1  UNL     1     -42.022   7.576  46.075  1.00  0.00     0.209 HD
ENDBRANCH  11  12
ENDBRANCH   1  11
BRANCH   5  14
HETATM   14  O2  UNL     1     -35.002   8.995  44.172  1.00  0.00    -0.390 OA
ATOM     15  H2  UNL     1     -34.930   9.881  43.837  1.00  0.00     0.210 HD
ENDBRANCH   5  14
TORSDOF 3
ENDMDL
MODEL 4
REMARK VINA RESULT: -5.253531439      1.796      2.808
REMARK  3 active torsions:
REMARK  status: ('A' for Active; 'I' for Inactive)
REMARK    1  A    between atoms: O1_1  and  C1_3 
REMARK    2  A    between atoms: C1_3  and  C2_4 
REMARK    3  A    between atoms: C6_8  and  O2_9 
ROOT
HETATM    1  C2  UNL     1     -37.284   7.613  45.539  1.00  0.00    -0.019 C 
HETATM    2  C3  UNL     1     -38.030   6.609  46.292  1.00  0.00     0.012 C 
HETATM    3  C4  UNL     1     -39.456   6.770  46.574  1.00  0.00     0.004 C 
HETATM    4  C5  UNL     1     -40.373   7.402  45.646  1.00  0.00     0.038 C 
HETATM    5  C6  UNL     1     -39.870   7.912  44.332  1.00  0.00     0.058 C 
HETATM    6  C7  UNL     1     -39.233   6.918  43.446  1.00  0.00     0.038 C 
HETATM    7  C8  UNL     1     -37.808   7.295  43.094  1.00  0.00     0.004 C 
HETATM    8  C9  UNL     1     -36.833   7.088  44.185  1.00  0.00     0.012 C 
HETATM    9  C10 UNL     1     -39.070   9.146  44.612  1.00  0.00     0.038 C 
HETATM   10  C11 UNL     1     -37.872   8.984  45.451  1.00  0.00     0.014 C 
ENDROOT
BRANCH   1  11
HETATM   11  C1  UNL     1     -35.932   7.884  46.246  1.00  0.00     0.173 C 
BRANCH  11  12
HETATM   12  O1  UNL     1     -36.127   8.236  47.565  1.00  0.00    -0.400 OA
ATOM     13  H1  UNL     1     -35.448   7.869  48.119  1.00  0.00     0.209 HD
ENDBRANCH  11  12
ENDBRANCH   1  11
BRANCH   5  14
HETATM   14  O2  UNL     1     -41.033   8.377  43.653  1.00  0.00    -0.390 OA
ATOM     15  H2  UNL     1     -40.700   8.868  42.912  1.00  0.00     0.210 HD
ENDBRANCH   5  14
TORSDOF 3
ENDMDL
MODEL 5
REMARK VINA RESULT: -5.190533370      2.979      4.334
REMARK  3 active torsions:
REMARK  status: ('A' for Active; 'I' for Inactive)
REMARK    1  A    between atoms: O1_1  and  C1_3 
REMARK    2  A    between atoms: C1_3  and  C2_4 
REMARK    3  A    between atoms: C6_8  and  O2_9 
ROOT
HETATM    1  C2  UNL     1     -35.794   8.199  45.351  1.00  0.00    -0.019 C 
HETATM    2  C3  UNL     1     -36.963   8.184  44.477  1.00  0.00     0.012 C 
HETATM    3  C4  UNL     1     -38.040   9.162  44.627  1.00  0.00     0.004 C 
HETATM    4  C5  UNL     1     -37.804  10.534  45.031  1.00  0.00     0.038 C 
HETATM    5  C6  UNL     1     -36.409  11.000  45.303  1.00  0.00     0.058 C 
HETATM    6  C7  UNL     1     -35.450  10.879  44.187  1.00  0.00     0.038 C 
HETATM    7  C8  UNL     1     -34.253  10.025  44.552  1.00  0.00     0.004 C 
HETATM    8  C9  UNL     1     -34.527   8.574  44.597  1.00  0.00     0.012 C 
HETATM    9  C10 UNL     1     -35.981  10.390  46.601  1.00  0.00     0.038 C 
HETATM   10  C11 UNL     1     -35.918   8.920  46.653  1.00  0.00     0.014 C 
ENDROOT
BRANCH   1  11
HETATM   11  C1  UNL     1     -35.479   6.752  45.809  1.00  0.00     0.173 C 
BRANCH  11  12
HETATM   12  O1  UNL     1     -34.740   6.753  46.973  1.00  0.00    -0.400 OA
ATOM     13  H1  UNL     1     -35.287   6.954  47.724  1.00  0.00     0.209 HD
ENDBRANCH  11  12
ENDBRANCH   1  11
BRANCH   5  14
HETATM   14  O2  UNL     1     -36.538  12.392  45.579  1.00  0.00    -0.390 OA
ATOM     15  H2  UNL     1     -36.185  12.499  46.454  1.00  0.00     0.210 HD
ENDBRANCH   5  14
TORSDOF 3
ENDMDL
