MODEL 1
REMARK VINA RESULT: -5.803128597      0.000      0.000
REMARK  2 active torsions:
REMARK  status: ('A' for Active; 'I' for Inactive)
REMARK    1  A    between atoms: N1_2  and  C2_5 
REMARK    2  A    between atoms: C9_12  and  N2_13 
ROOT
HETATM    1  C2  UNL     1     -39.299   8.035  44.994  1.00  0.00     0.128 C 
HETATM    2  C3  UNL     1     -39.007   9.491  44.977  1.00  0.00     0.039 C 
HETATM    3  C4  UNL     1     -37.599   9.910  44.870  1.00  0.00     0.007 C 
HETATM    4  C5  UNL     1     -36.663   8.977  44.191  1.00  0.00    -0.012 C 
HETATM    5  C6  UNL     1     -37.178   8.395  42.913  1.00  0.00     0.009 C 
HETATM    6  C7  UNL     1     -37.945   7.118  43.077  1.00  0.00    -0.009 C 
HETATM    7  C8  UNL     1     -37.296   6.130  44.001  1.00  0.00     0.043 C 
HETATM    8  C9  UNL     1     -37.128   6.811  45.343  1.00  0.00     0.127 C 
HETATM    9  C10 UNL     1     -36.140   7.932  45.151  1.00  0.00     0.043 C 
HETATM   10  C11 UNL     1     -38.427   7.249  45.931  1.00  0.00     0.077 C 
HETATM   11  C12 UNL     1     -39.309   7.459  43.583  1.00  0.00     0.043 C 
ENDROOT
BRANCH   1  12
HETATM   12  N1  UNL     1     -40.687   7.874  45.424  1.00  0.00    -0.070 N 
HETATM   13  C1  UNL     1     -41.152   6.537  45.408  1.00  0.00     0.267 C 
ATOM     14  H12 UNL     1     -41.301   8.472  44.872  1.00  0.00     0.277 HD
ATOM     15  H11 UNL     1     -40.823   8.288  46.346  1.00  0.00     0.277 HD
ENDBRANCH   1  12
BRANCH   8  16
HETATM   16  N2  UNL     1     -36.500   5.851  46.240  1.00  0.00    -0.070 N 
ATOM     17  H23 UNL     1     -35.892   5.191  45.755  1.00  0.00     0.275 HD
ATOM     18  H22 UNL     1     -35.789   6.269  46.839  1.00  0.00     0.275 HD
ATOM     19  H21 UNL     1     -37.247   5.394  46.764  1.00  0.00     0.275 HD
ENDBRANCH   8  16
TORSDOF 2
ENDMDL
MODEL 2
REMARK VINA RESULT: -5.657549678      1.491      3.417
REMARK  2 active torsions:
REMARK  status: ('A' for Active; 'I' for Inactive)
REMARK    1  A    between atoms: N1_2  and  C2_5 
REMARK    2  A    between atoms: C9_12  and  N2_13 
ROOT
HETATM    1  C2  UNL     1     -37.553   6.574  45.622  1.00  0.00     0.128 C 
HETATM    2  C3  UNL     1     -38.832   6.230  46.294  1.00  0.00     0.039 C 
HETATM    3  C4  UNL     1     -39.982   7.127  46.089  1.00  0.00     0.007 C 
HETATM    4  C5  UNL     1     -40.017   7.907  44.824  1.00  0.00    -0.012 C 
HETATM    5  C6  UNL     1     -39.688   7.120  43.595  1.00  0.00     0.009 C 
HETATM    6  C7  UNL     1     -38.230   7.090  43.250  1.00  0.00    -0.009 C 
HETATM    7  C8  UNL     1     -37.552   8.425  43.341  1.00  0.00     0.043 C 
HETATM    8  C9  UNL     1     -37.740   8.929  44.757  1.00  0.00     0.127 C 
HETATM    9  C10 UNL     1     -39.212   9.182  44.945  1.00  0.00     0.043 C 
HETATM   10  C11 UNL     1     -37.151   8.012  45.775  1.00  0.00     0.077 C 
HETATM   11  C12 UNL     1     -37.557   6.120  44.167  1.00  0.00     0.043 C 
ENDROOT
BRANCH   1  12
HETATM   12  N1  UNL     1     -36.510   5.745  46.221  1.00  0.00    -0.070 N 
HETATM   13  C1  UNL     1     -35.197   6.053  45.788  1.00  0.00     0.267 C 
ATOM     14  H12 UNL     1     -36.711   4.756  46.071  1.00  0.00     0.277 HD
ATOM     15  H11 UNL     1     -36.567   5.782  47.239  1.00  0.00     0.277 HD
ENDBRANCH   1  12
BRANCH   8  16
HETATM   16  N2  UNL     1     -37.079  10.224  44.845  1.00  0.00    -0.070 N 
ATOM     17  H23 UNL     1     -36.193  10.187  45.348  1.00  0.00     0.275 HD
ATOM     18  H22 UNL     1     -36.710  10.545  43.950  1.00  0.00     0.275 HD
ATOM     19  H21 UNL     1     -37.746  10.876  45.259  1.00  0.00     0.275 HD
ENDBRANCH   8  16
TORSDOF 2
ENDMDL
MODEL 3
REMARK VINA RESULT: -5.641628124      2.539      4.177
REMARK  2 active torsions:
REMARK  status: ('A' for Active; 'I' for Inactive)
REMARK    1  A    between atoms: N1_2  and  C2_5 
REMARK    2  A    between atoms: C9_12  and  N2_13 
ROOT
HETATM    1  C2  UNL     1     -37.100  11.630  45.182  1.00  0.00     0.128 C 
HETATM    2  C3  UNL     1     -36.332  11.673  46.452  1.00  0.00     0.039 C 
HETATM    3  C4  UNL     1     -35.903  10.394  47.043  1.00  0.00     0.007 C 
HETATM    4  C5  UNL     1     -35.698   9.252  46.114  1.00  0.00    -0.012 C 
HETATM    5  C6  UNL     1     -34.933   9.587  44.873  1.00  0.00     0.009 C 
HETATM    6  C7  UNL     1     -35.782  10.049  43.727  1.00  0.00    -0.009 C 
HETATM    7  C8  UNL     1     -37.011   9.221  43.503  1.00  0.00     0.043 C 
HETATM    8  C9  UNL     1     -37.814   9.249  44.787  1.00  0.00     0.127 C 
HETATM    9  C10 UNL     1     -37.000   8.535  45.834  1.00  0.00     0.043 C 
HETATM   10  C11 UNL     1     -38.220  10.630  45.180  1.00  0.00     0.077 C 
HETATM   11  C12 UNL     1     -36.171  11.469  43.984  1.00  0.00     0.043 C 
ENDROOT
BRANCH   1  12
HETATM   12  N1  UNL     1     -37.676  12.956  44.976  1.00  0.00    -0.070 N 
HETATM   13  C1  UNL     1     -37.179  13.639  43.838  1.00  0.00     0.267 C 
ATOM     14  H12 UNL     1     -37.561  13.528  45.812  1.00  0.00     0.277 HD
ATOM     15  H11 UNL     1     -38.694  12.900  44.941  1.00  0.00     0.277 HD
ENDBRANCH   1  12
BRANCH   8  16
HETATM   16  N2  UNL     1     -39.009   8.446  44.568  1.00  0.00    -0.070 N 
ATOM     17  H23 UNL     1     -39.572   8.775  43.784  1.00  0.00     0.275 HD
ATOM     18  H22 UNL     1     -38.803   7.517  44.201  1.00  0.00     0.275 HD
ATOM     19  H21 UNL     1     -39.524   8.424  45.448  1.00  0.00     0.275 HD
ENDBRANCH   8  16
TORSDOF 2
ENDMDL
MODEL 4
REMARK VINA RESULT: -5.603166313      1.536      3.069
REMARK  2 active torsions:
REMARK  status: ('A' for Active; 'I' for Inactive)
REMARK    1  A    between atoms: N1_2  and  C2_5 
REMARK    2  A    between atoms: C9_12  and  N2_13 
ROOT
HETATM    1  C2  UNL     1     -37.649   9.138  45.018  1.00  0.00     0.128 C 
HETATM    2  C3  UNL     1     -37.099   9.035  43.642  1.00  0.00     0.039 C 
HETATM    3  C4  UNL     1     -37.350   7.794  42.891  1.00  0.00     0.007 C 
HETATM    4  C5  UNL     1     -38.573   7.024  43.239  1.00  0.00    -0.012 C 
HETATM    5  C6  UNL     1     -39.809   7.852  43.392  1.00  0.00     0.009 C 
HETATM    6  C7  UNL     1     -40.039   8.374  44.778  1.00  0.00    -0.009 C 
HETATM    7  C8  UNL     1     -39.828   7.355  45.858  1.00  0.00     0.043 C 
HETATM    8  C9  UNL     1     -38.407   6.845  45.724  1.00  0.00     0.127 C 
HETATM    9  C10 UNL     1     -38.324   6.106  44.415  1.00  0.00     0.043 C 
HETATM   10  C11 UNL     1     -37.392   7.928  45.869  1.00  0.00     0.077 C 
HETATM   11  C12 UNL     1     -39.121   9.534  44.993  1.00  0.00     0.043 C 
ENDROOT
BRANCH   1  12
HETATM   12  N1  UNL     1     -37.011  10.287  45.657  1.00  0.00    -0.070 N 
HETATM   13  C1  UNL     1     -37.670  11.521  45.434  1.00  0.00     0.267 C 
ATOM     14  H12 UNL     1     -36.032  10.351  45.378  1.00  0.00     0.277 HD
ATOM     15  H11 UNL     1     -36.897  10.119  46.657  1.00  0.00     0.277 HD
ENDBRANCH   1  12
BRANCH   8  16
HETATM   16  N2  UNL     1     -38.203   5.858  46.775  1.00  0.00    -0.070 N 
ATOM     17  H23 UNL     1     -37.400   6.066  47.368  1.00  0.00     0.275 HD
ATOM     18  H22 UNL     1     -38.917   5.895  47.502  1.00  0.00     0.275 HD
ATOM     19  H21 UNL     1     -38.139   4.945  46.323  1.00  0.00     0.275 HD
ENDBRANCH   8  16
TORSDOF 2
ENDMDL
MODEL 5
REMARK VINA RESULT: -5.513447113      2.299      3.931
REMARK  2 active torsions:
REMARK  status: ('A' for Active; 'I' for Inactive)
REMARK    1  A    between atoms: N1_2  and  C2_5 
REMARK    2  A    between atoms: C9_12  and  N2_13 
ROOT
HETATM    1  C2  UNL     1     -37.605   9.125  44.960  1.00  0.00     0.128 C 
HETATM    2  C3  UNL     1     -37.157   8.668  43.620  1.00  0.00     0.039 C 
HETATM    3  C4  UNL     1     -36.313   9.579  42.828  1.00  0.00     0.007 C 
HETATM    4  C5  UNL     1     -35.475  10.552  43.577  1.00  0.00    -0.012 C 
HETATM    5  C6  UNL     1     -34.742   9.976  44.746  1.00  0.00     0.009 C 
HETATM    6  C7  UNL     1     -35.505  10.012  46.035  1.00  0.00    -0.009 C 
HETATM    7  C8  UNL     1     -36.188  11.319  46.306  1.00  0.00     0.043 C 
HETATM    8  C9  UNL     1     -37.121  11.588  45.143  1.00  0.00     0.127 C 
HETATM    9  C10 UNL     1     -36.262  11.797  43.924  1.00  0.00     0.043 C 
HETATM   10  C11 UNL     1     -38.152  10.523  44.977  1.00  0.00     0.077 C 
HETATM   11  C12 UNL     1     -36.516   8.912  46.006  1.00  0.00     0.043 C 
ENDROOT
BRANCH   1  12
HETATM   12  N1  UNL     1     -38.663   8.218  45.398  1.00  0.00    -0.070 N 
HETATM   13  C1  UNL     1     -39.844   8.277  44.618  1.00  0.00     0.267 C 
ATOM     14  H12 UNL     1     -38.879   8.372  46.382  1.00  0.00     0.277 HD
ATOM     15  H11 UNL     1     -38.314   7.260  45.443  1.00  0.00     0.277 HD
ENDBRANCH   1  12
BRANCH   8  16
HETATM   16  N2  UNL     1     -37.786  12.856  45.407  1.00  0.00    -0.070 N 
ATOM     17  H23 UNL     1     -37.133  13.623  45.571  1.00  0.00     0.275 HD
ATOM     18  H22 UNL     1     -38.243  13.247  44.584  1.00  0.00     0.275 HD
ATOM     19  H21 UNL     1     -38.427  12.705  46.187  1.00  0.00     0.275 HD
ENDBRANCH   8  16
TORSDOF 2
ENDMDL
