MODEL 1
REMARK VINA RESULT: -5.883053015      0.000      0.000
REMARK  3 active torsions:
REMARK  status: ('A' for Active; 'I' for Inactive)
REMARK    1  A    between atoms: C7_7  and  C9_9 
REMARK    2  A    between atoms: C9_9  and  O1_10 
REMARK    3  A    between atoms: C11_13  and  O2_14 
ROOT
HETATM    1  C1  UNL     1     -40.260  14.133  53.297  1.00  0.00     0.012 C 
HETATM    2  C2  UNL     1     -39.243  14.652  52.354  1.00  0.00     0.011 C 
HETATM    3  C3  UNL     1     -39.613  14.386  50.882  1.00  0.00     0.012 C 
HETATM    4  C4  UNL     1     -38.257  14.381  50.288  1.00  0.00    -0.007 C 
HETATM    5  C5  UNL     1     -38.038  13.639  49.039  1.00  0.00     0.006 C 
HETATM    6  C6  UNL     1     -36.585  13.162  49.195  1.00  0.00     0.012 C 
HETATM    7  C7  UNL     1     -36.269  13.295  50.694  1.00  0.00    -0.016 C 
HETATM    8  C8  UNL     1     -35.338  14.425  50.954  1.00  0.00     0.018 C 
HETATM    9  C10 UNL     1     -37.598  13.387  51.270  1.00  0.00     0.029 C 
HETATM   10  C11 UNL     1     -37.865  14.002  52.548  1.00  0.00     0.127 C 
ENDROOT
BRANCH   7  11
HETATM   11  C9  UNL     1     -35.607  11.995  51.127  1.00  0.00     0.173 C 
BRANCH  11  12
HETATM   12  O1  UNL     1     -34.512  12.277  51.936  1.00  0.00    -0.400 OA
ATOM     13  H1  UNL     1     -33.982  12.954  51.530  1.00  0.00     0.209 HD
ENDBRANCH  11  12
ENDBRANCH   7  11
BRANCH  10  14
HETATM   14  O2  UNL     1     -36.945  14.885  53.047  1.00  0.00    -0.395 OA
ATOM     15  H2  UNL     1     -36.833  14.791  53.986  1.00  0.00     0.210 HD
ENDBRANCH  10  14
TORSDOF 3
ENDMDL
MODEL 2
REMARK VINA RESULT: -5.437458817      7.520      8.759
REMARK  3 active torsions:
REMARK  status: ('A' for Active; 'I' for Inactive)
REMARK    1  A    between atoms: C7_7  and  C9_9 
REMARK    2  A    between atoms: C9_9  and  O1_10 
REMARK    3  A    between atoms: C11_13  and  O2_14 
ROOT
HETATM    1  C1  UNL     1     -41.128   5.669  45.420  1.00  0.00     0.012 C 
HETATM    2  C2  UNL     1     -40.273   6.849  45.682  1.00  0.00     0.011 C 
HETATM    3  C3  UNL     1     -39.948   7.639  44.401  1.00  0.00     0.012 C 
HETATM    4  C4  UNL     1     -38.671   8.263  44.817  1.00  0.00    -0.007 C 
HETATM    5  C5  UNL     1     -37.709   8.657  43.779  1.00  0.00     0.006 C 
HETATM    6  C6  UNL     1     -36.361   8.441  44.487  1.00  0.00     0.012 C 
HETATM    7  C7  UNL     1     -36.670   7.530  45.687  1.00  0.00    -0.016 C 
HETATM    8  C8  UNL     1     -36.590   8.277  46.970  1.00  0.00     0.018 C 
HETATM    9  C10 UNL     1     -37.964   6.985  45.319  1.00  0.00     0.029 C 
HETATM   10  C11 UNL     1     -38.909   6.473  46.282  1.00  0.00     0.127 C 
ENDROOT
BRANCH   7  11
HETATM   11  C9  UNL     1     -35.625   6.425  45.688  1.00  0.00     0.173 C 
BRANCH  11  12
HETATM   12  O1  UNL     1     -34.763   6.599  46.765  1.00  0.00    -0.400 OA
ATOM     13  H1  UNL     1     -33.863   6.561  46.463  1.00  0.00     0.209 HD
ENDBRANCH  11  12
ENDBRANCH   7  11
BRANCH  10  14
HETATM   14  O2  UNL     1     -38.791   6.880  47.585  1.00  0.00    -0.395 OA
ATOM     15  H2  UNL     1     -39.258   6.306  48.181  1.00  0.00     0.210 HD
ENDBRANCH  10  14
TORSDOF 3
ENDMDL
MODEL 3
REMARK VINA RESULT: -5.432576494      6.501      8.420
REMARK  3 active torsions:
REMARK  status: ('A' for Active; 'I' for Inactive)
REMARK    1  A    between atoms: C7_7  and  C9_9 
REMARK    2  A    between atoms: C9_9  and  O1_10 
REMARK    3  A    between atoms: C11_13  and  O2_14 
ROOT
HETATM    1  C1  UNL     1     -35.763  14.637  42.198  1.00  0.00     0.012 C 
HETATM    2  C2  UNL     1     -36.567  13.452  42.574  1.00  0.00     0.011 C 
HETATM    3  C3  UNL     1     -37.179  13.577  43.982  1.00  0.00     0.012 C 
HETATM    4  C4  UNL     1     -37.315  12.141  44.317  1.00  0.00    -0.007 C 
HETATM    5  C5  UNL     1     -37.334  11.746  45.731  1.00  0.00     0.006 C 
HETATM    6  C6  UNL     1     -36.661  10.364  45.692  1.00  0.00     0.012 C 
HETATM    7  C7  UNL     1     -35.930  10.303  44.340  1.00  0.00    -0.016 C 
HETATM    8  C8  UNL     1     -36.612   9.379  43.395  1.00  0.00     0.018 C 
HETATM    9  C10 UNL     1     -35.874  11.705  43.971  1.00  0.00     0.029 C 
HETATM   10  C11 UNL     1     -35.739  12.159  42.607  1.00  0.00     0.127 C 
ENDROOT
BRANCH   7  11
HETATM   11  C9  UNL     1     -34.526   9.785  44.616  1.00  0.00     0.173 C 
BRANCH  11  12
HETATM   12  O1  UNL     1     -33.719  10.833  45.045  1.00  0.00    -0.400 OA
ATOM     13  H1  UNL     1     -34.115  11.252  45.801  1.00  0.00     0.209 HD
ENDBRANCH  11  12
ENDBRANCH   7  11
BRANCH  10  14
HETATM   14  O2  UNL     1     -36.089  11.298  41.600  1.00  0.00    -0.395 OA
ATOM     15  H2  UNL     1     -35.455  10.599  41.493  1.00  0.00     0.210 HD
ENDBRANCH  10  14
TORSDOF 3
ENDMDL
MODEL 4
REMARK VINA RESULT: -5.321967305      2.425      4.276
REMARK  3 active torsions:
REMARK  status: ('A' for Active; 'I' for Inactive)
REMARK    1  A    between atoms: C7_7  and  C9_9 
REMARK    2  A    between atoms: C9_9  and  O1_10 
REMARK    3  A    between atoms: C11_13  and  O2_14 
ROOT
HETATM    1  C1  UNL     1     -36.866  12.316  45.788  1.00  0.00     0.012 C 
HETATM    2  C2  UNL     1     -37.095  12.106  47.236  1.00  0.00     0.011 C 
HETATM    3  C3  UNL     1     -37.664  13.358  47.931  1.00  0.00     0.012 C 
HETATM    4  C4  UNL     1     -37.181  13.111  49.309  1.00  0.00    -0.007 C 
HETATM    5  C5  UNL     1     -36.995  14.258  50.206  1.00  0.00     0.006 C 
HETATM    6  C6  UNL     1     -35.811  13.803  51.075  1.00  0.00     0.012 C 
HETATM    7  C7  UNL     1     -35.158  12.644  50.302  1.00  0.00    -0.016 C 
HETATM    8  C8  UNL     1     -35.422  11.337  50.960  1.00  0.00     0.018 C 
HETATM    9  C10 UNL     1     -35.700  12.835  48.969  1.00  0.00     0.029 C 
HETATM   10  C11 UNL     1     -35.804  11.772  47.998  1.00  0.00     0.127 C 
ENDROOT
BRANCH   7  11
HETATM   11  C9  UNL     1     -33.659  12.903  50.293  1.00  0.00     0.173 C 
BRANCH  11  12
HETATM   12  O1  UNL     1     -33.414  14.236  50.605  1.00  0.00    -0.400 OA
ATOM     13  H1  UNL     1     -34.055  14.787  50.171  1.00  0.00     0.209 HD
ENDBRANCH  11  12
ENDBRANCH   7  11
BRANCH  10  14
HETATM   14  O2  UNL     1     -35.793  10.479  48.450  1.00  0.00    -0.395 OA
ATOM     15  H2  UNL     1     -36.183  10.399  49.312  1.00  0.00     0.210 HD
ENDBRANCH  10  14
TORSDOF 3
ENDMDL
MODEL 5
REMARK VINA RESULT: -5.305941629      5.832      8.192
REMARK  3 active torsions:
REMARK  status: ('A' for Active; 'I' for Inactive)
REMARK    1  A    between atoms: C7_7  and  C9_9 
REMARK    2  A    between atoms: C9_9  and  O1_10 
REMARK    3  A    between atoms: C11_13  and  O2_14 
ROOT
HETATM    1  C1  UNL     1     -33.517   9.061  43.766  1.00  0.00     0.012 C 
HETATM    2  C2  UNL     1     -34.906   9.536  43.574  1.00  0.00     0.011 C 
HETATM    3  C3  UNL     1     -34.976  10.853  42.778  1.00  0.00     0.012 C 
HETATM    4  C4  UNL     1     -36.260  11.380  43.292  1.00  0.00    -0.007 C 
HETATM    5  C5  UNL     1     -36.492  12.830  43.258  1.00  0.00     0.006 C 
HETATM    6  C6  UNL     1     -37.367  13.049  44.502  1.00  0.00     0.012 C 
HETATM    7  C7  UNL     1     -37.179  11.789  45.363  1.00  0.00    -0.016 C 
HETATM    8  C8  UNL     1     -38.395  10.933  45.345  1.00  0.00     0.018 C 
HETATM    9  C10 UNL     1     -35.965  11.226  44.800  1.00  0.00     0.029 C 
HETATM   10  C11 UNL     1     -35.623   9.827  44.901  1.00  0.00     0.127 C 
ENDROOT
BRANCH   7  11
HETATM   11  C9  UNL     1     -36.920  12.256  46.787  1.00  0.00     0.173 C 
BRANCH  11  12
HETATM   12  O1  UNL     1     -38.071  12.844  47.301  1.00  0.00    -0.400 OA
ATOM     13  H1  UNL     1     -38.576  12.194  47.776  1.00  0.00     0.209 HD
ENDBRANCH  11  12
ENDBRANCH   7  11
BRANCH  10  14
HETATM   14  O2  UNL     1     -36.628   8.930  45.151  1.00  0.00    -0.395 OA
ATOM     15  H2  UNL     1     -37.100   9.137  45.949  1.00  0.00     0.210 HD
ENDBRANCH  10  14
TORSDOF 3
ENDMDL
