MODEL 1
REMARK VINA RESULT: -6.750232241      0.000      0.000
REMARK  5 active torsions:
REMARK  status: ('A' for Active; 'I' for Inactive)
REMARK    1  A    between atoms: C2_2  and  N1_5 
REMARK    2  A    between atoms: N1_5  and  C5_6 
REMARK    3  A    between atoms: N1_5  and  C10_12 
REMARK    4  A    between atoms: N2_16  and  C14_17 
REMARK    5  A    between atoms: C14_17  and  C15_18 
ROOT
HETATM    1  N1  UNL     1      -4.246   3.265  13.850  1.00  0.00    -0.368 N 
ENDROOT
BRANCH   1   2
HETATM    2  C2  UNL     1      -3.479   4.457  13.894  1.00  0.00     0.022 C 
HETATM    3  C1  UNL     1      -4.151   5.492  14.848  1.00  0.00     0.037 C 
HETATM    4  C3  UNL     1      -2.092   4.402  14.422  1.00  0.00     0.037 C 
HETATM    5  C4  UNL     1      -3.474   5.305  12.626  1.00  0.00     0.037 C 
ENDBRANCH   1   2
BRANCH   1   6
HETATM    6  C5  UNL     1      -4.836   2.854  15.081  1.00  0.00    -0.013 C 
HETATM    7  C6  UNL     1      -4.093   1.855  15.907  1.00  0.00     0.062 C 
HETATM    8  C7  UNL     1      -5.030   1.086  16.845  1.00  0.00     0.079 C 
HETATM    9  S1  UNL     1      -6.117   2.194  17.771  1.00  0.00    -0.168 SA
HETATM   10  C8  UNL     1      -6.795   3.387  16.561  1.00  0.00     0.079 C 
HETATM   11  C9  UNL     1      -6.328   2.805  15.195  1.00  0.00     0.062 C 
ENDBRANCH   1   6
BRANCH   1  12
HETATM   12  C10 UNL     1      -4.055   2.345  12.832  1.00  0.00     0.057 C 
HETATM   13  C11 UNL     1      -2.733   2.400  12.101  1.00  0.00     0.040 C 
HETATM   14  C12 UNL     1      -5.119   2.314  11.724  1.00  0.00     0.063 C 
HETATM   15  C13 UNL     1      -4.904   0.973  11.035  1.00  0.00     0.275 C 
HETATM   16  N2  UNL     1      -3.947   0.278  11.887  1.00  0.00     0.101 N 
HETATM   17  C16 UNL     1      -4.295   0.875  13.161  1.00  0.00     0.303 C 
BRANCH  16  18
HETATM   18  C14 UNL     1      -4.210  -1.147  11.885  1.00  0.00     0.385 C 
BRANCH  18  19
HETATM   19  C15 UNL     1      -2.968  -1.874  11.564  1.00  0.00     0.202 C 
HETATM   20  O1  UNL     1      -1.900  -1.240  11.227  1.00  0.00    -0.647 OA
HETATM   21  O2  UNL     1      -2.939  -3.252  11.625  1.00  0.00    -0.647 OA
ENDBRANCH  18  19
ENDBRANCH  16  18
ENDBRANCH   1  12
TORSDOF 5
ENDMDL
MODEL 2
REMARK VINA RESULT: -6.419387417      3.605      5.255
REMARK  5 active torsions:
REMARK  status: ('A' for Active; 'I' for Inactive)
REMARK    1  A    between atoms: C2_2  and  N1_5 
REMARK    2  A    between atoms: N1_5  and  C5_6 
REMARK    3  A    between atoms: N1_5  and  C10_12 
REMARK    4  A    between atoms: N2_16  and  C14_17 
REMARK    5  A    between atoms: C14_17  and  C15_18 
ROOT
HETATM    1  N1  UNL     1      -3.997   4.006  12.492  1.00  0.00    -0.368 N 
ENDROOT
BRANCH   1   2
HETATM    2  C2  UNL     1      -3.667   3.124  11.431  1.00  0.00     0.022 C 
HETATM    3  C1  UNL     1      -3.486   3.925  10.105  1.00  0.00     0.037 C 
HETATM    4  C3  UNL     1      -2.400   2.352  11.504  1.00  0.00     0.037 C 
HETATM    5  C4  UNL     1      -4.773   2.183  10.965  1.00  0.00     0.037 C 
ENDBRANCH   1   2
BRANCH   1   6
HETATM    6  C5  UNL     1      -3.551   5.351  12.350  1.00  0.00    -0.013 C 
HETATM    7  C6  UNL     1      -2.280   5.738  13.034  1.00  0.00     0.062 C 
HETATM    8  C7  UNL     1      -2.214   7.246  13.296  1.00  0.00     0.079 C 
HETATM    9  S1  UNL     1      -2.614   8.207  11.819  1.00  0.00    -0.168 SA
HETATM   10  C8  UNL     1      -4.124   7.459  11.106  1.00  0.00     0.079 C 
HETATM   11  C9  UNL     1      -4.564   6.445  12.202  1.00  0.00     0.062 C 
ENDBRANCH   1   6
BRANCH   1  12
HETATM   12  C10 UNL     1      -4.308   3.508  13.747  1.00  0.00     0.057 C 
HETATM   13  C11 UNL     1      -5.532   4.080  14.426  1.00  0.00     0.040 C 
HETATM   14  C12 UNL     1      -3.199   3.575  14.808  1.00  0.00     0.063 C 
HETATM   15  C13 UNL     1      -3.647   2.592  15.881  1.00  0.00     0.275 C 
HETATM   16  N2  UNL     1      -4.789   1.906  15.290  1.00  0.00     0.101 N 
HETATM   17  C16 UNL     1      -4.413   1.992  13.893  1.00  0.00     0.303 C 
BRANCH  16  18
HETATM   18  C14 UNL     1      -4.839   0.529  15.737  1.00  0.00     0.385 C 
BRANCH  18  19
HETATM   19  C15 UNL     1      -5.765   0.417  16.879  1.00  0.00     0.202 C 
HETATM   20  O1  UNL     1      -5.324   0.406  18.088  1.00  0.00    -0.647 OA
HETATM   21  O2  UNL     1      -7.124   0.325  16.660  1.00  0.00    -0.647 OA
ENDBRANCH  18  19
ENDBRANCH  16  18
ENDBRANCH   1  12
TORSDOF 5
ENDMDL
MODEL 3
REMARK VINA RESULT: -6.356915420      3.456      5.259
REMARK  5 active torsions:
REMARK  status: ('A' for Active; 'I' for Inactive)
REMARK    1  A    between atoms: C2_2  and  N1_5 
REMARK    2  A    between atoms: N1_5  and  C5_6 
REMARK    3  A    between atoms: N1_5  and  C10_12 
REMARK    4  A    between atoms: N2_16  and  C14_17 
REMARK    5  A    between atoms: C14_17  and  C15_18 
ROOT
HETATM    1  N1  UNL     1      -3.687   4.811  13.032  1.00  0.00    -0.368 N 
ENDROOT
BRANCH   1   2
HETATM    2  C2  UNL     1      -2.684   5.488  13.772  1.00  0.00     0.022 C 
HETATM    3  C1  UNL     1      -1.647   6.133  12.801  1.00  0.00     0.037 C 
HETATM    4  C3  UNL     1      -3.072   6.640  14.624  1.00  0.00     0.037 C 
HETATM    5  C4  UNL     1      -1.720   4.610  14.564  1.00  0.00     0.037 C 
ENDBRANCH   1   2
BRANCH   1   6
HETATM    6  C5  UNL     1      -4.029   5.381  11.772  1.00  0.00    -0.013 C 
HETATM    7  C6  UNL     1      -5.097   6.426  11.749  1.00  0.00     0.062 C 
HETATM    8  C7  UNL     1      -5.759   6.530  10.371  1.00  0.00     0.079 C 
HETATM    9  S1  UNL     1      -4.539   6.649   9.043  1.00  0.00    -0.168 SA
HETATM   10  C8  UNL     1      -3.286   5.357   9.371  1.00  0.00     0.079 C 
HETATM   11  C9  UNL     1      -3.920   4.543  10.536  1.00  0.00     0.062 C 
ENDBRANCH   1   6
BRANCH   1  12
HETATM   12  C10 UNL     1      -4.574   3.958  13.670  1.00  0.00     0.057 C 
HETATM   13  C11 UNL     1      -5.146   2.826  12.847  1.00  0.00     0.040 C 
HETATM   14  C12 UNL     1      -5.790   4.610  14.346  1.00  0.00     0.063 C 
HETATM   15  C13 UNL     1      -6.304   3.544  15.303  1.00  0.00     0.275 C 
HETATM   16  N2  UNL     1      -5.277   2.509  15.277  1.00  0.00     0.101 N 
HETATM   17  C16 UNL     1      -4.122   3.337  14.988  1.00  0.00     0.303 C 
BRANCH  16  18
HETATM   18  C14 UNL     1      -5.161   1.880  16.577  1.00  0.00     0.385 C 
BRANCH  18  19
HETATM   19  C15 UNL     1      -5.346   0.424  16.436  1.00  0.00     0.202 C 
HETATM   20  O1  UNL     1      -5.998  -0.247  17.318  1.00  0.00    -0.647 OA
HETATM   21  O2  UNL     1      -4.818  -0.236  15.344  1.00  0.00    -0.647 OA
ENDBRANCH  18  19
ENDBRANCH  16  18
ENDBRANCH   1  12
TORSDOF 5
ENDMDL
MODEL 4
REMARK VINA RESULT: -6.315550109      2.843      4.729
REMARK  5 active torsions:
REMARK  status: ('A' for Active; 'I' for Inactive)
REMARK    1  A    between atoms: C2_2  and  N1_5 
REMARK    2  A    between atoms: N1_5  and  C5_6 
REMARK    3  A    between atoms: N1_5  and  C10_12 
REMARK    4  A    between atoms: N2_16  and  C14_17 
REMARK    5  A    between atoms: C14_17  and  C15_18 
ROOT
HETATM    1  N1  UNL     1      -3.716   2.475  12.818  1.00  0.00    -0.368 N 
ENDROOT
BRANCH   1   2
HETATM    2  C2  UNL     1      -3.902   1.307  12.034  1.00  0.00     0.022 C 
HETATM    3  C1  UNL     1      -4.185   0.082  12.957  1.00  0.00     0.037 C 
HETATM    4  C3  UNL     1      -5.043   1.251  11.084  1.00  0.00     0.037 C 
HETATM    5  C4  UNL     1      -2.665   0.763  11.327  1.00  0.00     0.037 C 
ENDBRANCH   1   2
BRANCH   1   6
HETATM    6  C5  UNL     1      -4.455   2.536  14.035  1.00  0.00    -0.013 C 
HETATM    7  C6  UNL     1      -5.777   3.232  14.009  1.00  0.00     0.062 C 
HETATM    8  C7  UNL     1      -6.181   3.732  15.401  1.00  0.00     0.079 C 
HETATM    9  S1  UNL     1      -6.015   2.442  16.656  1.00  0.00    -0.168 SA
HETATM   10  C8  UNL     1      -4.379   1.667  16.391  1.00  0.00     0.079 C 
HETATM   11  C9  UNL     1      -3.716   2.600  15.336  1.00  0.00     0.062 C 
ENDBRANCH   1   6
BRANCH   1  12
HETATM   12  C10 UNL     1      -3.234   3.638  12.240  1.00  0.00     0.057 C 
HETATM   13  C11 UNL     1      -1.733   3.764  12.106  1.00  0.00     0.040 C 
HETATM   14  C12 UNL     1      -3.687   4.961  12.876  1.00  0.00     0.063 C 
HETATM   15  C13 UNL     1      -3.394   6.009  11.810  1.00  0.00     0.275 C 
HETATM   16  N2  UNL     1      -3.031   5.234  10.630  1.00  0.00     0.101 N 
HETATM   17  C16 UNL     1      -3.815   4.041  10.888  1.00  0.00     0.303 C 
BRANCH  16  18
HETATM   18  C14 UNL     1      -3.478   5.906   9.427  1.00  0.00     0.385 C 
BRANCH  18  19
HETATM   19  C15 UNL     1      -3.213   5.046   8.259  1.00  0.00     0.202 C 
HETATM   20  O1  UNL     1      -4.129   4.821   7.383  1.00  0.00    -0.647 OA
HETATM   21  O2  UNL     1      -1.969   4.473   8.091  1.00  0.00    -0.647 OA
ENDBRANCH  18  19
ENDBRANCH  16  18
ENDBRANCH   1  12
TORSDOF 5
ENDMDL
MODEL 5
REMARK VINA RESULT: -6.292633510      1.104      1.252
REMARK  5 active torsions:
REMARK  status: ('A' for Active; 'I' for Inactive)
REMARK    1  A    between atoms: C2_2  and  N1_5 
REMARK    2  A    between atoms: N1_5  and  C5_6 
REMARK    3  A    between atoms: N1_5  and  C10_12 
REMARK    4  A    between atoms: N2_16  and  C14_17 
REMARK    5  A    between atoms: C14_17  and  C15_18 
ROOT
HETATM    1  N1  UNL     1      -4.207   4.056  13.784  1.00  0.00    -0.368 N 
ENDROOT
BRANCH   1   2
HETATM    2  C2  UNL     1      -3.575   5.311  13.978  1.00  0.00     0.022 C 
HETATM    3  C1  UNL     1      -4.223   6.055  15.186  1.00  0.00     0.037 C 
HETATM    4  C3  UNL     1      -2.133   5.345  14.329  1.00  0.00     0.037 C 
HETATM    5  C4  UNL     1      -3.833   6.370  12.910  1.00  0.00     0.037 C 
ENDBRANCH   1   2
BRANCH   1   6
HETATM    6  C5  UNL     1      -4.748   3.440  14.949  1.00  0.00    -0.013 C 
HETATM    7  C6  UNL     1      -3.903   2.433  15.659  1.00  0.00     0.062 C 
HETATM    8  C7  UNL     1      -4.753   1.463  16.487  1.00  0.00     0.079 C 
HETATM    9  S1  UNL     1      -5.949   2.331  17.527  1.00  0.00    -0.168 SA
HETATM   10  C8  UNL     1      -6.751   3.583  16.460  1.00  0.00     0.079 C 
HETATM   11  C9  UNL     1      -6.227   3.221  15.040  1.00  0.00     0.062 C 
ENDBRANCH   1   6
BRANCH   1  12
HETATM   12  C10 UNL     1      -3.916   3.290  12.667  1.00  0.00     0.057 C 
HETATM   13  C11 UNL     1      -2.453   3.074  12.349  1.00  0.00     0.040 C 
HETATM   14  C12 UNL     1      -4.548   3.738  11.340  1.00  0.00     0.063 C 
HETATM   15  C13 UNL     1      -4.436   2.516  10.439  1.00  0.00     0.275 C 
HETATM   16  N2  UNL     1      -3.986   1.451  11.327  1.00  0.00     0.101 N 
HETATM   17  C16 UNL     1      -4.577   1.918  12.566  1.00  0.00     0.303 C 
BRANCH  16  18
HETATM   18  C14 UNL     1      -4.551   0.181  10.921  1.00  0.00     0.385 C 
BRANCH  18  19
HETATM   19  C15 UNL     1      -4.033  -0.888  11.795  1.00  0.00     0.202 C 
HETATM   20  O1  UNL     1      -4.483  -1.040  12.991  1.00  0.00    -0.647 OA
HETATM   21  O2  UNL     1      -3.055  -1.745  11.332  1.00  0.00    -0.647 OA
ENDBRANCH  18  19
ENDBRANCH  16  18
ENDBRANCH   1  12
TORSDOF 5
ENDMDL
