MODEL 1
REMARK VINA RESULT: -6.734340653      0.000      0.000
REMARK  6 active torsions:
REMARK  status: ('A' for Active; 'I' for Inactive)
REMARK    1  A    between atoms: C2_2  and  O1_3 
REMARK    2  A    between atoms: O1_3  and  C3_4 
REMARK    3  A    between atoms: C3_4  and  C4_5 
REMARK    4  A    between atoms: N1_6  and  C5_8 
REMARK    5  A    between atoms: C8_11  and  C9_12 
REMARK    6  A    between atoms: C14_18  and  O3_19 
ROOT
HETATM    1  C5  UNL     1      -2.933   2.421  12.154  1.00  0.00     0.090 C 
HETATM    2  C6  UNL     1      -3.805   1.207  12.376  1.00  0.00     0.010 C 
HETATM    3  C7  UNL     1      -3.733   0.870  13.821  1.00  0.00     0.019 C 
HETATM    4  C8  UNL     1      -4.852   1.574  14.597  1.00  0.00     0.065 C 
HETATM    5  C11 UNL     1      -5.018   2.982  14.207  1.00  0.00    -0.016 C 
HETATM    6  C12 UNL     1      -6.143   3.686  14.875  1.00  0.00     0.014 C 
HETATM    7  C13 UNL     1      -5.979   5.100  14.326  1.00  0.00     0.033 C 
HETATM    8  C14 UNL     1      -4.525   5.303  14.119  1.00  0.00     0.127 C 
HETATM    9  C15 UNL     1      -3.888   3.901  14.031  1.00  0.00    -0.003 C 
HETATM   10  C16 UNL     1      -2.704   3.837  14.888  1.00  0.00     0.019 C 
HETATM   11  C17 UNL     1      -3.795   3.543  12.595  1.00  0.00     0.025 C 
HETATM   12  C18 UNL     1      -5.225   3.025  12.697  1.00  0.00     0.003 C 
HETATM   13  C19 UNL     1      -5.181   1.683  12.041  1.00  0.00     0.012 C 
ENDROOT
BRANCH   1  14
HETATM   14  N1  UNL     1      -2.501   2.548  10.790  1.00  0.00    -0.395 N 
HETATM   15  C4  UNL     1      -1.373   2.974  10.430  1.00  0.00     0.082 C 
ATOM     16  H1  UNL     1      -3.158   2.273  10.060  1.00  0.00     0.159 HD
BRANCH  15  17
HETATM   17  C3  UNL     1      -0.302   3.414  11.339  1.00  0.00     0.211 C 
BRANCH  17  18
HETATM   18  O1  UNL     1       0.004   4.764  11.214  1.00  0.00    -0.387 OA
BRANCH  18  19
HETATM   19  C2  UNL     1      -0.515   5.407  12.343  1.00  0.00     0.163 C 
HETATM   20  C1  UNL     1      -1.576   6.411  11.969  1.00  0.00     0.033 C 
ENDBRANCH  18  19
ENDBRANCH  17  18
ENDBRANCH  15  17
ENDBRANCH   1  14
BRANCH   4  21
HETATM   21  C9  UNL     1      -4.717   1.258  16.026  1.00  0.00     0.128 C 
HETATM   22  C10 UNL     1      -5.722   1.391  17.092  1.00  0.00     0.091 C 
HETATM   23  O2  UNL     1      -3.617   0.817  16.408  1.00  0.00    -0.298 OA
ENDBRANCH   4  21
BRANCH   8  24
HETATM   24  O3  UNL     1      -3.944   6.047  15.143  1.00  0.00    -0.395 OA
ATOM     25  H3  UNL     1      -3.197   6.551  14.842  1.00  0.00     0.210 HD
ENDBRANCH   8  24
TORSDOF 6
ENDMDL
MODEL 2
REMARK VINA RESULT: -6.598740163      0.878      1.251
REMARK  6 active torsions:
REMARK  status: ('A' for Active; 'I' for Inactive)
REMARK    1  A    between atoms: C2_2  and  O1_3 
REMARK    2  A    between atoms: O1_3  and  C3_4 
REMARK    3  A    between atoms: C3_4  and  C4_5 
REMARK    4  A    between atoms: N1_6  and  C5_8 
REMARK    5  A    between atoms: C8_11  and  C9_12 
REMARK    6  A    between atoms: C14_18  and  O3_19 
ROOT
HETATM    1  C5  UNL     1      -2.923   2.480  12.111  1.00  0.00     0.090 C 
HETATM    2  C6  UNL     1      -3.782   1.252  12.305  1.00  0.00     0.010 C 
HETATM    3  C7  UNL     1      -3.708   0.885  13.743  1.00  0.00     0.019 C 
HETATM    4  C8  UNL     1      -4.835   1.561  14.532  1.00  0.00     0.065 C 
HETATM    5  C11 UNL     1      -5.015   2.975  14.172  1.00  0.00    -0.016 C 
HETATM    6  C12 UNL     1      -6.149   3.654  14.853  1.00  0.00     0.014 C 
HETATM    7  C13 UNL     1      -5.999   5.081  14.335  1.00  0.00     0.033 C 
HETATM    8  C14 UNL     1      -4.547   5.303  14.134  1.00  0.00     0.127 C 
HETATM    9  C15 UNL     1      -3.896   3.910  14.017  1.00  0.00    -0.003 C 
HETATM   10  C16 UNL     1      -2.712   3.840  14.874  1.00  0.00     0.019 C 
HETATM   11  C17 UNL     1      -3.797   3.582  12.573  1.00  0.00     0.025 C 
HETATM   12  C18 UNL     1      -5.222   3.049  12.663  1.00  0.00     0.003 C 
HETATM   13  C19 UNL     1      -5.164   1.721  11.979  1.00  0.00     0.012 C 
ENDROOT
BRANCH   1  14
HETATM   14  N1  UNL     1      -2.491   2.640  10.750  1.00  0.00    -0.395 N 
HETATM   15  C4  UNL     1      -1.337   2.999  10.400  1.00  0.00     0.082 C 
ATOM     16  H1  UNL     1      -3.171   2.449  10.013  1.00  0.00     0.159 HD
BRANCH  15  17
HETATM   17  C3  UNL     1      -0.232   3.316  11.318  1.00  0.00     0.211 C 
BRANCH  17  18
HETATM   18  O1  UNL     1       0.433   4.491  10.992  1.00  0.00    -0.387 OA
BRANCH  18  19
HETATM   19  C2  UNL     1       1.804   4.209  11.029  1.00  0.00     0.163 C 
HETATM   20  C1  UNL     1       2.338   3.883   9.657  1.00  0.00     0.033 C 
ENDBRANCH  18  19
ENDBRANCH  17  18
ENDBRANCH  15  17
ENDBRANCH   1  14
BRANCH   4  21
HETATM   21  C9  UNL     1      -4.698   1.216  15.955  1.00  0.00     0.128 C 
HETATM   22  C10 UNL     1      -5.710   1.305  17.019  1.00  0.00     0.091 C 
HETATM   23  O2  UNL     1      -3.591   0.791  16.331  1.00  0.00    -0.298 OA
ENDBRANCH   4  21
BRANCH   8  24
HETATM   24  O3  UNL     1      -3.974   6.031  15.174  1.00  0.00    -0.395 OA
ATOM     25  H3  UNL     1      -3.900   6.955  14.968  1.00  0.00     0.210 HD
ENDBRANCH   8  24
TORSDOF 6
ENDMDL
MODEL 3
REMARK VINA RESULT: -6.380156138      2.135      5.401
REMARK  6 active torsions:
REMARK  status: ('A' for Active; 'I' for Inactive)
REMARK    1  A    between atoms: C2_2  and  O1_3 
REMARK    2  A    between atoms: O1_3  and  C3_4 
REMARK    3  A    between atoms: C3_4  and  C4_5 
REMARK    4  A    between atoms: N1_6  and  C5_8 
REMARK    5  A    between atoms: C8_11  and  C9_12 
REMARK    6  A    between atoms: C14_18  and  O3_19 
ROOT
HETATM    1  C5  UNL     1      -4.040   2.514  13.391  1.00  0.00     0.090 C 
HETATM    2  C6  UNL     1      -3.693   2.570  11.922  1.00  0.00     0.010 C 
HETATM    3  C7  UNL     1      -4.585   3.580  11.296  1.00  0.00     0.019 C 
HETATM    4  C8  UNL     1      -3.926   4.964  11.306  1.00  0.00     0.065 C 
HETATM    5  C11 UNL     1      -3.290   5.284  12.591  1.00  0.00    -0.016 C 
HETATM    6  C12 UNL     1      -2.568   6.582  12.626  1.00  0.00     0.014 C 
HETATM    7  C13 UNL     1      -2.119   6.637  14.083  1.00  0.00     0.033 C 
HETATM    8  C14 UNL     1      -3.164   5.941  14.870  1.00  0.00     0.127 C 
HETATM    9  C15 UNL     1      -3.934   5.037  13.886  1.00  0.00    -0.003 C 
HETATM   10  C16 UNL     1      -5.375   5.213  14.073  1.00  0.00     0.019 C 
HETATM   11  C17 UNL     1      -3.329   3.685  13.953  1.00  0.00     0.025 C 
HETATM   12  C18 UNL     1      -2.313   4.159  12.920  1.00  0.00     0.003 C 
HETATM   13  C19 UNL     1      -2.283   3.066  11.901  1.00  0.00     0.012 C 
ENDROOT
BRANCH   1  14
HETATM   14  N1  UNL     1      -3.649   1.274  14.003  1.00  0.00    -0.395 N 
HETATM   15  C4  UNL     1      -4.229   0.744  14.986  1.00  0.00     0.082 C 
ATOM     16  H1  UNL     1      -2.842   0.788  13.611  1.00  0.00     0.159 HD
BRANCH  15  17
HETATM   17  C3  UNL     1      -5.403   1.297  15.678  1.00  0.00     0.211 C 
BRANCH  17  18
HETATM   18  O1  UNL     1      -6.191   0.326  16.284  1.00  0.00    -0.387 OA
BRANCH  18  19
HETATM   19  C2  UNL     1      -7.054   0.990  17.163  1.00  0.00     0.163 C 
HETATM   20  C1  UNL     1      -6.317   2.002  18.003  1.00  0.00     0.033 C 
ENDBRANCH  18  19
ENDBRANCH  17  18
ENDBRANCH  15  17
ENDBRANCH   1  14
BRANCH   4  21
HETATM   21  C9  UNL     1      -4.858   5.943  10.726  1.00  0.00     0.128 C 
HETATM   22  C10 UNL     1      -4.833   7.409  10.842  1.00  0.00     0.091 C 
HETATM   23  O2  UNL     1      -5.797   5.496  10.044  1.00  0.00    -0.298 OA
ENDBRANCH   4  21
BRANCH   8  24
HETATM   24  O3  UNL     1      -4.027   6.830  15.505  1.00  0.00    -0.395 OA
ATOM     25  H3  UNL     1      -4.666   7.202  14.907  1.00  0.00     0.210 HD
ENDBRANCH   8  24
TORSDOF 6
ENDMDL
MODEL 4
REMARK VINA RESULT: -6.162475398      2.131      5.307
REMARK  6 active torsions:
REMARK  status: ('A' for Active; 'I' for Inactive)
REMARK    1  A    between atoms: C2_2  and  O1_3 
REMARK    2  A    between atoms: O1_3  and  C3_4 
REMARK    3  A    between atoms: C3_4  and  C4_5 
REMARK    4  A    between atoms: N1_6  and  C5_8 
REMARK    5  A    between atoms: C8_11  and  C9_12 
REMARK    6  A    between atoms: C14_18  and  O3_19 
ROOT
HETATM    1  C5  UNL     1      -4.052   3.560  13.976  1.00  0.00     0.090 C 
HETATM    2  C6  UNL     1      -3.218   4.480  14.836  1.00  0.00     0.010 C 
HETATM    3  C7  UNL     1      -1.925   4.688  14.134  1.00  0.00     0.019 C 
HETATM    4  C8  UNL     1      -1.996   5.919  13.224  1.00  0.00     0.065 C 
HETATM    5  C11 UNL     1      -3.241   5.982  12.445  1.00  0.00    -0.016 C 
HETATM    6  C12 UNL     1      -3.392   7.200  11.606  1.00  0.00     0.014 C 
HETATM    7  C13 UNL     1      -4.707   6.908  10.889  1.00  0.00     0.033 C 
HETATM    8  C14 UNL     1      -4.771   5.437  10.712  1.00  0.00     0.127 C 
HETATM    9  C15 UNL     1      -3.807   4.822  11.747  1.00  0.00    -0.003 C 
HETATM   10  C16 UNL     1      -2.956   3.823  11.102  1.00  0.00     0.019 C 
HETATM   11  C17 UNL     1      -4.606   4.467  12.945  1.00  0.00     0.025 C 
HETATM   12  C18 UNL     1      -4.408   5.901  13.424  1.00  0.00     0.003 C 
HETATM   13  C19 UNL     1      -3.990   5.760  14.853  1.00  0.00     0.012 C 
ENDROOT
BRANCH   1  14
HETATM   14  N1  UNL     1      -5.069   2.876  14.727  1.00  0.00    -0.395 N 
HETATM   15  C4  UNL     1      -5.106   1.633  14.920  1.00  0.00     0.082 C 
ATOM     16  H1  UNL     1      -5.816   3.440  15.132  1.00  0.00     0.159 HD
BRANCH  15  17
HETATM   17  C3  UNL     1      -4.118   0.666  14.416  1.00  0.00     0.211 C 
BRANCH  17  18
HETATM   18  O1  UNL     1      -4.592  -0.100  13.358  1.00  0.00    -0.387 OA
BRANCH  18  19
HETATM   19  C2  UNL     1      -3.951   0.359  12.202  1.00  0.00     0.163 C 
HETATM   20  C1  UNL     1      -4.944   0.711  11.122  1.00  0.00     0.033 C 
ENDBRANCH  18  19
ENDBRANCH  17  18
ENDBRANCH  15  17
ENDBRANCH   1  14
BRANCH   4  21
HETATM   21  C9  UNL     1      -0.719   6.062  12.510  1.00  0.00     0.128 C 
HETATM   22  C10 UNL     1       0.022   7.294  12.197  1.00  0.00     0.091 C 
HETATM   23  O2  UNL     1      -0.175   5.018  12.108  1.00  0.00    -0.298 OA
ENDBRANCH   4  21
BRANCH   8  24
HETATM   24  O3  UNL     1      -4.426   5.045   9.421  1.00  0.00    -0.395 OA
ATOM     25  H3  UNL     1      -4.413   5.776   8.814  1.00  0.00     0.210 HD
ENDBRANCH   8  24
TORSDOF 6
ENDMDL
MODEL 5
REMARK VINA RESULT: -6.157425599      2.264      5.555
REMARK  6 active torsions:
REMARK  status: ('A' for Active; 'I' for Inactive)
REMARK    1  A    between atoms: C2_2  and  O1_3 
REMARK    2  A    between atoms: O1_3  and  C3_4 
REMARK    3  A    between atoms: C3_4  and  C4_5 
REMARK    4  A    between atoms: N1_6  and  C5_8 
REMARK    5  A    between atoms: C8_11  and  C9_12 
REMARK    6  A    between atoms: C14_18  and  O3_19 
ROOT
HETATM    1  C5  UNL     1      -4.752   4.588  14.100  1.00  0.00     0.090 C 
HETATM    2  C6  UNL     1      -3.427   4.931  14.739  1.00  0.00     0.010 C 
HETATM    3  C7  UNL     1      -2.370   4.226  13.970  1.00  0.00     0.019 C 
HETATM    4  C8  UNL     1      -1.837   5.117  12.842  1.00  0.00     0.065 C 
HETATM    5  C11 UNL     1      -2.905   5.807  12.106  1.00  0.00    -0.016 C 
HETATM    6  C12 UNL     1      -2.434   6.745  11.054  1.00  0.00     0.014 C 
HETATM    7  C13 UNL     1      -3.757   7.206  10.449  1.00  0.00     0.033 C 
HETATM    8  C14 UNL     1      -4.690   6.059  10.560  1.00  0.00     0.127 C 
HETATM    9  C15 UNL     1      -4.133   5.137  11.663  1.00  0.00    -0.003 C 
HETATM   10  C16 UNL     1      -4.125   3.750  11.196  1.00  0.00     0.019 C 
HETATM   11  C17 UNL     1      -4.811   5.497  12.932  1.00  0.00     0.025 C 
HETATM   12  C18 UNL     1      -3.749   6.574  13.119  1.00  0.00     0.003 C 
HETATM   13  C19 UNL     1      -3.296   6.406  14.534  1.00  0.00     0.012 C 
ENDROOT
BRANCH   1  14
HETATM   14  N1  UNL     1      -5.859   4.759  15.000  1.00  0.00    -0.395 N 
HETATM   15  C4  UNL     1      -6.364   3.843  15.700  1.00  0.00     0.082 C 
ATOM     16  H1  UNL     1      -6.265   5.692  15.077  1.00  0.00     0.159 HD
BRANCH  15  17
HETATM   17  C3  UNL     1      -5.911   2.444  15.721  1.00  0.00     0.211 C 
BRANCH  17  18
HETATM   18  O1  UNL     1      -4.893   2.210  16.638  1.00  0.00    -0.387 OA
BRANCH  18  19
HETATM   19  C2  UNL     1      -3.936   1.419  15.992  1.00  0.00     0.163 C 
HETATM   20  C1  UNL     1      -4.416   0.966  14.636  1.00  0.00     0.033 C 
ENDBRANCH  18  19
ENDBRANCH  17  18
ENDBRANCH  15  17
ENDBRANCH   1  14
BRANCH   4  21
HETATM   21  C9  UNL     1      -0.832   4.368  12.073  1.00  0.00     0.128 C 
HETATM   22  C10 UNL     1       0.347   4.885  11.360  1.00  0.00     0.091 C 
HETATM   23  O2  UNL     1      -0.976   3.134  12.004  1.00  0.00    -0.298 OA
ENDBRANCH   4  21
BRANCH   8  24
HETATM   24  O3  UNL     1      -4.825   5.368   9.359  1.00  0.00    -0.395 OA
ATOM     25  H3  UNL     1      -4.917   4.431   9.490  1.00  0.00     0.210 HD
ENDBRANCH   8  24
TORSDOF 6
ENDMDL
