MODEL 1
REMARK VINA RESULT: -6.218870664      0.000      0.000
REMARK  5 active torsions:
REMARK  status: ('A' for Active; 'I' for Inactive)
REMARK    1  A    between atoms: C2_2  and  S1_3 
REMARK    2  A    between atoms: S1_3  and  C3_4 
REMARK       I    between atoms: N1_6  and  C5_7 
REMARK       I    between atoms: C5_7  and  N2_9 
REMARK    3  A    between atoms: N2_9  and  C6_11 
REMARK    4  A    between atoms: C6_11  and  C7_12 
REMARK    5  A    between atoms: C7_12  and  O2_13 
ROOT
HETATM    1  C3  UNL     1      -4.347   1.921  11.157  1.00  0.00     0.067 C 
HETATM    2  C4  UNL     1      -4.839   1.952  12.590  1.00  0.00     0.142 C 
HETATM    3  N1  UNL     1      -4.596   3.258  13.116  1.00  0.00    -0.332 N 
HETATM    4  C5  UNL     1      -5.137   3.571  14.409  1.00  0.00     0.318 C 
HETATM    5  O1  UNL     1      -4.953   4.711  14.916  1.00  0.00    -0.247 OA
HETATM    6  N2  UNL     1      -5.871   2.609  15.109  1.00  0.00    -0.341 N 
ATOM      7  H2  UNL     1      -6.001   1.696  14.675  1.00  0.00     0.164 HD
HETATM    8  C9  UNL     1      -3.849   4.288  12.447  1.00  0.00     0.148 C 
HETATM    9  C10 UNL     1      -2.728   3.779  11.600  1.00  0.00     0.025 C 
HETATM   10  C11 UNL     1      -1.378   3.924  12.218  1.00  0.00     0.023 C 
HETATM   11  C12 UNL     1      -0.725   5.161  11.691  1.00  0.00     0.012 C 
HETATM   12  C13 UNL     1      -0.845   5.192  10.204  1.00  0.00     0.075 C 
HETATM   13  S2  UNL     1      -2.611   4.708  10.033  1.00  0.00    -0.157 SA
HETATM   14  C14 UNL     1      -2.892   2.325  11.211  1.00  0.00     0.039 C 
ENDROOT
BRANCH   1  15
HETATM   15  S1  UNL     1      -4.401   0.200  10.565  1.00  0.00    -0.163 SA
BRANCH  15  16
HETATM   16  C2  UNL     1      -4.105  -0.962  11.901  1.00  0.00     0.070 C 
HETATM   17  C1  UNL     1      -3.031  -1.927  11.457  1.00  0.00     0.016 C 
ENDBRANCH  15  16
ENDBRANCH   1  15
BRANCH   6  18
HETATM   18  C6  UNL     1      -6.450   2.832  16.398  1.00  0.00     0.150 C 
BRANCH  18  19
HETATM   19  C7  UNL     1      -7.337   1.705  16.837  1.00  0.00     0.186 C 
BRANCH  19  20
HETATM   20  O2  UNL     1      -6.757   0.499  16.537  1.00  0.00    -0.394 OA
HETATM   21  C8  UNL     1      -5.815   0.105  17.473  1.00  0.00     0.201 C 
ENDBRANCH  19  20
ENDBRANCH  18  19
ENDBRANCH   6  18
TORSDOF 5
ENDMDL
MODEL 2
REMARK VINA RESULT: -6.042545625      1.661      1.876
REMARK  5 active torsions:
REMARK  status: ('A' for Active; 'I' for Inactive)
REMARK    1  A    between atoms: C2_2  and  S1_3 
REMARK    2  A    between atoms: S1_3  and  C3_4 
REMARK       I    between atoms: N1_6  and  C5_7 
REMARK       I    between atoms: C5_7  and  N2_9 
REMARK    3  A    between atoms: N2_9  and  C6_11 
REMARK    4  A    between atoms: C6_11  and  C7_12 
REMARK    5  A    between atoms: C7_12  and  O2_13 
ROOT
HETATM    1  C3  UNL     1      -3.996   3.274  11.973  1.00  0.00     0.067 C 
HETATM    2  C4  UNL     1      -4.627   2.916  13.304  1.00  0.00     0.142 C 
HETATM    3  N1  UNL     1      -5.043   4.128  13.939  1.00  0.00    -0.332 N 
HETATM    4  C5  UNL     1      -5.823   4.022  15.140  1.00  0.00     0.318 C 
HETATM    5  O1  UNL     1      -6.216   5.061  15.736  1.00  0.00    -0.247 OA
HETATM    6  N2  UNL     1      -6.148   2.762  15.650  1.00  0.00    -0.341 N 
ATOM      7  H2  UNL     1      -5.814   1.940  15.148  1.00  0.00     0.164 HD
HETATM    8  C9  UNL     1      -4.738   5.450  13.465  1.00  0.00     0.148 C 
HETATM    9  C10 UNL     1      -3.412   5.568  12.787  1.00  0.00     0.025 C 
HETATM   10  C11 UNL     1      -2.347   6.188  13.628  1.00  0.00     0.023 C 
HETATM   11  C12 UNL     1      -2.235   7.640  13.291  1.00  0.00     0.012 C 
HETATM   12  C13 UNL     1      -2.169   7.802  11.809  1.00  0.00     0.075 C 
HETATM   13  S2  UNL     1      -3.514   6.648  11.318  1.00  0.00    -0.157 SA
HETATM   14  C14 UNL     1      -2.879   4.240  12.292  1.00  0.00     0.039 C 
ENDROOT
BRANCH   1  15
HETATM   15  S1  UNL     1      -3.223   1.776  11.281  1.00  0.00    -0.163 SA
BRANCH  15  16
HETATM   16  C2  UNL     1      -4.444   0.503  10.949  1.00  0.00     0.070 C 
HETATM   17  C1  UNL     1      -4.093  -0.713  11.772  1.00  0.00     0.016 C 
ENDBRANCH  15  16
ENDBRANCH   1  15
BRANCH   6  18
HETATM   18  C6  UNL     1      -6.922   2.560  16.836  1.00  0.00     0.150 C 
BRANCH  18  19
HETATM   19  C7  UNL     1      -7.621   1.232  16.851  1.00  0.00     0.186 C 
BRANCH  19  20
HETATM   20  O2  UNL     1      -6.732   0.224  16.578  1.00  0.00    -0.394 OA
HETATM   21  C8  UNL     1      -5.744   0.100  17.541  1.00  0.00     0.201 C 
ENDBRANCH  19  20
ENDBRANCH  18  19
ENDBRANCH   6  18
TORSDOF 5
ENDMDL
MODEL 3
REMARK VINA RESULT: -6.032378580      2.433      3.290
REMARK  5 active torsions:
REMARK  status: ('A' for Active; 'I' for Inactive)
REMARK    1  A    between atoms: C2_2  and  S1_3 
REMARK    2  A    between atoms: S1_3  and  C3_4 
REMARK       I    between atoms: N1_6  and  C5_7 
REMARK       I    between atoms: C5_7  and  N2_9 
REMARK    3  A    between atoms: N2_9  and  C6_11 
REMARK    4  A    between atoms: C6_11  and  C7_12 
REMARK    5  A    between atoms: C7_12  and  O2_13 
ROOT
HETATM    1  C3  UNL     1      -2.074   4.671  12.146  1.00  0.00     0.067 C 
HETATM    2  C4  UNL     1      -2.862   3.910  13.194  1.00  0.00     0.142 C 
HETATM    3  N1  UNL     1      -3.744   4.830  13.842  1.00  0.00    -0.332 N 
HETATM    4  C5  UNL     1      -4.713   4.297  14.758  1.00  0.00     0.318 C 
HETATM    5  O1  UNL     1      -5.516   5.066  15.353  1.00  0.00    -0.247 OA
HETATM    6  N2  UNL     1      -4.766   2.920  14.993  1.00  0.00    -0.341 N 
ATOM      7  H2  UNL     1      -4.102   2.323  14.500  1.00  0.00     0.164 HD
HETATM    8  C9  UNL     1      -3.737   6.253  13.644  1.00  0.00     0.148 C 
HETATM    9  C10 UNL     1      -2.384   6.828  13.378  1.00  0.00     0.025 C 
HETATM   10  C11 UNL     1      -1.766   7.512  14.552  1.00  0.00     0.023 C 
HETATM   11  C12 UNL     1      -2.006   8.983  14.448  1.00  0.00     0.012 C 
HETATM   12  C13 UNL     1      -1.654   9.449  13.075  1.00  0.00     0.075 C 
HETATM   13  S2  UNL     1      -2.456   8.120  12.090  1.00  0.00    -0.157 SA
HETATM   14  C14 UNL     1      -1.390   5.799  12.882  1.00  0.00     0.039 C 
ENDROOT
BRANCH   1  15
HETATM   15  S1  UNL     1      -0.764   3.580  11.505  1.00  0.00    -0.163 SA
BRANCH  15  16
HETATM   16  C2  UNL     1      -1.413   2.407  10.312  1.00  0.00     0.070 C 
HETATM   17  C1  UNL     1      -1.599   1.080  11.009  1.00  0.00     0.016 C 
ENDBRANCH  15  16
ENDBRANCH   1  15
BRANCH   6  18
HETATM   18  C6  UNL     1      -5.698   2.300  15.884  1.00  0.00     0.150 C 
BRANCH  18  19
HETATM   19  C7  UNL     1      -5.323   0.887  16.222  1.00  0.00     0.186 C 
BRANCH  19  20
HETATM   20  O2  UNL     1      -6.443   0.159  16.532  1.00  0.00    -0.394 OA
HETATM   21  C8  UNL     1      -7.466   0.937  17.047  1.00  0.00     0.201 C 
ENDBRANCH  19  20
ENDBRANCH  18  19
ENDBRANCH   6  18
TORSDOF 5
ENDMDL
MODEL 4
REMARK VINA RESULT: -5.930405980      3.122      5.803
REMARK  5 active torsions:
REMARK  status: ('A' for Active; 'I' for Inactive)
REMARK    1  A    between atoms: C2_2  and  S1_3 
REMARK    2  A    between atoms: S1_3  and  C3_4 
REMARK       I    between atoms: N1_6  and  C5_7 
REMARK       I    between atoms: C5_7  and  N2_9 
REMARK    3  A    between atoms: N2_9  and  C6_11 
REMARK    4  A    between atoms: C6_11  and  C7_12 
REMARK    5  A    between atoms: C7_12  and  O2_13 
ROOT
HETATM    1  C3  UNL     1      -3.453   1.980  12.099  1.00  0.00     0.067 C 
HETATM    2  C4  UNL     1      -3.864   3.184  11.275  1.00  0.00     0.142 C 
HETATM    3  N1  UNL     1      -4.121   4.269  12.170  1.00  0.00    -0.332 N 
HETATM    4  C5  UNL     1      -4.362   5.565  11.600  1.00  0.00     0.318 C 
HETATM    5  O1  UNL     1      -4.591   6.555  12.347  1.00  0.00    -0.247 OA
HETATM    6  N2  UNL     1      -4.344   5.730  10.212  1.00  0.00    -0.341 N 
ATOM      7  H2  UNL     1      -4.159   4.911   9.633  1.00  0.00     0.164 HD
HETATM    8  C9  UNL     1      -4.156   4.162  13.603  1.00  0.00     0.148 C 
HETATM    9  C10 UNL     1      -4.668   2.852  14.107  1.00  0.00     0.025 C 
HETATM   10  C11 UNL     1      -6.077   2.893  14.597  1.00  0.00     0.023 C 
HETATM   11  C12 UNL     1      -6.078   3.047  16.083  1.00  0.00     0.012 C 
HETATM   12  C13 UNL     1      -5.134   2.062  16.686  1.00  0.00     0.075 C 
HETATM   13  S2  UNL     1      -3.705   2.277  15.548  1.00  0.00    -0.157 SA
HETATM   14  C14 UNL     1      -4.580   1.746  13.078  1.00  0.00     0.039 C 
ENDROOT
BRANCH   1  15
HETATM   15  S1  UNL     1      -3.387   0.527  11.003  1.00  0.00    -0.163 SA
BRANCH  15  16
HETATM   16  C2  UNL     1      -3.983  -0.948  11.835  1.00  0.00     0.070 C 
HETATM   17  C1  UNL     1      -3.054  -2.089  11.495  1.00  0.00     0.016 C 
ENDBRANCH  15  16
ENDBRANCH   1  15
BRANCH   6  18
HETATM   18  C6  UNL     1      -4.569   6.982   9.557  1.00  0.00     0.150 C 
BRANCH  18  19
HETATM   19  C7  UNL     1      -5.585   6.885   8.457  1.00  0.00     0.186 C 
BRANCH  19  20
HETATM   20  O2  UNL     1      -6.796   6.484   8.962  1.00  0.00    -0.394 OA
HETATM   21  C8  UNL     1      -7.865   6.877   8.176  1.00  0.00     0.201 C 
ENDBRANCH  19  20
ENDBRANCH  18  19
ENDBRANCH   6  18
TORSDOF 5
ENDMDL
MODEL 5
REMARK VINA RESULT: -5.922817549      2.634      6.036
REMARK  5 active torsions:
REMARK  status: ('A' for Active; 'I' for Inactive)
REMARK    1  A    between atoms: C2_2  and  S1_3 
REMARK    2  A    between atoms: S1_3  and  C3_4 
REMARK       I    between atoms: N1_6  and  C5_7 
REMARK       I    between atoms: C5_7  and  N2_9 
REMARK    3  A    between atoms: N2_9  and  C6_11 
REMARK    4  A    between atoms: C6_11  and  C7_12 
REMARK    5  A    between atoms: C7_12  and  O2_13 
ROOT
HETATM    1  C3  UNL     1      -4.008   1.607  12.945  1.00  0.00     0.067 C 
HETATM    2  C4  UNL     1      -3.171   2.765  12.438  1.00  0.00     0.142 C 
HETATM    3  N1  UNL     1      -2.963   3.672  13.523  1.00  0.00    -0.332 N 
HETATM    4  C5  UNL     1      -2.052   4.763  13.320  1.00  0.00     0.318 C 
HETATM    5  O1  UNL     1      -1.832   5.589  14.247  1.00  0.00    -0.247 OA
HETATM    6  N2  UNL     1      -1.406   4.911  12.089  1.00  0.00    -0.341 N 
ATOM      7  H2  UNL     1      -1.605   4.229  11.357  1.00  0.00     0.164 HD
HETATM    8  C9  UNL     1      -3.599   3.575  14.809  1.00  0.00     0.148 C 
HETATM    9  C10 UNL     1      -4.985   3.019  14.766  1.00  0.00     0.025 C 
HETATM   10  C11 UNL     1      -6.061   4.046  14.892  1.00  0.00     0.023 C 
HETATM   11  C12 UNL     1      -6.524   4.104  16.312  1.00  0.00     0.012 C 
HETATM   12  C13 UNL     1      -6.785   2.721  16.807  1.00  0.00     0.075 C 
HETATM   13  S2  UNL     1      -5.283   1.879  16.161  1.00  0.00    -0.157 SA
HETATM   14  C14 UNL     1      -5.266   2.223  13.510  1.00  0.00     0.039 C 
ENDROOT
BRANCH   1  15
HETATM   15  S1  UNL     1      -4.506   0.588  11.520  1.00  0.00    -0.163 SA
BRANCH  15  16
HETATM   16  C2  UNL     1      -3.124  -0.360  10.877  1.00  0.00     0.070 C 
HETATM   17  C1  UNL     1      -3.183  -1.745  11.477  1.00  0.00     0.016 C 
ENDBRANCH  15  16
ENDBRANCH   1  15
BRANCH   6  18
HETATM   18  C6  UNL     1      -0.481   5.962  11.797  1.00  0.00     0.150 C 
BRANCH  18  19
HETATM   19  C7  UNL     1       0.924   5.465  11.621  1.00  0.00     0.186 C 
BRANCH  19  20
HETATM   20  O2  UNL     1       0.917   4.154  11.219  1.00  0.00    -0.394 OA
HETATM   21  C8  UNL     1       1.691   3.932  10.092  1.00  0.00     0.201 C 
ENDBRANCH  19  20
ENDBRANCH  18  19
ENDBRANCH   6  18
TORSDOF 5
ENDMDL
