MODEL 1
REMARK VINA RESULT: -6.705336756      0.000      0.000
REMARK  2 active torsions:
REMARK  status: ('A' for Active; 'I' for Inactive)
REMARK    1  A    between atoms: C2_2  and  N1_4 
REMARK       I    between atoms: N1_4  and  C4_6 
REMARK       I    between atoms: C4_6  and  N2_8 
REMARK    2  A    between atoms: N2_8  and  C5_10 
ROOT
HETATM    1  C5  UNL     1      -3.948   4.588  12.263  1.00  0.00     0.086 C 
HETATM    2  C6  UNL     1      -2.747   5.111  13.018  1.00  0.00     0.025 C 
HETATM    3  C7  UNL     1      -2.992   5.206  14.493  1.00  0.00     0.003 C 
HETATM    4  C8  UNL     1      -3.288   3.799  14.983  1.00  0.00     0.010 C 
HETATM    5  C9  UNL     1      -4.547   3.278  14.342  1.00  0.00    -0.035 C 
HETATM    6  C10 UNL     1      -5.718   3.950  15.031  1.00  0.00     0.040 C 
HETATM    7  C11 UNL     1      -6.395   3.031  16.029  1.00  0.00     0.272 C 
HETATM    8  N3  UNL     1      -5.431   2.393  16.873  1.00  0.00     0.084 N 
HETATM    9  C12 UNL     1      -6.140   1.684  17.921  1.00  0.00     0.309 C 
HETATM   10  C13 UNL     1      -4.600   1.500  16.115  1.00  0.00     0.272 C 
HETATM   11  C14 UNL     1      -4.589   1.773  14.653  1.00  0.00     0.040 C 
HETATM   12  C15 UNL     1      -4.591   3.397  12.861  1.00  0.00     0.034 C 
ENDROOT
BRANCH   1  13
HETATM   13  N2  UNL     1      -4.883   5.661  11.993  1.00  0.00    -0.338 N 
HETATM   14  C4  UNL     1      -5.203   6.104  10.683  1.00  0.00     0.316 C 
HETATM   15  N1  UNL     1      -6.127   7.160  10.464  1.00  0.00    -0.339 N 
HETATM   16  O1  UNL     1      -4.631   5.519   9.728  1.00  0.00    -0.247 OA
ATOM     17  H1  UNL     1      -6.559   7.593  11.280  1.00  0.00     0.164 HD
ATOM     18  H2  UNL     1      -5.335   6.121  12.784  1.00  0.00     0.164 HD
BRANCH  15  19
HETATM   19  C2  UNL     1      -6.491   7.655   9.175  1.00  0.00     0.078 C 
HETATM   20  C1  UNL     1      -7.701   6.951   8.582  1.00  0.00     0.032 C 
HETATM   21  C3  UNL     1      -6.719   9.153   9.147  1.00  0.00     0.032 C 
ENDBRANCH  15  19
ENDBRANCH   1  13
TORSDOF 2
ENDMDL
MODEL 2
REMARK VINA RESULT: -6.456670710      2.924      6.895
REMARK  2 active torsions:
REMARK  status: ('A' for Active; 'I' for Inactive)
REMARK    1  A    between atoms: C2_2  and  N1_4 
REMARK       I    between atoms: N1_4  and  C4_6 
REMARK       I    between atoms: C4_6  and  N2_8 
REMARK    2  A    between atoms: N2_8  and  C5_10 
ROOT
HETATM    1  C5  UNL     1      -3.798   4.125  13.508  1.00  0.00     0.086 C 
HETATM    2  C6  UNL     1      -4.443   4.592  12.224  1.00  0.00     0.025 C 
HETATM    3  C7  UNL     1      -4.613   6.080  12.173  1.00  0.00     0.003 C 
HETATM    4  C8  UNL     1      -3.221   6.685  12.255  1.00  0.00     0.010 C 
HETATM    5  C9  UNL     1      -2.581   6.341  13.574  1.00  0.00    -0.035 C 
HETATM    6  C10 UNL     1      -3.215   7.224  14.629  1.00  0.00     0.040 C 
HETATM    7  C11 UNL     1      -2.317   8.382  15.019  1.00  0.00     0.272 C 
HETATM    8  N3  UNL     1      -1.796   9.038  13.858  1.00  0.00     0.084 N 
HETATM    9  C12 UNL     1      -1.108  10.241  14.285  1.00  0.00     0.309 C 
HETATM   10  C13 UNL     1      -0.915   8.168  13.131  1.00  0.00     0.272 C 
HETATM   11  C14 UNL     1      -1.098   6.724  13.437  1.00  0.00     0.040 C 
HETATM   12  C15 UNL     1      -2.606   4.897  13.925  1.00  0.00     0.034 C 
ENDROOT
BRANCH   1  13
HETATM   13  N2  UNL     1      -4.789   4.003  14.559  1.00  0.00    -0.338 N 
HETATM   14  C4  UNL     1      -4.868   2.885  15.428  1.00  0.00     0.316 C 
HETATM   15  N1  UNL     1      -5.856   2.807  16.446  1.00  0.00    -0.339 N 
HETATM   16  O1  UNL     1      -4.026   1.967  15.256  1.00  0.00    -0.247 OA
ATOM     17  H1  UNL     1      -6.511   3.584  16.535  1.00  0.00     0.164 HD
ATOM     18  H2  UNL     1      -5.462   4.760  14.680  1.00  0.00     0.164 HD
BRANCH  15  19
HETATM   19  C2  UNL     1      -5.994   1.712  17.351  1.00  0.00     0.078 C 
HETATM   20  C1  UNL     1      -6.116   2.146  18.802  1.00  0.00     0.032 C 
HETATM   21  C3  UNL     1      -7.141   0.785  17.006  1.00  0.00     0.032 C 
ENDBRANCH  15  19
ENDBRANCH   1  13
TORSDOF 2
ENDMDL
MODEL 3
REMARK VINA RESULT: -6.149964320      2.627      6.918
REMARK  2 active torsions:
REMARK  status: ('A' for Active; 'I' for Inactive)
REMARK    1  A    between atoms: C2_2  and  N1_4 
REMARK       I    between atoms: N1_4  and  C4_6 
REMARK       I    between atoms: C4_6  and  N2_8 
REMARK    2  A    between atoms: N2_8  and  C5_10 
ROOT
HETATM    1  C5  UNL     1      -4.927   5.504  14.625  1.00  0.00     0.086 C 
HETATM    2  C6  UNL     1      -3.785   6.455  14.897  1.00  0.00     0.025 C 
HETATM    3  C7  UNL     1      -2.692   6.350  13.876  1.00  0.00     0.003 C 
HETATM    4  C8  UNL     1      -3.307   6.713  12.535  1.00  0.00     0.010 C 
HETATM    5  C9  UNL     1      -4.376   5.720  12.166  1.00  0.00    -0.035 C 
HETATM    6  C10 UNL     1      -3.681   4.457  11.701  1.00  0.00     0.040 C 
HETATM    7  C11 UNL     1      -3.685   4.327  10.190  1.00  0.00     0.272 C 
HETATM    8  N3  UNL     1      -3.278   5.551   9.570  1.00  0.00     0.084 N 
HETATM    9  C12 UNL     1      -3.117   5.312   8.149  1.00  0.00     0.309 C 
HETATM   10  C13 UNL     1      -4.239   6.592   9.814  1.00  0.00     0.272 C 
HETATM   11  C14 UNL     1      -5.132   6.334  10.976  1.00  0.00     0.040 C 
HETATM   12  C15 UNL     1      -5.395   5.474  13.221  1.00  0.00     0.034 C 
ENDROOT
BRANCH   1  13
HETATM   13  N2  UNL     1      -4.626   4.187  15.149  1.00  0.00    -0.338 N 
HETATM   14  C4  UNL     1      -5.500   3.472  16.009  1.00  0.00     0.316 C 
HETATM   15  N1  UNL     1      -5.164   2.182  16.499  1.00  0.00    -0.339 N 
HETATM   16  O1  UNL     1      -6.582   4.034  16.316  1.00  0.00    -0.247 OA
ATOM     17  H1  UNL     1      -4.271   1.780  16.212  1.00  0.00     0.164 HD
ATOM     18  H2  UNL     1      -3.741   3.751  14.886  1.00  0.00     0.164 HD
BRANCH  15  19
HETATM   19  C2  UNL     1      -5.994   1.411  17.367  1.00  0.00     0.078 C 
HETATM   20  C1  UNL     1      -6.157   2.029  18.746  1.00  0.00     0.032 C 
HETATM   21  C3  UNL     1      -7.362   1.113  16.787  1.00  0.00     0.032 C 
ENDBRANCH  15  19
ENDBRANCH   1  13
TORSDOF 2
ENDMDL
MODEL 4
REMARK VINA RESULT: -6.106797467      3.263      6.960
REMARK  2 active torsions:
REMARK  status: ('A' for Active; 'I' for Inactive)
REMARK    1  A    between atoms: C2_2  and  N1_4 
REMARK       I    between atoms: N1_4  and  C4_6 
REMARK       I    between atoms: C4_6  and  N2_8 
REMARK    2  A    between atoms: N2_8  and  C5_10 
ROOT
HETATM    1  C5  UNL     1      -4.445   5.120  13.919  1.00  0.00     0.086 C 
HETATM    2  C6  UNL     1      -3.950   6.395  14.562  1.00  0.00     0.025 C 
HETATM    3  C7  UNL     1      -2.465   6.564  14.436  1.00  0.00     0.003 C 
HETATM    4  C8  UNL     1      -2.154   6.625  12.950  1.00  0.00     0.010 C 
HETATM    5  C9  UNL     1      -2.526   5.327  12.285  1.00  0.00    -0.035 C 
HETATM    6  C10 UNL     1      -1.459   4.312  12.643  1.00  0.00     0.040 C 
HETATM    7  C11 UNL     1      -0.484   4.084  11.504  1.00  0.00     0.272 C 
HETATM    8  N3  UNL     1      -0.033   5.328  10.960  1.00  0.00     0.084 N 
HETATM    9  C12 UNL     1       1.031   5.054  10.013  1.00  0.00     0.309 C 
HETATM   10  C13 UNL     1      -1.115   6.034  10.331  1.00  0.00     0.272 C 
HETATM   11  C14 UNL     1      -2.466   5.593  10.772  1.00  0.00     0.040 C 
HETATM   12  C15 UNL     1      -3.906   4.851  12.567  1.00  0.00     0.034 C 
ENDROOT
BRANCH   1  13
HETATM   13  N2  UNL     1      -4.287   4.001  14.825  1.00  0.00    -0.338 N 
HETATM   14  C4  UNL     1      -5.354   3.458  15.587  1.00  0.00     0.316 C 
HETATM   15  N1  UNL     1      -5.153   2.359  16.464  1.00  0.00    -0.339 N 
HETATM   16  O1  UNL     1      -6.482   3.996  15.451  1.00  0.00    -0.247 OA
ATOM     17  H1  UNL     1      -4.213   1.966  16.529  1.00  0.00     0.164 HD
ATOM     18  H2  UNL     1      -3.361   3.581  14.919  1.00  0.00     0.164 HD
BRANCH  15  19
HETATM   19  C2  UNL     1      -6.180   1.767  17.260  1.00  0.00     0.078 C 
HETATM   20  C1  UNL     1      -6.077   0.253  17.340  1.00  0.00     0.032 C 
HETATM   21  C3  UNL     1      -6.263   2.339  18.660  1.00  0.00     0.032 C 
ENDBRANCH  15  19
ENDBRANCH   1  13
TORSDOF 2
ENDMDL
MODEL 5
REMARK VINA RESULT: -5.978751104      2.932      4.784
REMARK  2 active torsions:
REMARK  status: ('A' for Active; 'I' for Inactive)
REMARK    1  A    between atoms: C2_2  and  N1_4 
REMARK       I    between atoms: N1_4  and  C4_6 
REMARK       I    between atoms: C4_6  and  N2_8 
REMARK    2  A    between atoms: N2_8  and  C5_10 
ROOT
HETATM    1  C5  UNL     1      -3.406   5.032  13.108  1.00  0.00     0.086 C 
HETATM    2  C6  UNL     1      -4.081   4.317  11.961  1.00  0.00     0.025 C 
HETATM    3  C7  UNL     1      -4.452   2.905  12.301  1.00  0.00     0.003 C 
HETATM    4  C8  UNL     1      -5.429   2.974  13.463  1.00  0.00     0.010 C 
HETATM    5  C9  UNL     1      -4.762   3.577  14.670  1.00  0.00    -0.035 C 
HETATM    6  C10 UNL     1      -3.860   2.516  15.267  1.00  0.00     0.040 C 
HETATM    7  C11 UNL     1      -4.471   1.875  16.497  1.00  0.00     0.272 C 
HETATM    8  N3  UNL     1      -5.832   1.503  16.257  1.00  0.00     0.084 N 
HETATM    9  C12 UNL     1      -6.300   0.729  17.392  1.00  0.00     0.309 C 
HETATM   10  C13 UNL     1      -6.651   2.664  16.050  1.00  0.00     0.272 C 
HETATM   11  C14 UNL     1      -5.890   3.884  15.668  1.00  0.00     0.040 C 
HETATM   12  C15 UNL     1      -4.066   4.867  14.422  1.00  0.00     0.034 C 
ENDROOT
BRANCH   1  13
HETATM   13  N2  UNL     1      -1.992   4.717  13.140  1.00  0.00    -0.338 N 
HETATM   14  C4  UNL     1      -1.061   5.215  12.192  1.00  0.00     0.316 C 
HETATM   15  N1  UNL     1       0.317   4.880  12.263  1.00  0.00    -0.339 N 
HETATM   16  O1  UNL     1      -1.513   5.963  11.288  1.00  0.00    -0.247 OA
ATOM     17  H1  UNL     1       0.621   4.268  13.021  1.00  0.00     0.164 HD
ATOM     18  H2  UNL     1      -1.649   4.107  13.883  1.00  0.00     0.164 HD
BRANCH  15  19
HETATM   19  C2  UNL     1       1.305   5.343  11.342  1.00  0.00     0.078 C 
HETATM   20  C1  UNL     1       2.428   6.120  12.009  1.00  0.00     0.032 C 
HETATM   21  C3  UNL     1       1.897   4.241  10.487  1.00  0.00     0.032 C 
ENDBRANCH  15  19
ENDBRANCH   1  13
TORSDOF 2
ENDMDL
