MODEL 1
REMARK VINA RESULT: -7.360505864      0.000      0.000
REMARK  3 active torsions:
REMARK  status: ('A' for Active; 'I' for Inactive)
REMARK    1  A    between atoms: C4_4  and  O1_5 
REMARK    2  A    between atoms: C4_4  and  C5_7 
REMARK    3  A    between atoms: C5_7  and  C6_8 
REMARK       I    between atoms: C6_8  and  N1_10 
ROOT
HETATM    1  C1  UNL     1      -3.566   7.440  11.779  1.00  0.00     0.011 C 
HETATM    2  C2  UNL     1      -2.917   6.054  11.959  1.00  0.00    -0.008 C 
HETATM    3  C3  UNL     1      -3.960   4.998  12.053  1.00  0.00     0.043 C 
HETATM    4  C4  UNL     1      -3.608   3.863  12.967  1.00  0.00     0.066 C 
HETATM    5  C12 UNL     1      -3.258   4.412  14.311  1.00  0.00     0.039 C 
HETATM    6  C13 UNL     1      -2.054   5.274  14.219  1.00  0.00     0.012 C 
HETATM    7  C14 UNL     1      -1.846   6.047  12.978  1.00  0.00    -0.044 C 
HETATM    8  C15 UNL     1      -0.515   5.614  12.341  1.00  0.00     0.015 C 
HETATM    9  C16 UNL     1      -1.585   7.505  13.427  1.00  0.00     0.015 C 
ENDROOT
BRANCH   4  10
HETATM   10  O1  UNL     1      -2.588   3.114  12.440  1.00  0.00    -0.389 OA
ATOM     11  H1  UNL     1      -2.662   3.063  11.495  1.00  0.00     0.210 HD
ENDBRANCH   4  10
BRANCH   4  12
HETATM   12  C5  UNL     1      -4.856   2.969  13.094  1.00  0.00     0.140 C 
BRANCH  12  13
HETATM   13  C6  UNL     1      -4.599   1.864  14.061  1.00  0.00     0.222 C 
HETATM   14  O2  UNL     1      -3.744   1.004  13.669  1.00  0.00    -0.273 OA
HETATM   15  N1  UNL     1      -5.259   1.790  15.315  1.00  0.00    -0.352 N 
HETATM   16  C7  UNL     1      -6.195   2.843  15.639  1.00  0.00     0.125 C 
HETATM   17  C11 UNL     1      -4.950   0.684  16.187  1.00  0.00     0.125 C 
HETATM   18  C8  UNL     1      -6.925   2.608  16.926  1.00  0.00     0.020 C 
HETATM   19  C9  UNL     1      -7.236   1.142  17.146  1.00  0.00     0.003 C 
HETATM   20  C10 UNL     1      -5.937   0.406  17.253  1.00  0.00     0.020 C 
ENDBRANCH  12  13
ENDBRANCH   4  12
TORSDOF 3
ENDMDL
MODEL 2
REMARK VINA RESULT: -6.856053069      1.015      1.267
REMARK  3 active torsions:
REMARK  status: ('A' for Active; 'I' for Inactive)
REMARK    1  A    between atoms: C4_4  and  O1_5 
REMARK    2  A    between atoms: C4_4  and  C5_7 
REMARK    3  A    between atoms: C5_7  and  C6_8 
REMARK       I    between atoms: C6_8  and  N1_10 
ROOT
HETATM    1  C1  UNL     1      -2.527   5.543   9.471  1.00  0.00     0.011 C 
HETATM    2  C2  UNL     1      -2.302   4.980  10.888  1.00  0.00    -0.008 C 
HETATM    3  C3  UNL     1      -3.305   3.926  11.196  1.00  0.00     0.043 C 
HETATM    4  C4  UNL     1      -3.730   3.879  12.634  1.00  0.00     0.066 C 
HETATM    5  C12 UNL     1      -4.211   5.233  13.041  1.00  0.00     0.039 C 
HETATM    6  C13 UNL     1      -3.108   6.221  12.955  1.00  0.00     0.012 C 
HETATM    7  C14 UNL     1      -2.090   6.036  11.901  1.00  0.00    -0.044 C 
HETATM    8  C15 UNL     1      -0.714   5.860  12.566  1.00  0.00     0.015 C 
HETATM    9  C16 UNL     1      -1.980   7.398  11.176  1.00  0.00     0.015 C 
ENDROOT
BRANCH   4  10
HETATM   10  O1  UNL     1      -2.704   3.441  13.430  1.00  0.00    -0.389 OA
ATOM     11  H1  UNL     1      -2.823   3.736  14.324  1.00  0.00     0.210 HD
ENDBRANCH   4  10
BRANCH   4  12
HETATM   12  C5  UNL     1      -4.893   2.875  12.738  1.00  0.00     0.140 C 
BRANCH  12  13
HETATM   13  C6  UNL     1      -4.586   1.842  13.768  1.00  0.00     0.222 C 
HETATM   14  O2  UNL     1      -3.759   0.947  13.392  1.00  0.00    -0.273 OA
HETATM   15  N1  UNL     1      -5.174   1.866  15.059  1.00  0.00    -0.352 N 
HETATM   16  C7  UNL     1      -6.084   2.948  15.357  1.00  0.00     0.125 C 
HETATM   17  C11 UNL     1      -4.821   0.824  15.991  1.00  0.00     0.125 C 
HETATM   18  C8  UNL     1      -6.741   2.814  16.698  1.00  0.00     0.020 C 
HETATM   19  C9  UNL     1      -7.046   1.371  17.042  1.00  0.00     0.003 C 
HETATM   20  C10 UNL     1      -5.747   0.633  17.129  1.00  0.00     0.020 C 
ENDBRANCH  12  13
ENDBRANCH   4  12
TORSDOF 3
ENDMDL
MODEL 3
REMARK VINA RESULT: -6.696274853      1.833      2.553
REMARK  3 active torsions:
REMARK  status: ('A' for Active; 'I' for Inactive)
REMARK    1  A    between atoms: C4_4  and  O1_5 
REMARK    2  A    between atoms: C4_4  and  C5_7 
REMARK    3  A    between atoms: C5_7  and  C6_8 
REMARK       I    between atoms: C6_8  and  N1_10 
ROOT
HETATM    1  C1  UNL     1      -3.021   9.716  11.751  1.00  0.00     0.011 C 
HETATM    2  C2  UNL     1      -2.290   8.589  12.506  1.00  0.00    -0.008 C 
HETATM    3  C3  UNL     1      -2.983   7.289  12.302  1.00  0.00     0.043 C 
HETATM    4  C4  UNL     1      -2.932   6.370  13.486  1.00  0.00     0.066 C 
HETATM    5  C12 UNL     1      -3.456   7.092  14.684  1.00  0.00     0.039 C 
HETATM    6  C13 UNL     1      -2.590   8.252  15.008  1.00  0.00     0.012 C 
HETATM    7  C14 UNL     1      -1.932   8.961  13.891  1.00  0.00    -0.044 C 
HETATM    8  C15 UNL     1      -0.408   8.880  14.082  1.00  0.00     0.015 C 
HETATM    9  C16 UNL     1      -2.253  10.461  14.096  1.00  0.00     0.015 C 
ENDROOT
BRANCH   4  10
HETATM   10  O1  UNL     1      -1.657   5.907  13.686  1.00  0.00    -0.389 OA
ATOM     11  H1  UNL     1      -1.621   5.340  14.447  1.00  0.00     0.210 HD
ENDBRANCH   4  10
BRANCH   4  12
HETATM   12  C5  UNL     1      -3.845   5.169  13.177  1.00  0.00     0.140 C 
BRANCH  12  13
HETATM   13  C6  UNL     1      -3.523   4.033  14.088  1.00  0.00     0.222 C 
HETATM   14  O2  UNL     1      -2.392   3.486  13.875  1.00  0.00    -0.273 OA
HETATM   15  N1  UNL     1      -4.415   3.608  15.107  1.00  0.00    -0.352 N 
HETATM   16  C7  UNL     1      -5.659   4.328  15.247  1.00  0.00     0.125 C 
HETATM   17  C11 UNL     1      -4.022   2.499  15.940  1.00  0.00     0.125 C 
HETATM   18  C8  UNL     1      -6.578   3.726  16.267  1.00  0.00     0.020 C 
HETATM   19  C9  UNL     1      -6.504   2.213  16.278  1.00  0.00     0.003 C 
HETATM   20  C10 UNL     1      -5.114   1.823  16.674  1.00  0.00     0.020 C 
ENDBRANCH  12  13
ENDBRANCH   4  12
TORSDOF 3
ENDMDL
MODEL 4
REMARK VINA RESULT: -6.504878508      3.631      5.541
REMARK  3 active torsions:
REMARK  status: ('A' for Active; 'I' for Inactive)
REMARK    1  A    between atoms: C4_4  and  O1_5 
REMARK    2  A    between atoms: C4_4  and  C5_7 
REMARK    3  A    between atoms: C5_7  and  C6_8 
REMARK       I    between atoms: C6_8  and  N1_10 
ROOT
HETATM    1  C1  UNL     1      -6.256  10.192   9.744  1.00  0.00     0.011 C 
HETATM    2  C2  UNL     1      -6.579   8.685   9.718  1.00  0.00    -0.008 C 
HETATM    3  C3  UNL     1      -5.493   7.907  10.370  1.00  0.00     0.043 C 
HETATM    4  C4  UNL     1      -5.247   6.559   9.761  1.00  0.00     0.066 C 
HETATM    5  C12 UNL     1      -5.003   6.726   8.297  1.00  0.00     0.039 C 
HETATM    6  C13 UNL     1      -6.207   7.281   7.632  1.00  0.00     0.012 C 
HETATM    7  C14 UNL     1      -7.052   8.220   8.397  1.00  0.00    -0.044 C 
HETATM    8  C15 UNL     1      -8.465   7.625   8.522  1.00  0.00     0.015 C 
HETATM    9  C16 UNL     1      -7.249   9.453   7.483  1.00  0.00     0.015 C 
ENDROOT
BRANCH   4  10
HETATM   10  O1  UNL     1      -6.298   5.715  10.010  1.00  0.00    -0.389 OA
ATOM     11  H1  UNL     1      -6.014   4.965  10.518  1.00  0.00     0.210 HD
ENDBRANCH   4  10
BRANCH   4  12
HETATM   12  C5  UNL     1      -3.985   5.977  10.423  1.00  0.00     0.140 C 
BRANCH  12  13
HETATM   13  C6  UNL     1      -4.324   4.728  11.163  1.00  0.00     0.222 C 
HETATM   14  O2  UNL     1      -4.503   3.705  10.424  1.00  0.00    -0.273 OA
HETATM   15  N1  UNL     1      -4.436   4.696  12.578  1.00  0.00    -0.352 N 
HETATM   16  C7  UNL     1      -4.192   5.927  13.294  1.00  0.00     0.125 C 
HETATM   17  C11 UNL     1      -4.770   3.444  13.209  1.00  0.00     0.125 C 
HETATM   18  C8  UNL     1      -4.453   5.815  14.765  1.00  0.00     0.020 C 
HETATM   19  C9  UNL     1      -5.630   4.913  15.069  1.00  0.00     0.003 C 
HETATM   20  C10 UNL     1      -5.291   3.535  14.590  1.00  0.00     0.020 C 
ENDBRANCH  12  13
ENDBRANCH   4  12
TORSDOF 3
ENDMDL
MODEL 5
REMARK VINA RESULT: -6.415335432      1.833      2.747
REMARK  3 active torsions:
REMARK  status: ('A' for Active; 'I' for Inactive)
REMARK    1  A    between atoms: C4_4  and  O1_5 
REMARK    2  A    between atoms: C4_4  and  C5_7 
REMARK    3  A    between atoms: C5_7  and  C6_8 
REMARK       I    between atoms: C6_8  and  N1_10 
ROOT
HETATM    1  C1  UNL     1      -2.591   8.092  12.007  1.00  0.00     0.011 C 
HETATM    2  C2  UNL     1      -3.652   6.975  12.057  1.00  0.00    -0.008 C 
HETATM    3  C3  UNL     1      -3.761   6.420  13.432  1.00  0.00     0.043 C 
HETATM    4  C4  UNL     1      -4.068   4.953  13.483  1.00  0.00     0.066 C 
HETATM    5  C12 UNL     1      -3.056   4.216  12.670  1.00  0.00     0.039 C 
HETATM    6  C13 UNL     1      -3.143   4.621  11.245  1.00  0.00     0.012 C 
HETATM    7  C14 UNL     1      -3.529   6.014  10.941  1.00  0.00    -0.044 C 
HETATM    8  C15 UNL     1      -4.825   5.999  10.113  1.00  0.00     0.015 C 
HETATM    9  C16 UNL     1      -2.463   6.541   9.952  1.00  0.00     0.015 C 
ENDROOT
BRANCH   4  10
HETATM   10  O1  UNL     1      -5.346   4.710  13.049  1.00  0.00    -0.389 OA
ATOM     11  H1  UNL     1      -5.947   4.664  13.783  1.00  0.00     0.210 HD
ENDBRANCH   4  10
BRANCH   4  12
HETATM   12  C5  UNL     1      -3.959   4.509  14.954  1.00  0.00     0.140 C 
BRANCH  12  13
HETATM   13  C6  UNL     1      -5.306   4.152  15.483  1.00  0.00     0.222 C 
HETATM   14  O2  UNL     1      -6.102   5.139  15.616  1.00  0.00    -0.273 OA
HETATM   15  N1  UNL     1      -5.659   2.816  15.807  1.00  0.00    -0.352 N 
HETATM   16  C7  UNL     1      -4.663   1.793  15.592  1.00  0.00     0.125 C 
HETATM   17  C11 UNL     1      -6.985   2.564  16.315  1.00  0.00     0.125 C 
HETATM   18  C8  UNL     1      -5.091   0.441  16.078  1.00  0.00     0.020 C 
HETATM   19  C9  UNL     1      -5.916   0.525  17.345  1.00  0.00     0.003 C 
HETATM   20  C10 UNL     1      -7.169   1.282  17.029  1.00  0.00     0.020 C 
ENDBRANCH  12  13
ENDBRANCH   4  12
TORSDOF 3
ENDMDL
