MODEL 1
REMARK VINA RESULT: -7.464727807      0.000      0.000
REMARK  4 active torsions:
REMARK  status: ('A' for Active; 'I' for Inactive)
REMARK    1  A    between atoms: C2_2  and  C4_4 
REMARK    2  A    between atoms: C4_4  and  C5_5 
REMARK    3  A    between atoms: C5_5  and  O1_6 
REMARK    4  A    between atoms: C18_20  and  O2_21 
ROOT
HETATM    1  C4  UNL     1      -3.597   4.677  14.010  1.00  0.00     0.030 C 
HETATM    2  C6  UNL     1      -3.687   4.075  15.392  1.00  0.00     0.024 C 
HETATM    3  C7  UNL     1      -4.302   2.735  15.130  1.00  0.00     0.002 C 
HETATM    4  C8  UNL     1      -5.426   3.069  14.223  1.00  0.00     0.020 C 
HETATM    5  C9  UNL     1      -6.667   3.484  14.902  1.00  0.00     0.008 C 
HETATM    6  C10 UNL     1      -6.698   3.264  16.382  1.00  0.00     0.011 C 
HETATM    7  C11 UNL     1      -5.949   2.381  17.085  1.00  0.00    -0.030 A 
HETATM    8  C12 UNL     1      -5.556   2.509  18.452  1.00  0.00     0.016 C 
HETATM    9  C13 UNL     1      -6.730   0.786  17.132  1.00  0.00     0.012 A 
HETATM   10  C14 UNL     1      -8.115   1.057  16.750  1.00  0.00     0.015 C 
HETATM   11  C15 UNL     1      -5.714   0.430  16.481  1.00  0.00    -0.025 A 
HETATM   12  C16 UNL     1      -5.067   0.741  16.225  1.00  0.00    -0.024 A 
HETATM   13  C17 UNL     1      -4.500   1.868  16.260  1.00  0.00     0.021 A 
HETATM   14  C18 UNL     1      -4.838   4.138  13.327  1.00  0.00     0.137 C 
ENDROOT
BRANCH   1  15
HETATM   15  C2  UNL     1      -3.581   6.146  14.047  1.00  0.00    -0.080 C 
HETATM   16  C1  UNL     1      -3.782   6.809  15.158  1.00  0.00     0.015 C 
HETATM   17  C3  UNL     1      -3.311   6.939  12.797  1.00  0.00     0.043 C 
ENDBRANCH   1  15
BRANCH   1  18
HETATM   18  C5  UNL     1      -2.344   4.143  13.356  1.00  0.00     0.180 C 
BRANCH  18  19
HETATM   19  O1  UNL     1      -1.285   4.135  14.259  1.00  0.00    -0.400 OA
ATOM     20  H1  UNL     1      -1.519   4.600  15.054  1.00  0.00     0.209 HD
ENDBRANCH  18  19
ENDBRANCH   1  18
BRANCH  14  21
HETATM   21  O2  UNL     1      -4.526   3.628  12.059  1.00  0.00    -0.394 OA
ATOM     22  H2  UNL     1      -4.806   4.228  11.377  1.00  0.00     0.210 HD
ENDBRANCH  14  21
TORSDOF 4
ENDMDL
MODEL 2
REMARK VINA RESULT: -7.458905817      1.679      5.569
REMARK  4 active torsions:
REMARK  status: ('A' for Active; 'I' for Inactive)
REMARK    1  A    between atoms: C2_2  and  C4_4 
REMARK    2  A    between atoms: C4_4  and  C5_5 
REMARK    3  A    between atoms: C5_5  and  O1_6 
REMARK    4  A    between atoms: C18_20  and  O2_21 
ROOT
HETATM    1  C4  UNL     1      -4.890   2.072  15.278  1.00  0.00     0.030 C 
HETATM    2  C6  UNL     1      -5.152   2.717  13.938  1.00  0.00     0.024 C 
HETATM    3  C7  UNL     1      -3.784   3.141  13.500  1.00  0.00     0.002 C 
HETATM    4  C8  UNL     1      -3.244   3.790  14.718  1.00  0.00     0.020 C 
HETATM    5  C9  UNL     1      -3.611   5.210  14.877  1.00  0.00     0.008 C 
HETATM    6  C10 UNL     1      -4.246   5.850  13.682  1.00  0.00     0.011 C 
HETATM    7  C11 UNL     1      -4.139   5.446  12.394  1.00  0.00    -0.030 A 
HETATM    8  C12 UNL     1      -5.099   5.660  11.359  1.00  0.00     0.016 C 
HETATM    9  C13 UNL     1      -2.694   6.143  11.629  1.00  0.00     0.012 A 
HETATM   10  C14 UNL     1      -2.324   7.248  12.512  1.00  0.00     0.015 C 
HETATM   11  C15 UNL     1      -2.329   4.941  11.559  1.00  0.00    -0.025 A 
HETATM   12  C16 UNL     1      -2.608   4.253  11.728  1.00  0.00    -0.024 A 
HETATM   13  C17 UNL     1      -3.670   3.774  12.215  1.00  0.00     0.021 A 
HETATM   14  C18 UNL     1      -3.753   2.904  15.835  1.00  0.00     0.137 C 
ENDROOT
BRANCH   1  15
HETATM   15  C2  UNL     1      -6.074   2.101  16.147  1.00  0.00    -0.080 C 
HETATM   16  C1  UNL     1      -6.550   1.014  16.699  1.00  0.00     0.015 C 
HETATM   17  C3  UNL     1      -6.770   3.401  16.446  1.00  0.00     0.043 C 
ENDBRANCH   1  15
BRANCH   1  18
HETATM   18  C5  UNL     1      -4.446   0.650  15.024  1.00  0.00     0.180 C 
BRANCH  18  19
HETATM   19  O1  UNL     1      -4.711   0.281  13.708  1.00  0.00    -0.400 OA
ATOM     20  H1  UNL     1      -4.890   1.047  13.175  1.00  0.00     0.209 HD
ENDBRANCH  18  19
ENDBRANCH   1  18
BRANCH  14  21
HETATM   21  O2  UNL     1      -2.736   2.082  16.339  1.00  0.00    -0.394 OA
ATOM     22  H2  UNL     1      -2.233   1.696  15.631  1.00  0.00     0.210 HD
ENDBRANCH  14  21
TORSDOF 4
ENDMDL
MODEL 3
REMARK VINA RESULT: -7.069504965      1.982      5.523
REMARK  4 active torsions:
REMARK  status: ('A' for Active; 'I' for Inactive)
REMARK    1  A    between atoms: C2_2  and  C4_4 
REMARK    2  A    between atoms: C4_4  and  C5_5 
REMARK    3  A    between atoms: C5_5  and  O1_6 
REMARK    4  A    between atoms: C18_20  and  O2_21 
ROOT
HETATM    1  C4  UNL     1      -5.388   2.325  15.966  1.00  0.00     0.030 C 
HETATM    2  C6  UNL     1      -5.757   3.101  14.724  1.00  0.00     0.024 C 
HETATM    3  C7  UNL     1      -4.525   2.983  13.882  1.00  0.00     0.002 C 
HETATM    4  C8  UNL     1      -3.444   3.296  14.847  1.00  0.00     0.020 C 
HETATM    5  C9  UNL     1      -3.165   4.733  15.018  1.00  0.00     0.008 C 
HETATM    6  C10 UNL     1      -3.818   5.642  14.024  1.00  0.00     0.011 C 
HETATM    7  C11 UNL     1      -4.259   5.306  12.788  1.00  0.00    -0.030 A 
HETATM    8  C12 UNL     1      -5.317   5.940  12.068  1.00  0.00     0.016 C 
HETATM    9  C13 UNL     1      -2.949   5.429  11.594  1.00  0.00     0.012 A 
HETATM   10  C14 UNL     1      -1.937   6.247  12.260  1.00  0.00     0.015 C 
HETATM   11  C15 UNL     1      -3.119   4.187  11.493  1.00  0.00    -0.025 A 
HETATM   12  C16 UNL     1      -3.582   3.653  11.778  1.00  0.00    -0.024 A 
HETATM   13  C17 UNL     1      -4.554   3.598  12.582  1.00  0.00     0.021 A 
HETATM   14  C18 UNL     1      -3.908   2.612  16.115  1.00  0.00     0.137 C 
ENDROOT
BRANCH   1  15
HETATM   15  C2  UNL     1      -6.156   2.761  17.140  1.00  0.00    -0.080 C 
HETATM   16  C1  UNL     1      -7.020   3.742  17.071  1.00  0.00     0.015 C 
HETATM   17  C3  UNL     1      -5.982   2.073  18.466  1.00  0.00     0.043 C 
ENDBRANCH   1  15
BRANCH   1  18
HETATM   18  C5  UNL     1      -5.629   0.861  15.682  1.00  0.00     0.180 C 
BRANCH  18  19
HETATM   19  O1  UNL     1      -6.828   0.441  16.249  1.00  0.00    -0.400 OA
ATOM     20  H1  UNL     1      -6.894   0.737  17.150  1.00  0.00     0.209 HD
ENDBRANCH  18  19
ENDBRANCH   1  18
BRANCH  14  21
HETATM   21  O2  UNL     1      -3.192   1.430  16.349  1.00  0.00    -0.394 OA
ATOM     22  H2  UNL     1      -2.638   1.518  17.116  1.00  0.00     0.210 HD
ENDBRANCH  14  21
TORSDOF 4
ENDMDL
MODEL 4
REMARK VINA RESULT: -6.667916601      1.838      3.110
REMARK  4 active torsions:
REMARK  status: ('A' for Active; 'I' for Inactive)
REMARK    1  A    between atoms: C2_2  and  C4_4 
REMARK    2  A    between atoms: C4_4  and  C5_5 
REMARK    3  A    between atoms: C5_5  and  O1_6 
REMARK    4  A    between atoms: C18_20  and  O2_21 
ROOT
HETATM    1  C4  UNL     1      -3.034   6.346  13.076  1.00  0.00     0.030 C 
HETATM    2  C6  UNL     1      -4.078   5.698  13.955  1.00  0.00     0.024 C 
HETATM    3  C7  UNL     1      -3.351   4.517  14.518  1.00  0.00     0.002 C 
HETATM    4  C8  UNL     1      -2.703   3.936  13.318  1.00  0.00     0.020 C 
HETATM    5  C9  UNL     1      -3.553   3.016  12.540  1.00  0.00     0.008 C 
HETATM    6  C10 UNL     1      -4.833   2.606  13.199  1.00  0.00     0.011 C 
HETATM    7  C11 UNL     1      -5.100   2.619  14.527  1.00  0.00    -0.030 A 
HETATM    8  C12 UNL     1      -6.388   2.766  15.128  1.00  0.00     0.016 C 
HETATM    9  C13 UNL     1      -4.567   1.109  15.296  1.00  0.00     0.012 A 
HETATM   10  C14 UNL     1      -4.392   0.184  14.177  1.00  0.00     0.015 C 
HETATM   11  C15 UNL     1      -3.777   1.870  15.911  1.00  0.00    -0.025 A 
HETATM   12  C16 UNL     1      -3.629   2.616  15.957  1.00  0.00    -0.024 A 
HETATM   13  C17 UNL     1      -4.067   3.684  15.446  1.00  0.00     0.021 A 
HETATM   14  C18 UNL     1      -2.261   5.157  12.541  1.00  0.00     0.137 C 
ENDROOT
BRANCH   1  15
HETATM   15  C2  UNL     1      -3.634   7.144  11.999  1.00  0.00    -0.080 C 
HETATM   16  C1  UNL     1      -3.039   8.204  11.514  1.00  0.00     0.015 C 
HETATM   17  C3  UNL     1      -4.959   6.751  11.404  1.00  0.00     0.043 C 
ENDBRANCH   1  15
BRANCH   1  18
HETATM   18  C5  UNL     1      -2.160   7.207  13.958  1.00  0.00     0.180 C 
BRANCH  18  19
HETATM   19  O1  UNL     1      -2.921   7.831  14.943  1.00  0.00    -0.400 OA
ATOM     20  H1  UNL     1      -2.947   7.302  15.732  1.00  0.00     0.209 HD
ENDBRANCH  18  19
ENDBRANCH   1  18
BRANCH  14  21
HETATM   21  O2  UNL     1      -0.881   5.367  12.660  1.00  0.00    -0.394 OA
ATOM     22  H2  UNL     1      -0.698   6.072  13.271  1.00  0.00     0.210 HD
ENDBRANCH  14  21
TORSDOF 4
ENDMDL
MODEL 5
REMARK VINA RESULT: -6.600348309      2.183      5.843
REMARK  4 active torsions:
REMARK  status: ('A' for Active; 'I' for Inactive)
REMARK    1  A    between atoms: C2_2  and  C4_4 
REMARK    2  A    between atoms: C4_4  and  C5_5 
REMARK    3  A    between atoms: C5_5  and  O1_6 
REMARK    4  A    between atoms: C18_20  and  O2_21 
ROOT
HETATM    1  C4  UNL     1      -4.298   2.813  14.407  1.00  0.00     0.030 C 
HETATM    2  C6  UNL     1      -3.021   3.557  14.093  1.00  0.00     0.024 C 
HETATM    3  C7  UNL     1      -3.360   4.968  14.460  1.00  0.00     0.002 C 
HETATM    4  C8  UNL     1      -4.686   5.155  13.826  1.00  0.00     0.020 C 
HETATM    5  C9  UNL     1      -4.643   5.557  12.408  1.00  0.00     0.008 C 
HETATM    6  C10 UNL     1      -3.297   5.962  11.893  1.00  0.00     0.011 C 
HETATM    7  C11 UNL     1      -2.248   6.404  12.627  1.00  0.00    -0.030 A 
HETATM    8  C12 UNL     1      -0.867   6.278  12.286  1.00  0.00     0.016 C 
HETATM    9  C13 UNL     1      -2.349   8.159  12.882  1.00  0.00     0.012 A 
HETATM   10  C14 UNL     1      -3.305   8.611  11.871  1.00  0.00     0.015 C 
HETATM   11  C15 UNL     1      -2.469   7.832  14.090  1.00  0.00    -0.025 A 
HETATM   12  C16 UNL     1      -2.464   7.194  14.508  1.00  0.00    -0.024 A 
HETATM   13  C17 UNL     1      -2.325   5.955  14.311  1.00  0.00     0.021 A 
HETATM   14  C18 UNL     1      -5.370   3.825  14.059  1.00  0.00     0.137 C 
ENDROOT
BRANCH   1  15
HETATM   15  C2  UNL     1      -4.427   1.579  13.621  1.00  0.00    -0.080 C 
HETATM   16  C1  UNL     1      -4.541   1.603  12.316  1.00  0.00     0.015 C 
HETATM   17  C3  UNL     1      -4.413   0.236  14.298  1.00  0.00     0.043 C 
ENDBRANCH   1  15
BRANCH   1  18
HETATM   18  C5  UNL     1      -4.299   2.509  15.887  1.00  0.00     0.180 C 
BRANCH  18  19
HETATM   19  O1  UNL     1      -3.065   2.005  16.286  1.00  0.00    -0.400 OA
ATOM     20  H1  UNL     1      -3.124   1.621  17.153  1.00  0.00     0.209 HD
ENDBRANCH  18  19
ENDBRANCH   1  18
BRANCH  14  21
HETATM   21  O2  UNL     1      -6.322   3.913  15.084  1.00  0.00    -0.394 OA
ATOM     22  H2  UNL     1      -6.861   3.130  15.111  1.00  0.00     0.210 HD
ENDBRANCH  14  21
TORSDOF 4
ENDMDL
