MODEL 1
REMARK VINA RESULT: -6.534506879      0.000      0.000
REMARK  4 active torsions:
REMARK  status: ('A' for Active; 'I' for Inactive)
REMARK    1  A    between atoms: C2_2  and  C3_3 
REMARK    2  A    between atoms: C3_3  and  N1_4 
REMARK    3  A    between atoms: C4_5  and  N2_6 
REMARK       I    between atoms: N2_6  and  C5_7 
REMARK       I    between atoms: C5_7  and  N4_11 
REMARK    4  A    between atoms: N4_11  and  C6_13 
ROOT
HETATM    1  N1  UNL     1      -4.197   4.125  11.891  1.00  0.00    -0.346 N 
HETATM    2  C4  UNL     1      -4.207   4.243  13.348  1.00  0.00     0.168 C 
HETATM    3  C9  UNL     1      -4.130   5.760  13.472  1.00  0.00     0.040 C 
HETATM    4  C10 UNL     1      -3.982   6.338  14.765  1.00  0.00     0.025 C 
HETATM    5  C11 UNL     1      -5.179   6.168  12.500  1.00  0.00     0.050 C 
HETATM    6  C12 UNL     1      -4.228   5.515  11.481  1.00  0.00     0.040 C 
HETATM    7  C13 UNL     1      -4.333   5.890  10.104  1.00  0.00     0.039 C 
HETATM    8  C14 UNL     1      -3.136   6.085  12.364  1.00  0.00    -0.007 C 
HETATM    9  C15 UNL     1      -1.863   5.291  12.385  1.00  0.00     0.018 C 
HETATM   10  C16 UNL     1      -2.917   7.557  12.229  1.00  0.00     0.018 C 
ENDROOT
BRANCH   2  11
HETATM   11  N2  UNL     1      -4.251   3.387  14.205  1.00  0.00    -0.357 NA
HETATM   12  C5  UNL     1      -4.507   2.530  15.167  1.00  0.00     0.250 C 
HETATM   13  N3  UNL     1      -3.548   1.932  15.871  1.00  0.00    -0.360 N 
HETATM   14  N4  UNL     1      -5.816   2.093  15.619  1.00  0.00    -0.347 N 
ATOM     15  H32 UNL     1      -2.629   2.238  15.554  1.00  0.00     0.160 HD
ATOM     16  H31 UNL     1      -3.747   1.266  16.618  1.00  0.00     0.160 HD
ATOM     17  H4  UNL     1      -6.575   2.054  14.938  1.00  0.00     0.164 HD
BRANCH  14  18
HETATM   18  C6  UNL     1      -6.099   1.713  16.970  1.00  0.00     0.077 C 
HETATM   19  C7  UNL     1      -7.191   0.688  17.079  1.00  0.00     0.032 C 
HETATM   20  C8  UNL     1      -6.335   2.920  17.829  1.00  0.00     0.032 C 
ENDBRANCH  14  18
ENDBRANCH   2  11
BRANCH   1  21
HETATM   21  C3  UNL     1      -4.165   2.940  11.080  1.00  0.00     0.152 C 
BRANCH  21  22
HETATM   22  C2  UNL     1      -5.130   1.899  11.393  1.00  0.00    -0.017 C 
HETATM   23  C1  UNL     1      -4.778   0.696  11.762  1.00  0.00     0.008 C 
ENDBRANCH  21  22
ENDBRANCH   1  21
TORSDOF 4
ENDMDL
MODEL 2
REMARK VINA RESULT: -6.518427845      1.231      3.416
REMARK  4 active torsions:
REMARK  status: ('A' for Active; 'I' for Inactive)
REMARK    1  A    between atoms: C2_2  and  C3_3 
REMARK    2  A    between atoms: C3_3  and  N1_4 
REMARK    3  A    between atoms: C4_5  and  N2_6 
REMARK       I    between atoms: N2_6  and  C5_7 
REMARK       I    between atoms: C5_7  and  N4_11 
REMARK    4  A    between atoms: N4_11  and  C6_13 
ROOT
HETATM    1  N1  UNL     1      -2.656   5.387  13.141  1.00  0.00    -0.346 N 
HETATM    2  C4  UNL     1      -3.386   4.119  13.130  1.00  0.00     0.168 C 
HETATM    3  C9  UNL     1      -3.665   4.011  11.635  1.00  0.00     0.040 C 
HETATM    4  C10 UNL     1      -4.494   2.952  11.166  1.00  0.00     0.025 C 
HETATM    5  C11 UNL     1      -2.317   4.312  11.083  1.00  0.00     0.050 C 
HETATM    6  C12 UNL     1      -2.563   5.688  11.727  1.00  0.00     0.040 C 
HETATM    7  C13 UNL     1      -1.824   6.814  11.245  1.00  0.00     0.039 C 
HETATM    8  C14 UNL     1      -4.000   5.459  11.303  1.00  0.00    -0.007 C 
HETATM    9  C15 UNL     1      -5.029   6.103  12.186  1.00  0.00     0.018 C 
HETATM   10  C16 UNL     1      -4.268   5.646   9.845  1.00  0.00     0.018 C 
ENDROOT
BRANCH   2  11
HETATM   11  N2  UNL     1      -3.690   3.380  14.041  1.00  0.00    -0.357 NA
HETATM   12  C5  UNL     1      -4.217   2.684  15.023  1.00  0.00     0.250 C 
HETATM   13  N3  UNL     1      -3.479   2.029  15.916  1.00  0.00    -0.360 N 
HETATM   14  N4  UNL     1      -5.631   2.504  15.302  1.00  0.00    -0.347 N 
ATOM     15  H32 UNL     1      -2.486   2.155  15.719  1.00  0.00     0.160 HD
ATOM     16  H31 UNL     1      -3.888   1.488  16.678  1.00  0.00     0.160 HD
ATOM     17  H4  UNL     1      -6.283   2.507  14.518  1.00  0.00     0.164 HD
BRANCH  14  18
HETATM   18  C6  UNL     1      -6.157   2.324  16.621  1.00  0.00     0.077 C 
HETATM   19  C7  UNL     1      -6.905   1.032  16.786  1.00  0.00     0.032 C 
HETATM   20  C8  UNL     1      -6.949   3.523  17.052  1.00  0.00     0.032 C 
ENDBRANCH  14  18
ENDBRANCH   2  11
BRANCH   1  21
HETATM   21  C3  UNL     1      -2.163   6.135  14.263  1.00  0.00     0.152 C 
BRANCH  21  22
HETATM   22  C2  UNL     1      -2.949   7.280  14.692  1.00  0.00    -0.017 C 
HETATM   23  C1  UNL     1      -2.478   8.499  14.698  1.00  0.00     0.008 C 
ENDBRANCH  21  22
ENDBRANCH   1  21
TORSDOF 4
ENDMDL
MODEL 3
REMARK VINA RESULT: -6.200337046      1.217      1.689
REMARK  4 active torsions:
REMARK  status: ('A' for Active; 'I' for Inactive)
REMARK    1  A    between atoms: C2_2  and  C3_3 
REMARK    2  A    between atoms: C3_3  and  N1_4 
REMARK    3  A    between atoms: C4_5  and  N2_6 
REMARK       I    between atoms: N2_6  and  C5_7 
REMARK       I    between atoms: C5_7  and  N4_11 
REMARK    4  A    between atoms: N4_11  and  C6_13 
ROOT
HETATM    1  N1  UNL     1      -4.421   3.625  12.233  1.00  0.00    -0.346 N 
HETATM    2  C4  UNL     1      -4.588   4.444  13.434  1.00  0.00     0.168 C 
HETATM    3  C9  UNL     1      -3.828   5.688  12.989  1.00  0.00     0.040 C 
HETATM    4  C10 UNL     1      -3.617   6.738  13.928  1.00  0.00     0.025 C 
HETATM    5  C11 UNL     1      -4.408   5.894  11.635  1.00  0.00     0.050 C 
HETATM    6  C12 UNL     1      -3.737   4.540  11.342  1.00  0.00     0.040 C 
HETATM    7  C13 UNL     1      -3.451   4.194   9.984  1.00  0.00     0.039 C 
HETATM    8  C14 UNL     1      -2.648   5.055  12.263  1.00  0.00    -0.007 C 
HETATM    9  C15 UNL     1      -1.913   3.993  13.027  1.00  0.00     0.018 C 
HETATM   10  C16 UNL     1      -1.747   6.086  11.663  1.00  0.00     0.018 C 
ENDROOT
BRANCH   2  11
HETATM   11  N2  UNL     1      -5.153   4.201  14.478  1.00  0.00    -0.357 NA
HETATM   12  C5  UNL     1      -5.678   3.733  15.588  1.00  0.00     0.250 C 
HETATM   13  N3  UNL     1      -6.733   4.294  16.175  1.00  0.00    -0.360 N 
HETATM   14  N4  UNL     1      -5.228   2.579  16.345  1.00  0.00    -0.347 N 
ATOM     15  H32 UNL     1      -7.049   5.104  15.643  1.00  0.00     0.160 HD
ATOM     16  H31 UNL     1      -7.141   3.930  17.037  1.00  0.00     0.160 HD
ATOM     17  H4  UNL     1      -4.234   2.350  16.334  1.00  0.00     0.164 HD
BRANCH  14  18
HETATM   18  C6  UNL     1      -6.107   1.744  17.108  1.00  0.00     0.077 C 
HETATM   19  C7  UNL     1      -6.137   2.098  18.567  1.00  0.00     0.032 C 
HETATM   20  C8  UNL     1      -5.820   0.293  16.859  1.00  0.00     0.032 C 
ENDBRANCH  14  18
ENDBRANCH   2  11
BRANCH   1  21
HETATM   21  C3  UNL     1      -4.829   2.267  12.002  1.00  0.00     0.152 C 
BRANCH  21  22
HETATM   22  C2  UNL     1      -4.329   1.260  12.923  1.00  0.00    -0.017 C 
HETATM   23  C1  UNL     1      -4.126   0.019  12.570  1.00  0.00     0.008 C 
ENDBRANCH  21  22
ENDBRANCH   1  21
TORSDOF 4
ENDMDL
MODEL 4
REMARK VINA RESULT: -6.128174230      2.276      5.517
REMARK  4 active torsions:
REMARK  status: ('A' for Active; 'I' for Inactive)
REMARK    1  A    between atoms: C2_2  and  C3_3 
REMARK    2  A    between atoms: C3_3  and  N1_4 
REMARK    3  A    between atoms: C4_5  and  N2_6 
REMARK       I    between atoms: N2_6  and  C5_7 
REMARK       I    between atoms: C5_7  and  N4_11 
REMARK    4  A    between atoms: N4_11  and  C6_13 
ROOT
HETATM    1  N1  UNL     1      -4.403   3.321  13.016  1.00  0.00    -0.346 N 
HETATM    2  C4  UNL     1      -3.210   4.157  12.884  1.00  0.00     0.168 C 
HETATM    3  C9  UNL     1      -3.309   4.932  14.193  1.00  0.00     0.040 C 
HETATM    4  C10 UNL     1      -2.387   5.990  14.437  1.00  0.00     0.025 C 
HETATM    5  C11 UNL     1      -3.565   3.822  15.150  1.00  0.00     0.050 C 
HETATM    6  C12 UNL     1      -4.867   3.673  14.343  1.00  0.00     0.040 C 
HETATM    7  C13 UNL     1      -5.980   3.010  14.951  1.00  0.00     0.039 C 
HETATM    8  C14 UNL     1      -4.809   5.185  14.261  1.00  0.00    -0.007 C 
HETATM    9  C15 UNL     1      -5.422   5.774  13.024  1.00  0.00     0.018 C 
HETATM   10  C16 UNL     1      -5.195   5.903  15.514  1.00  0.00     0.018 C 
ENDROOT
BRANCH   2  11
HETATM   11  N2  UNL     1      -2.392   4.224  11.992  1.00  0.00    -0.357 NA
HETATM   12  C5  UNL     1      -1.360   4.340  11.188  1.00  0.00     0.250 C 
HETATM   13  N3  UNL     1      -1.487   4.591   9.887  1.00  0.00    -0.360 N 
HETATM   14  N4  UNL     1       0.042   4.221  11.548  1.00  0.00    -0.347 N 
ATOM     15  H32 UNL     1      -2.472   4.674   9.635  1.00  0.00     0.160 HD
ATOM     16  H31 UNL     1      -0.685   4.682   9.263  1.00  0.00     0.160 HD
ATOM     17  H4  UNL     1       0.294   3.594  12.312  1.00  0.00     0.164 HD
BRANCH  14  18
HETATM   18  C6  UNL     1       1.090   4.937  10.886  1.00  0.00     0.077 C 
HETATM   19  C7  UNL     1       2.127   4.037  10.278  1.00  0.00     0.032 C 
HETATM   20  C8  UNL     1       1.675   5.986  11.786  1.00  0.00     0.032 C 
ENDBRANCH  14  18
ENDBRANCH   2  11
BRANCH   1  21
HETATM   21  C3  UNL     1      -4.966   2.395  12.073  1.00  0.00     0.152 C 
BRANCH  21  22
HETATM   22  C2  UNL     1      -4.424   1.046  12.068  1.00  0.00    -0.017 C 
HETATM   23  C1  UNL     1      -4.183   0.377  13.164  1.00  0.00     0.008 C 
ENDBRANCH  21  22
ENDBRANCH   1  21
TORSDOF 4
ENDMDL
MODEL 5
REMARK VINA RESULT: -5.989597404      1.701      4.049
REMARK  4 active torsions:
REMARK  status: ('A' for Active; 'I' for Inactive)
REMARK    1  A    between atoms: C2_2  and  C3_3 
REMARK    2  A    between atoms: C3_3  and  N1_4 
REMARK    3  A    between atoms: C4_5  and  N2_6 
REMARK       I    between atoms: N2_6  and  C5_7 
REMARK       I    between atoms: C5_7  and  N4_11 
REMARK    4  A    between atoms: N4_11  and  C6_13 
ROOT
HETATM    1  N1  UNL     1      -3.887   5.354  14.696  1.00  0.00    -0.346 N 
HETATM    2  C4  UNL     1      -3.371   4.211  13.943  1.00  0.00     0.168 C 
HETATM    3  C9  UNL     1      -2.287   4.918  13.137  1.00  0.00     0.040 C 
HETATM    4  C10 UNL     1      -1.586   4.185  12.137  1.00  0.00     0.025 C 
HETATM    5  C11 UNL     1      -1.619   5.704  14.209  1.00  0.00     0.050 C 
HETATM    6  C12 UNL     1      -2.984   6.411  14.288  1.00  0.00     0.040 C 
HETATM    7  C13 UNL     1      -3.048   7.719  14.863  1.00  0.00     0.039 C 
HETATM    8  C14 UNL     1      -2.999   6.218  12.784  1.00  0.00    -0.007 C 
HETATM    9  C15 UNL     1      -4.364   6.065  12.181  1.00  0.00     0.018 C 
HETATM   10  C16 UNL     1      -2.112   7.146  12.018  1.00  0.00     0.018 C 
ENDROOT
BRANCH   2  11
HETATM   11  N2  UNL     1      -3.713   3.048  13.948  1.00  0.00    -0.357 NA
HETATM   12  C5  UNL     1      -4.047   1.796  13.734  1.00  0.00     0.250 C 
HETATM   13  N3  UNL     1      -4.797   1.097  14.583  1.00  0.00    -0.360 N 
HETATM   14  N4  UNL     1      -3.678   0.979  12.591  1.00  0.00    -0.347 N 
ATOM     15  H32 UNL     1      -5.056   1.671  15.386  1.00  0.00     0.160 HD
ATOM     16  H31 UNL     1      -5.057   0.125  14.417  1.00  0.00     0.160 HD
ATOM     17  H4  UNL     1      -2.783   1.159  12.137  1.00  0.00     0.164 HD
BRANCH  14  18
HETATM   18  C6  UNL     1      -4.506  -0.066  12.069  1.00  0.00     0.077 C 
HETATM   19  C7  UNL     1      -3.833  -1.409  12.075  1.00  0.00     0.032 C 
HETATM   20  C8  UNL     1      -5.062   0.309  10.728  1.00  0.00     0.032 C 
ENDBRANCH  14  18
ENDBRANCH   2  11
BRANCH   1  21
HETATM   21  C3  UNL     1      -5.000   5.411  15.601  1.00  0.00     0.152 C 
BRANCH  21  22
HETATM   22  C2  UNL     1      -6.127   4.537  15.320  1.00  0.00    -0.017 C 
HETATM   23  C1  UNL     1      -6.615   3.705  16.201  1.00  0.00     0.008 C 
ENDBRANCH  21  22
ENDBRANCH   1  21
TORSDOF 4
ENDMDL
