MODEL 1
REMARK VINA RESULT: -8.678066478      0.000      0.000
REMARK  5 active torsions:
REMARK  status: ('A' for Active; 'I' for Inactive)
REMARK    1  A    between atoms: C4_5  and  O1_6 
REMARK    2  A    between atoms: C7_10  and  C8_11 
REMARK    3  A    between atoms: C19_25  and  O5_26 
REMARK    4  A    between atoms: C20_28  and  O6_29 
REMARK    5  A    between atoms: O6_29  and  C21_30 
ROOT
HETATM    1  C8  UNL     1       6.541  -3.102 -13.313  1.00  0.00     0.038 C 
HETATM    2  C9  UNL     1       5.864  -1.752 -13.913  1.00  0.00     0.025 C 
HETATM    3  C10 UNL     1       6.945  -3.651 -14.663  1.00  0.00     0.037 C 
HETATM    4  C11 UNL     1       7.510  -2.672 -15.640  1.00  0.00     0.025 C 
HETATM    5  C12 UNL     1       7.450  -5.076 -14.738  1.00  0.00     0.013 A 
HETATM    6  C13 UNL     1       7.212  -6.075 -15.741  1.00  0.00     0.018 A 
HETATM    7  C14 UNL     1       6.248  -5.995 -14.541  1.00  0.00    -0.012 A 
HETATM    8  C15 UNL     1       6.317  -7.313 -13.806  1.00  0.00     0.017 C 
HETATM    9  C16 UNL     1       5.310  -4.955 -14.331  1.00  0.00     0.153 C 
HETATM   10  C17 UNL     1       3.917  -5.309 -14.526  1.00  0.00     0.281 C 
HETATM   11  O2  UNL     1       3.541  -6.439 -14.863  1.00  0.00    -0.264 OA
HETATM   12  O3  UNL     1       3.237  -4.206 -14.271  1.00  0.00    -0.285 OA
HETATM   13  C18 UNL     1       4.007  -3.402 -13.334  1.00  0.00     0.310 C 
HETATM   14  O4  UNL     1       3.048  -3.336 -12.341  1.00  0.00    -0.323 OA
HETATM   15  C19 UNL     1       2.896  -4.511 -11.699  1.00  0.00     0.316 C 
HETATM   16  C20 UNL     1       4.175  -5.293 -11.517  1.00  0.00     0.325 C 
HETATM   17  O8  UNL     1       5.296  -4.879 -12.105  1.00  0.00    -0.337 OA
HETATM   18  C23 UNL     1       5.341  -3.967 -13.120  1.00  0.00     0.151 C 
HETATM   19  C24 UNL     1       5.650  -3.993 -15.396  1.00  0.00     0.159 C 
HETATM   20  O9  UNL     1       4.706  -3.290 -15.903  1.00  0.00    -0.296 OA
ENDROOT
BRANCH   1  21
HETATM   21  C7  UNL     1       7.337  -2.428 -12.392  1.00  0.00    -0.021 C 
HETATM   22  C2  UNL     1       8.784  -2.312 -12.565  1.00  0.00     0.003 C 
HETATM   23  C1  UNL     1       9.330  -2.046 -13.675  1.00  0.00     0.032 C 
HETATM   24  S1  UNL     1      10.105  -2.253 -11.350  1.00  0.00    -0.100 SA
HETATM   25  C3  UNL     1       9.174  -1.617  -9.983  1.00  0.00     0.087 C 
HETATM   26  C4  UNL     1       7.871  -1.652 -10.096  1.00  0.00     0.078 C 
HETATM   27  C5  UNL     1       6.967  -2.039 -11.164  1.00  0.00    -0.020 C 
HETATM   28  C6  UNL     1       5.602  -1.795 -10.859  1.00  0.00     0.052 C 
BRANCH  26  29
HETATM   29  O1  UNL     1       7.277  -1.141  -8.879  1.00  0.00    -0.360 OA
ATOM     30  H1  UNL     1       6.701  -1.803  -8.513  1.00  0.00     0.217 HD
ENDBRANCH  26  29
ENDBRANCH   1  21
BRANCH  16  31
HETATM   31  O6  UNL     1       3.774  -6.615 -11.493  1.00  0.00    -0.285 OA
BRANCH  31  32
HETATM   32  C21 UNL     1       3.969  -7.558 -10.524  1.00  0.00     0.257 C 
HETATM   33  C22 UNL     1       3.888  -9.000 -10.773  1.00  0.00     0.126 C 
HETATM   34  O7  UNL     1       4.231  -7.129  -9.365  1.00  0.00    -0.266 OA
ENDBRANCH  31  32
ENDBRANCH  16  31
BRANCH  15  35
HETATM   35  O5  UNL     1       1.849  -5.256 -12.241  1.00  0.00    -0.367 OA
ATOM     36  H5  UNL     1       2.110  -6.155 -12.402  1.00  0.00     0.212 HD
ENDBRANCH  15  35
TORSDOF 5
ENDMDL
MODEL 2
REMARK VINA RESULT: -8.649518618      3.067      6.487
REMARK  5 active torsions:
REMARK  status: ('A' for Active; 'I' for Inactive)
REMARK    1  A    between atoms: C4_5  and  O1_6 
REMARK    2  A    between atoms: C7_10  and  C8_11 
REMARK    3  A    between atoms: C19_25  and  O5_26 
REMARK    4  A    between atoms: C20_28  and  O6_29 
REMARK    5  A    between atoms: O6_29  and  C21_30 
ROOT
HETATM    1  C8  UNL     1       4.375  -7.418 -11.551  1.00  0.00     0.038 C 
HETATM    2  C9  UNL     1       4.272  -6.982  -9.989  1.00  0.00     0.025 C 
HETATM    3  C10 UNL     1       5.837  -7.797 -11.481  1.00  0.00     0.037 C 
HETATM    4  C11 UNL     1       6.275  -8.549 -10.265  1.00  0.00     0.025 C 
HETATM    5  C12 UNL     1       6.569  -8.083 -12.774  1.00  0.00     0.013 A 
HETATM    6  C13 UNL     1       7.910  -7.744 -13.156  1.00  0.00     0.018 A 
HETATM    7  C14 UNL     1       6.781  -6.749 -13.482  1.00  0.00    -0.012 A 
HETATM    8  C15 UNL     1       6.731  -6.584 -14.983  1.00  0.00     0.017 C 
HETATM    9  C16 UNL     1       6.092  -5.970 -12.520  1.00  0.00     0.153 C 
HETATM   10  C17 UNL     1       6.388  -4.550 -12.525  1.00  0.00     0.281 C 
HETATM   11  O2  UNL     1       7.193  -4.024 -13.303  1.00  0.00    -0.264 OA
HETATM   12  O3  UNL     1       5.638  -4.033 -11.568  1.00  0.00    -0.285 OA
HETATM   13  C18 UNL     1       4.459  -4.872 -11.410  1.00  0.00     0.310 C 
HETATM   14  O4  UNL     1       3.520  -3.889 -11.655  1.00  0.00    -0.323 OA
HETATM   15  C19 UNL     1       3.481  -3.531 -12.954  1.00  0.00     0.316 C 
HETATM   16  C20 UNL     1       3.712  -4.668 -13.921  1.00  0.00     0.325 C 
HETATM   17  O8  UNL     1       4.078  -5.864 -13.465  1.00  0.00    -0.337 OA
HETATM   18  C23 UNL     1       4.565  -6.093 -12.211  1.00  0.00     0.151 C 
HETATM   19  C24 UNL     1       6.609  -6.501 -11.245  1.00  0.00     0.159 C 
HETATM   20  O9  UNL     1       6.712  -5.699 -10.251  1.00  0.00    -0.296 OA
ENDROOT
BRANCH   1  21
HETATM   21  C7  UNL     1       3.271  -8.264 -11.504  1.00  0.00    -0.021 C 
HETATM   22  C2  UNL     1       1.933  -7.766 -11.186  1.00  0.00     0.003 C 
HETATM   23  C1  UNL     1       1.462  -6.693 -11.663  1.00  0.00     0.032 C 
HETATM   24  S1  UNL     1       0.570  -8.551 -10.321  1.00  0.00    -0.100 SA
HETATM   25  C3  UNL     1       0.993 -10.241 -10.648  1.00  0.00     0.087 C 
HETATM   26  C4  UNL     1       2.200 -10.465 -11.099  1.00  0.00     0.078 C 
HETATM   27  C5  UNL     1       3.302  -9.603 -11.485  1.00  0.00    -0.020 C 
HETATM   28  C6  UNL     1       4.402 -10.313 -12.034  1.00  0.00     0.052 C 
BRANCH  26  29
HETATM   29  O1  UNL     1       2.386 -11.892 -11.263  1.00  0.00    -0.360 OA
ATOM     30  H1  UNL     1       3.127 -12.170 -10.737  1.00  0.00     0.217 HD
ENDBRANCH  26  29
ENDBRANCH   1  21
BRANCH  16  31
HETATM   31  O6  UNL     1       4.284  -4.070 -15.029  1.00  0.00    -0.285 OA
BRANCH  31  32
HETATM   32  C21 UNL     1       4.081  -4.337 -16.353  1.00  0.00     0.257 C 
HETATM   33  C22 UNL     1       3.452  -5.568 -16.841  1.00  0.00     0.126 C 
HETATM   34  O7  UNL     1       4.467  -3.456 -17.171  1.00  0.00    -0.266 OA
ENDBRANCH  31  32
ENDBRANCH  16  31
BRANCH  15  35
HETATM   35  O5  UNL     1       4.274  -2.410 -13.197  1.00  0.00    -0.367 OA
ATOM     36  H5  UNL     1       5.037  -2.631 -13.718  1.00  0.00     0.212 HD
ENDBRANCH  15  35
TORSDOF 5
ENDMDL
MODEL 3
REMARK VINA RESULT: -8.546846935      2.905      5.344
REMARK  5 active torsions:
REMARK  status: ('A' for Active; 'I' for Inactive)
REMARK    1  A    between atoms: C4_5  and  O1_6 
REMARK    2  A    between atoms: C7_10  and  C8_11 
REMARK    3  A    between atoms: C19_25  and  O5_26 
REMARK    4  A    between atoms: C20_28  and  O6_29 
REMARK    5  A    between atoms: O6_29  and  C21_30 
ROOT
HETATM    1  C8  UNL     1       6.192  -7.133 -12.175  1.00  0.00     0.038 C 
HETATM    2  C9  UNL     1       6.879  -6.638 -10.788  1.00  0.00     0.025 C 
HETATM    3  C10 UNL     1       6.610  -5.913 -12.965  1.00  0.00     0.037 C 
HETATM    4  C11 UNL     1       7.999  -5.411 -12.732  1.00  0.00     0.025 C 
HETATM    5  C12 UNL     1       6.024  -5.714 -14.346  1.00  0.00     0.013 A 
HETATM    6  C13 UNL     1       5.598  -4.504 -14.989  1.00  0.00     0.018 A 
HETATM    7  C14 UNL     1       4.567  -5.299 -14.166  1.00  0.00    -0.012 A 
HETATM    8  C15 UNL     1       3.458  -5.721 -15.099  1.00  0.00     0.017 C 
HETATM    9  C16 UNL     1       4.568  -5.396 -12.752  1.00  0.00     0.153 C 
HETATM   10  C17 UNL     1       3.513  -4.675 -12.067  1.00  0.00     0.281 C 
HETATM   11  O2  UNL     1       2.655  -4.002 -12.652  1.00  0.00    -0.264 OA
HETATM   12  O3  UNL     1       3.704  -4.912 -10.782  1.00  0.00    -0.285 OA
HETATM   13  C18 UNL     1       4.370  -6.200 -10.651  1.00  0.00     0.310 C 
HETATM   14  O4  UNL     1       3.412  -6.804  -9.858  1.00  0.00    -0.323 OA
HETATM   15  C19 UNL     1       2.290  -7.096 -10.546  1.00  0.00     0.316 C 
HETATM   16  C20 UNL     1       2.528  -7.528 -11.973  1.00  0.00     0.325 C 
HETATM   17  O8  UNL     1       3.750  -7.451 -12.495  1.00  0.00    -0.337 OA
HETATM   18  C23 UNL     1       4.773  -6.726 -11.957  1.00  0.00     0.151 C 
HETATM   19  C24 UNL     1       5.834  -4.734 -12.385  1.00  0.00     0.159 C 
HETATM   20  O9  UNL     1       5.886  -4.099 -11.272  1.00  0.00    -0.296 OA
ENDROOT
BRANCH   1  21
HETATM   21  C7  UNL     1       6.794  -8.387 -12.157  1.00  0.00    -0.021 C 
HETATM   22  C2  UNL     1       6.909  -9.167 -10.926  1.00  0.00     0.003 C 
HETATM   23  C1  UNL     1       5.969  -9.281 -10.086  1.00  0.00     0.032 C 
HETATM   24  S1  UNL     1       8.183 -10.311 -10.383  1.00  0.00    -0.100 SA
HETATM   25  C3  UNL     1       8.795 -10.794 -11.974  1.00  0.00     0.087 C 
HETATM   26  C4  UNL     1       8.431 -10.054 -12.990  1.00  0.00     0.078 C 
HETATM   27  C5  UNL     1       7.539  -8.919 -13.135  1.00  0.00    -0.020 C 
HETATM   28  C6  UNL     1       7.368  -8.509 -14.484  1.00  0.00     0.052 C 
BRANCH  26  29
HETATM   29  O1  UNL     1       9.057 -10.562 -14.193  1.00  0.00    -0.360 OA
ATOM     30  H1  UNL     1       9.114 -11.509 -14.137  1.00  0.00     0.217 HD
ENDBRANCH  26  29
ENDBRANCH   1  21
BRANCH  16  31
HETATM   31  O6  UNL     1       1.387  -7.138 -12.648  1.00  0.00    -0.285 OA
BRANCH  31  32
HETATM   32  C21 UNL     1       0.608  -7.856 -13.511  1.00  0.00     0.257 C 
HETATM   33  C22 UNL     1      -0.837  -8.031 -13.338  1.00  0.00     0.126 C 
HETATM   34  O7  UNL     1       1.196  -8.381 -14.497  1.00  0.00    -0.266 OA
ENDBRANCH  31  32
ENDBRANCH  16  31
BRANCH  15  35
HETATM   35  O5  UNL     1       1.333  -6.090 -10.409  1.00  0.00    -0.367 OA
ATOM     36  H5  UNL     1       0.453  -6.447 -10.419  1.00  0.00     0.212 HD
ENDBRANCH  15  35
TORSDOF 5
ENDMDL
MODEL 4
REMARK VINA RESULT: -8.270680484      2.173      4.663
REMARK  5 active torsions:
REMARK  status: ('A' for Active; 'I' for Inactive)
REMARK    1  A    between atoms: C4_5  and  O1_6 
REMARK    2  A    between atoms: C7_10  and  C8_11 
REMARK    3  A    between atoms: C19_25  and  O5_26 
REMARK    4  A    between atoms: C20_28  and  O6_29 
REMARK    5  A    between atoms: O6_29  and  C21_30 
ROOT
HETATM    1  C8  UNL     1       7.641  -3.197 -13.819  1.00  0.00     0.038 C 
HETATM    2  C9  UNL     1       9.141  -3.730 -13.493  1.00  0.00     0.025 C 
HETATM    3  C10 UNL     1       7.467  -2.492 -12.492  1.00  0.00     0.037 C 
HETATM    4  C11 UNL     1       8.645  -1.727 -11.983  1.00  0.00     0.025 C 
HETATM    5  C12 UNL     1       6.093  -1.972 -12.129  1.00  0.00     0.013 A 
HETATM    6  C13 UNL     1       5.428  -1.968 -10.857  1.00  0.00     0.018 A 
HETATM    7  C14 UNL     1       5.226  -3.180 -11.786  1.00  0.00    -0.012 A 
HETATM    8  C15 UNL     1       3.754  -3.270 -12.113  1.00  0.00     0.017 C 
HETATM    9  C16 UNL     1       6.218  -4.150 -12.071  1.00  0.00     0.153 C 
HETATM   10  C17 UNL     1       6.013  -5.459 -11.481  1.00  0.00     0.281 C 
HETATM   11  O2  UNL     1       5.046  -5.739 -10.762  1.00  0.00    -0.264 OA
HETATM   12  O3  UNL     1       7.039  -6.188 -11.882  1.00  0.00    -0.285 OA
HETATM   13  C18 UNL     1       7.504  -5.657 -13.155  1.00  0.00     0.310 C 
HETATM   14  O4  UNL     1       7.347  -6.818 -13.888  1.00  0.00    -0.323 OA
HETATM   15  C19 UNL     1       6.050  -7.103 -14.121  1.00  0.00     0.316 C 
HETATM   16  C20 UNL     1       5.176  -5.893 -14.350  1.00  0.00     0.325 C 
HETATM   17  O8  UNL     1       5.673  -4.671 -14.166  1.00  0.00    -0.337 OA
HETATM   18  C23 UNL     1       6.826  -4.403 -13.488  1.00  0.00     0.151 C 
HETATM   19  C24 UNL     1       7.417  -3.583 -11.425  1.00  0.00     0.159 C 
HETATM   20  O9  UNL     1       8.287  -4.392 -10.944  1.00  0.00    -0.296 OA
ENDROOT
BRANCH   1  21
HETATM   21  C7  UNL     1       7.984  -2.637 -15.045  1.00  0.00    -0.021 C 
HETATM   22  C2  UNL     1       9.186  -3.049 -15.769  1.00  0.00     0.003 C 
HETATM   23  C1  UNL     1       9.544  -4.257 -15.888  1.00  0.00     0.032 C 
HETATM   24  S1  UNL     1      10.286  -2.111 -16.836  1.00  0.00    -0.100 SA
HETATM   25  C3  UNL     1       9.141  -0.863 -17.357  1.00  0.00     0.087 C 
HETATM   26  C4  UNL     1       8.029  -0.767 -16.675  1.00  0.00     0.078 C 
HETATM   27  C5  UNL     1       7.452  -1.532 -15.586  1.00  0.00    -0.020 C 
HETATM   28  C6  UNL     1       6.141  -1.112 -15.238  1.00  0.00     0.052 C 
BRANCH  26  29
HETATM   29  O1  UNL     1       7.242   0.327 -17.206  1.00  0.00    -0.360 OA
ATOM     30  H1  UNL     1       6.643  -0.012 -17.860  1.00  0.00     0.217 HD
ENDBRANCH  26  29
ENDBRANCH   1  21
BRANCH  16  31
HETATM   31  O6  UNL     1       3.925  -6.279 -13.908  1.00  0.00    -0.285 OA
BRANCH  31  32
HETATM   32  C21 UNL     1       2.709  -6.106 -14.506  1.00  0.00     0.257 C 
HETATM   33  C22 UNL     1       1.484  -5.788 -13.766  1.00  0.00     0.126 C 
HETATM   34  O7  UNL     1       2.675  -6.234 -15.762  1.00  0.00    -0.266 OA
ENDBRANCH  31  32
ENDBRANCH  16  31
BRANCH  15  35
HETATM   35  O5  UNL     1       5.547  -7.993 -13.172  1.00  0.00    -0.367 OA
ATOM     36  H5  UNL     1       4.598  -7.960 -13.134  1.00  0.00     0.212 HD
ENDBRANCH  15  35
TORSDOF 5
ENDMDL
MODEL 5
REMARK VINA RESULT: -8.170682420      3.165      5.650
REMARK  5 active torsions:
REMARK  status: ('A' for Active; 'I' for Inactive)
REMARK    1  A    between atoms: C4_5  and  O1_6 
REMARK    2  A    between atoms: C7_10  and  C8_11 
REMARK    3  A    between atoms: C19_25  and  O5_26 
REMARK    4  A    between atoms: C20_28  and  O6_29 
REMARK    5  A    between atoms: O6_29  and  C21_30 
ROOT
HETATM    1  C8  UNL     1       5.909  -7.670 -11.870  1.00  0.00     0.038 C 
HETATM    2  C9  UNL     1       6.619  -7.158 -10.500  1.00  0.00     0.025 C 
HETATM    3  C10 UNL     1       6.450  -6.542 -12.721  1.00  0.00     0.037 C 
HETATM    4  C11 UNL     1       7.875  -6.155 -12.490  1.00  0.00     0.025 C 
HETATM    5  C12 UNL     1       5.905  -6.374 -14.122  1.00  0.00     0.013 A 
HETATM    6  C13 UNL     1       5.601  -5.171 -14.843  1.00  0.00     0.018 A 
HETATM    7  C14 UNL     1       4.489  -5.818 -13.996  1.00  0.00    -0.012 A 
HETATM    8  C15 UNL     1       3.360  -6.193 -14.926  1.00  0.00     0.017 C 
HETATM    9  C16 UNL     1       4.461  -5.830 -12.580  1.00  0.00     0.153 C 
HETATM   10  C17 UNL     1       3.466  -4.977 -11.958  1.00  0.00     0.281 C 
HETATM   11  O2  UNL     1       2.682  -4.266 -12.599  1.00  0.00    -0.264 OA
HETATM   12  O3  UNL     1       3.616  -5.154 -10.658  1.00  0.00    -0.285 OA
HETATM   13  C18 UNL     1       4.159  -6.487 -10.439  1.00  0.00     0.310 C 
HETATM   14  O4  UNL     1       3.138  -6.953  -9.632  1.00  0.00    -0.323 OA
HETATM   15  C19 UNL     1       2.004  -7.183 -10.324  1.00  0.00     0.316 C 
HETATM   16  C20 UNL     1       2.222  -7.719 -11.719  1.00  0.00     0.325 C 
HETATM   17  O8  UNL     1       3.454  -7.784 -12.220  1.00  0.00    -0.337 OA
HETATM   18  C23 UNL     1       4.531  -7.123 -11.704  1.00  0.00     0.151 C 
HETATM   19  C24 UNL     1       5.776  -5.265 -12.226  1.00  0.00     0.159 C 
HETATM   20  O9  UNL     1       5.870  -4.573 -11.151  1.00  0.00    -0.296 OA
ENDROOT
BRANCH   1  21
HETATM   21  C7  UNL     1       6.393  -8.970 -11.767  1.00  0.00    -0.021 C 
HETATM   22  C2  UNL     1       6.738  -9.759 -12.949  1.00  0.00     0.003 C 
HETATM   23  C1  UNL     1       7.373  -9.286 -13.936  1.00  0.00     0.032 C 
HETATM   24  S1  UNL     1       6.622 -11.525 -13.249  1.00  0.00    -0.100 SA
HETATM   25  C3  UNL     1       6.724 -12.082 -11.570  1.00  0.00     0.087 C 
HETATM   26  C4  UNL     1       6.556 -11.175 -10.642  1.00  0.00     0.078 C 
HETATM   27  C5  UNL     1       6.372  -9.736 -10.668  1.00  0.00    -0.020 C 
HETATM   28  C6  UNL     1       6.344  -9.152  -9.374  1.00  0.00     0.052 C 
BRANCH  26  29
HETATM   29  O1  UNL     1       6.624 -11.811  -9.342  1.00  0.00    -0.360 OA
ATOM     30  H1  UNL     1       7.296 -11.386  -8.824  1.00  0.00     0.217 HD
ENDBRANCH  26  29
ENDBRANCH   1  21
BRANCH  16  31
HETATM   31  O6  UNL     1       1.132  -7.268 -12.438  1.00  0.00    -0.285 OA
BRANCH  31  32
HETATM   32  C21 UNL     1       0.321  -7.955 -13.296  1.00  0.00     0.257 C 
HETATM   33  C22 UNL     1      -1.086  -8.254 -13.011  1.00  0.00     0.126 C 
HETATM   34  O7  UNL     1       0.843  -8.338 -14.380  1.00  0.00    -0.266 OA
ENDBRANCH  31  32
ENDBRANCH  16  31
BRANCH  15  35
HETATM   35  O5  UNL     1       1.142  -6.088 -10.265  1.00  0.00    -0.367 OA
ATOM     36  H5  UNL     1       1.544  -5.354  -9.816  1.00  0.00     0.212 HD
ENDBRANCH  15  35
TORSDOF 5
ENDMDL
