MODEL 1
REMARK VINA RESULT: -8.159161082      0.000      0.000
REMARK  5 active torsions:
REMARK  status: ('A' for Active; 'I' for Inactive)
REMARK    1  A    between atoms: C3_4  and  O2_6 
REMARK    2  A    between atoms: C7_10  and  O3_11 
REMARK    3  A    between atoms: O3_11  and  C8_12 
REMARK    4  A    between atoms: C11_17  and  O6_18 
REMARK    5  A    between atoms: C17_25  and  O7_26 
ROOT
HETATM    1  C1  UNL     1       2.651  -6.373 -15.125  1.00  0.00     0.047 C 
HETATM    2  C2  UNL     1       2.337  -6.408 -13.873  1.00  0.00     0.051 C 
HETATM    3  O1  UNL     1       0.989  -6.147 -13.469  1.00  0.00    -0.318 OA
HETATM    4  C3  UNL     1       0.713  -6.902 -12.256  1.00  0.00     0.174 C 
HETATM    5  C4  UNL     1      -0.579  -7.618 -12.501  1.00  0.00     0.080 C 
HETATM    6  C5  UNL     1       1.921  -7.784 -12.303  1.00  0.00     0.056 C 
HETATM    7  C6  UNL     1       1.691  -8.634 -13.540  1.00  0.00     0.025 C 
HETATM    8  C7  UNL     1       2.295  -8.654 -11.211  1.00  0.00     0.178 C 
HETATM    9  C10 UNL     1       3.595  -9.253 -11.759  1.00  0.00     0.188 C 
HETATM   10  O5  UNL     1       4.423  -8.382 -12.356  1.00  0.00    -0.343 OA
HETATM   11  C11 UNL     1       4.240  -7.025 -12.190  1.00  0.00     0.183 C 
HETATM   12  C12 UNL     1       2.933  -6.647 -12.583  1.00  0.00     0.121 C 
HETATM   13  C13 UNL     1       5.455  -6.231 -12.594  1.00  0.00     0.030 C 
HETATM   14  C14 UNL     1       5.021  -4.901 -13.268  1.00  0.00     0.025 C 
HETATM   15  C15 UNL     1       6.276  -5.697 -11.438  1.00  0.00     0.025 C 
HETATM   16  C16 UNL     1       6.391  -6.987 -13.470  1.00  0.00     0.024 C 
HETATM   17  C17 UNL     1       7.186  -7.962 -13.403  1.00  0.00     0.067 C 
HETATM   18  C18 UNL     1       7.722  -8.972 -12.500  1.00  0.00    -0.018 C 
HETATM   19  C19 UNL     1       7.337 -10.379 -12.934  1.00  0.00     0.043 C 
HETATM   20  C20 UNL     1       5.898 -10.759 -12.740  1.00  0.00     0.056 C 
HETATM   21  C21 UNL     1       5.448 -10.760 -11.338  1.00  0.00     0.177 A 
HETATM   22  O8  UNL     1       4.315 -11.549 -11.058  1.00  0.00    -0.355 OA
HETATM   23  C22 UNL     1       4.292 -10.169 -10.854  1.00  0.00     0.199 A 
HETATM   24  C23 UNL     1       6.681 -11.055 -10.522  1.00  0.00     0.297 C 
HETATM   25  O9  UNL     1       6.696 -12.082  -9.858  1.00  0.00    -0.262 OA
HETATM   26  O10 UNL     1       7.779 -10.216 -10.498  1.00  0.00    -0.309 OA
HETATM   27  C24 UNL     1       7.744  -8.862 -11.051  1.00  0.00     0.159 C 
HETATM   28  C25 UNL     1       9.037  -8.255 -10.474  1.00  0.00     0.045 C 
ENDROOT
BRANCH   8  29
HETATM   29  O3  UNL     1       1.316  -9.714 -11.151  1.00  0.00    -0.313 OA
BRANCH  29  30
HETATM   30  C8  UNL     1       0.481  -9.909 -10.071  1.00  0.00     0.255 C 
HETATM   31  C9  UNL     1      -0.706 -10.797 -10.105  1.00  0.00     0.126 C 
HETATM   32  O4  UNL     1       0.787  -9.271  -9.007  1.00  0.00    -0.266 OA
ENDBRANCH  29  30
ENDBRANCH   8  29
BRANCH   4  33
HETATM   33  O2  UNL     1       0.643  -6.082 -11.161  1.00  0.00    -0.364 OA
ATOM     34  H2  UNL     1       0.163  -6.492 -10.451  1.00  0.00     0.213 HD
ENDBRANCH   4  33
BRANCH  11  35
HETATM   35  O6  UNL     1       4.272  -6.916 -10.759  1.00  0.00    -0.364 OA
ATOM     36  H6  UNL     1       3.379  -6.649 -10.577  1.00  0.00     0.213 HD
ENDBRANCH  11  35
BRANCH  17  37
HETATM   37  O7  UNL     1       7.844  -8.221 -14.693  1.00  0.00    -0.361 OA
ATOM     38  H7  UNL     1       7.579  -9.054 -15.064  1.00  0.00     0.217 HD
ENDBRANCH  17  37
TORSDOF 5
ENDMDL
MODEL 2
REMARK VINA RESULT: -7.719222166      2.269      5.253
REMARK  5 active torsions:
REMARK  status: ('A' for Active; 'I' for Inactive)
REMARK    1  A    between atoms: C3_4  and  O2_6 
REMARK    2  A    between atoms: C7_10  and  O3_11 
REMARK    3  A    between atoms: O3_11  and  C8_12 
REMARK    4  A    between atoms: C11_17  and  O6_18 
REMARK    5  A    between atoms: C17_25  and  O7_26 
ROOT
HETATM    1  C1  UNL     1       6.043  -9.821 -10.160  1.00  0.00     0.047 C 
HETATM    2  C2  UNL     1       5.180  -9.673 -11.109  1.00  0.00     0.051 C 
HETATM    3  O1  UNL     1       4.020 -10.510 -11.153  1.00  0.00    -0.318 OA
HETATM    4  C3  UNL     1       2.932  -9.763 -11.768  1.00  0.00     0.174 C 
HETATM    5  C4  UNL     1       1.757  -9.923 -10.854  1.00  0.00     0.080 C 
HETATM    6  C5  UNL     1       3.574  -8.413 -11.712  1.00  0.00     0.056 C 
HETATM    7  C6  UNL     1       3.663  -8.125 -10.223  1.00  0.00     0.025 C 
HETATM    8  C7  UNL     1       3.014  -7.255 -12.371  1.00  0.00     0.178 C 
HETATM    9  C10 UNL     1       4.076  -6.201 -12.042  1.00  0.00     0.188 C 
HETATM   10  O5  UNL     1       5.349  -6.607 -12.169  1.00  0.00    -0.343 OA
HETATM   11  C11 UNL     1       5.641  -7.774 -12.845  1.00  0.00     0.183 C 
HETATM   12  C12 UNL     1       4.941  -8.866 -12.279  1.00  0.00     0.121 C 
HETATM   13  C13 UNL     1       7.097  -7.867 -13.219  1.00  0.00     0.030 C 
HETATM   14  C14 UNL     1       7.584  -9.337 -13.096  1.00  0.00     0.025 C 
HETATM   15  C15 UNL     1       7.394  -7.602 -14.682  1.00  0.00     0.025 C 
HETATM   16  C16 UNL     1       7.970  -6.953 -12.433  1.00  0.00     0.024 C 
HETATM   17  C17 UNL     1       8.195  -5.721 -12.307  1.00  0.00     0.067 C 
HETATM   18  C18 UNL     1       7.801  -4.405 -12.795  1.00  0.00    -0.018 C 
HETATM   19  C19 UNL     1       7.169  -3.561 -11.697  1.00  0.00     0.043 C 
HETATM   20  C20 UNL     1       5.795  -3.972 -11.257  1.00  0.00     0.056 C 
HETATM   21  C21 UNL     1       4.765  -3.890 -12.307  1.00  0.00     0.177 A 
HETATM   22  O8  UNL     1       3.435  -3.785 -11.855  1.00  0.00    -0.355 OA
HETATM   23  C22 UNL     1       3.844  -4.876 -12.622  1.00  0.00     0.199 A 
HETATM   24  C23 UNL     1       5.236  -2.808 -13.246  1.00  0.00     0.297 C 
HETATM   25  O9  UNL     1       4.538  -1.811 -13.364  1.00  0.00    -0.262 OA
HETATM   26  O10 UNL     1       6.411  -2.903 -13.966  1.00  0.00    -0.309 OA
HETATM   27  C24 UNL     1       7.164  -4.153 -14.077  1.00  0.00     0.159 C 
HETATM   28  C25 UNL     1       8.140  -3.828 -15.224  1.00  0.00     0.045 C 
ENDROOT
BRANCH   8  29
HETATM   29  O3  UNL     1       1.808  -6.897 -11.662  1.00  0.00    -0.313 OA
BRANCH  29  30
HETATM   30  C8  UNL     1       0.567  -6.845 -12.261  1.00  0.00     0.255 C 
HETATM   31  C9  UNL     1      -0.692  -7.207 -11.568  1.00  0.00     0.126 C 
HETATM   32  O4  UNL     1       0.553  -6.457 -13.479  1.00  0.00    -0.266 OA
ENDBRANCH  29  30
ENDBRANCH   8  29
BRANCH   4  33
HETATM   33  O2  UNL     1       2.662 -10.220 -13.031  1.00  0.00    -0.364 OA
ATOM     34  H2  UNL     1       2.727 -11.166 -13.080  1.00  0.00     0.213 HD
ENDBRANCH   4  33
BRANCH  11  35
HETATM   35  O6  UNL     1       5.020  -7.518 -14.114  1.00  0.00    -0.364 OA
ATOM     36  H6  UNL     1       4.191  -7.969 -14.006  1.00  0.00     0.213 HD
ENDBRANCH  11  35
BRANCH  17  37
HETATM   37  O7  UNL     1       9.236  -5.454 -11.303  1.00  0.00    -0.361 OA
ATOM     38  H7  UNL     1      10.013  -5.980 -11.451  1.00  0.00     0.217 HD
ENDBRANCH  17  37
TORSDOF 5
ENDMDL
MODEL 3
REMARK VINA RESULT: -7.636070669      2.869      4.118
REMARK  5 active torsions:
REMARK  status: ('A' for Active; 'I' for Inactive)
REMARK    1  A    between atoms: C3_4  and  O2_6 
REMARK    2  A    between atoms: C7_10  and  O3_11 
REMARK    3  A    between atoms: O3_11  and  C8_12 
REMARK    4  A    between atoms: C11_17  and  O6_18 
REMARK    5  A    between atoms: C17_25  and  O7_26 
ROOT
HETATM    1  C1  UNL     1       4.391  -3.920 -15.795  1.00  0.00     0.047 C 
HETATM    2  C2  UNL     1       4.196  -3.949 -14.519  1.00  0.00     0.051 C 
HETATM    3  O1  UNL     1       2.861  -3.999 -14.004  1.00  0.00    -0.318 OA
HETATM    4  C3  UNL     1       2.880  -4.717 -12.738  1.00  0.00     0.174 C 
HETATM    5  C4  UNL     1       1.791  -5.741 -12.831  1.00  0.00     0.080 C 
HETATM    6  C5  UNL     1       4.261  -5.279 -12.859  1.00  0.00     0.056 C 
HETATM    7  C6  UNL     1       4.152  -6.238 -14.031  1.00  0.00     0.025 C 
HETATM    8  C7  UNL     1       4.925  -5.957 -11.769  1.00  0.00     0.178 C 
HETATM    9  C10 UNL     1       6.286  -6.255 -12.409  1.00  0.00     0.188 C 
HETATM   10  O5  UNL     1       6.821  -5.250 -13.118  1.00  0.00    -0.343 OA
HETATM   11  C11 UNL     1       6.319  -3.971 -12.995  1.00  0.00     0.183 C 
HETATM   12  C12 UNL     1       4.933  -3.950 -13.281  1.00  0.00     0.121 C 
HETATM   13  C13 UNL     1       7.263  -2.933 -13.545  1.00  0.00     0.030 C 
HETATM   14  C14 UNL     1       6.459  -1.796 -14.233  1.00  0.00     0.025 C 
HETATM   15  C15 UNL     1       8.014  -2.139 -12.494  1.00  0.00     0.025 C 
HETATM   16  C16 UNL     1       8.285  -3.493 -14.470  1.00  0.00     0.024 C 
HETATM   17  C17 UNL     1       9.300  -4.237 -14.435  1.00  0.00     0.067 C 
HETATM   18  C18 UNL     1      10.141  -5.024 -13.542  1.00  0.00    -0.018 C 
HETATM   19  C19 UNL     1      10.085  -6.508 -13.876  1.00  0.00     0.043 C 
HETATM   20  C20 UNL     1       8.806  -7.214 -13.533  1.00  0.00     0.056 C 
HETATM   21  C21 UNL     1       8.484  -7.234 -12.096  1.00  0.00     0.177 A 
HETATM   22  O8  UNL     1       7.608  -8.255 -11.678  1.00  0.00    -0.355 OA
HETATM   23  C22 UNL     1       7.258  -6.913 -11.533  1.00  0.00     0.199 A 
HETATM   24  C23 UNL     1       9.812  -7.164 -11.386  1.00  0.00     0.297 C 
HETATM   25  O9  UNL     1      10.134  -8.111 -10.682  1.00  0.00    -0.262 OA
HETATM   26  O10 UNL     1      10.665  -6.083 -11.502  1.00  0.00    -0.309 OA
HETATM   27  C24 UNL     1      10.250  -4.817 -12.108  1.00  0.00     0.159 C 
HETATM   28  C25 UNL     1      11.392  -3.877 -11.681  1.00  0.00     0.045 C 
ENDROOT
BRANCH   8  29
HETATM   29  O3  UNL     1       4.249  -7.218 -11.572  1.00  0.00    -0.313 OA
BRANCH  29  30
HETATM   30  C8  UNL     1       3.614  -7.558 -10.396  1.00  0.00     0.255 C 
HETATM   31  C9  UNL     1       2.484  -8.514 -10.323  1.00  0.00     0.126 C 
HETATM   32  O4  UNL     1       4.059  -6.993  -9.339  1.00  0.00    -0.266 OA
ENDBRANCH  29  30
ENDBRANCH   8  29
BRANCH   4  33
HETATM   33  O2  UNL     1       2.694  -3.869 -11.678  1.00  0.00    -0.364 OA
ATOM     34  H2  UNL     1       2.096  -4.238 -11.039  1.00  0.00     0.213 HD
ENDBRANCH   4  33
BRANCH  11  35
HETATM   35  O6  UNL     1       6.437  -3.763 -11.579  1.00  0.00    -0.364 OA
ATOM     36  H6  UNL     1       5.537  -3.567 -11.349  1.00  0.00     0.213 HD
ENDBRANCH  11  35
BRANCH  17  37
HETATM   37  O7  UNL     1       9.898  -4.411 -15.767  1.00  0.00    -0.361 OA
ATOM     38  H7  UNL     1      10.811  -4.668 -15.714  1.00  0.00     0.217 HD
ENDBRANCH  17  37
TORSDOF 5
ENDMDL
MODEL 4
REMARK VINA RESULT: -7.571693005      2.746      6.323
REMARK  5 active torsions:
REMARK  status: ('A' for Active; 'I' for Inactive)
REMARK    1  A    between atoms: C3_4  and  O2_6 
REMARK    2  A    between atoms: C7_10  and  O3_11 
REMARK    3  A    between atoms: O3_11  and  C8_12 
REMARK    4  A    between atoms: C11_17  and  O6_18 
REMARK    5  A    between atoms: C17_25  and  O7_26 
ROOT
HETATM    1  C1  UNL     1       4.538  -1.952 -12.171  1.00  0.00     0.047 C 
HETATM    2  C2  UNL     1       5.410  -2.626 -12.845  1.00  0.00     0.051 C 
HETATM    3  O1  UNL     1       6.531  -1.956 -13.430  1.00  0.00    -0.318 OA
HETATM    4  C3  UNL     1       7.652  -2.882 -13.476  1.00  0.00     0.174 C 
HETATM    5  C4  UNL     1       8.817  -2.146 -12.891  1.00  0.00     0.080 C 
HETATM    6  C5  UNL     1       7.073  -3.927 -12.576  1.00  0.00     0.056 C 
HETATM    7  C6  UNL     1       6.993  -3.229 -11.229  1.00  0.00     0.025 C 
HETATM    8  C7  UNL     1       7.685  -5.222 -12.387  1.00  0.00     0.178 C 
HETATM    9  C10 UNL     1       6.671  -5.881 -11.446  1.00  0.00     0.188 C 
HETATM   10  O5  UNL     1       5.382  -5.689 -11.764  1.00  0.00    -0.343 OA
HETATM   11  C11 UNL     1       5.039  -5.208 -13.011  1.00  0.00     0.183 C 
HETATM   12  C12 UNL     1       5.688  -3.976 -13.265  1.00  0.00     0.121 C 
HETATM   13  C13 UNL     1       3.581  -5.421 -13.324  1.00  0.00     0.030 C 
HETATM   14  C14 UNL     1       3.028  -4.213 -14.128  1.00  0.00     0.025 C 
HETATM   15  C15 UNL     1       3.300  -6.550 -14.296  1.00  0.00     0.025 C 
HETATM   16  C16 UNL     1       2.748  -5.680 -12.117  1.00  0.00     0.024 C 
HETATM   17  C17 UNL     1       2.579  -6.573 -11.247  1.00  0.00     0.067 C 
HETATM   18  C18 UNL     1       3.034  -7.891 -10.821  1.00  0.00    -0.018 C 
HETATM   19  C19 UNL     1       3.700  -7.844  -9.454  1.00  0.00     0.043 C 
HETATM   20  C20 UNL     1       5.054  -7.198  -9.401  1.00  0.00     0.056 C 
HETATM   21  C21 UNL     1       6.088  -7.878 -10.198  1.00  0.00     0.177 A 
HETATM   22  O8  UNL     1       7.421  -7.630  -9.814  1.00  0.00    -0.355 OA
HETATM   23  C22 UNL     1       6.965  -7.269 -11.082  1.00  0.00     0.199 A 
HETATM   24  C23 UNL     1       5.669  -9.326 -10.248  1.00  0.00     0.297 C 
HETATM   25  O9  UNL     1       6.413 -10.153  -9.739  1.00  0.00    -0.262 OA
HETATM   26  O10 UNL     1       4.493  -9.743 -10.840  1.00  0.00    -0.309 OA
HETATM   27  C24 UNL     1       3.684  -8.863 -11.684  1.00  0.00     0.159 C 
HETATM   28  C25 UNL     1       2.727  -9.866 -12.355  1.00  0.00     0.045 C 
ENDROOT
BRANCH   8  29
HETATM   29  O3  UNL     1       8.904  -5.016 -11.640  1.00  0.00    -0.313 OA
BRANCH  29  30
HETATM   30  C8  UNL     1      10.106  -5.603 -11.980  1.00  0.00     0.255 C 
HETATM   31  C9  UNL     1      10.931  -5.172 -13.133  1.00  0.00     0.126 C 
HETATM   32  O4  UNL     1      10.486  -6.567 -11.230  1.00  0.00    -0.266 OA
ENDBRANCH  29  30
ENDBRANCH   8  29
BRANCH   4  33
HETATM   33  O2  UNL     1       7.904  -3.301 -14.756  1.00  0.00    -0.364 OA
ATOM     34  H2  UNL     1       7.181  -3.096 -15.337  1.00  0.00     0.213 HD
ENDBRANCH   4  33
BRANCH  11  35
HETATM   35  O6  UNL     1       5.673  -6.175 -13.862  1.00  0.00    -0.364 OA
ATOM     36  H6  UNL     1       5.424  -6.985 -13.435  1.00  0.00     0.213 HD
ENDBRANCH  11  35
BRANCH  17  37
HETATM   37  O7  UNL     1       1.549  -6.195 -10.267  1.00  0.00    -0.361 OA
ATOM     38  H7  UNL     1       0.672  -6.308 -10.615  1.00  0.00     0.217 HD
ENDBRANCH  17  37
TORSDOF 5
ENDMDL
MODEL 5
REMARK VINA RESULT: -7.540892757      2.861      5.981
REMARK  5 active torsions:
REMARK  status: ('A' for Active; 'I' for Inactive)
REMARK    1  A    between atoms: C3_4  and  O2_6 
REMARK    2  A    between atoms: C7_10  and  O3_11 
REMARK    3  A    between atoms: O3_11  and  C8_12 
REMARK    4  A    between atoms: C11_17  and  O6_18 
REMARK    5  A    between atoms: C17_25  and  O7_26 
ROOT
HETATM    1  C1  UNL     1       5.980  -7.852  -9.044  1.00  0.00     0.047 C 
HETATM    2  C2  UNL     1       5.583  -8.109 -10.246  1.00  0.00     0.051 C 
HETATM    3  O1  UNL     1       4.671  -9.188 -10.479  1.00  0.00    -0.318 OA
HETATM    4  C3  UNL     1       3.854  -8.861 -11.639  1.00  0.00     0.174 C 
HETATM    5  C4  UNL     1       2.436  -9.103 -11.223  1.00  0.00     0.080 C 
HETATM    6  C5  UNL     1       4.228  -7.416 -11.733  1.00  0.00     0.056 C 
HETATM    7  C6  UNL     1       3.645  -6.816 -10.465  1.00  0.00     0.025 C 
HETATM    8  C7  UNL     1       3.849  -6.583 -12.852  1.00  0.00     0.178 C 
HETATM    9  C10 UNL     1       4.525  -5.264 -12.465  1.00  0.00     0.188 C 
HETATM   10  O5  UNL     1       5.775  -5.375 -11.989  1.00  0.00    -0.343 OA
HETATM   11  C11 UNL     1       6.475  -6.553 -12.147  1.00  0.00     0.183 C 
HETATM   12  C12 UNL     1       5.753  -7.640 -11.598  1.00  0.00     0.121 C 
HETATM   13  C13 UNL     1       7.952  -6.375 -11.910  1.00  0.00     0.030 C 
HETATM   14  C14 UNL     1       8.532  -7.631 -11.204  1.00  0.00     0.025 C 
HETATM   15  C15 UNL     1       8.798  -6.353 -13.168  1.00  0.00     0.025 C 
HETATM   16  C16 UNL     1       8.285  -5.139 -11.150  1.00  0.00     0.024 C 
HETATM   17  C17 UNL     1       8.270  -3.890 -11.304  1.00  0.00     0.067 C 
HETATM   18  C18 UNL     1       7.947  -2.833 -12.255  1.00  0.00    -0.018 C 
HETATM   19  C19 UNL     1       6.807  -1.956 -11.758  1.00  0.00     0.043 C 
HETATM   20  C20 UNL     1       5.443  -2.580 -11.763  1.00  0.00     0.056 C 
HETATM   21  C21 UNL     1       4.949  -2.960 -13.097  1.00  0.00     0.177 A 
HETATM   22  O8  UNL     1       3.550  -3.082 -13.222  1.00  0.00    -0.355 OA
HETATM   23  C22 UNL     1       4.384  -4.179 -13.439  1.00  0.00     0.199 A 
HETATM   24  C23 UNL     1       5.622  -2.014 -14.058  1.00  0.00     0.297 C 
HETATM   25  O9  UNL     1       4.912  -1.256 -14.705  1.00  0.00    -0.262 OA
HETATM   26  O10 UNL     1       6.992  -1.974 -14.231  1.00  0.00    -0.309 OA
HETATM   27  C24 UNL     1       7.881  -3.006 -13.696  1.00  0.00     0.159 C 
HETATM   28  C25 UNL     1       9.195  -2.703 -14.439  1.00  0.00     0.045 C 
ENDROOT
BRANCH   8  29
HETATM   29  O3  UNL     1       2.421  -6.382 -12.774  1.00  0.00    -0.313 OA
BRANCH  29  30
HETATM   30  C8  UNL     1       1.546  -6.790 -13.760  1.00  0.00     0.255 C 
HETATM   31  C9  UNL     1       0.219  -7.389 -13.479  1.00  0.00     0.126 C 
HETATM   32  O4  UNL     1       1.945  -6.623 -14.963  1.00  0.00    -0.266 OA
ENDBRANCH  29  30
ENDBRANCH   8  29
BRANCH   4  33
HETATM   33  O2  UNL     1       4.203  -9.617 -12.726  1.00  0.00    -0.364 OA
ATOM     34  H2  UNL     1       4.375  -9.074 -13.486  1.00  0.00     0.213 HD
ENDBRANCH   4  33
BRANCH  11  35
HETATM   35  O6  UNL     1       6.417  -6.717 -13.573  1.00  0.00    -0.364 OA
ATOM     36  H6  UNL     1       5.981  -7.558 -13.641  1.00  0.00     0.213 HD
ENDBRANCH  11  35
BRANCH  17  37
HETATM   37  O7  UNL     1       8.748  -3.185 -10.105  1.00  0.00    -0.361 OA
ATOM     38  H7  UNL     1       9.659  -3.381  -9.918  1.00  0.00     0.217 HD
ENDBRANCH  17  37
TORSDOF 5
ENDMDL
