MODEL 1
REMARK VINA RESULT: -9.592219442      0.000      0.000
REMARK  5 active torsions:
REMARK  status: ('A' for Active; 'I' for Inactive)
REMARK    1  A    between atoms: C6_8  and  C7_9 
REMARK    2  A    between atoms: C10_12  and  O3_13 
REMARK    3  A    between atoms: C11_16  and  C12_17 
REMARK    4  A    between atoms: C24_32  and  O8_33 
REMARK    5  A    between atoms: C25_35  and  O9_36 
ROOT
HETATM    1  C12 UNL     1       3.779  -7.128 -12.275  1.00  0.00     0.088 C 
HETATM    2  C13 UNL     1       4.791  -8.189 -12.468  1.00  0.00     0.130 C 
HETATM    3  C14 UNL     1       6.049  -8.186 -11.642  1.00  0.00     0.040 C 
HETATM    4  O5  UNL     1       4.228  -9.509 -12.442  1.00  0.00    -0.350 OA
HETATM    5  C15 UNL     1       3.180  -9.367 -11.541  1.00  0.00     0.325 C 
HETATM    6  O6  UNL     1       3.811  -8.809 -10.465  1.00  0.00    -0.354 OA
HETATM    7  C16 UNL     1       3.299  -7.648  -9.800  1.00  0.00     0.187 C 
HETATM    8  C17 UNL     1       2.014  -7.629 -10.338  1.00  0.00     0.032 C 
HETATM    9  C18 UNL     1       1.542  -8.824  -9.604  1.00  0.00     0.025 C 
HETATM   10  C19 UNL     1       0.756  -6.909 -10.232  1.00  0.00    -0.013 C 
HETATM   11  C20 UNL     1      -0.267  -7.242 -11.076  1.00  0.00     0.007 C 
HETATM   12  C21 UNL     1      -0.293  -8.306 -12.170  1.00  0.00     0.075 C 
HETATM   13  C22 UNL     1      -1.542  -9.137 -11.876  1.00  0.00     0.050 C 
HETATM   14  C23 UNL     1      -0.638  -7.714 -13.514  1.00  0.00     0.050 C 
HETATM   15  O7  UNL     1       0.796  -9.106 -12.121  1.00  0.00    -0.334 OA
HETATM   16  C24 UNL     1       2.049  -8.695 -12.269  1.00  0.00     0.247 C 
HETATM   17  C25 UNL     1       2.411  -7.335 -11.728  1.00  0.00     0.140 C 
ENDROOT
BRANCH   1  18
HETATM   18  C11 UNL     1       4.353  -5.748 -12.318  1.00  0.00     0.173 C 
HETATM   19  C6  UNL     1       3.679  -4.695 -13.118  1.00  0.00     0.214 C 
HETATM   20  O2  UNL     1       4.280  -3.495 -12.628  1.00  0.00    -0.318 OA
HETATM   21  C5  UNL     1       4.997  -3.851 -11.513  1.00  0.00     0.283 C 
HETATM   22  C4  UNL     1       6.480  -3.926 -11.687  1.00  0.00     0.105 C 
HETATM   23  O1  UNL     1       4.835  -2.913 -10.489  1.00  0.00    -0.328 OA
HETATM   24  O10 UNL     1       4.548  -5.106 -11.148  1.00  0.00    -0.324 OA
HETATM   25  C3  UNL     1       6.898  -2.476 -11.513  1.00  0.00     0.040 C 
HETATM   26  C2  UNL     1       5.641  -1.859 -10.961  1.00  0.00     0.123 C 
HETATM   27  C1  UNL     1       5.950  -0.860  -9.880  1.00  0.00     0.040 C 
BRANCH  19  28
HETATM   28  C7  UNL     1       3.862  -4.650 -14.558  1.00  0.00     0.087 A 
HETATM   29  C8  UNL     1       4.801  -3.951 -15.259  1.00  0.00     0.040 A 
HETATM   30  C9  UNL     1       4.585  -4.210 -16.592  1.00  0.00     0.066 A 
HETATM   31  C10 UNL     1       3.508  -5.068 -16.647  1.00  0.00     0.183 A 
HETATM   32  O4  UNL     1       3.130  -5.288 -15.436  1.00  0.00    -0.290 OA
BRANCH  31  33
HETATM   33  O3  UNL     1       2.930  -5.602 -17.783  1.00  0.00    -0.341 OA
ATOM     34  H3  UNL     1       2.844  -6.523 -18.000  1.00  0.00     0.220 HD
ENDBRANCH  31  33
ENDBRANCH  19  28
ENDBRANCH   1  18
BRANCH  17  35
HETATM   35  O9  UNL     1       1.749  -6.255 -12.310  1.00  0.00    -0.382 OA
ATOM     36  H9  UNL     1       1.814  -6.495 -13.226  1.00  0.00     0.210 HD
ENDBRANCH  17  35
BRANCH  16  37
HETATM   37  O8  UNL     1       2.327  -8.785 -13.658  1.00  0.00    -0.359 OA
ATOM     38  H8  UNL     1       1.872  -8.068 -14.085  1.00  0.00     0.213 HD
ENDBRANCH  16  37
TORSDOF 5
ENDMDL
MODEL 2
REMARK VINA RESULT: -9.173158345      2.272      3.217
REMARK  5 active torsions:
REMARK  status: ('A' for Active; 'I' for Inactive)
REMARK    1  A    between atoms: C6_8  and  C7_9 
REMARK    2  A    between atoms: C10_12  and  O3_13 
REMARK    3  A    between atoms: C11_16  and  C12_17 
REMARK    4  A    between atoms: C24_32  and  O8_33 
REMARK    5  A    between atoms: C25_35  and  O9_36 
ROOT
HETATM    1  C12 UNL     1       5.616  -5.106 -12.941  1.00  0.00     0.088 C 
HETATM    2  C13 UNL     1       6.690  -5.623 -13.817  1.00  0.00     0.130 C 
HETATM    3  C14 UNL     1       8.101  -5.714 -13.303  1.00  0.00     0.040 C 
HETATM    4  O5  UNL     1       6.349  -6.869 -14.443  1.00  0.00    -0.350 OA
HETATM    5  C15 UNL     1       5.552  -7.476 -13.480  1.00  0.00     0.325 C 
HETATM    6  O6  UNL     1       6.346  -7.396 -12.371  1.00  0.00    -0.354 OA
HETATM    7  C16 UNL     1       5.855  -6.907 -11.116  1.00  0.00     0.187 C 
HETATM    8  C17 UNL     1       4.488  -6.950 -11.378  1.00  0.00     0.032 C 
HETATM    9  C18 UNL     1       4.394  -8.427 -11.361  1.00  0.00     0.025 C 
HETATM   10  C19 UNL     1       3.206  -6.734 -10.726  1.00  0.00    -0.013 C 
HETATM   11  C20 UNL     1       2.063  -6.845 -11.469  1.00  0.00     0.007 C 
HETATM   12  C21 UNL     1       1.917  -7.177 -12.951  1.00  0.00     0.075 C 
HETATM   13  C22 UNL     1       0.915  -8.331 -12.995  1.00  0.00     0.050 C 
HETATM   14  C23 UNL     1       1.162  -6.101 -13.691  1.00  0.00     0.050 C 
HETATM   15  O7  UNL     1       3.087  -7.582 -13.494  1.00  0.00    -0.334 OA
HETATM   16  C24 UNL     1       4.189  -6.846 -13.561  1.00  0.00     0.247 C 
HETATM   17  C25 UNL     1       4.475  -5.904 -12.418  1.00  0.00     0.140 C 
ENDROOT
BRANCH   1  18
HETATM   18  C11 UNL     1       5.956  -3.799 -12.299  1.00  0.00     0.173 C 
HETATM   19  C6  UNL     1       5.489  -2.532 -12.916  1.00  0.00     0.214 C 
HETATM   20  O2  UNL     1       5.677  -1.582 -11.866  1.00  0.00    -0.318 OA
HETATM   21  C5  UNL     1       5.961  -2.309 -10.736  1.00  0.00     0.283 C 
HETATM   22  C4  UNL     1       7.393  -2.314 -10.307  1.00  0.00     0.105 C 
HETATM   23  O1  UNL     1       5.288  -1.796  -9.624  1.00  0.00    -0.328 OA
HETATM   24  O10 UNL     1       5.597  -3.613 -11.012  1.00  0.00    -0.324 OA
HETATM   25  C3  UNL     1       7.497  -1.019  -9.519  1.00  0.00     0.040 C 
HETATM   26  C2  UNL     1       6.050  -0.641  -9.359  1.00  0.00     0.123 C 
HETATM   27  C1  UNL     1       5.776  -0.089  -7.988  1.00  0.00     0.040 C 
BRANCH  19  28
HETATM   28  C7  UNL     1       6.195  -1.979 -14.058  1.00  0.00     0.087 A 
HETATM   29  C8  UNL     1       7.515  -2.125 -14.375  1.00  0.00     0.040 A 
HETATM   30  C9  UNL     1       7.731  -1.423 -15.537  1.00  0.00     0.066 A 
HETATM   31  C10 UNL     1       6.516  -0.871 -15.884  1.00  0.00     0.183 A 
HETATM   32  O4  UNL     1       5.663  -1.228 -14.989  1.00  0.00    -0.290 OA
BRANCH  31  33
HETATM   33  O3  UNL     1       6.249  -0.081 -16.985  1.00  0.00    -0.341 OA
ATOM     34  H3  UNL     1       5.596  -0.241 -17.658  1.00  0.00     0.220 HD
ENDBRANCH  31  33
ENDBRANCH  19  28
ENDBRANCH   1  18
BRANCH  17  35
HETATM   35  O9  UNL     1       3.539  -4.891 -12.219  1.00  0.00    -0.382 OA
ATOM     36  H9  UNL     1       3.290  -5.069 -11.320  1.00  0.00     0.210 HD
ENDBRANCH  17  35
BRANCH  16  37
HETATM   37  O8  UNL     1       4.118  -6.148 -14.795  1.00  0.00    -0.359 OA
ATOM     38  H8  UNL     1       3.405  -5.523 -14.727  1.00  0.00     0.213 HD
ENDBRANCH  16  37
TORSDOF 5
ENDMDL
MODEL 3
REMARK VINA RESULT: -9.000150994      2.412      5.229
REMARK  5 active torsions:
REMARK  status: ('A' for Active; 'I' for Inactive)
REMARK    1  A    between atoms: C6_8  and  C7_9 
REMARK    2  A    between atoms: C10_12  and  O3_13 
REMARK    3  A    between atoms: C11_16  and  C12_17 
REMARK    4  A    between atoms: C24_32  and  O8_33 
REMARK    5  A    between atoms: C25_35  and  O9_36 
ROOT
HETATM    1  C12 UNL     1       4.500  -5.295 -12.909  1.00  0.00     0.088 C 
HETATM    2  C13 UNL     1       4.138  -3.955 -13.420  1.00  0.00     0.130 C 
HETATM    3  C14 UNL     1       4.581  -3.528 -14.793  1.00  0.00     0.040 C 
HETATM    4  O5  UNL     1       2.739  -3.663 -13.279  1.00  0.00    -0.350 OA
HETATM    5  C15 UNL     1       2.158  -4.916 -13.437  1.00  0.00     0.325 C 
HETATM    6  O6  UNL     1       2.713  -5.333 -14.613  1.00  0.00    -0.354 OA
HETATM    7  C16 UNL     1       3.306  -6.630 -14.758  1.00  0.00     0.187 C 
HETATM    8  C17 UNL     1       2.807  -7.234 -13.607  1.00  0.00     0.032 C 
HETATM    9  C18 UNL     1       1.410  -7.313 -14.089  1.00  0.00     0.025 C 
HETATM   10  C19 UNL     1       2.779  -8.519 -12.927  1.00  0.00    -0.013 C 
HETATM   11  C20 UNL     1       2.175  -8.604 -11.703  1.00  0.00     0.007 C 
HETATM   12  C21 UNL     1       1.492  -7.502 -10.898  1.00  0.00     0.075 C 
HETATM   13  C22 UNL     1       0.116  -8.071 -10.550  1.00  0.00     0.050 C 
HETATM   14  C23 UNL     1       2.106  -7.350  -9.529  1.00  0.00     0.050 C 
HETATM   15  O7  UNL     1       1.335  -6.372 -11.623  1.00  0.00    -0.334 OA
HETATM   16  C24 UNL     1       2.327  -5.657 -12.140  1.00  0.00     0.247 C 
HETATM   17  C25 UNL     1       3.542  -6.399 -12.638  1.00  0.00     0.140 C 
ENDROOT
BRANCH   1  18
HETATM   18  C11 UNL     1       5.959  -5.600 -13.036  1.00  0.00     0.173 C 
HETATM   19  C6  UNL     1       6.864  -5.366 -11.883  1.00  0.00     0.214 C 
HETATM   20  O2  UNL     1       8.037  -6.094 -12.249  1.00  0.00    -0.318 OA
HETATM   21  C5  UNL     1       7.696  -6.844 -13.348  1.00  0.00     0.283 C 
HETATM   22  C4  UNL     1       8.205  -6.345 -14.662  1.00  0.00     0.105 C 
HETATM   23  O1  UNL     1       8.227  -8.134 -13.261  1.00  0.00    -0.328 OA
HETATM   24  O10 UNL     1       6.315  -6.849 -13.401  1.00  0.00    -0.324 OA
HETATM   25  C3  UNL     1       9.616  -6.907 -14.695  1.00  0.00     0.040 C 
HETATM   26  C2  UNL     1       9.582  -7.888 -13.554  1.00  0.00     0.123 C 
HETATM   27  C1  UNL     1      10.322  -9.151 -13.895  1.00  0.00     0.040 C 
BRANCH  19  28
HETATM   28  C7  UNL     1       7.328  -4.022 -11.587  1.00  0.00     0.087 A 
HETATM   29  C8  UNL     1       7.615  -3.024 -12.472  1.00  0.00     0.040 A 
HETATM   30  C9  UNL     1       8.021  -1.937 -11.737  1.00  0.00     0.066 A 
HETATM   31  C10 UNL     1       7.965  -2.324 -10.414  1.00  0.00     0.183 A 
HETATM   32  O4  UNL     1       7.555  -3.544 -10.390  1.00  0.00    -0.290 OA
BRANCH  31  33
HETATM   33  O3  UNL     1       8.283  -1.556  -9.311  1.00  0.00    -0.341 OA
ATOM     34  H3  UNL     1       8.106  -1.764  -8.401  1.00  0.00     0.220 HD
ENDBRANCH  31  33
ENDBRANCH  19  28
ENDBRANCH   1  18
BRANCH  17  35
HETATM   35  O9  UNL     1       4.255  -7.110 -11.674  1.00  0.00    -0.382 OA
ATOM     36  H9  UNL     1       3.742  -6.906 -10.902  1.00  0.00     0.210 HD
ENDBRANCH  17  35
BRANCH  16  37
HETATM   37  O8  UNL     1       2.679  -4.704 -11.149  1.00  0.00    -0.359 OA
ATOM     38  H8  UNL     1       3.110  -5.173 -10.445  1.00  0.00     0.213 HD
ENDBRANCH  16  37
TORSDOF 5
ENDMDL
MODEL 4
REMARK VINA RESULT: -8.912476244      2.792      5.552
REMARK  5 active torsions:
REMARK  status: ('A' for Active; 'I' for Inactive)
REMARK    1  A    between atoms: C6_8  and  C7_9 
REMARK    2  A    between atoms: C10_12  and  O3_13 
REMARK    3  A    between atoms: C11_16  and  C12_17 
REMARK    4  A    between atoms: C24_32  and  O8_33 
REMARK    5  A    between atoms: C25_35  and  O9_36 
ROOT
HETATM    1  C12 UNL     1       4.987  -4.706 -12.601  1.00  0.00     0.088 C 
HETATM    2  C13 UNL     1       4.642  -3.319 -12.220  1.00  0.00     0.130 C 
HETATM    3  C14 UNL     1       4.836  -2.198 -13.206  1.00  0.00     0.040 C 
HETATM    4  O5  UNL     1       3.330  -3.206 -11.650  1.00  0.00    -0.350 OA
HETATM    5  C15 UNL     1       2.626  -4.194 -12.329  1.00  0.00     0.325 C 
HETATM    6  O6  UNL     1       2.897  -3.884 -13.631  1.00  0.00    -0.354 OA
HETATM    7  C16 UNL     1       3.339  -4.870 -14.573  1.00  0.00     0.187 C 
HETATM    8  C17 UNL     1       3.032  -6.022 -13.852  1.00  0.00     0.032 C 
HETATM    9  C18 UNL     1       1.566  -5.881 -13.990  1.00  0.00     0.025 C 
HETATM   10  C19 UNL     1       3.034  -7.470 -13.983  1.00  0.00    -0.013 C 
HETATM   11  C20 UNL     1       2.682  -8.229 -12.902  1.00  0.00     0.007 C 
HETATM   12  C21 UNL     1       2.268  -7.769 -11.507  1.00  0.00     0.075 C 
HETATM   13  C22 UNL     1       0.947  -8.489 -11.235  1.00  0.00     0.050 C 
HETATM   14  C23 UNL     1       3.154  -8.360 -10.439  1.00  0.00     0.050 C 
HETATM   15  O7  UNL     1       2.064  -6.433 -11.457  1.00  0.00    -0.334 OA
HETATM   16  C24 UNL     1       2.988  -5.513 -11.706  1.00  0.00     0.247 C 
HETATM   17  C25 UNL     1       4.013  -5.818 -12.770  1.00  0.00     0.140 C 
ENDROOT
BRANCH   1  18
HETATM   18  C11 UNL     1       6.360  -4.836 -13.180  1.00  0.00     0.173 C 
HETATM   19  C6  UNL     1       7.538  -4.881 -12.278  1.00  0.00     0.214 C 
HETATM   20  O2  UNL     1       8.573  -5.365 -13.136  1.00  0.00    -0.318 OA
HETATM   21  C5  UNL     1       7.954  -5.779 -14.289  1.00  0.00     0.283 C 
HETATM   22  C4  UNL     1       8.094  -4.868 -15.467  1.00  0.00     0.105 C 
HETATM   23  O1  UNL     1       8.491  -6.987 -14.744  1.00  0.00    -0.328 OA
HETATM   24  O10 UNL     1       6.609  -5.883 -13.992  1.00  0.00    -0.324 OA
HETATM   25  C3  UNL     1       9.447  -5.274 -16.028  1.00  0.00     0.040 C 
HETATM   26  C2  UNL     1       9.719  -6.550 -15.278  1.00  0.00     0.123 C 
HETATM   27  C1  UNL     1      10.344  -7.587 -16.170  1.00  0.00     0.040 C 
BRANCH  19  28
HETATM   28  C7  UNL     1       8.062  -3.654 -11.707  1.00  0.00     0.087 A 
HETATM   29  C8  UNL     1       8.727  -2.651 -12.349  1.00  0.00     0.040 A 
HETATM   30  C9  UNL     1       9.031  -1.699 -11.406  1.00  0.00     0.066 A 
HETATM   31  C10 UNL     1       8.531  -2.168 -10.210  1.00  0.00     0.183 A 
HETATM   32  O4  UNL     1       7.979  -3.307 -10.447  1.00  0.00    -0.290 OA
BRANCH  31  33
HETATM   33  O3  UNL     1       8.600  -1.544  -8.980  1.00  0.00    -0.341 OA
ATOM     34  H3  UNL     1       7.917  -1.505  -8.320  1.00  0.00     0.220 HD
ENDBRANCH  31  33
ENDBRANCH  19  28
ENDBRANCH   1  18
BRANCH  17  35
HETATM   35  O9  UNL     1       4.843  -6.909 -12.518  1.00  0.00    -0.382 OA
ATOM     36  H9  UNL     1       5.629  -6.458 -12.233  1.00  0.00     0.210 HD
ENDBRANCH  17  35
BRANCH  16  37
HETATM   37  O8  UNL     1       3.610  -5.237 -10.460  1.00  0.00    -0.359 OA
ATOM     38  H8  UNL     1       3.166  -5.758  -9.800  1.00  0.00     0.213 HD
ENDBRANCH  16  37
TORSDOF 5
ENDMDL
MODEL 5
REMARK VINA RESULT: -8.881707087      1.786      6.640
REMARK  5 active torsions:
REMARK  status: ('A' for Active; 'I' for Inactive)
REMARK    1  A    between atoms: C6_8  and  C7_9 
REMARK    2  A    between atoms: C10_12  and  O3_13 
REMARK    3  A    between atoms: C11_16  and  C12_17 
REMARK    4  A    between atoms: C24_32  and  O8_33 
REMARK    5  A    between atoms: C25_35  and  O9_36 
ROOT
HETATM    1  C12 UNL     1       4.393  -5.278 -13.282  1.00  0.00     0.088 C 
HETATM    2  C13 UNL     1       3.971  -4.144 -12.431  1.00  0.00     0.130 C 
HETATM    3  C14 UNL     1       4.671  -3.885 -11.124  1.00  0.00     0.040 C 
HETATM    4  O5  UNL     1       3.879  -2.907 -13.154  1.00  0.00    -0.350 OA
HETATM    5  C15 UNL     1       4.884  -3.043 -14.104  1.00  0.00     0.325 C 
HETATM    6  O6  UNL     1       5.959  -3.369 -13.327  1.00  0.00    -0.354 OA
HETATM    7  C16 UNL     1       6.814  -4.477 -13.635  1.00  0.00     0.187 C 
HETATM    8  C17 UNL     1       6.404  -4.720 -14.943  1.00  0.00     0.032 C 
HETATM    9  C18 UNL     1       7.019  -3.498 -15.506  1.00  0.00     0.025 C 
HETATM   10  C19 UNL     1       6.719  -5.560 -16.088  1.00  0.00    -0.013 C 
HETATM   11  C20 UNL     1       5.937  -5.469 -17.206  1.00  0.00     0.007 C 
HETATM   12  C21 UNL     1       4.721  -4.579 -17.450  1.00  0.00     0.075 C 
HETATM   13  C22 UNL     1       5.020  -3.866 -18.769  1.00  0.00     0.050 C 
HETATM   14  C23 UNL     1       3.503  -5.387 -17.819  1.00  0.00     0.050 C 
HETATM   15  O7  UNL     1       4.567  -3.658 -16.472  1.00  0.00    -0.334 OA
HETATM   16  C24 UNL     1       4.357  -3.937 -15.192  1.00  0.00     0.247 C 
HETATM   17  C25 UNL     1       5.033  -5.158 -14.619  1.00  0.00     0.140 C 
ENDROOT
BRANCH   1  18
HETATM   18  C11 UNL     1       4.475  -6.574 -12.541  1.00  0.00     0.173 C 
HETATM   19  C6  UNL     1       3.305  -7.488 -12.524  1.00  0.00     0.214 C 
HETATM   20  O2  UNL     1       3.872  -8.716 -12.063  1.00  0.00    -0.318 OA
HETATM   21  C5  UNL     1       5.234  -8.543 -12.085  1.00  0.00     0.283 C 
HETATM   22  C4  UNL     1       5.885  -8.326 -10.758  1.00  0.00     0.105 C 
HETATM   23  O1  UNL     1       5.877  -9.680 -12.583  1.00  0.00    -0.328 OA
HETATM   24  O10 UNL     1       5.470  -7.426 -12.862  1.00  0.00    -0.324 OA
HETATM   25  C3  UNL     1       6.057  -9.747 -10.247  1.00  0.00     0.040 C 
HETATM   26  C2  UNL     1       5.768 -10.554 -11.484  1.00  0.00     0.123 C 
HETATM   27  C1  UNL     1       6.700 -11.727 -11.604  1.00  0.00     0.040 C 
BRANCH  19  28
HETATM   28  C7  UNL     1       2.192  -7.225 -11.630  1.00  0.00     0.087 A 
HETATM   29  C8  UNL     1       2.210  -7.172 -10.267  1.00  0.00     0.040 A 
HETATM   30  C9  UNL     1       0.927  -6.898  -9.856  1.00  0.00     0.066 A 
HETATM   31  C10 UNL     1       0.170  -6.794 -11.004  1.00  0.00     0.183 A 
HETATM   32  O4  UNL     1       0.958  -6.993 -12.002  1.00  0.00    -0.290 OA
BRANCH  31  33
HETATM   33  O3  UNL     1      -1.183  -6.526 -11.083  1.00  0.00    -0.341 OA
ATOM     34  H3  UNL     1      -1.708  -6.047 -10.452  1.00  0.00     0.220 HD
ENDBRANCH  31  33
ENDBRANCH  19  28
ENDBRANCH   1  18
BRANCH  17  35
HETATM   35  O9  UNL     1       4.659  -6.377 -15.180  1.00  0.00    -0.382 OA
ATOM     36  H9  UNL     1       4.758  -6.174 -16.102  1.00  0.00     0.210 HD
ENDBRANCH  17  35
BRANCH  16  37
HETATM   37  O8  UNL     1       2.948  -4.010 -15.034  1.00  0.00    -0.359 OA
ATOM     38  H8  UNL     1       2.649  -3.153 -14.754  1.00  0.00     0.213 HD
ENDBRANCH  16  37
TORSDOF 5
ENDMDL
