MODEL 1
REMARK VINA RESULT: -6.418925314      0.000      0.000
REMARK  3 active torsions:
REMARK  status: ('A' for Active; 'I' for Inactive)
REMARK    1  A    between atoms: C5_5  and  N1_6 
REMARK    2  A    between atoms: N2_9  and  N3_10 
REMARK    3  A    between atoms: N3_10  and  C8_12 
ROOT
HETATM    1  N1  UNL     1      -3.547   2.728  12.897  1.00  0.00    -0.406 N 
HETATM    2  C6  UNL     1      -3.956   1.380  13.096  1.00  0.00     0.133 C 
HETATM    3  C7  UNL     1      -4.168   1.150  14.590  1.00  0.00     0.132 C 
HETATM    4  N2  UNL     1      -5.142   2.040  15.156  1.00  0.00    -0.232 NA
HETATM    5  C12 UNL     1      -4.901   3.421  14.708  1.00  0.00     0.132 C 
HETATM    6  C13 UNL     1      -3.495   3.505  14.096  1.00  0.00     0.133 C 
ENDROOT
BRANCH   1   7
HETATM    7  C5  UNL     1      -2.489   2.935  11.970  1.00  0.00     0.079 C 
HETATM    8  C4  UNL     1      -2.428   1.725  11.050  1.00  0.00     0.025 C 
HETATM    9  C3  UNL     1      -1.232   1.821  10.143  1.00  0.00     0.006 C 
HETATM   10  C2  UNL     1      -0.889   3.256   9.826  1.00  0.00    -0.019 C 
HETATM   11  C1  UNL     1      -0.254   3.368   8.435  1.00  0.00     0.010 C 
HETATM   12  C15 UNL     1      -2.157   4.082   9.773  1.00  0.00     0.006 C 
HETATM   13  C14 UNL     1      -2.874   4.127  11.088  1.00  0.00     0.025 C 
ENDBRANCH   1   7
BRANCH   4  14
HETATM   14  N3  UNL     1      -5.057   2.047  16.527  1.00  0.00    -0.346 N 
ATOM     15  H3  UNL     1      -4.163   2.026  17.018  1.00  0.00     0.175 HD
BRANCH  14  16
HETATM   16  C8  UNL     1      -6.305   2.086  17.215  1.00  0.00     0.030 C 
HETATM   17  C9  UNL     1      -6.973   3.442  16.990  1.00  0.00     0.039 C 
HETATM   18  C10 UNL     1      -6.016   1.997  18.714  1.00  0.00     0.039 C 
HETATM   19  C11 UNL     1      -7.283   1.031  16.828  1.00  0.00     0.039 C 
ENDBRANCH  14  16
ENDBRANCH   4  14
TORSDOF 3
ENDMDL
MODEL 2
REMARK VINA RESULT: -6.388517017      0.587      1.297
REMARK  3 active torsions:
REMARK  status: ('A' for Active; 'I' for Inactive)
REMARK    1  A    between atoms: C5_5  and  N1_6 
REMARK    2  A    between atoms: N2_9  and  N3_10 
REMARK    3  A    between atoms: N3_10  and  C8_12 
ROOT
HETATM    1  N1  UNL     1      -4.151   2.446  12.393  1.00  0.00    -0.406 N 
HETATM    2  C6  UNL     1      -4.211   1.109  12.875  1.00  0.00     0.133 C 
HETATM    3  C7  UNL     1      -4.230   1.141  14.400  1.00  0.00     0.132 C 
HETATM    4  N2  UNL     1      -5.334   1.894  14.925  1.00  0.00    -0.232 NA
HETATM    5  C12 UNL     1      -5.467   3.177  14.217  1.00  0.00     0.132 C 
HETATM    6  C13 UNL     1      -4.181   3.439  13.420  1.00  0.00     0.133 C 
ENDROOT
BRANCH   1   7
HETATM    7  C5  UNL     1      -3.258   2.688  11.313  1.00  0.00     0.079 C 
HETATM    8  C4  UNL     1      -2.556   4.012  11.573  1.00  0.00     0.025 C 
HETATM    9  C3  UNL     1      -1.709   4.392  10.389  1.00  0.00     0.006 C 
HETATM   10  C2  UNL     1      -1.176   3.175   9.674  1.00  0.00    -0.019 C 
HETATM   11  C1  UNL     1       0.180   3.478   9.025  1.00  0.00     0.010 C 
HETATM   12  C15 UNL     1      -0.921   2.068  10.675  1.00  0.00     0.006 C 
HETATM   13  C14 UNL     1      -2.171   1.609  11.361  1.00  0.00     0.025 C 
ENDBRANCH   1   7
BRANCH   4  14
HETATM   14  N3  UNL     1      -5.133   2.192  16.251  1.00  0.00    -0.346 N 
ATOM     15  H3  UNL     1      -4.212   2.424  16.624  1.00  0.00     0.175 HD
BRANCH  14  16
HETATM   16  C8  UNL     1      -6.301   2.155  17.068  1.00  0.00     0.030 C 
HETATM   17  C9  UNL     1      -6.994   3.517  17.036  1.00  0.00     0.039 C 
HETATM   18  C10 UNL     1      -5.855   1.939  18.514  1.00  0.00     0.039 C 
HETATM   19  C11 UNL     1      -7.311   1.125  16.695  1.00  0.00     0.039 C 
ENDBRANCH  14  16
ENDBRANCH   4  14
TORSDOF 3
ENDMDL
MODEL 3
REMARK VINA RESULT: -6.224740482      1.726      7.330
REMARK  3 active torsions:
REMARK  status: ('A' for Active; 'I' for Inactive)
REMARK    1  A    between atoms: C5_5  and  N1_6 
REMARK    2  A    between atoms: N2_9  and  N3_10 
REMARK    3  A    between atoms: N3_10  and  C8_12 
ROOT
HETATM    1  N1  UNL     1      -4.054   3.220  12.928  1.00  0.00    -0.406 N 
HETATM    2  C6  UNL     1      -2.857   3.920  13.244  1.00  0.00     0.133 C 
HETATM    3  C7  UNL     1      -1.798   3.572  12.203  1.00  0.00     0.132 C 
HETATM    4  N2  UNL     1      -2.208   3.893  10.865  1.00  0.00    -0.232 NA
HETATM    5  C12 UNL     1      -3.582   3.427  10.620  1.00  0.00     0.132 C 
HETATM    6  C13 UNL     1      -3.977   2.443  11.731  1.00  0.00     0.133 C 
ENDROOT
BRANCH   1   7
HETATM    7  C5  UNL     1      -4.742   2.622  14.020  1.00  0.00     0.079 C 
HETATM    8  C4  UNL     1      -3.771   2.522  15.187  1.00  0.00     0.025 C 
HETATM    9  C3  UNL     1      -4.400   1.761  16.322  1.00  0.00     0.006 C 
HETATM   10  C2  UNL     1      -5.896   1.959  16.362  1.00  0.00    -0.019 C 
HETATM   11  C1  UNL     1      -6.417   1.866  17.801  1.00  0.00     0.010 C 
HETATM   12  C15 UNL     1      -6.237   3.354  15.885  1.00  0.00     0.006 C 
HETATM   13  C14 UNL     1      -5.844   3.591  14.459  1.00  0.00     0.025 C 
ENDBRANCH   1   7
BRANCH   4  14
HETATM   14  N3  UNL     1      -1.405   3.264   9.945  1.00  0.00    -0.346 N 
ATOM     15  H3  UNL     1      -1.473   2.263   9.756  1.00  0.00     0.175 HD
BRANCH  14  16
HETATM   16  C8  UNL     1      -0.472   4.106   9.273  1.00  0.00     0.030 C 
HETATM   17  C9  UNL     1      -0.465   3.775   7.780  1.00  0.00     0.039 C 
HETATM   18  C10 UNL     1       0.926   3.765   9.791  1.00  0.00     0.039 C 
HETATM   19  C11 UNL     1      -0.715   5.570   9.410  1.00  0.00     0.039 C 
ENDBRANCH  14  16
ENDBRANCH   4  14
TORSDOF 3
ENDMDL
MODEL 4
REMARK VINA RESULT: -6.197844094      0.517      1.148
REMARK  3 active torsions:
REMARK  status: ('A' for Active; 'I' for Inactive)
REMARK    1  A    between atoms: C5_5  and  N1_6 
REMARK    2  A    between atoms: N2_9  and  N3_10 
REMARK    3  A    between atoms: N3_10  and  C8_12 
ROOT
HETATM    1  N1  UNL     1      -3.426   3.365  12.938  1.00  0.00    -0.406 N 
HETATM    2  C6  UNL     1      -4.407   2.351  12.763  1.00  0.00     0.133 C 
HETATM    3  C7  UNL     1      -4.672   1.690  14.112  1.00  0.00     0.132 C 
HETATM    4  N2  UNL     1      -5.114   2.623  15.110  1.00  0.00    -0.232 NA
HETATM    5  C12 UNL     1      -4.272   3.830  15.097  1.00  0.00     0.132 C 
HETATM    6  C13 UNL     1      -2.998   3.536  14.291  1.00  0.00     0.133 C 
ENDROOT
BRANCH   1   7
HETATM    7  C5  UNL     1      -2.410   3.438  11.945  1.00  0.00     0.079 C 
HETATM    8  C4  UNL     1      -2.411   2.126  11.176  1.00  0.00     0.025 C 
HETATM    9  C3  UNL     1      -1.258   2.088  10.211  1.00  0.00     0.006 C 
HETATM   10  C2  UNL     1      -0.909   3.467   9.708  1.00  0.00    -0.019 C 
HETATM   11  C1  UNL     1      -0.339   3.398   8.286  1.00  0.00     0.010 C 
HETATM   12  C15 UNL     1      -2.166   4.306   9.613  1.00  0.00     0.006 C 
HETATM   13  C14 UNL     1      -2.819   4.523  10.943  1.00  0.00     0.025 C 
ENDBRANCH   1   7
BRANCH   4  14
HETATM   14  N3  UNL     1      -5.008   2.079  16.366  1.00  0.00    -0.346 N 
ATOM     15  H3  UNL     1      -4.144   1.658  16.708  1.00  0.00     0.175 HD
BRANCH  14  16
HETATM   16  C8  UNL     1      -6.191   2.143  17.160  1.00  0.00     0.030 C 
HETATM   17  C9  UNL     1      -7.107   0.969  16.812  1.00  0.00     0.039 C 
HETATM   18  C10 UNL     1      -6.953   3.408  16.763  1.00  0.00     0.039 C 
HETATM   19  C11 UNL     1      -5.976   2.127  18.634  1.00  0.00     0.039 C 
ENDBRANCH  14  16
ENDBRANCH   4  14
TORSDOF 3
ENDMDL
MODEL 5
REMARK VINA RESULT: -6.195649004      2.315      7.224
REMARK  3 active torsions:
REMARK  status: ('A' for Active; 'I' for Inactive)
REMARK    1  A    between atoms: C5_5  and  N1_6 
REMARK    2  A    between atoms: N2_9  and  N3_10 
REMARK    3  A    between atoms: N3_10  and  C8_12 
ROOT
HETATM    1  N1  UNL     1      -3.706   3.620  13.611  1.00  0.00    -0.406 N 
HETATM    2  C6  UNL     1      -3.028   4.619  14.361  1.00  0.00     0.133 C 
HETATM    3  C7  UNL     1      -1.564   4.642  13.933  1.00  0.00     0.132 C 
HETATM    4  N2  UNL     1      -1.399   4.895  12.530  1.00  0.00    -0.232 NA
HETATM    5  C12 UNL     1      -2.325   4.065  11.743  1.00  0.00     0.132 C 
HETATM    6  C13 UNL     1      -2.886   2.957  12.646  1.00  0.00     0.133 C 
ENDROOT
BRANCH   1   7
HETATM    7  C5  UNL     1      -4.615   2.797  14.333  1.00  0.00     0.079 C 
HETATM    8  C4  UNL     1      -3.868   2.201  15.516  1.00  0.00     0.025 C 
HETATM    9  C3  UNL     1      -4.738   1.203  16.231  1.00  0.00     0.006 C 
HETATM   10  C2  UNL     1      -6.198   1.571  16.134  1.00  0.00    -0.019 C 
HETATM   11  C1  UNL     1      -6.962   1.088  17.373  1.00  0.00     0.010 C 
HETATM   12  C15 UNL     1      -6.343   3.078  16.117  1.00  0.00     0.006 C 
HETATM   13  C14 UNL     1      -5.696   3.708  14.922  1.00  0.00     0.025 C 
ENDBRANCH   1   7
BRANCH   4  14
HETATM   14  N3  UNL     1      -0.129   4.569  12.121  1.00  0.00    -0.346 N 
ATOM     15  H3  UNL     1       0.272   3.643  12.273  1.00  0.00     0.175 HD
BRANCH  14  16
HETATM   16  C8  UNL     1       0.589   5.614  11.469  1.00  0.00     0.030 C 
HETATM   17  C9  UNL     1       0.416   5.489   9.955  1.00  0.00     0.039 C 
HETATM   18  C10 UNL     1       2.078   5.403  11.746  1.00  0.00     0.039 C 
HETATM   19  C11 UNL     1       0.198   6.999  11.856  1.00  0.00     0.039 C 
ENDBRANCH  14  16
ENDBRANCH   4  14
TORSDOF 3
ENDMDL
