MODEL 1
REMARK VINA RESULT: -6.153972450      0.000      0.000
REMARK  1 active torsions:
REMARK  status: ('A' for Active; 'I' for Inactive)
REMARK       I    between atoms: N1_4  and  C4_5 
REMARK    1  A    between atoms: N3_7  and  N4_9 
ROOT
HETATM    1  C1  UNL     1       1.762   4.371  10.642  1.00  0.00     0.041 C 
HETATM    2  C2  UNL     1       0.683   3.360  10.322  1.00  0.00     0.136 C 
HETATM    3  C3  UNL     1      -0.476   3.428  11.274  1.00  0.00     0.157 C 
HETATM    4  N1  UNL     1      -1.752   3.538  10.615  1.00  0.00    -0.350 N 
HETATM    5  C4  UNL     1      -2.934   3.092  11.278  1.00  0.00     0.205 C 
HETATM    6  N2  UNL     1      -4.166   2.904  10.593  1.00  0.00    -0.062 NA
HETATM    7  N3  UNL     1      -2.917   2.840  12.546  1.00  0.00    -0.276 N 
ATOM      8  H3  UNL     1      -2.044   2.969  13.056  1.00  0.00     0.189 HD
HETATM    9  C11 UNL     1      -1.912   4.090   9.283  1.00  0.00     0.157 C 
HETATM   10  C12 UNL     1      -0.533   4.599   8.872  1.00  0.00     0.136 C 
HETATM   11  C13 UNL     1      -0.597   5.104   7.452  1.00  0.00     0.041 C 
HETATM   12  O1  UNL     1       0.325   3.531   8.999  1.00  0.00    -0.378 OA
ENDROOT
BRANCH   7  13
HETATM   13  N4  UNL     1      -4.027   2.405  13.239  1.00  0.00    -0.326 N 
HETATM   14  C5  UNL     1      -4.253   0.968  13.320  1.00  0.00     0.142 C 
HETATM   15  C6  UNL     1      -4.117   0.477  14.741  1.00  0.00     0.021 C 
HETATM   16  C7  UNL     1      -3.832   1.599  15.706  1.00  0.00     0.002 C 
HETATM   17  C8  UNL     1      -5.030   2.420  16.047  1.00  0.00     0.002 C 
HETATM   18  C9  UNL     1      -5.829   2.829  14.843  1.00  0.00     0.021 C 
HETATM   19  C10 UNL     1      -4.867   3.415  13.823  1.00  0.00     0.142 C 
ENDBRANCH   7  13
TORSDOF 1
ENDMDL
MODEL 2
REMARK VINA RESULT: -5.999007031      3.584      3.890
REMARK  1 active torsions:
REMARK  status: ('A' for Active; 'I' for Inactive)
REMARK       I    between atoms: N1_4  and  C4_5 
REMARK    1  A    between atoms: N3_7  and  N4_9 
ROOT
HETATM    1  C1  UNL     1      -1.647   8.493  14.620  1.00  0.00     0.041 C 
HETATM    2  C2  UNL     1      -1.712   7.136  13.954  1.00  0.00     0.136 C 
HETATM    3  C3  UNL     1      -2.858   6.301  14.448  1.00  0.00     0.157 C 
HETATM    4  N1  UNL     1      -3.678   5.772  13.390  1.00  0.00    -0.350 N 
HETATM    5  C4  UNL     1      -4.439   4.584  13.608  1.00  0.00     0.205 C 
HETATM    6  N2  UNL     1      -5.033   3.855  12.541  1.00  0.00    -0.062 NA
HETATM    7  N3  UNL     1      -4.612   4.130  14.805  1.00  0.00    -0.276 N 
ATOM      8  H3  UNL     1      -4.195   4.638  15.584  1.00  0.00     0.189 HD
HETATM    9  C11 UNL     1      -3.780   6.388  12.080  1.00  0.00     0.157 C 
HETATM   10  C12 UNL     1      -2.983   7.688  12.166  1.00  0.00     0.136 C 
HETATM   11  C13 UNL     1      -2.962   8.344  10.808  1.00  0.00     0.041 C 
HETATM   12  O1  UNL     1      -1.721   7.338  12.588  1.00  0.00    -0.378 OA
ENDROOT
BRANCH   7  13
HETATM   13  N4  UNL     1      -5.336   2.988  15.076  1.00  0.00    -0.326 N 
HETATM   14  C5  UNL     1      -4.837   1.728  14.541  1.00  0.00     0.142 C 
HETATM   15  C6  UNL     1      -4.405   0.800  15.650  1.00  0.00     0.021 C 
HETATM   16  C7  UNL     1      -4.645   1.394  17.015  1.00  0.00     0.002 C 
HETATM   17  C8  UNL     1      -6.070   1.344  17.453  1.00  0.00     0.002 C 
HETATM   18  C9  UNL     1      -7.031   1.811  16.397  1.00  0.00     0.021 C 
HETATM   19  C10 UNL     1      -6.527   3.144  15.867  1.00  0.00     0.142 C 
ENDBRANCH   7  13
TORSDOF 1
ENDMDL
MODEL 3
REMARK VINA RESULT: -5.797116674      1.677      3.048
REMARK  1 active torsions:
REMARK  status: ('A' for Active; 'I' for Inactive)
REMARK       I    between atoms: N1_4  and  C4_5 
REMARK    1  A    between atoms: N3_7  and  N4_9 
ROOT
HETATM    1  C1  UNL     1      -3.587   5.208   7.172  1.00  0.00     0.041 C 
HETATM    2  C2  UNL     1      -2.826   5.603   8.418  1.00  0.00     0.136 C 
HETATM    3  C3  UNL     1      -3.317   4.894   9.646  1.00  0.00     0.157 C 
HETATM    4  N1  UNL     1      -2.266   4.251  10.393  1.00  0.00    -0.350 N 
HETATM    5  C4  UNL     1      -2.435   4.008  11.789  1.00  0.00     0.205 C 
HETATM    6  N2  UNL     1      -1.349   3.647  12.635  1.00  0.00    -0.062 NA
HETATM    7  N3  UNL     1      -3.602   4.109  12.335  1.00  0.00    -0.276 N 
ATOM      8  H3  UNL     1      -4.394   4.366  11.746  1.00  0.00     0.189 HD
HETATM    9  C11 UNL     1      -1.014   3.825   9.797  1.00  0.00     0.157 C 
HETATM   10  C12 UNL     1      -1.155   4.084   8.299  1.00  0.00     0.136 C 
HETATM   11  C13 UNL     1       0.149   3.753   7.617  1.00  0.00     0.041 C 
HETATM   12  O1  UNL     1      -1.481   5.414   8.167  1.00  0.00    -0.378 OA
ENDROOT
BRANCH   7  13
HETATM   13  N4  UNL     1      -3.825   3.887  13.677  1.00  0.00    -0.326 N 
HETATM   14  C5  UNL     1      -3.899   5.050  14.552  1.00  0.00     0.142 C 
HETATM   15  C6  UNL     1      -5.285   5.208  15.127  1.00  0.00     0.021 C 
HETATM   16  C7  UNL     1      -6.213   4.103  14.691  1.00  0.00     0.002 C 
HETATM   17  C8  UNL     1      -6.000   2.816  15.413  1.00  0.00     0.002 C 
HETATM   18  C9  UNL     1      -4.554   2.414  15.493  1.00  0.00     0.021 C 
HETATM   19  C10 UNL     1      -3.964   2.519  14.097  1.00  0.00     0.142 C 
ENDBRANCH   7  13
TORSDOF 1
ENDMDL
MODEL 4
REMARK VINA RESULT: -5.768071591      2.842      7.095
REMARK  1 active torsions:
REMARK  status: ('A' for Active; 'I' for Inactive)
REMARK       I    between atoms: N1_4  and  C4_5 
REMARK    1  A    between atoms: N3_7  and  N4_9 
ROOT
HETATM    1  C1  UNL     1      -6.711   4.084  16.989  1.00  0.00     0.041 C 
HETATM    2  C2  UNL     1      -6.587   3.291  15.707  1.00  0.00     0.136 C 
HETATM    3  C3  UNL     1      -5.333   3.610  14.946  1.00  0.00     0.157 C 
HETATM    4  N1  UNL     1      -4.567   2.443  14.591  1.00  0.00    -0.350 N 
HETATM    5  C4  UNL     1      -3.688   2.486  13.467  1.00  0.00     0.205 C 
HETATM    6  N2  UNL     1      -3.129   1.310  12.894  1.00  0.00    -0.062 NA
HETATM    7  N3  UNL     1      -3.369   3.617  12.929  1.00  0.00    -0.276 N 
ATOM      8  H3  UNL     1      -3.758   4.472  13.326  1.00  0.00     0.189 HD
HETATM    9  C11 UNL     1      -4.636   1.194  15.326  1.00  0.00     0.157 C 
HETATM   10  C12 UNL     1      -5.534   1.466  16.531  1.00  0.00     0.136 C 
HETATM   11  C13 UNL     1      -5.733   0.183  17.296  1.00  0.00     0.041 C 
HETATM   12  O1  UNL     1      -6.717   1.953  16.026  1.00  0.00    -0.378 OA
ENDROOT
BRANCH   7  13
HETATM   13  N4  UNL     1      -2.527   3.720  11.843  1.00  0.00    -0.326 N 
HETATM   14  C5  UNL     1      -3.111   3.568  10.517  1.00  0.00     0.142 C 
HETATM   15  C6  UNL     1      -3.031   4.858   9.738  1.00  0.00     0.021 C 
HETATM   16  C7  UNL     1      -2.329   5.946  10.509  1.00  0.00     0.002 C 
HETATM   17  C8  UNL     1      -0.844   5.806  10.535  1.00  0.00     0.002 C 
HETATM   18  C9  UNL     1      -0.387   4.415  10.873  1.00  0.00     0.021 C 
HETATM   19  C10 UNL     1      -1.137   3.968  12.117  1.00  0.00     0.142 C 
ENDBRANCH   7  13
TORSDOF 1
ENDMDL
MODEL 5
REMARK VINA RESULT: -5.748916189      4.095      7.201
REMARK  1 active torsions:
REMARK  status: ('A' for Active; 'I' for Inactive)
REMARK       I    between atoms: N1_4  and  C4_5 
REMARK    1  A    between atoms: N3_7  and  N4_9 
ROOT
HETATM    1  C1  UNL     1      -6.683   3.800  16.589  1.00  0.00     0.041 C 
HETATM    2  C2  UNL     1      -6.420   3.401  15.153  1.00  0.00     0.136 C 
HETATM    3  C3  UNL     1      -5.900   4.537  14.321  1.00  0.00     0.157 C 
HETATM    4  N1  UNL     1      -4.695   4.215  13.603  1.00  0.00    -0.350 N 
HETATM    5  C4  UNL     1      -4.368   4.925  12.409  1.00  0.00     0.205 C 
HETATM    6  N2  UNL     1      -3.364   4.476  11.507  1.00  0.00    -0.062 NA
HETATM    7  N3  UNL     1      -4.987   6.019  12.109  1.00  0.00    -0.276 N 
ATOM      8  H3  UNL     1      -5.710   6.359  12.744  1.00  0.00     0.189 HD
HETATM    9  C11 UNL     1      -3.767   3.184  14.030  1.00  0.00     0.157 C 
HETATM   10  C12 UNL     1      -4.286   2.687  15.378  1.00  0.00     0.136 C 
HETATM   11  C13 UNL     1      -3.424   1.541  15.845  1.00  0.00     0.041 C 
HETATM   12  O1  UNL     1      -5.589   2.298  15.169  1.00  0.00    -0.378 OA
ENDROOT
BRANCH   7  13
HETATM   13  N4  UNL     1      -4.716   6.747  10.971  1.00  0.00    -0.326 N 
HETATM   14  C5  UNL     1      -5.419   6.379   9.749  1.00  0.00     0.142 C 
HETATM   15  C6  UNL     1      -6.355   7.479   9.310  1.00  0.00     0.021 C 
HETATM   16  C7  UNL     1      -6.282   8.683  10.214  1.00  0.00     0.002 C 
HETATM   17  C8  UNL     1      -5.081   9.538   9.987  1.00  0.00     0.002 C 
HETATM   18  C9  UNL     1      -3.804   8.752   9.899  1.00  0.00     0.021 C 
HETATM   19  C10 UNL     1      -3.755   7.810  11.090  1.00  0.00     0.142 C 
ENDBRANCH   7  13
TORSDOF 1
ENDMDL
