MODEL 1
REMARK VINA RESULT: -7.022376409      0.000      0.000
REMARK  2 active torsions:
REMARK  status: ('A' for Active; 'I' for Inactive)
REMARK    1  A    between atoms: C2_2  and  N1_3 
REMARK    2  A    between atoms: N3_10  and  C7_11 
ROOT
HETATM    1  N1  UNL     1      -2.240   3.622  10.295  1.00  0.00    -0.352 N 
HETATM    2  C3  UNL     1      -1.250   2.792   9.749  1.00  0.00     0.178 C 
HETATM    3  N2  UNL     1      -1.364   1.463  10.303  1.00  0.00    -0.385 N 
ATOM      4  H2  UNL     1      -0.634   0.753  10.229  1.00  0.00     0.160 HD
HETATM    5  C4  UNL     1      -2.635   1.248  10.978  1.00  0.00     0.128 C 
HETATM    6  C5  UNL     1      -2.679   2.162  12.157  1.00  0.00     0.044 C 
HETATM    7  C6  UNL     1      -4.037   2.114  12.877  1.00  0.00     0.125 C 
HETATM    8  N3  UNL     1      -4.090   3.046  13.929  1.00  0.00    -0.408 N 
HETATM    9  C14 UNL     1      -3.480   4.298  13.744  1.00  0.00     0.119 C 
HETATM   10  C15 UNL     1      -3.416   4.547  12.227  1.00  0.00     0.045 C 
HETATM   11  C16 UNL     1      -2.414   3.596  11.683  1.00  0.00     0.098 C 
ENDROOT
BRANCH   8  12
HETATM   12  C7  UNL     1      -4.726   2.731  15.125  1.00  0.00     0.079 C 
HETATM   13  C8  UNL     1      -6.171   3.255  15.145  1.00  0.00     0.025 C 
HETATM   14  C9  UNL     1      -6.556   3.276  16.614  1.00  0.00     0.006 C 
HETATM   15  C10 UNL     1      -6.468   1.927  17.245  1.00  0.00    -0.019 C 
HETATM   16  C11 UNL     1      -6.394   2.151  18.762  1.00  0.00     0.010 C 
HETATM   17  C12 UNL     1      -5.266   1.132  16.869  1.00  0.00     0.006 C 
HETATM   18  C13 UNL     1      -4.863   1.252  15.416  1.00  0.00     0.025 C 
ENDBRANCH   8  12
BRANCH   1  19
HETATM   19  C2  UNL     1      -2.758   4.666   9.513  1.00  0.00     0.061 C 
HETATM   20  C1  UNL     1      -1.964   4.900   8.246  1.00  0.00     0.055 C 
ENDBRANCH   1  19
TORSDOF 2
ENDMDL
MODEL 2
REMARK VINA RESULT: -6.991042965      0.789      2.156
REMARK  2 active torsions:
REMARK  status: ('A' for Active; 'I' for Inactive)
REMARK    1  A    between atoms: C2_2  and  N1_3 
REMARK    2  A    between atoms: N3_10  and  C7_11 
ROOT
HETATM    1  N1  UNL     1      -2.172   3.479  10.267  1.00  0.00    -0.352 N 
HETATM    2  C3  UNL     1      -2.442   4.599   9.466  1.00  0.00     0.178 C 
HETATM    3  N2  UNL     1      -3.011   5.653  10.273  1.00  0.00    -0.385 N 
ATOM      4  H2  UNL     1      -3.485   6.470   9.886  1.00  0.00     0.160 HD
HETATM    5  C4  UNL     1      -2.833   5.421  11.698  1.00  0.00     0.128 C 
HETATM    6  C5  UNL     1      -3.611   4.199  12.056  1.00  0.00     0.044 C 
HETATM    7  C6  UNL     1      -3.394   3.782  13.520  1.00  0.00     0.125 C 
HETATM    8  N3  UNL     1      -4.063   2.579  13.813  1.00  0.00    -0.408 N 
HETATM    9  C14 UNL     1      -4.090   1.574  12.832  1.00  0.00     0.119 C 
HETATM   10  C15 UNL     1      -2.883   1.814  11.908  1.00  0.00     0.045 C 
HETATM   11  C16 UNL     1      -3.178   3.049  11.138  1.00  0.00     0.098 C 
ENDROOT
BRANCH   8  12
HETATM   12  C7  UNL     1      -4.688   2.396  15.041  1.00  0.00     0.079 C 
HETATM   13  C8  UNL     1      -6.100   3.008  15.046  1.00  0.00     0.025 C 
HETATM   14  C9  UNL     1      -6.448   3.165  16.516  1.00  0.00     0.006 C 
HETATM   15  C10 UNL     1      -6.426   1.866  17.250  1.00  0.00    -0.019 C 
HETATM   16  C11 UNL     1      -6.304   2.202  18.743  1.00  0.00     0.010 C 
HETATM   17  C12 UNL     1      -5.282   0.973  16.915  1.00  0.00     0.006 C 
HETATM   18  C13 UNL     1      -4.906   0.955  15.450  1.00  0.00     0.025 C 
ENDBRANCH   8  12
BRANCH   1  19
HETATM   19  C2  UNL     1      -1.092   2.649   9.931  1.00  0.00     0.061 C 
HETATM   20  C1  UNL     1       0.251   3.289  10.209  1.00  0.00     0.055 C 
ENDBRANCH   1  19
TORSDOF 2
ENDMDL
MODEL 3
REMARK VINA RESULT: -6.891750731      1.578      2.792
REMARK  2 active torsions:
REMARK  status: ('A' for Active; 'I' for Inactive)
REMARK    1  A    between atoms: C2_2  and  N1_3 
REMARK    2  A    between atoms: N3_10  and  C7_11 
ROOT
HETATM    1  N1  UNL     1      -0.761   4.209  10.736  1.00  0.00    -0.352 N 
HETATM    2  C3  UNL     1      -0.572   5.550  10.370  1.00  0.00     0.178 C 
HETATM    3  N2  UNL     1      -1.037   6.417  11.428  1.00  0.00    -0.385 N 
ATOM      4  H2  UNL     1      -1.205   7.417  11.309  1.00  0.00     0.160 HD
HETATM    5  C4  UNL     1      -1.239   5.707  12.681  1.00  0.00     0.128 C 
HETATM    6  C5  UNL     1      -2.345   4.728  12.471  1.00  0.00     0.044 C 
HETATM    7  C6  UNL     1      -2.562   3.827  13.698  1.00  0.00     0.125 C 
HETATM    8  N3  UNL     1      -3.547   2.853  13.449  1.00  0.00    -0.408 N 
HETATM    9  C14 UNL     1      -3.596   2.264  12.174  1.00  0.00     0.119 C 
HETATM   10  C15 UNL     1      -2.194   2.408  11.558  1.00  0.00     0.045 C 
HETATM   11  C16 UNL     1      -2.008   3.850  11.260  1.00  0.00     0.098 C 
ENDROOT
BRANCH   8  12
HETATM   12  C7  UNL     1      -4.453   2.490  14.439  1.00  0.00     0.079 C 
HETATM   13  C8  UNL     1      -3.737   1.874  15.653  1.00  0.00     0.025 C 
HETATM   14  C9  UNL     1      -4.820   1.113  16.398  1.00  0.00     0.006 C 
HETATM   15  C10 UNL     1      -5.942   1.996  16.830  1.00  0.00    -0.019 C 
HETATM   16  C11 UNL     1      -7.144   1.082  17.109  1.00  0.00     0.010 C 
HETATM   17  C12 UNL     1      -6.387   2.993  15.817  1.00  0.00     0.006 C 
HETATM   18  C13 UNL     1      -5.265   3.626  15.024  1.00  0.00     0.025 C 
ENDBRANCH   8  12
BRANCH   1  19
HETATM   19  C2  UNL     1       0.136   3.242  10.258  1.00  0.00     0.061 C 
HETATM   20  C1  UNL     1       1.475   3.827   9.862  1.00  0.00     0.055 C 
ENDBRANCH   1  19
TORSDOF 2
ENDMDL
MODEL 4
REMARK VINA RESULT: -6.891368377      2.863      6.714
REMARK  2 active torsions:
REMARK  status: ('A' for Active; 'I' for Inactive)
REMARK    1  A    between atoms: C2_2  and  N1_3 
REMARK    2  A    between atoms: N3_10  and  C7_11 
ROOT
HETATM    1  N1  UNL     1      -5.853   1.758  16.366  1.00  0.00    -0.352 N 
HETATM    2  C3  UNL     1      -5.432   0.429  16.212  1.00  0.00     0.178 C 
HETATM    3  N2  UNL     1      -4.090   0.399  15.677  1.00  0.00    -0.385 N 
ATOM      4  H2  UNL     1      -3.657  -0.435  15.279  1.00  0.00     0.160 HD
HETATM    5  C4  UNL     1      -3.425   1.689  15.770  1.00  0.00     0.128 C 
HETATM    6  C5  UNL     1      -4.167   2.643  14.894  1.00  0.00     0.044 C 
HETATM    7  C6  UNL     1      -3.628   4.078  15.012  1.00  0.00     0.125 C 
HETATM    8  N3  UNL     1      -4.397   4.976  14.250  1.00  0.00    -0.408 N 
HETATM    9  C14 UNL     1      -5.788   4.791  14.202  1.00  0.00     0.119 C 
HETATM   10  C15 UNL     1      -6.181   4.006  15.465  1.00  0.00     0.045 C 
HETATM   11  C16 UNL     1      -5.648   2.631  15.292  1.00  0.00     0.098 C 
ENDROOT
BRANCH   8  12
HETATM   12  C7  UNL     1      -3.790   6.017  13.555  1.00  0.00     0.079 C 
HETATM   13  C8  UNL     1      -2.432   6.386  14.176  1.00  0.00     0.025 C 
HETATM   14  C9  UNL     1      -2.134   7.781  13.654  1.00  0.00     0.006 C 
HETATM   15  C10 UNL     1      -2.071   7.831  12.165  1.00  0.00    -0.019 C 
HETATM   16  C11 UNL     1      -2.257   9.301  11.762  1.00  0.00     0.010 C 
HETATM   17  C12 UNL     1      -3.132   7.056  11.463  1.00  0.00     0.006 C 
HETATM   18  C13 UNL     1      -3.469   5.728  12.105  1.00  0.00     0.025 C 
ENDBRANCH   8  12
BRANCH   1  19
HETATM   19  C2  UNL     1      -6.746   2.071  17.403  1.00  0.00     0.061 C 
HETATM   20  C1  UNL     1      -6.065   2.192  18.749  1.00  0.00     0.055 C 
ENDBRANCH   1  19
TORSDOF 2
ENDMDL
MODEL 5
REMARK VINA RESULT: -6.830500967      1.218      2.620
REMARK  2 active torsions:
REMARK  status: ('A' for Active; 'I' for Inactive)
REMARK    1  A    between atoms: C2_2  and  N1_3 
REMARK    2  A    between atoms: N3_10  and  C7_11 
ROOT
HETATM    1  N1  UNL     1      -1.477   3.727   9.953  1.00  0.00    -0.352 N 
HETATM    2  C3  UNL     1      -1.713   4.853   9.150  1.00  0.00     0.178 C 
HETATM    3  N2  UNL     1      -2.500   5.820   9.881  1.00  0.00    -0.385 N 
ATOM      4  H2  UNL     1      -2.977   6.609   9.444  1.00  0.00     0.160 HD
HETATM    5  C4  UNL     1      -2.537   5.542  11.308  1.00  0.00     0.128 C 
HETATM    6  C5  UNL     1      -3.249   4.244  11.497  1.00  0.00     0.044 C 
HETATM    7  C6  UNL     1      -3.237   3.784  12.964  1.00  0.00     0.125 C 
HETATM    8  N3  UNL     1      -3.832   2.517  13.107  1.00  0.00    -0.408 N 
HETATM    9  C14 UNL     1      -3.607   1.557  12.107  1.00  0.00     0.119 C 
HETATM   10  C15 UNL     1      -2.293   1.939  11.405  1.00  0.00     0.045 C 
HETATM   11  C16 UNL     1      -2.569   3.176  10.632  1.00  0.00     0.098 C 
ENDROOT
BRANCH   8  12
HETATM   12  C7  UNL     1      -4.631   2.229  14.209  1.00  0.00     0.079 C 
HETATM   13  C8  UNL     1      -3.806   1.609  15.349  1.00  0.00     0.025 C 
HETATM   14  C9  UNL     1      -4.829   0.926  16.240  1.00  0.00     0.006 C 
HETATM   15  C10 UNL     1      -5.846   1.878  16.773  1.00  0.00    -0.019 C 
HETATM   16  C11 UNL     1      -7.050   1.036  17.221  1.00  0.00     0.010 C 
HETATM   17  C12 UNL     1      -6.359   2.870  15.787  1.00  0.00     0.006 C 
HETATM   18  C13 UNL     1      -5.310   3.421  14.847  1.00  0.00     0.025 C 
ENDBRANCH   8  12
BRANCH   1  19
HETATM   19  C2  UNL     1      -0.285   3.007   9.778  1.00  0.00     0.061 C 
HETATM   20  C1  UNL     1       0.935   3.765  10.255  1.00  0.00     0.055 C 
ENDBRANCH   1  19
TORSDOF 2
ENDMDL
