MODEL 1
REMARK VINA RESULT: -6.497092823      0.000      0.000
REMARK  2 active torsions:
REMARK  status: ('A' for Active; 'I' for Inactive)
REMARK    1  A    between atoms: C4_4  and  C5_5 
REMARK       I    between atoms: C5_5  and  N1_7 
REMARK    2  A    between atoms: N1_7  and  N2_9 
ROOT
HETATM    1  C1  UNL     1      -3.782   7.274  10.921  1.00  0.00     0.016 C 
HETATM    2  C2  UNL     1      -3.450   6.345  12.076  1.00  0.00    -0.026 A 
HETATM    3  C3  UNL     1      -4.654   5.732  12.738  1.00  0.00     0.016 C 
HETATM    4  C4  UNL     1      -2.195   5.507  11.853  1.00  0.00     0.097 A 
HETATM    5  C10 UNL     1      -2.225   6.570  12.876  1.00  0.00    -0.020 A 
HETATM    6  C11 UNL     1      -1.344   7.776  12.586  1.00  0.00     0.011 C 
HETATM    7  C12 UNL     1      -1.657   8.964  13.424  1.00  0.00     0.001 C 
HETATM    8  C13 UNL     1      -1.598   8.600  14.877  1.00  0.00     0.000 C 
HETATM    9  C14 UNL     1      -2.665   7.537  15.109  1.00  0.00     0.001 C 
HETATM   10  C15 UNL     1      -2.203   6.313  14.328  1.00  0.00     0.011 C 
ENDROOT
BRANCH   4  11
HETATM   11  C5  UNL     1      -2.334   4.067  12.146  1.00  0.00     0.237 C 
HETATM   12  O1  UNL     1      -1.992   3.539  13.233  1.00  0.00    -0.272 OA
HETATM   13  N1  UNL     1      -2.880   3.218  11.160  1.00  0.00    -0.289 N 
ATOM     14  H1  UNL     1      -3.160   3.624  10.266  1.00  0.00     0.184 HD
BRANCH  13  15
HETATM   15  N2  UNL     1      -3.052   1.869  11.354  1.00  0.00    -0.225 NA
HETATM   16  C6  UNL     1      -2.102   0.999  10.761  1.00  0.00     0.140 C 
HETATM   17  C7  UNL     1      -2.570  -0.442  11.046  1.00  0.00     0.183 C 
HETATM   18  O2  UNL     1      -3.654  -0.631  10.188  1.00  0.00    -0.389 OA
HETATM   19  C8  UNL     1      -4.703   0.100  10.718  1.00  0.00     0.183 C 
HETATM   20  C9  UNL     1      -4.431   1.468  11.149  1.00  0.00     0.140 C 
ENDBRANCH  13  15
ENDBRANCH   4  11
TORSDOF 2
ENDMDL
MODEL 2
REMARK VINA RESULT: -6.489432393      3.677      5.859
REMARK  2 active torsions:
REMARK  status: ('A' for Active; 'I' for Inactive)
REMARK    1  A    between atoms: C4_4  and  C5_5 
REMARK       I    between atoms: C5_5  and  N1_7 
REMARK    2  A    between atoms: N1_7  and  N2_9 
ROOT
HETATM    1  C1  UNL     1      -3.689  -0.241  10.076  1.00  0.00     0.016 C 
HETATM    2  C2  UNL     1      -3.839   0.821  11.152  1.00  0.00    -0.026 A 
HETATM    3  C3  UNL     1      -5.195   1.474  11.186  1.00  0.00     0.016 C 
HETATM    4  C4  UNL     1      -3.122   0.486  12.456  1.00  0.00     0.097 A 
HETATM    5  C10 UNL     1      -2.658   1.593  11.598  1.00  0.00    -0.020 A 
HETATM    6  C11 UNL     1      -1.312   1.372  10.924  1.00  0.00     0.011 C 
HETATM    7  C12 UNL     1      -1.037   2.315   9.807  1.00  0.00     0.001 C 
HETATM    8  C13 UNL     1      -1.165   3.730  10.284  1.00  0.00     0.000 C 
HETATM    9  C14 UNL     1      -2.608   3.911  10.740  1.00  0.00     0.001 C 
HETATM   10  C15 UNL     1      -2.769   3.018  11.963  1.00  0.00     0.011 C 
ENDROOT
BRANCH   4  11
HETATM   11  C5  UNL     1      -3.923   0.665  13.683  1.00  0.00     0.237 C 
HETATM   12  O1  UNL     1      -4.765  -0.169  14.096  1.00  0.00    -0.272 OA
HETATM   13  N1  UNL     1      -3.744   1.837  14.450  1.00  0.00    -0.289 N 
ATOM     14  H1  UNL     1      -3.070   2.532  14.131  1.00  0.00     0.184 HD
BRANCH  13  15
HETATM   15  N2  UNL     1      -4.442   2.079  15.609  1.00  0.00    -0.225 NA
HETATM   16  C6  UNL     1      -4.758   0.963  16.425  1.00  0.00     0.140 C 
HETATM   17  C7  UNL     1      -5.612   1.489  17.596  1.00  0.00     0.183 C 
HETATM   18  O2  UNL     1      -6.860   1.745  17.027  1.00  0.00    -0.389 OA
HETATM   19  C8  UNL     1      -6.715   2.892  16.268  1.00  0.00     0.183 C 
HETATM   20  C9  UNL     1      -5.554   2.984  15.387  1.00  0.00     0.140 C 
ENDBRANCH  13  15
ENDBRANCH   4  11
TORSDOF 2
ENDMDL
MODEL 3
REMARK VINA RESULT: -6.484761097      3.728      5.842
REMARK  2 active torsions:
REMARK  status: ('A' for Active; 'I' for Inactive)
REMARK    1  A    between atoms: C4_4  and  C5_5 
REMARK       I    between atoms: C5_5  and  N1_7 
REMARK    2  A    between atoms: N1_7  and  N2_9 
ROOT
HETATM    1  C1  UNL     1      -6.446   3.817  13.994  1.00  0.00     0.016 C 
HETATM    2  C2  UNL     1      -5.142   3.093  14.280  1.00  0.00    -0.026 A 
HETATM    3  C3  UNL     1      -4.646   2.247  13.138  1.00  0.00     0.016 C 
HETATM    4  C4  UNL     1      -4.154   3.902  15.113  1.00  0.00     0.097 A 
HETATM    5  C10 UNL     1      -4.804   2.699  15.666  1.00  0.00    -0.020 A 
HETATM    6  C11 UNL     1      -5.799   2.955  16.788  1.00  0.00     0.011 C 
HETATM    7  C12 UNL     1      -6.689   1.800  17.077  1.00  0.00     0.001 C 
HETATM    8  C13 UNL     1      -5.871   0.577  17.362  1.00  0.00     0.000 C 
HETATM    9  C14 UNL     1      -5.069   0.279  16.101  1.00  0.00     0.001 C 
HETATM   10  C15 UNL     1      -4.093   1.439  15.951  1.00  0.00     0.011 C 
ENDROOT
BRANCH   4  11
HETATM   11  C5  UNL     1      -2.771   3.938  14.599  1.00  0.00     0.237 C 
HETATM   12  O1  UNL     1      -1.797   3.392  15.174  1.00  0.00    -0.272 OA
HETATM   13  N1  UNL     1      -2.508   4.621  13.391  1.00  0.00    -0.289 N 
ATOM     14  H1  UNL     1      -3.282   5.077  12.909  1.00  0.00     0.184 HD
BRANCH  13  15
HETATM   15  N2  UNL     1      -1.252   4.695  12.839  1.00  0.00    -0.225 NA
HETATM   16  C6  UNL     1      -0.757   5.984  12.516  1.00  0.00     0.140 C 
HETATM   17  C7  UNL     1       0.612   5.784  11.835  1.00  0.00     0.183 C 
HETATM   18  O2  UNL     1       0.298   5.308  10.561  1.00  0.00    -0.389 OA
HETATM   19  C8  UNL     1      -0.113   3.997  10.724  1.00  0.00     0.183 C 
HETATM   20  C9  UNL     1      -1.067   3.710  11.790  1.00  0.00     0.140 C 
ENDBRANCH  13  15
ENDBRANCH   4  11
TORSDOF 2
ENDMDL
MODEL 4
REMARK VINA RESULT: -6.420612371      3.669      5.983
REMARK  2 active torsions:
REMARK  status: ('A' for Active; 'I' for Inactive)
REMARK    1  A    between atoms: C4_4  and  C5_5 
REMARK       I    between atoms: C5_5  and  N1_7 
REMARK    2  A    between atoms: N1_7  and  N2_9 
ROOT
HETATM    1  C1  UNL     1      -2.823  -0.336  10.180  1.00  0.00     0.016 C 
HETATM    2  C2  UNL     1      -3.595   0.627  11.065  1.00  0.00    -0.026 A 
HETATM    3  C3  UNL     1      -5.075   0.659  10.796  1.00  0.00     0.016 C 
HETATM    4  C4  UNL     1      -3.080   0.696  12.500  1.00  0.00     0.097 A 
HETATM    5  C10 UNL     1      -2.933   1.844  11.585  1.00  0.00    -0.020 A 
HETATM    6  C11 UNL     1      -1.505   2.165  11.169  1.00  0.00     0.011 C 
HETATM    7  C12 UNL     1      -1.410   3.071   9.994  1.00  0.00     0.001 C 
HETATM    8  C13 UNL     1      -2.183   4.329  10.249  1.00  0.00     0.000 C 
HETATM    9  C14 UNL     1      -3.638   3.921  10.442  1.00  0.00     0.001 C 
HETATM   10  C15 UNL     1      -3.671   3.113  11.733  1.00  0.00     0.011 C 
ENDROOT
BRANCH   4  11
HETATM   11  C5  UNL     1      -4.114   0.597  13.549  1.00  0.00     0.237 C 
HETATM   12  O1  UNL     1      -4.671  -0.478  13.881  1.00  0.00    -0.272 OA
HETATM   13  N1  UNL     1      -4.511   1.768  14.229  1.00  0.00    -0.289 N 
ATOM     14  H1  UNL     1      -4.077   2.655  13.972  1.00  0.00     0.184 HD
BRANCH  13  15
HETATM   15  N2  UNL     1      -5.460   1.763  15.224  1.00  0.00    -0.225 NA
HETATM   16  C6  UNL     1      -5.983   3.015  15.632  1.00  0.00     0.140 C 
HETATM   17  C7  UNL     1      -6.944   2.741  16.807  1.00  0.00     0.183 C 
HETATM   18  O2  UNL     1      -6.102   2.457  17.883  1.00  0.00    -0.389 OA
HETATM   19  C8  UNL     1      -5.592   1.191  17.656  1.00  0.00     0.183 C 
HETATM   20  C9  UNL     1      -5.083   0.892  16.321  1.00  0.00     0.140 C 
ENDBRANCH  13  15
ENDBRANCH   4  11
TORSDOF 2
ENDMDL
MODEL 5
REMARK VINA RESULT: -6.407946303      3.546      4.155
REMARK  2 active torsions:
REMARK  status: ('A' for Active; 'I' for Inactive)
REMARK    1  A    between atoms: C4_4  and  C5_5 
REMARK       I    between atoms: C5_5  and  N1_7 
REMARK    2  A    between atoms: N1_7  and  N2_9 
ROOT
HETATM    1  C1  UNL     1      -4.046   4.342  10.894  1.00  0.00     0.016 C 
HETATM    2  C2  UNL     1      -3.632   4.582  12.336  1.00  0.00    -0.026 A 
HETATM    3  C3  UNL     1      -4.652   5.328  13.152  1.00  0.00     0.016 C 
HETATM    4  C4  UNL     1      -2.857   3.424  12.957  1.00  0.00     0.097 A 
HETATM    5  C10 UNL     1      -2.198   4.714  12.679  1.00  0.00    -0.020 A 
HETATM    6  C11 UNL     1      -1.150   4.685  11.577  1.00  0.00     0.011 C 
HETATM    7  C12 UNL     1      -0.767   6.032  11.075  1.00  0.00     0.001 C 
HETATM    8  C13 UNL     1      -0.316   6.897  12.213  1.00  0.00     0.000 C 
HETATM    9  C14 UNL     1      -1.505   7.040  13.155  1.00  0.00     0.001 C 
HETATM   10  C15 UNL     1      -1.747   5.649  13.728  1.00  0.00     0.011 C 
ENDROOT
BRANCH   4  11
HETATM   11  C5  UNL     1      -3.319   2.998  14.293  1.00  0.00     0.237 C 
HETATM   12  O1  UNL     1      -2.670   3.187  15.350  1.00  0.00    -0.272 OA
HETATM   13  N1  UNL     1      -4.562   2.337  14.407  1.00  0.00    -0.289 N 
ATOM     14  H1  UNL     1      -5.105   2.167  13.560  1.00  0.00     0.184 HD
BRANCH  13  15
HETATM   15  N2  UNL     1      -5.069   1.914  15.612  1.00  0.00    -0.225 NA
HETATM   16  C6  UNL     1      -4.961   0.534  15.917  1.00  0.00     0.140 C 
HETATM   17  C7  UNL     1      -5.681   0.311  17.262  1.00  0.00     0.183 C 
HETATM   18  O2  UNL     1      -7.037   0.393  16.946  1.00  0.00    -0.389 OA
HETATM   19  C8  UNL     1      -7.305   1.731  16.720  1.00  0.00     0.183 C 
HETATM   20  C9  UNL     1      -6.382   2.476  15.869  1.00  0.00     0.140 C 
ENDBRANCH  13  15
ENDBRANCH   4  11
TORSDOF 2
ENDMDL
