MODEL 1
REMARK VINA RESULT: -6.187340396      0.000      0.000
REMARK  3 active torsions:
REMARK  status: ('A' for Active; 'I' for Inactive)
REMARK    1  A    between atoms: C7_7  and  C8_8 
REMARK    2  A    between atoms: C7_7  and  N1_11 
REMARK    3  A    between atoms: C8_8  and  O1_9 
ROOT
HETATM    1  C1  UNL     1      -1.452   6.387  13.319  1.00  0.00     0.010 C 
HETATM    2  C2  UNL     1      -2.282   5.494  14.227  1.00  0.00    -0.015 C 
HETATM    3  C3  UNL     1      -3.641   6.025  14.524  1.00  0.00     0.015 C 
HETATM    4  C4  UNL     1      -4.659   5.063  13.901  1.00  0.00    -0.009 C 
HETATM    5  C5  UNL     1      -5.166   5.798  12.695  1.00  0.00     0.018 C 
HETATM    6  C6  UNL     1      -5.821   5.008  14.866  1.00  0.00     0.018 C 
HETATM    7  C7  UNL     1      -3.927   3.805  13.695  1.00  0.00     0.188 C 
HETATM    8  C14 UNL     1      -2.495   4.202  13.463  1.00  0.00     0.049 C 
ENDROOT
BRANCH   7   9
HETATM    9  C8  UNL     1      -3.950   3.129  15.089  1.00  0.00     0.206 C 
BRANCH   9  10
HETATM   10  O1  UNL     1      -2.697   2.719  15.494  1.00  0.00    -0.398 OA
ATOM     11  H1  UNL     1      -2.307   3.317  16.121  1.00  0.00     0.209 HD
ENDBRANCH   9  10
ENDBRANCH   7   9
BRANCH   7  12
HETATM   12  N1  UNL     1      -4.391   2.819  12.816  1.00  0.00     0.104 N 
HETATM   13  C9  UNL     1      -3.552   2.281  11.806  1.00  0.00     0.303 C 
HETATM   14  C10 UNL     1      -4.319   1.166  11.065  1.00  0.00     0.302 C 
HETATM   15  N2  UNL     1      -4.475   0.001  11.875  1.00  0.00     0.087 N 
HETATM   16  C11 UNL     1      -3.677  -1.119  11.408  1.00  0.00     0.310 C 
HETATM   17  C12 UNL     1      -4.142   0.370  13.206  1.00  0.00     0.302 C 
HETATM   18  C13 UNL     1      -4.880   1.669  13.550  1.00  0.00     0.303 C 
ENDBRANCH   7  12
TORSDOF 3
ENDMDL
MODEL 2
REMARK VINA RESULT: -5.598849834      2.410      3.798
REMARK  3 active torsions:
REMARK  status: ('A' for Active; 'I' for Inactive)
REMARK    1  A    between atoms: C7_7  and  C8_8 
REMARK    2  A    between atoms: C7_7  and  N1_11 
REMARK    3  A    between atoms: C8_8  and  O1_9 
ROOT
HETATM    1  C1  UNL     1      -5.164   6.645  11.398  1.00  0.00     0.010 C 
HETATM    2  C2  UNL     1      -4.376   5.409  11.804  1.00  0.00    -0.015 C 
HETATM    3  C3  UNL     1      -3.068   5.708  12.448  1.00  0.00     0.015 C 
HETATM    4  C4  UNL     1      -3.143   5.216  13.897  1.00  0.00    -0.009 C 
HETATM    5  C5  UNL     1      -3.276   6.475  14.705  1.00  0.00     0.018 C 
HETATM    6  C6  UNL     1      -1.772   4.665  14.220  1.00  0.00     0.018 C 
HETATM    7  C7  UNL     1      -4.251   4.250  13.922  1.00  0.00     0.188 C 
HETATM    8  C14 UNL     1      -5.212   4.709  12.858  1.00  0.00     0.049 C 
ENDROOT
BRANCH   7   9
HETATM    9  C8  UNL     1      -3.619   2.945  13.377  1.00  0.00     0.206 C 
BRANCH   9  10
HETATM   10  O1  UNL     1      -4.426   2.319  12.449  1.00  0.00    -0.398 OA
ATOM     11  H1  UNL     1      -4.339   1.374  12.475  1.00  0.00     0.209 HD
ENDBRANCH   9  10
ENDBRANCH   7   9
BRANCH   7  12
HETATM   12  N1  UNL     1      -4.871   3.872  15.119  1.00  0.00     0.104 N 
HETATM   13  C9  UNL     1      -6.277   3.699  15.196  1.00  0.00     0.303 C 
HETATM   14  C10 UNL     1      -6.640   3.202  16.611  1.00  0.00     0.302 C 
HETATM   15  N2  UNL     1      -6.234   1.849  16.817  1.00  0.00     0.087 N 
HETATM   16  C11 UNL     1      -7.357   0.932  16.902  1.00  0.00     0.310 C 
HETATM   17  C12 UNL     1      -5.352   1.510  15.755  1.00  0.00     0.302 C 
HETATM   18  C13 UNL     1      -4.313   2.628  15.612  1.00  0.00     0.303 C 
ENDBRANCH   7  12
TORSDOF 3
ENDMDL
MODEL 3
REMARK VINA RESULT: -5.542210863      1.753      3.012
REMARK  3 active torsions:
REMARK  status: ('A' for Active; 'I' for Inactive)
REMARK    1  A    between atoms: C7_7  and  C8_8 
REMARK    2  A    between atoms: C7_7  and  N1_11 
REMARK    3  A    between atoms: C8_8  and  O1_9 
ROOT
HETATM    1  C1  UNL     1      -6.546   3.695  15.751  1.00  0.00     0.010 C 
HETATM    2  C2  UNL     1      -5.697   4.473  14.758  1.00  0.00    -0.015 C 
HETATM    3  C3  UNL     1      -4.273   4.621  15.164  1.00  0.00     0.015 C 
HETATM    4  C4  UNL     1      -3.419   3.855  14.148  1.00  0.00    -0.009 C 
HETATM    5  C5  UNL     1      -2.994   2.618  14.885  1.00  0.00     0.018 C 
HETATM    6  C6  UNL     1      -2.163   4.673  13.960  1.00  0.00     0.018 C 
HETATM    7  C7  UNL     1      -4.275   3.701  12.962  1.00  0.00     0.188 C 
HETATM    8  C14 UNL     1      -5.686   3.651  13.484  1.00  0.00     0.049 C 
ENDROOT
BRANCH   7   9
HETATM    9  C8  UNL     1      -4.149   5.061  12.233  1.00  0.00     0.206 C 
BRANCH   9  10
HETATM   10  O1  UNL     1      -5.151   5.254  11.304  1.00  0.00    -0.398 OA
ATOM     11  H1  UNL     1      -5.941   5.608  11.693  1.00  0.00     0.209 HD
ENDBRANCH   9  10
ENDBRANCH   7   9
BRANCH   7  12
HETATM   12  N1  UNL     1      -4.002   2.744  11.977  1.00  0.00     0.104 N 
HETATM   13  C9  UNL     1      -2.781   2.021  11.973  1.00  0.00     0.303 C 
HETATM   14  C10 UNL     1      -2.817   0.991  10.825  1.00  0.00     0.302 C 
HETATM   15  N2  UNL     1      -3.714  -0.083  11.104  1.00  0.00     0.087 N 
HETATM   16  C11 UNL     1      -3.028  -1.339  11.353  1.00  0.00     0.310 C 
HETATM   17  C12 UNL     1      -4.510   0.314  12.213  1.00  0.00     0.302 C 
HETATM   18  C13 UNL     1      -5.038   1.730  11.949  1.00  0.00     0.303 C 
ENDBRANCH   7  12
TORSDOF 3
ENDMDL
MODEL 4
REMARK VINA RESULT: -5.541077309      2.294      3.548
REMARK  3 active torsions:
REMARK  status: ('A' for Active; 'I' for Inactive)
REMARK    1  A    between atoms: C7_7  and  C8_8 
REMARK    2  A    between atoms: C7_7  and  N1_11 
REMARK    3  A    between atoms: C8_8  and  O1_9 
ROOT
HETATM    1  C1  UNL     1      -5.460   6.634  11.364  1.00  0.00     0.010 C 
HETATM    2  C2  UNL     1      -4.131   5.912  11.524  1.00  0.00    -0.015 C 
HETATM    3  C3  UNL     1      -3.240   6.504  12.559  1.00  0.00     0.015 C 
HETATM    4  C4  UNL     1      -3.080   5.468  13.678  1.00  0.00    -0.009 C 
HETATM    5  C5  UNL     1      -3.926   6.004  14.796  1.00  0.00     0.018 C 
HETATM    6  C6  UNL     1      -1.650   5.588  14.152  1.00  0.00     0.018 C 
HETATM    7  C7  UNL     1      -3.457   4.183  13.072  1.00  0.00     0.188 C 
HETATM    8  C14 UNL     1      -4.469   4.517  12.010  1.00  0.00     0.049 C 
ENDROOT
BRANCH   7   9
HETATM    9  C8  UNL     1      -2.183   3.743  12.309  1.00  0.00     0.206 C 
BRANCH   9  10
HETATM   10  O1  UNL     1      -2.127   2.377  12.124  1.00  0.00    -0.398 OA
ATOM     11  H1  UNL     1      -2.277   2.129  11.220  1.00  0.00     0.209 HD
ENDBRANCH   9  10
ENDBRANCH   7   9
BRANCH   7  12
HETATM   12  N1  UNL     1      -3.803   3.074  13.854  1.00  0.00     0.104 N 
HETATM   13  C9  UNL     1      -3.443   3.002  15.225  1.00  0.00     0.303 C 
HETATM   14  C10 UNL     1      -4.036   1.710  15.827  1.00  0.00     0.302 C 
HETATM   15  N2  UNL     1      -5.454   1.794  15.968  1.00  0.00     0.087 N 
HETATM   16  C11 UNL     1      -5.877   1.873  17.356  1.00  0.00     0.310 C 
HETATM   17  C12 UNL     1      -5.884   2.923  15.219  1.00  0.00     0.302 C 
HETATM   18  C13 UNL     1      -5.236   2.859  13.830  1.00  0.00     0.303 C 
ENDBRANCH   7  12
TORSDOF 3
ENDMDL
MODEL 5
REMARK VINA RESULT: -5.521964110      1.006      1.484
REMARK  3 active torsions:
REMARK  status: ('A' for Active; 'I' for Inactive)
REMARK    1  A    between atoms: C7_7  and  C8_8 
REMARK    2  A    between atoms: C7_7  and  N1_11 
REMARK    3  A    between atoms: C8_8  and  O1_9 
ROOT
HETATM    1  C1  UNL     1      -2.171   6.574  13.861  1.00  0.00     0.010 C 
HETATM    2  C2  UNL     1      -2.782   5.525  14.777  1.00  0.00    -0.015 C 
HETATM    3  C3  UNL     1      -4.271   5.521  14.787  1.00  0.00     0.015 C 
HETATM    4  C4  UNL     1      -4.734   4.187  14.193  1.00  0.00    -0.009 C 
HETATM    5  C5  UNL     1      -5.229   4.549  12.823  1.00  0.00     0.018 C 
HETATM    6  C6  UNL     1      -5.961   3.786  14.979  1.00  0.00     0.018 C 
HETATM    7  C7  UNL     1      -3.573   3.291  14.302  1.00  0.00     0.188 C 
HETATM    8  C14 UNL     1      -2.364   4.182  14.212  1.00  0.00     0.049 C 
ENDROOT
BRANCH   7   9
HETATM    9  C8  UNL     1      -3.620   2.799  15.770  1.00  0.00     0.206 C 
BRANCH   9  10
HETATM   10  O1  UNL     1      -2.566   1.963  16.076  1.00  0.00    -0.398 OA
ATOM     11  H1  UNL     1      -1.960   2.357  16.693  1.00  0.00     0.209 HD
ENDBRANCH   9  10
ENDBRANCH   7   9
BRANCH   7  12
HETATM   12  N1  UNL     1      -3.472   2.121  13.538  1.00  0.00     0.104 N 
HETATM   13  C9  UNL     1      -4.593   1.274  13.341  1.00  0.00     0.303 C 
HETATM   14  C10 UNL     1      -4.187   0.126  12.394  1.00  0.00     0.302 C 
HETATM   15  N2  UNL     1      -4.010   0.582  11.053  1.00  0.00     0.087 N 
HETATM   16  C11 UNL     1      -5.044   0.101  10.154  1.00  0.00     0.310 C 
HETATM   17  C12 UNL     1      -3.964   2.002  11.097  1.00  0.00     0.302 C 
HETATM   18  C13 UNL     1      -2.990   2.423  12.205  1.00  0.00     0.303 C 
ENDBRANCH   7  12
TORSDOF 3
ENDMDL
