MODEL 1
REMARK VINA RESULT: -9.924607761      0.000      0.000
REMARK  12 active torsions:
REMARK  status: ('A' for Active; 'I' for Inactive)
REMARK    1  A    between atoms: C2_2  and  C3_3 
REMARK    2  A    between atoms: C2_2  and  C26_31 
REMARK    3  A    between atoms: C3_3  and  C4_4 
REMARK    4  A    between atoms: C5_5  and  C6_6 
REMARK    5  A    between atoms: C8_8  and  O1_9 
REMARK    6  A    between atoms: C11_14  and  C12_15 
REMARK    7  A    between atoms: C12_15  and  C13_16 
REMARK    8  A    between atoms: C13_16  and  C14_17 
REMARK    9  A    between atoms: C14_17  and  C15_19 
REMARK   10  A    between atoms: C16_20  and  C17_21 
REMARK   11  A    between atoms: C17_21  and  C18_23 
REMARK   12  A    between atoms: C26_31  and  C27_32 
ROOT
HETATM    1  C6  UNL     1      -0.610  11.768 -25.201  1.00  0.00     0.021 C 
HETATM    2  C7  UNL     1       0.446  10.940 -25.788  1.00  0.00     0.041 C 
HETATM    3  C8  UNL     1      -0.074   9.729 -26.549  1.00  0.00     0.125 C 
HETATM    4  C9  UNL     1      -1.348   9.252 -25.923  1.00  0.00     0.110 C 
HETATM    5  C10 UNL     1      -1.331   9.592 -24.483  1.00  0.00     0.134 C 
HETATM    6  O2  UNL     1      -1.272   8.711 -23.661  1.00  0.00    -0.297 OA
HETATM    7  C11 UNL     1      -1.379  11.003 -24.093  1.00  0.00     0.063 C 
ENDROOT
BRANCH   7   8
HETATM    8  C12 UNL     1      -2.748  11.568 -24.045  1.00  0.00     0.020 C 
BRANCH   8   9
HETATM    9  C13 UNL     1      -3.674  11.135 -22.976  1.00  0.00     0.084 C 
BRANCH   9  10
HETATM   10  C14 UNL     1      -4.919  11.831 -22.743  1.00  0.00     0.149 C 
HETATM   11  O3  UNL     1      -4.862  13.048 -22.386  1.00  0.00    -0.293 OA
BRANCH  10  12
HETATM   12  C15 UNL     1      -6.237  11.200 -22.901  1.00  0.00     0.054 C 
HETATM   13  C16 UNL     1      -7.384  11.802 -22.900  1.00  0.00     0.054 C 
BRANCH  13  14
HETATM   14  C17 UNL     1      -8.694  11.238 -23.051  1.00  0.00     0.153 C 
HETATM   15  O4  UNL     1      -9.431  11.565 -24.046  1.00  0.00    -0.293 OA
BRANCH  14  16
HETATM   16  C18 UNL     1      -9.274  10.247 -22.084  1.00  0.00     0.064 C 
HETATM   17  C19 UNL     1      -9.086  10.752 -20.676  1.00  0.00     0.017 C 
HETATM   18  C20 UNL     1     -10.297  11.194 -19.955  1.00  0.00     0.034 C 
HETATM   19  C21 UNL     1     -11.377  11.686 -20.835  1.00  0.00    -0.082 C 
HETATM   20  C22 UNL     1     -12.222  12.810 -20.377  1.00  0.00     0.043 C 
HETATM   21  C23 UNL     1     -11.556  11.112 -21.991  1.00  0.00    -0.081 C 
HETATM   22  C24 UNL     1     -12.640  11.608 -22.874  1.00  0.00     0.043 C 
HETATM   23  C25 UNL     1     -10.708   9.974 -22.424  1.00  0.00     0.046 C 
ENDBRANCH  14  16
ENDBRANCH  13  14
ENDBRANCH  10  12
ENDBRANCH   9  10
ENDBRANCH   8   9
ENDBRANCH   7   8
BRANCH   1  24
HETATM   24  C5  UNL     1      -0.216  13.078 -24.687  1.00  0.00    -0.025 C 
HETATM   25  C4  UNL     1       0.110  14.210 -25.202  1.00  0.00    -0.026 C 
BRANCH  25  26
HETATM   26  C3  UNL     1       0.237  14.706 -26.577  1.00  0.00     0.060 C 
BRANCH  26  27
HETATM   27  C2  UNL     1      -0.906  15.627 -26.922  1.00  0.00    -0.076 C 
HETATM   28  C1  UNL     1      -1.128  15.879 -28.200  1.00  0.00     0.015 C 
BRANCH  27  29
HETATM   29  C26 UNL     1      -1.762  16.274 -25.906  1.00  0.00     0.146 C 
BRANCH  29  30
HETATM   30  C27 UNL     1      -1.218  17.500 -25.323  1.00  0.00     0.176 C 
HETATM   31  O5  UNL     1      -1.065  17.610 -24.090  1.00  0.00    -0.648 OA
HETATM   32  O6  UNL     1      -0.861  18.561 -26.132  1.00  0.00    -0.648 OA
ENDBRANCH  29  30
ENDBRANCH  27  29
ENDBRANCH  26  27
ENDBRANCH  25  26
ENDBRANCH   1  24
BRANCH   3  33
HETATM   33  O1  UNL     1       0.872   8.712 -26.408  1.00  0.00    -0.395 OA
ATOM     34  H1  UNL     1       0.629   8.015 -27.006  1.00  0.00     0.210 HD
ENDBRANCH   3  33
TORSDOF 12
ENDMDL
MODEL 2
REMARK VINA RESULT: -9.312544214      2.375      9.509
REMARK  12 active torsions:
REMARK  status: ('A' for Active; 'I' for Inactive)
REMARK    1  A    between atoms: C2_2  and  C3_3 
REMARK    2  A    between atoms: C2_2  and  C26_31 
REMARK    3  A    between atoms: C3_3  and  C4_4 
REMARK    4  A    between atoms: C5_5  and  C6_6 
REMARK    5  A    between atoms: C8_8  and  O1_9 
REMARK    6  A    between atoms: C11_14  and  C12_15 
REMARK    7  A    between atoms: C12_15  and  C13_16 
REMARK    8  A    between atoms: C13_16  and  C14_17 
REMARK    9  A    between atoms: C14_17  and  C15_19 
REMARK   10  A    between atoms: C16_20  and  C17_21 
REMARK   11  A    between atoms: C17_21  and  C18_23 
REMARK   12  A    between atoms: C26_31  and  C27_32 
ROOT
HETATM    1  C6  UNL     1      -3.185  11.435 -23.250  1.00  0.00     0.021 C 
HETATM    2  C7  UNL     1      -3.495  10.048 -22.896  1.00  0.00     0.041 C 
HETATM    3  C8  UNL     1      -2.266   9.198 -22.607  1.00  0.00     0.125 C 
HETATM    4  C9  UNL     1      -1.117   9.678 -23.439  1.00  0.00     0.110 C 
HETATM    5  C10 UNL     1      -1.644  10.277 -24.685  1.00  0.00     0.134 C 
HETATM    6  O2  UNL     1      -1.435   9.736 -25.743  1.00  0.00    -0.297 OA
HETATM    7  C11 UNL     1      -2.418  11.517 -24.596  1.00  0.00     0.063 C 
ENDROOT
BRANCH   7   8
HETATM    8  C12 UNL     1      -1.588  12.743 -24.549  1.00  0.00     0.020 C 
BRANCH   8   9
HETATM    9  C13 UNL     1      -0.149  12.657 -24.881  1.00  0.00     0.084 C 
BRANCH   9  10
HETATM   10  C14 UNL     1       0.314  12.849 -26.237  1.00  0.00     0.149 C 
HETATM   11  O3  UNL     1       0.731  11.832 -26.872  1.00  0.00    -0.293 OA
BRANCH  10  12
HETATM   12  C15 UNL     1       0.321  14.156 -26.909  1.00  0.00     0.054 C 
HETATM   13  C16 UNL     1      -0.649  14.677 -27.591  1.00  0.00     0.054 C 
BRANCH  13  14
HETATM   14  C17 UNL     1      -0.697  15.944 -28.262  1.00  0.00     0.153 C 
HETATM   15  O4  UNL     1      -0.127  16.100 -29.397  1.00  0.00    -0.293 OA
BRANCH  14  16
HETATM   16  C18 UNL     1      -1.406  17.141 -27.697  1.00  0.00     0.064 C 
HETATM   17  C19 UNL     1      -1.844  16.844 -26.286  1.00  0.00     0.017 C 
HETATM   18  C20 UNL     1      -1.137  17.554 -25.200  1.00  0.00     0.034 C 
HETATM   19  C21 UNL     1       0.250  17.937 -25.534  1.00  0.00    -0.082 C 
HETATM   20  C22 UNL     1       1.282  17.897 -24.475  1.00  0.00     0.043 C 
HETATM   21  C23 UNL     1       0.525  18.303 -26.754  1.00  0.00    -0.081 C 
HETATM   22  C24 UNL     1       1.918  18.686 -27.088  1.00  0.00     0.043 C 
HETATM   23  C25 UNL     1      -0.530  18.353 -27.797  1.00  0.00     0.046 C 
ENDBRANCH  14  16
ENDBRANCH  13  14
ENDBRANCH  10  12
ENDBRANCH   9  10
ENDBRANCH   8   9
ENDBRANCH   7   8
BRANCH   1  24
HETATM   24  C5  UNL     1      -4.301  12.376 -23.282  1.00  0.00    -0.025 C 
HETATM   25  C4  UNL     1      -5.504  12.396 -22.825  1.00  0.00    -0.026 C 
BRANCH  25  26
HETATM   26  C3  UNL     1      -6.313  11.453 -22.046  1.00  0.00     0.060 C 
BRANCH  26  27
HETATM   27  C2  UNL     1      -7.781  11.631 -22.346  1.00  0.00    -0.076 C 
HETATM   28  C1  UNL     1      -8.151  12.734 -22.972  1.00  0.00     0.015 C 
BRANCH  27  29
HETATM   29  C26 UNL     1      -8.814  10.650 -21.953  1.00  0.00     0.146 C 
BRANCH  29  30
HETATM   30  C27 UNL     1      -8.912  10.390 -20.517  1.00  0.00     0.176 C 
HETATM   31  O5  UNL     1      -9.826  10.896 -19.836  1.00  0.00    -0.648 OA
HETATM   32  O6  UNL     1      -7.991   9.575 -19.889  1.00  0.00    -0.648 OA
ENDBRANCH  29  30
ENDBRANCH  27  29
ENDBRANCH  26  27
ENDBRANCH  25  26
ENDBRANCH   1  24
BRANCH   3  33
HETATM   33  O1  UNL     1      -2.560   7.892 -23.008  1.00  0.00    -0.395 OA
ATOM     34  H1  UNL     1      -1.743   7.488 -23.274  1.00  0.00     0.210 HD
ENDBRANCH   3  33
TORSDOF 12
ENDMDL
MODEL 3
REMARK VINA RESULT: -9.301034687      1.404      1.688
REMARK  12 active torsions:
REMARK  status: ('A' for Active; 'I' for Inactive)
REMARK    1  A    between atoms: C2_2  and  C3_3 
REMARK    2  A    between atoms: C2_2  and  C26_31 
REMARK    3  A    between atoms: C3_3  and  C4_4 
REMARK    4  A    between atoms: C5_5  and  C6_6 
REMARK    5  A    between atoms: C8_8  and  O1_9 
REMARK    6  A    between atoms: C11_14  and  C12_15 
REMARK    7  A    between atoms: C12_15  and  C13_16 
REMARK    8  A    between atoms: C13_16  and  C14_17 
REMARK    9  A    between atoms: C14_17  and  C15_19 
REMARK   10  A    between atoms: C16_20  and  C17_21 
REMARK   11  A    between atoms: C17_21  and  C18_23 
REMARK   12  A    between atoms: C26_31  and  C27_32 
ROOT
HETATM    1  C6  UNL     1      -0.768  12.010 -25.302  1.00  0.00     0.021 C 
HETATM    2  C7  UNL     1       0.347  11.264 -25.890  1.00  0.00     0.041 C 
HETATM    3  C8  UNL     1      -0.077   9.997 -26.618  1.00  0.00     0.125 C 
HETATM    4  C9  UNL     1      -1.295   9.425 -25.963  1.00  0.00     0.110 C 
HETATM    5  C10 UNL     1      -1.288   9.795 -24.530  1.00  0.00     0.134 C 
HETATM    6  O2  UNL     1      -1.142   8.940 -23.693  1.00  0.00    -0.297 OA
HETATM    7  C11 UNL     1      -1.453  11.205 -24.167  1.00  0.00     0.063 C 
ENDROOT
BRANCH   7   8
HETATM    8  C12 UNL     1      -2.865  11.650 -24.109  1.00  0.00     0.020 C 
BRANCH   8   9
HETATM    9  C13 UNL     1      -3.702  11.255 -22.956  1.00  0.00     0.084 C 
BRANCH   9  10
HETATM   10  C14 UNL     1      -4.962  11.914 -22.691  1.00  0.00     0.149 C 
HETATM   11  O3  UNL     1      -4.931  13.130 -22.330  1.00  0.00    -0.293 OA
BRANCH  10  12
HETATM   12  C15 UNL     1      -6.264  11.245 -22.821  1.00  0.00     0.054 C 
HETATM   13  C16 UNL     1      -7.415  11.822 -22.961  1.00  0.00     0.054 C 
BRANCH  13  14
HETATM   14  C17 UNL     1      -8.711  11.222 -23.094  1.00  0.00     0.153 C 
HETATM   15  O4  UNL     1      -9.456  11.500 -24.097  1.00  0.00    -0.293 OA
BRANCH  14  16
HETATM   16  C18 UNL     1      -9.265  10.245 -22.096  1.00  0.00     0.064 C 
HETATM   17  C19 UNL     1      -9.078  10.790 -20.704  1.00  0.00     0.017 C 
HETATM   18  C20 UNL     1     -10.293  11.228 -19.986  1.00  0.00     0.034 C 
HETATM   19  C21 UNL     1     -11.387  11.675 -20.872  1.00  0.00    -0.082 C 
HETATM   20  C22 UNL     1     -12.252  12.794 -20.438  1.00  0.00     0.043 C 
HETATM   21  C23 UNL     1     -11.563  11.068 -22.011  1.00  0.00    -0.081 C 
HETATM   22  C24 UNL     1     -12.661  11.519 -22.899  1.00  0.00     0.043 C 
HETATM   23  C25 UNL     1     -10.695   9.935 -22.419  1.00  0.00     0.046 C 
ENDBRANCH  14  16
ENDBRANCH  13  14
ENDBRANCH  10  12
ENDBRANCH   9  10
ENDBRANCH   8   9
ENDBRANCH   7   8
BRANCH   1  24
HETATM   24  C5  UNL     1      -0.482  13.359 -24.821  1.00  0.00    -0.025 C 
HETATM   25  C4  UNL     1      -0.891  14.545 -25.105  1.00  0.00    -0.026 C 
BRANCH  25  26
HETATM   26  C3  UNL     1      -1.855  15.087 -26.068  1.00  0.00     0.060 C 
BRANCH  26  27
HETATM   27  C2  UNL     1      -1.307  16.323 -26.737  1.00  0.00    -0.076 C 
HETATM   28  C1  UNL     1      -2.064  17.405 -26.745  1.00  0.00     0.015 C 
BRANCH  27  29
HETATM   29  C26 UNL     1       0.014  16.369 -27.399  1.00  0.00     0.146 C 
BRANCH  29  30
HETATM   30  C27 UNL     1       0.359  15.183 -28.183  1.00  0.00     0.176 C 
HETATM   31  O5  UNL     1      -0.275  14.892 -29.216  1.00  0.00    -0.648 OA
HETATM   32  O6  UNL     1       1.400  14.364 -27.791  1.00  0.00    -0.648 OA
ENDBRANCH  29  30
ENDBRANCH  27  29
ENDBRANCH  26  27
ENDBRANCH  25  26
ENDBRANCH   1  24
BRANCH   3  33
HETATM   33  O1  UNL     1       0.956   9.068 -26.472  1.00  0.00    -0.395 OA
ATOM     34  H1  UNL     1       1.048   8.891 -25.544  1.00  0.00     0.210 HD
ENDBRANCH   3  33
TORSDOF 12
ENDMDL
MODEL 4
REMARK VINA RESULT: -9.282722651      2.428     10.555
REMARK  12 active torsions:
REMARK  status: ('A' for Active; 'I' for Inactive)
REMARK    1  A    between atoms: C2_2  and  C3_3 
REMARK    2  A    between atoms: C2_2  and  C26_31 
REMARK    3  A    between atoms: C3_3  and  C4_4 
REMARK    4  A    between atoms: C5_5  and  C6_6 
REMARK    5  A    between atoms: C8_8  and  O1_9 
REMARK    6  A    between atoms: C11_14  and  C12_15 
REMARK    7  A    between atoms: C12_15  and  C13_16 
REMARK    8  A    between atoms: C13_16  and  C14_17 
REMARK    9  A    between atoms: C14_17  and  C15_19 
REMARK   10  A    between atoms: C16_20  and  C17_21 
REMARK   11  A    between atoms: C17_21  and  C18_23 
REMARK   12  A    between atoms: C26_31  and  C27_32 
ROOT
HETATM    1  C6  UNL     1      -7.843  11.231 -22.173  1.00  0.00     0.021 C 
HETATM    2  C7  UNL     1      -8.131  10.065 -21.335  1.00  0.00     0.041 C 
HETATM    3  C8  UNL     1      -7.271   9.982 -20.082  1.00  0.00     0.125 C 
HETATM    4  C9  UNL     1      -5.928  10.583 -20.354  1.00  0.00     0.110 C 
HETATM    5  C10 UNL     1      -5.613  10.423 -21.791  1.00  0.00     0.134 C 
HETATM    6  O2  UNL     1      -4.714   9.693 -22.128  1.00  0.00    -0.297 OA
HETATM    7  C11 UNL     1      -6.414  11.158 -22.773  1.00  0.00     0.063 C 
ENDROOT
BRANCH   7   8
HETATM    8  C12 UNL     1      -5.965  12.552 -22.995  1.00  0.00     0.020 C 
BRANCH   8   9
HETATM    9  C13 UNL     1      -4.561  12.915 -22.705  1.00  0.00     0.084 C 
BRANCH   9  10
HETATM   10  C14 UNL     1      -3.544  12.830 -23.730  1.00  0.00     0.149 C 
HETATM   11  O3  UNL     1      -3.057  11.686 -23.990  1.00  0.00    -0.293 OA
BRANCH  10  12
HETATM   12  C15 UNL     1      -3.054  13.996 -24.479  1.00  0.00     0.054 C 
HETATM   13  C16 UNL     1      -1.831  14.221 -24.838  1.00  0.00     0.054 C 
BRANCH  13  14
HETATM   14  C17 UNL     1      -1.300  15.335 -25.569  1.00  0.00     0.153 C 
HETATM   15  O4  UNL     1      -0.843  16.359 -24.951  1.00  0.00    -0.293 OA
BRANCH  14  16
HETATM   16  C18 UNL     1      -1.239  15.374 -27.069  1.00  0.00     0.064 C 
HETATM   17  C19 UNL     1      -0.837  16.755 -27.519  1.00  0.00     0.017 C 
HETATM   18  C20 UNL     1       0.512  16.906 -28.101  1.00  0.00     0.034 C 
HETATM   19  C21 UNL     1       1.494  15.916 -27.610  1.00  0.00    -0.082 C 
HETATM   20  C22 UNL     1       2.901  16.331 -27.421  1.00  0.00     0.043 C 
HETATM   21  C23 UNL     1       1.091  14.702 -27.360  1.00  0.00    -0.081 C 
HETATM   22  C24 UNL     1       2.078  13.711 -26.867  1.00  0.00     0.043 C 
HETATM   23  C25 UNL     1      -0.321  14.302 -27.574  1.00  0.00     0.046 C 
ENDBRANCH  14  16
ENDBRANCH  13  14
ENDBRANCH  10  12
ENDBRANCH   9  10
ENDBRANCH   8   9
ENDBRANCH   7   8
BRANCH   1  24
HETATM   24  C5  UNL     1      -8.792  11.528 -23.244  1.00  0.00    -0.025 C 
HETATM   25  C4  UNL     1     -10.014  11.221 -23.504  1.00  0.00    -0.026 C 
BRANCH  25  26
HETATM   26  C3  UNL     1     -11.029  10.412 -22.821  1.00  0.00     0.060 C 
BRANCH  26  27
HETATM   27  C2  UNL     1     -12.204  11.263 -22.408  1.00  0.00    -0.076 C 
HETATM   28  C1  UNL     1     -13.150  11.481 -23.304  1.00  0.00     0.015 C 
BRANCH  27  29
HETATM   29  C26 UNL     1     -12.330  11.876 -21.069  1.00  0.00     0.146 C 
BRANCH  29  30
HETATM   30  C27 UNL     1     -11.096  11.916 -20.284  1.00  0.00     0.176 C 
HETATM   31  O5  UNL     1     -10.372  12.931 -20.280  1.00  0.00    -0.648 OA
HETATM   32  O6  UNL     1     -10.712  10.825 -19.529  1.00  0.00    -0.648 OA
ENDBRANCH  29  30
ENDBRANCH  27  29
ENDBRANCH  26  27
ENDBRANCH  25  26
ENDBRANCH   1  24
BRANCH   3  33
HETATM   33  O1  UNL     1      -7.078   8.627 -19.800  1.00  0.00    -0.395 OA
ATOM     34  H1  UNL     1      -7.275   8.142 -20.592  1.00  0.00     0.210 HD
ENDBRANCH   3  33
TORSDOF 12
ENDMDL
MODEL 5
REMARK VINA RESULT: -9.267764634      1.925      2.523
REMARK  12 active torsions:
REMARK  status: ('A' for Active; 'I' for Inactive)
REMARK    1  A    between atoms: C2_2  and  C3_3 
REMARK    2  A    between atoms: C2_2  and  C26_31 
REMARK    3  A    between atoms: C3_3  and  C4_4 
REMARK    4  A    between atoms: C5_5  and  C6_6 
REMARK    5  A    between atoms: C8_8  and  O1_9 
REMARK    6  A    between atoms: C11_14  and  C12_15 
REMARK    7  A    between atoms: C12_15  and  C13_16 
REMARK    8  A    between atoms: C13_16  and  C14_17 
REMARK    9  A    between atoms: C14_17  and  C15_19 
REMARK   10  A    between atoms: C16_20  and  C17_21 
REMARK   11  A    between atoms: C17_21  and  C18_23 
REMARK   12  A    between atoms: C26_31  and  C27_32 
ROOT
HETATM    1  C6  UNL     1      -0.572  11.423 -25.120  1.00  0.00     0.021 C 
HETATM    2  C7  UNL     1       0.535  10.564 -25.544  1.00  0.00     0.041 C 
HETATM    3  C8  UNL     1       0.091   9.223 -26.110  1.00  0.00     0.125 C 
HETATM    4  C9  UNL     1      -1.177   8.792 -25.442  1.00  0.00     0.110 C 
HETATM    5  C10 UNL     1      -1.216   9.357 -24.076  1.00  0.00     0.134 C 
HETATM    6  O2  UNL     1      -1.141   8.623 -23.122  1.00  0.00    -0.297 OA
HETATM    7  C11 UNL     1      -1.338  10.809 -23.919  1.00  0.00     0.063 C 
ENDROOT
BRANCH   7   8
HETATM    8  C12 UNL     1      -2.731  11.307 -23.991  1.00  0.00     0.020 C 
BRANCH   8   9
HETATM    9  C13 UNL     1      -3.660  11.024 -22.876  1.00  0.00     0.084 C 
BRANCH   9  10
HETATM   10  C14 UNL     1      -4.889  11.771 -22.724  1.00  0.00     0.149 C 
HETATM   11  O3  UNL     1      -4.803  13.001 -22.422  1.00  0.00    -0.293 OA
BRANCH  10  12
HETATM   12  C15 UNL     1      -6.221  11.176 -22.902  1.00  0.00     0.054 C 
HETATM   13  C16 UNL     1      -7.355  11.802 -22.870  1.00  0.00     0.054 C 
BRANCH  13  14
HETATM   14  C17 UNL     1      -8.677  11.275 -23.040  1.00  0.00     0.153 C 
HETATM   15  O4  UNL     1      -9.407  11.652 -24.021  1.00  0.00    -0.293 OA
BRANCH  14  16
HETATM   16  C18 UNL     1      -9.279  10.264 -22.106  1.00  0.00     0.064 C 
HETATM   17  C19 UNL     1      -9.126  10.741 -20.685  1.00  0.00     0.017 C 
HETATM   18  C20 UNL     1     -10.355  11.168 -19.984  1.00  0.00     0.034 C 
HETATM   19  C21 UNL     1     -11.413  11.677 -20.881  1.00  0.00    -0.082 C 
HETATM   20  C22 UNL     1     -12.271  12.791 -20.422  1.00  0.00     0.043 C 
HETATM   21  C23 UNL     1     -11.564  11.126 -22.052  1.00  0.00    -0.081 C 
HETATM   22  C24 UNL     1     -12.626  11.638 -22.951  1.00  0.00     0.043 C 
HETATM   23  C25 UNL     1     -10.704   9.997 -22.486  1.00  0.00     0.046 C 
ENDBRANCH  14  16
ENDBRANCH  13  14
ENDBRANCH  10  12
ENDBRANCH   9  10
ENDBRANCH   8   9
ENDBRANCH   7   8
BRANCH   1  24
HETATM   24  C5  UNL     1      -0.252  12.815 -24.815  1.00  0.00    -0.025 C 
HETATM   25  C4  UNL     1       0.376  13.768 -25.410  1.00  0.00    -0.026 C 
BRANCH  25  26
HETATM   26  C3  UNL     1       1.071  13.884 -26.696  1.00  0.00     0.060 C 
BRANCH  26  27
HETATM   27  C2  UNL     1       0.087  13.871 -27.840  1.00  0.00    -0.076 C 
HETATM   28  C1  UNL     1      -0.736  14.898 -27.954  1.00  0.00     0.015 C 
BRANCH  27  29
HETATM   29  C26 UNL     1      -0.012  12.762 -28.812  1.00  0.00     0.146 C 
BRANCH  29  30
HETATM   30  C27 UNL     1       0.837  12.895 -29.996  1.00  0.00     0.176 C 
HETATM   31  O5  UNL     1       0.338  13.046 -31.129  1.00  0.00    -0.648 OA
HETATM   32  O6  UNL     1       2.213  12.857 -29.878  1.00  0.00    -0.648 OA
ENDBRANCH  29  30
ENDBRANCH  27  29
ENDBRANCH  26  27
ENDBRANCH  25  26
ENDBRANCH   1  24
BRANCH   3  33
HETATM   33  O1  UNL     1       1.077   8.288 -25.788  1.00  0.00    -0.395 OA
ATOM     34  H1  UNL     1       1.588   8.650 -25.074  1.00  0.00     0.210 HD
ENDBRANCH   3  33
TORSDOF 12
ENDMDL
