MODEL 1
REMARK VINA RESULT: -7.120358848      0.000      0.000
REMARK  11 active torsions:
REMARK  status: ('A' for Active; 'I' for Inactive)
REMARK    1  A    between atoms: C2_2  and  C3_3 
REMARK    2  A    between atoms: C3_3  and  C5_5 
REMARK    3  A    between atoms: C5_5  and  O1_6 
REMARK    4  A    between atoms: C5_5  and  O2_8 
REMARK    5  A    between atoms: O2_8  and  C6_9 
REMARK    6  A    between atoms: C16_19  and  C17_20 
REMARK    7  A    between atoms: C16_19  and  C20_25 
REMARK    8  A    between atoms: C17_20  and  C18_21 
REMARK    9  A    between atoms: C18_21  and  C19_22 
REMARK   10  A    between atoms: C20_25  and  C21_26 
REMARK   11  A    between atoms: C21_26  and  C23_28 
ROOT
HETATM    1  C6  UNL     1       1.717  17.806 -27.672  1.00  0.00     0.128 C 
HETATM    2  C7  UNL     1       1.084  16.935 -28.682  1.00  0.00     0.033 C 
HETATM    3  C8  UNL     1      -0.222  16.366 -28.116  1.00  0.00     0.016 C 
HETATM    4  C9  UNL     1       0.234  15.216 -27.248  1.00  0.00    -0.016 C 
HETATM    5  C10 UNL     1       0.916  14.224 -28.130  1.00  0.00     0.020 C 
HETATM    6  C11 UNL     1       1.127  15.831 -26.221  1.00  0.00    -0.072 C 
HETATM    7  C12 UNL     1       1.201  15.143 -25.090  1.00  0.00    -0.022 C 
HETATM    8  C13 UNL     1       0.523  13.896 -24.770  1.00  0.00     0.036 C 
HETATM    9  C14 UNL     1      -0.551  13.414 -25.667  1.00  0.00     0.023 C 
HETATM   10  C15 UNL     1      -1.902  13.201 -25.042  1.00  0.00    -0.073 C 
HETATM   11  C16 UNL     1      -2.285  11.990 -24.408  1.00  0.00    -0.076 C 
HETATM   12  C24 UNL     1      -2.115  14.559 -24.436  1.00  0.00     0.035 C 
HETATM   13  C25 UNL     1      -1.654  15.463 -25.611  1.00  0.00     0.010 C 
HETATM   14  C26 UNL     1      -0.944  14.593 -26.585  1.00  0.00     0.007 C 
HETATM   15  C27 UNL     1       1.871  17.083 -26.368  1.00  0.00     0.066 C 
ENDROOT
BRANCH  11  16
HETATM   16  C17 UNL     1      -3.649  11.879 -23.778  1.00  0.00     0.045 C 
BRANCH  16  17
HETATM   17  C18 UNL     1      -3.899  10.868 -22.744  1.00  0.00     0.117 C 
BRANCH  17  18
HETATM   18  C19 UNL     1      -5.319  10.818 -22.241  1.00  0.00     0.172 C 
HETATM   19  O3  UNL     1      -6.199  11.260 -23.017  1.00  0.00    -0.648 OA
HETATM   20  O4  UNL     1      -5.648  10.316 -21.002  1.00  0.00    -0.648 OA
ENDBRANCH  17  18
ENDBRANCH  16  17
ENDBRANCH  11  16
BRANCH  11  21
HETATM   21  C20 UNL     1      -1.387  11.039 -23.712  1.00  0.00     0.045 C 
BRANCH  21  22
HETATM   22  C21 UNL     1      -0.761   9.929 -24.499  1.00  0.00     0.047 C 
HETATM   23  C22 UNL     1      -1.033   8.601 -23.731  1.00  0.00     0.017 C 
BRANCH  22  24
HETATM   24  C23 UNL     1      -1.434   9.728 -25.821  1.00  0.00     0.235 C 
HETATM   25  O5  UNL     1      -0.899   9.895 -26.896  1.00  0.00    -0.306 OA
ENDBRANCH  22  24
ENDBRANCH  21  22
ENDBRANCH  11  21
BRANCH   1  26
HETATM   26  O2  UNL     1       1.088  19.018 -27.443  1.00  0.00    -0.356 OA
BRANCH  26  27
HETATM   27  C5  UNL     1       1.171  19.465 -26.150  1.00  0.00     0.261 C 
BRANCH  27  28
HETATM   28  C3  UNL     1       2.068  20.624 -25.897  1.00  0.00     0.036 C 
HETATM   29  C4  UNL     1       2.575  21.297 -27.166  1.00  0.00     0.015 C 
BRANCH  28  30
HETATM   30  C2  UNL     1       3.197  20.357 -24.930  1.00  0.00     0.004 C 
HETATM   31  C1  UNL     1       4.367  19.830 -25.758  1.00  0.00     0.005 C 
ENDBRANCH  28  30
ENDBRANCH  27  28
BRANCH  27  32
HETATM   32  O1  UNL     1      -0.075  19.768 -25.594  1.00  0.00    -0.371 OA
ATOM     33  H1  UNL     1      -0.623  20.112 -26.290  1.00  0.00     0.212 HD
ENDBRANCH  27  32
ENDBRANCH  26  27
ENDBRANCH   1  26
TORSDOF 11
ENDMDL
MODEL 2
REMARK VINA RESULT: -6.967313374      2.807      8.891
REMARK  11 active torsions:
REMARK  status: ('A' for Active; 'I' for Inactive)
REMARK    1  A    between atoms: C2_2  and  C3_3 
REMARK    2  A    between atoms: C3_3  and  C5_5 
REMARK    3  A    between atoms: C5_5  and  O1_6 
REMARK    4  A    between atoms: C5_5  and  O2_8 
REMARK    5  A    between atoms: O2_8  and  C6_9 
REMARK    6  A    between atoms: C16_19  and  C17_20 
REMARK    7  A    between atoms: C16_19  and  C20_25 
REMARK    8  A    between atoms: C17_20  and  C18_21 
REMARK    9  A    between atoms: C18_21  and  C19_22 
REMARK   10  A    between atoms: C20_25  and  C21_26 
REMARK   11  A    between atoms: C21_26  and  C23_28 
ROOT
HETATM    1  C6  UNL     1       0.012   9.075 -27.611  1.00  0.00     0.128 C 
HETATM    2  C7  UNL     1       1.380   9.176 -27.068  1.00  0.00     0.033 C 
HETATM    3  C8  UNL     1       1.462  10.375 -26.115  1.00  0.00     0.016 C 
HETATM    4  C9  UNL     1       1.622  11.558 -27.041  1.00  0.00    -0.016 C 
HETATM    5  C10 UNL     1       2.900  11.378 -27.791  1.00  0.00     0.020 C 
HETATM    6  C11 UNL     1       0.403  11.548 -27.904  1.00  0.00    -0.072 C 
HETATM    7  C12 UNL     1       0.078  12.737 -28.391  1.00  0.00    -0.022 C 
HETATM    8  C13 UNL     1       0.770  13.999 -28.173  1.00  0.00     0.036 C 
HETATM    9  C14 UNL     1       1.814  14.072 -27.127  1.00  0.00     0.023 C 
HETATM   10  C15 UNL     1       1.607  15.093 -26.042  1.00  0.00    -0.073 C 
HETATM   11  C16 UNL     1       2.030  16.443 -26.153  1.00  0.00    -0.076 C 
HETATM   12  C24 UNL     1       0.239  14.687 -25.573  1.00  0.00     0.035 C 
HETATM   13  C25 UNL     1       0.409  13.145 -25.519  1.00  0.00     0.010 C 
HETATM   14  C26 UNL     1       1.664  12.813 -26.243  1.00  0.00     0.007 C 
HETATM   15  C27 UNL     1      -0.417  10.377 -28.216  1.00  0.00     0.066 C 
ENDROOT
BRANCH  11  16
HETATM   16  C17 UNL     1       1.749  17.404 -25.027  1.00  0.00     0.045 C 
BRANCH  16  17
HETATM   17  C18 UNL     1       0.804  18.511 -25.226  1.00  0.00     0.117 C 
BRANCH  17  18
HETATM   18  C19 UNL     1      -0.629  18.181 -24.901  1.00  0.00     0.172 C 
HETATM   19  O3  UNL     1      -0.885  17.938 -23.699  1.00  0.00    -0.648 OA
HETATM   20  O4  UNL     1      -1.617  18.146 -25.860  1.00  0.00    -0.648 OA
ENDBRANCH  17  18
ENDBRANCH  16  17
ENDBRANCH  11  16
BRANCH  11  21
HETATM   21  C20 UNL     1       2.145  17.231 -27.401  1.00  0.00     0.045 C 
BRANCH  21  22
HETATM   22  C21 UNL     1       3.486  17.358 -28.055  1.00  0.00     0.047 C 
HETATM   23  C22 UNL     1       3.293  17.077 -29.575  1.00  0.00     0.017 C 
BRANCH  22  24
HETATM   24  C23 UNL     1       4.003  18.762 -28.009  1.00  0.00     0.235 C 
HETATM   25  O5  UNL     1       3.912  19.495 -27.047  1.00  0.00    -0.306 OA
ENDBRANCH  22  24
ENDBRANCH  21  22
ENDBRANCH  11  21
BRANCH   1  26
HETATM   26  O2  UNL     1      -0.960   8.651 -26.720  1.00  0.00    -0.356 OA
BRANCH  26  27
HETATM   27  C5  UNL     1      -0.699   7.442 -26.128  1.00  0.00     0.261 C 
BRANCH  27  28
HETATM   28  C3  UNL     1      -0.885   7.362 -24.655  1.00  0.00     0.036 C 
HETATM   29  C4  UNL     1      -2.054   6.481 -24.231  1.00  0.00     0.015 C 
BRANCH  28  30
HETATM   30  C2  UNL     1      -0.916   8.694 -23.943  1.00  0.00     0.004 C 
HETATM   31  C1  UNL     1      -1.989   8.586 -22.860  1.00  0.00     0.005 C 
ENDBRANCH  28  30
ENDBRANCH  27  28
BRANCH  27  32
HETATM   32  O1  UNL     1      -1.413   6.386 -26.701  1.00  0.00    -0.371 OA
ATOM     33  H1  UNL     1      -1.698   6.668 -27.563  1.00  0.00     0.212 HD
ENDBRANCH  27  32
ENDBRANCH  26  27
ENDBRANCH   1  26
TORSDOF 11
ENDMDL
MODEL 3
REMARK VINA RESULT: -6.770561216      2.727      9.181
REMARK  11 active torsions:
REMARK  status: ('A' for Active; 'I' for Inactive)
REMARK    1  A    between atoms: C2_2  and  C3_3 
REMARK    2  A    between atoms: C3_3  and  C5_5 
REMARK    3  A    between atoms: C5_5  and  O1_6 
REMARK    4  A    between atoms: C5_5  and  O2_8 
REMARK    5  A    between atoms: O2_8  and  C6_9 
REMARK    6  A    between atoms: C16_19  and  C17_20 
REMARK    7  A    between atoms: C16_19  and  C20_25 
REMARK    8  A    between atoms: C17_20  and  C18_21 
REMARK    9  A    between atoms: C18_21  and  C19_22 
REMARK   10  A    between atoms: C20_25  and  C21_26 
REMARK   11  A    between atoms: C21_26  and  C23_28 
ROOT
HETATM    1  C6  UNL     1       0.068   9.359 -27.717  1.00  0.00     0.128 C 
HETATM    2  C7  UNL     1       1.460   9.430 -27.231  1.00  0.00     0.033 C 
HETATM    3  C8  UNL     1       1.607  10.624 -26.281  1.00  0.00     0.016 C 
HETATM    4  C9  UNL     1       1.754  11.806 -27.211  1.00  0.00    -0.016 C 
HETATM    5  C10 UNL     1       2.996  11.600 -28.014  1.00  0.00     0.020 C 
HETATM    6  C11 UNL     1       0.501  11.824 -28.023  1.00  0.00    -0.072 C 
HETATM    7  C12 UNL     1       0.181  13.021 -28.494  1.00  0.00    -0.022 C 
HETATM    8  C13 UNL     1       0.908  14.267 -28.304  1.00  0.00     0.036 C 
HETATM    9  C14 UNL     1       1.997  14.316 -27.302  1.00  0.00     0.023 C 
HETATM   10  C15 UNL     1       1.857  15.339 -26.208  1.00  0.00    -0.073 C 
HETATM   11  C16 UNL     1       2.305  16.680 -26.335  1.00  0.00    -0.076 C 
HETATM   12  C24 UNL     1       0.501  14.961 -25.684  1.00  0.00     0.035 C 
HETATM   13  C25 UNL     1       0.640  13.416 -25.639  1.00  0.00     0.010 C 
HETATM   14  C26 UNL     1       1.857  13.059 -26.414  1.00  0.00     0.007 C 
HETATM   15  C27 UNL     1      -0.357  10.672 -28.302  1.00  0.00     0.066 C 
ENDROOT
BRANCH  11  16
HETATM   16  C17 UNL     1       2.092  17.644 -25.197  1.00  0.00     0.045 C 
BRANCH  16  17
HETATM   17  C18 UNL     1       3.222  18.033 -24.345  1.00  0.00     0.117 C 
BRANCH  17  18
HETATM   18  C19 UNL     1       3.283  19.500 -24.010  1.00  0.00     0.172 C 
HETATM   19  O3  UNL     1       2.729  20.279 -24.820  1.00  0.00    -0.648 OA
HETATM   20  O4  UNL     1       3.907  19.976 -22.878  1.00  0.00    -0.648 OA
ENDBRANCH  17  18
ENDBRANCH  16  17
ENDBRANCH  11  16
BRANCH  11  21
HETATM   21  C20 UNL     1       2.385  17.467 -27.587  1.00  0.00     0.045 C 
BRANCH  21  22
HETATM   22  C21 UNL     1       1.452  18.623 -27.773  1.00  0.00     0.047 C 
HETATM   23  C22 UNL     1       1.883  19.365 -29.073  1.00  0.00     0.017 C 
BRANCH  22  24
HETATM   24  C23 UNL     1       0.052  18.175 -28.059  1.00  0.00     0.235 C 
HETATM   25  O5  UNL     1      -0.932  18.587 -27.482  1.00  0.00    -0.306 OA
ENDBRANCH  22  24
ENDBRANCH  21  22
ENDBRANCH  11  21
BRANCH   1  26
HETATM   26  O2  UNL     1      -0.874   8.955 -26.787  1.00  0.00    -0.356 OA
BRANCH  26  27
HETATM   27  C5  UNL     1      -0.589   7.764 -26.170  1.00  0.00     0.261 C 
BRANCH  27  28
HETATM   28  C3  UNL     1      -0.757   7.715 -24.693  1.00  0.00     0.036 C 
HETATM   29  C4  UNL     1      -1.823   6.731 -24.228  1.00  0.00     0.015 C 
BRANCH  28  30
HETATM   30  C2  UNL     1      -0.925   9.060 -24.026  1.00  0.00     0.004 C 
HETATM   31  C1  UNL     1      -1.716   8.816 -22.742  1.00  0.00     0.005 C 
ENDBRANCH  28  30
ENDBRANCH  27  28
BRANCH  27  32
HETATM   32  O1  UNL     1      -1.295   6.685 -26.709  1.00  0.00    -0.371 OA
ATOM     33  H1  UNL     1      -0.836   6.407 -27.494  1.00  0.00     0.212 HD
ENDBRANCH  27  32
ENDBRANCH  26  27
ENDBRANCH   1  26
TORSDOF 11
ENDMDL
MODEL 4
REMARK VINA RESULT: -6.732139934      2.802      8.709
REMARK  11 active torsions:
REMARK  status: ('A' for Active; 'I' for Inactive)
REMARK    1  A    between atoms: C2_2  and  C3_3 
REMARK    2  A    between atoms: C3_3  and  C5_5 
REMARK    3  A    between atoms: C5_5  and  O1_6 
REMARK    4  A    between atoms: C5_5  and  O2_8 
REMARK    5  A    between atoms: O2_8  and  C6_9 
REMARK    6  A    between atoms: C16_19  and  C17_20 
REMARK    7  A    between atoms: C16_19  and  C20_25 
REMARK    8  A    between atoms: C17_20  and  C18_21 
REMARK    9  A    between atoms: C18_21  and  C19_22 
REMARK   10  A    between atoms: C20_25  and  C21_26 
REMARK   11  A    between atoms: C21_26  and  C23_28 
ROOT
HETATM    1  C6  UNL     1      -0.003   9.204 -27.172  1.00  0.00     0.128 C 
HETATM    2  C7  UNL     1       1.174   9.621 -26.386  1.00  0.00     0.033 C 
HETATM    3  C8  UNL     1       0.966  11.054 -25.879  1.00  0.00     0.016 C 
HETATM    4  C9  UNL     1       1.319  11.911 -27.073  1.00  0.00    -0.016 C 
HETATM    5  C10 UNL     1       2.752  11.660 -27.404  1.00  0.00     0.020 C 
HETATM    6  C11 UNL     1       0.365  11.500 -28.146  1.00  0.00    -0.072 C 
HETATM    7  C12 UNL     1       0.136  12.440 -29.052  1.00  0.00    -0.022 C 
HETATM    8  C13 UNL     1       0.704  13.779 -29.097  1.00  0.00     0.036 C 
HETATM    9  C14 UNL     1       1.440  14.285 -27.917  1.00  0.00     0.023 C 
HETATM   10  C15 UNL     1       0.925  15.556 -27.300  1.00  0.00    -0.073 C 
HETATM   11  C16 UNL     1       1.316  16.849 -27.738  1.00  0.00    -0.076 C 
HETATM   12  C24 UNL     1      -0.503  15.158 -27.059  1.00  0.00     0.035 C 
HETATM   13  C25 UNL     1      -0.299  13.735 -26.472  1.00  0.00     0.010 C 
HETATM   14  C26 UNL     1       1.111  13.346 -26.736  1.00  0.00     0.007 C 
HETATM   15  C27 UNL     1      -0.306  10.204 -28.247  1.00  0.00     0.066 C 
ENDROOT
BRANCH  11  16
HETATM   16  C17 UNL     1       0.722  18.067 -27.081  1.00  0.00     0.045 C 
BRANCH  16  17
HETATM   17  C18 UNL     1       0.691  18.168 -25.616  1.00  0.00     0.117 C 
BRANCH  17  18
HETATM   18  C19 UNL     1      -0.688  18.137 -25.011  1.00  0.00     0.172 C 
HETATM   19  O3  UNL     1      -1.647  18.285 -25.805  1.00  0.00    -0.648 OA
HETATM   20  O4  UNL     1      -0.902  17.955 -23.663  1.00  0.00    -0.648 OA
ENDBRANCH  17  18
ENDBRANCH  16  17
ENDBRANCH  11  16
BRANCH  11  21
HETATM   21  C20 UNL     1       1.722  17.228 -29.111  1.00  0.00     0.045 C 
BRANCH  21  22
HETATM   22  C21 UNL     1       0.713  17.138 -30.213  1.00  0.00     0.047 C 
HETATM   23  C22 UNL     1       0.325  18.594 -30.609  1.00  0.00     0.017 C 
BRANCH  22  24
HETATM   24  C23 UNL     1       1.298  16.566 -31.466  1.00  0.00     0.235 C 
HETATM   25  O5  UNL     1       0.853  15.603 -32.054  1.00  0.00    -0.306 OA
ENDBRANCH  22  24
ENDBRANCH  21  22
ENDBRANCH  11  21
BRANCH   1  26
HETATM   26  O2  UNL     1      -1.157   8.962 -26.445  1.00  0.00    -0.356 OA
BRANCH  26  27
HETATM   27  C5  UNL     1      -1.166   7.765 -25.777  1.00  0.00     0.261 C 
BRANCH  27  28
HETATM   28  C3  UNL     1      -1.260   7.824 -24.294  1.00  0.00     0.036 C 
HETATM   29  C4  UNL     1      -2.310   6.889 -23.706  1.00  0.00     0.015 C 
BRANCH  28  30
HETATM   30  C2  UNL     1      -1.381   9.215 -23.717  1.00  0.00     0.004 C 
HETATM   31  C1  UNL     1      -1.831   9.050 -22.267  1.00  0.00     0.005 C 
ENDBRANCH  28  30
ENDBRANCH  27  28
BRANCH  27  32
HETATM   32  O1  UNL     1      -2.163   6.895 -26.226  1.00  0.00    -0.371 OA
ATOM     33  H1  UNL     1      -1.737   6.092 -26.505  1.00  0.00     0.212 HD
ENDBRANCH  27  32
ENDBRANCH  26  27
ENDBRANCH   1  26
TORSDOF 11
ENDMDL
MODEL 5
REMARK VINA RESULT: -6.610791757      2.862      9.087
REMARK  11 active torsions:
REMARK  status: ('A' for Active; 'I' for Inactive)
REMARK    1  A    between atoms: C2_2  and  C3_3 
REMARK    2  A    between atoms: C3_3  and  C5_5 
REMARK    3  A    between atoms: C5_5  and  O1_6 
REMARK    4  A    between atoms: C5_5  and  O2_8 
REMARK    5  A    between atoms: O2_8  and  C6_9 
REMARK    6  A    between atoms: C16_19  and  C17_20 
REMARK    7  A    between atoms: C16_19  and  C20_25 
REMARK    8  A    between atoms: C17_20  and  C18_21 
REMARK    9  A    between atoms: C18_21  and  C19_22 
REMARK   10  A    between atoms: C20_25  and  C21_26 
REMARK   11  A    between atoms: C21_26  and  C23_28 
ROOT
HETATM    1  C6  UNL     1       0.877   9.680 -26.808  1.00  0.00     0.128 C 
HETATM    2  C7  UNL     1       2.289  10.078 -26.966  1.00  0.00     0.033 C 
HETATM    3  C8  UNL     1       2.502  11.461 -26.337  1.00  0.00     0.016 C 
HETATM    4  C9  UNL     1       1.996  12.417 -27.393  1.00  0.00    -0.016 C 
HETATM    5  C10 UNL     1       2.846  12.242 -28.607  1.00  0.00     0.020 C 
HETATM    6  C11 UNL     1       0.562  12.054 -27.596  1.00  0.00    -0.072 C 
HETATM    7  C12 UNL     1      -0.188  13.050 -28.046  1.00  0.00    -0.022 C 
HETATM    8  C13 UNL     1       0.240  14.408 -28.348  1.00  0.00     0.036 C 
HETATM    9  C14 UNL     1       1.584  14.851 -27.914  1.00  0.00     0.023 C 
HETATM   10  C15 UNL     1       1.635  16.053 -27.012  1.00  0.00    -0.073 C 
HETATM   11  C16 UNL     1       1.669  17.387 -27.494  1.00  0.00    -0.076 C 
HETATM   12  C24 UNL     1       0.715  15.587 -25.920  1.00  0.00     0.035 C 
HETATM   13  C25 UNL     1       1.223  14.132 -25.730  1.00  0.00     0.010 C 
HETATM   14  C26 UNL     1       2.096  13.814 -26.889  1.00  0.00     0.007 C 
HETATM   15  C27 UNL     1      -0.038  10.746 -27.330  1.00  0.00     0.066 C 
ENDROOT
BRANCH  11  16
HETATM   16  C17 UNL     1       1.686  18.531 -26.513  1.00  0.00     0.045 C 
BRANCH  16  17
HETATM   17  C18 UNL     1       2.826  18.699 -25.603  1.00  0.00     0.117 C 
BRANCH  17  18
HETATM   18  C19 UNL     1       2.462  18.751 -24.142  1.00  0.00     0.172 C 
HETATM   19  O3  UNL     1       3.258  19.362 -23.392  1.00  0.00    -0.648 OA
HETATM   20  O4  UNL     1       1.320  18.166 -23.642  1.00  0.00    -0.648 OA
ENDBRANCH  17  18
ENDBRANCH  16  17
ENDBRANCH  11  16
BRANCH  11  21
HETATM   21  C20 UNL     1       1.074  17.882 -28.756  1.00  0.00     0.045 C 
BRANCH  21  22
HETATM   22  C21 UNL     1      -0.215  18.643 -28.698  1.00  0.00     0.047 C 
HETATM   23  C22 UNL     1      -0.602  19.018 -30.160  1.00  0.00     0.017 C 
BRANCH  22  24
HETATM   24  C23 UNL     1      -1.351  17.787 -28.232  1.00  0.00     0.235 C 
HETATM   25  O5  UNL     1      -1.929  17.930 -27.175  1.00  0.00    -0.306 OA
ENDBRANCH  22  24
ENDBRANCH  21  22
ENDBRANCH  11  21
BRANCH   1  26
HETATM   26  O2  UNL     1       0.488   9.344 -25.522  1.00  0.00    -0.356 OA
BRANCH  26  27
HETATM   27  C5  UNL     1      -0.684   8.636 -25.451  1.00  0.00     0.261 C 
BRANCH  27  28
HETATM   28  C3  UNL     1      -0.603   7.255 -24.905  1.00  0.00     0.036 C 
HETATM   29  C4  UNL     1       0.808   6.678 -24.901  1.00  0.00     0.015 C 
BRANCH  28  30
HETATM   30  C2  UNL     1      -1.592   6.277 -25.494  1.00  0.00     0.004 C 
HETATM   31  C1  UNL     1      -2.556   5.899 -24.371  1.00  0.00     0.005 C 
ENDBRANCH  28  30
ENDBRANCH  27  28
BRANCH  27  32
HETATM   32  O1  UNL     1      -1.688   9.307 -24.747  1.00  0.00    -0.371 OA
ATOM     33  H1  UNL     1      -1.320  10.126 -24.435  1.00  0.00     0.212 HD
ENDBRANCH  27  32
ENDBRANCH  26  27
ENDBRANCH   1  26
TORSDOF 11
ENDMDL
