MODEL 1
REMARK VINA RESULT: -8.135765105      0.000      0.000
REMARK  12 active torsions:
REMARK  status: ('A' for Active; 'I' for Inactive)
REMARK    1  A    between atoms: C2_2  and  C3_3 
REMARK    2  A    between atoms: C3_3  and  O1_4 
REMARK    3  A    between atoms: C3_3  and  C4_6 
REMARK    4  A    between atoms: C4_6  and  C7_9 
REMARK    5  A    between atoms: C11_13  and  C12_14 
REMARK    6  A    between atoms: C13_15  and  C14_16 
REMARK    7  A    between atoms: C14_16  and  C15_17 
REMARK    8  A    between atoms: C15_17  and  O2_18 
REMARK    9  A    between atoms: O2_18  and  C16_19 
REMARK   10  A    between atoms: C16_19  and  C17_21 
REMARK   11  A    between atoms: C18_22  and  C19_23 
REMARK   12  A    between atoms: C20_26  and  N1_27 
ROOT
HETATM    1  C7  UNL     1      -0.144  12.769 -25.341  1.00  0.00    -0.042 C 
HETATM    2  C8  UNL     1      -1.568  13.237 -25.282  1.00  0.00     0.042 C 
HETATM    3  C9  UNL     1      -1.954  12.536 -23.965  1.00  0.00     0.045 C 
HETATM    4  C10 UNL     1      -1.372  11.180 -24.116  1.00  0.00    -0.031 C 
HETATM    5  C11 UNL     1      -1.823  10.152 -23.467  1.00  0.00     0.009 C 
HETATM    6  C20 UNL     1      -0.224  11.336 -25.099  1.00  0.00     0.039 C 
ENDROOT
BRANCH   5   7
HETATM    7  C12 UNL     1      -2.886   9.992 -22.505  1.00  0.00     0.000 C 
HETATM    8  C13 UNL     1      -4.291  10.161 -22.520  1.00  0.00    -0.002 C 
BRANCH   8   9
HETATM    9  C14 UNL     1      -5.056  11.414 -22.537  1.00  0.00    -0.000 C 
BRANCH   9  10
HETATM   10  C15 UNL     1      -6.514  11.517 -22.527  1.00  0.00     0.206 C 
BRANCH  10  11
HETATM   11  O2  UNL     1      -7.029  11.044 -21.353  1.00  0.00    -0.314 OA
BRANCH  11  12
HETATM   12  C16 UNL     1      -8.135  10.407 -20.983  1.00  0.00     0.283 C 
HETATM   13  O3  UNL     1      -8.151   9.658 -19.945  1.00  0.00    -0.260 OA
BRANCH  12  14
HETATM   14  C17 UNL     1      -9.401  10.507 -21.739  1.00  0.00     0.089 C 
HETATM   15  C18 UNL     1     -10.298  11.417 -21.774  1.00  0.00     0.090 C 
BRANCH  15  16
HETATM   16  C19 UNL     1     -11.466  11.158 -22.709  1.00  0.00     0.198 C 
HETATM   17  O4  UNL     1     -11.305  10.436 -23.684  1.00  0.00    -0.645 OA
HETATM   18  O5  UNL     1     -12.698  11.746 -22.429  1.00  0.00    -0.645 OA
ENDBRANCH  15  16
ENDBRANCH  12  14
ENDBRANCH  11  12
ENDBRANCH  10  11
ENDBRANCH   9  10
ENDBRANCH   8   9
ENDBRANCH   5   7
BRANCH   6  19
HETATM   19  N1  UNL     1      -0.116  10.363 -26.065  1.00  0.00    -0.380 N 
HETATM   20  C21 UNL     1      -1.021  10.026 -27.047  1.00  0.00     0.123 C 
HETATM   21  C22 UNL     1      -0.354   9.926 -28.436  1.00  0.00     0.020 C 
HETATM   22  C23 UNL     1       0.645   8.770 -28.466  1.00  0.00     0.002 C 
HETATM   23  C24 UNL     1       1.981   9.264 -27.982  1.00  0.00     0.002 C 
HETATM   24  C25 UNL     1       2.057   9.231 -26.498  1.00  0.00     0.020 C 
HETATM   25  C26 UNL     1       0.767   9.280 -25.760  1.00  0.00     0.123 C 
ENDBRANCH   6  19
BRANCH   1  26
HETATM   26  C4  UNL     1       0.707  13.477 -26.253  1.00  0.00     0.004 C 
HETATM   27  C5  UNL     1       2.034  12.915 -26.567  1.00  0.00     0.022 C 
HETATM   28  C6  UNL     1      -0.031  13.866 -27.570  1.00  0.00     0.022 C 
BRANCH  26  29
HETATM   29  C3  UNL     1       0.965  14.909 -25.711  1.00  0.00     0.130 C 
BRANCH  29  30
HETATM   30  C2  UNL     1       2.050  15.619 -26.429  1.00  0.00     0.028 C 
HETATM   31  C1  UNL     1       2.408  16.844 -25.574  1.00  0.00     0.007 C 
ENDBRANCH  29  30
BRANCH  29  32
HETATM   32  O1  UNL     1       1.284  14.713 -24.350  1.00  0.00    -0.395 OA
ATOM     33  H1  UNL     1       1.313  13.789 -24.128  1.00  0.00     0.210 HD
ENDBRANCH  29  32
ENDBRANCH  26  29
ENDBRANCH   1  26
TORSDOF 12
ENDMDL
MODEL 2
REMARK VINA RESULT: -8.030709631      0.870      1.223
REMARK  12 active torsions:
REMARK  status: ('A' for Active; 'I' for Inactive)
REMARK    1  A    between atoms: C2_2  and  C3_3 
REMARK    2  A    between atoms: C3_3  and  O1_4 
REMARK    3  A    between atoms: C3_3  and  C4_6 
REMARK    4  A    between atoms: C4_6  and  C7_9 
REMARK    5  A    between atoms: C11_13  and  C12_14 
REMARK    6  A    between atoms: C13_15  and  C14_16 
REMARK    7  A    between atoms: C14_16  and  C15_17 
REMARK    8  A    between atoms: C15_17  and  O2_18 
REMARK    9  A    between atoms: O2_18  and  C16_19 
REMARK   10  A    between atoms: C16_19  and  C17_21 
REMARK   11  A    between atoms: C18_22  and  C19_23 
REMARK   12  A    between atoms: C20_26  and  N1_27 
ROOT
HETATM    1  C7  UNL     1      -0.136  12.755 -25.330  1.00  0.00    -0.042 C 
HETATM    2  C8  UNL     1      -1.575  13.172 -25.255  1.00  0.00     0.042 C 
HETATM    3  C9  UNL     1      -1.931  12.427 -23.954  1.00  0.00     0.045 C 
HETATM    4  C10 UNL     1      -1.303  11.096 -24.140  1.00  0.00    -0.031 C 
HETATM    5  C11 UNL     1      -1.716  10.037 -23.514  1.00  0.00     0.009 C 
HETATM    6  C20 UNL     1      -0.166  11.315 -25.123  1.00  0.00     0.039 C 
ENDROOT
BRANCH   5   7
HETATM    7  C12 UNL     1      -2.768   9.818 -22.553  1.00  0.00     0.000 C 
HETATM    8  C13 UNL     1      -4.174   9.983 -22.544  1.00  0.00    -0.002 C 
BRANCH   8   9
HETATM    9  C14 UNL     1      -4.943  11.231 -22.480  1.00  0.00    -0.000 C 
BRANCH   9  10
HETATM   10  C15 UNL     1      -6.078  11.483 -21.595  1.00  0.00     0.206 C 
BRANCH  10  11
HETATM   11  O2  UNL     1      -7.261  11.320 -22.259  1.00  0.00    -0.314 OA
BRANCH  11  12
HETATM   12  C16 UNL     1      -8.179  12.124 -22.787  1.00  0.00     0.283 C 
HETATM   13  O3  UNL     1      -7.852  13.240 -23.320  1.00  0.00    -0.260 OA
BRANCH  12  14
HETATM   14  C17 UNL     1      -9.620  11.796 -22.783  1.00  0.00     0.089 C 
HETATM   15  C18 UNL     1     -10.263  10.794 -23.249  1.00  0.00     0.090 C 
BRANCH  15  16
HETATM   16  C19 UNL     1     -11.764  10.811 -23.027  1.00  0.00     0.198 C 
HETATM   17  O4  UNL     1     -12.218  11.370 -22.036  1.00  0.00    -0.645 OA
HETATM   18  O5  UNL     1     -12.593  10.192 -23.961  1.00  0.00    -0.645 OA
ENDBRANCH  15  16
ENDBRANCH  12  14
ENDBRANCH  11  12
ENDBRANCH  10  11
ENDBRANCH   9  10
ENDBRANCH   8   9
ENDBRANCH   5   7
BRANCH   6  19
HETATM   19  N1  UNL     1      -0.029  10.370 -26.112  1.00  0.00    -0.380 N 
HETATM   20  C21 UNL     1      -0.924  10.028 -27.102  1.00  0.00     0.123 C 
HETATM   21  C22 UNL     1      -0.257   9.984 -28.493  1.00  0.00     0.020 C 
HETATM   22  C23 UNL     1       0.779   8.861 -28.552  1.00  0.00     0.002 C 
HETATM   23  C24 UNL     1       2.099   9.385 -28.057  1.00  0.00     0.002 C 
HETATM   24  C25 UNL     1       2.178   9.317 -26.575  1.00  0.00     0.020 C 
HETATM   25  C26 UNL     1       0.888   9.308 -25.835  1.00  0.00     0.123 C 
ENDBRANCH   6  19
BRANCH   1  26
HETATM   26  C4  UNL     1       0.686  13.514 -26.228  1.00  0.00     0.004 C 
HETATM   27  C5  UNL     1       2.037  13.015 -26.548  1.00  0.00     0.022 C 
HETATM   28  C6  UNL     1      -0.065  13.892 -27.541  1.00  0.00     0.022 C 
BRANCH  26  29
HETATM   29  C3  UNL     1       0.881  14.946 -25.662  1.00  0.00     0.130 C 
BRANCH  29  30
HETATM   30  C2  UNL     1       1.832  15.763 -26.454  1.00  0.00     0.028 C 
HETATM   31  C1  UNL     1       2.399  16.821 -25.496  1.00  0.00     0.007 C 
ENDBRANCH  29  30
BRANCH  29  32
HETATM   32  O1  UNL     1       1.346  14.739 -24.346  1.00  0.00    -0.395 OA
ATOM     33  H1  UNL     1       1.754  13.886 -24.250  1.00  0.00     0.210 HD
ENDBRANCH  29  32
ENDBRANCH  26  29
ENDBRANCH   1  26
TORSDOF 12
ENDMDL
MODEL 3
REMARK VINA RESULT: -8.026192854      2.287      4.874
REMARK  12 active torsions:
REMARK  status: ('A' for Active; 'I' for Inactive)
REMARK    1  A    between atoms: C2_2  and  C3_3 
REMARK    2  A    between atoms: C3_3  and  O1_4 
REMARK    3  A    between atoms: C3_3  and  C4_6 
REMARK    4  A    between atoms: C4_6  and  C7_9 
REMARK    5  A    between atoms: C11_13  and  C12_14 
REMARK    6  A    between atoms: C13_15  and  C14_16 
REMARK    7  A    between atoms: C14_16  and  C15_17 
REMARK    8  A    between atoms: C15_17  and  O2_18 
REMARK    9  A    between atoms: O2_18  and  C16_19 
REMARK   10  A    between atoms: C16_19  and  C17_21 
REMARK   11  A    between atoms: C18_22  and  C19_23 
REMARK   12  A    between atoms: C20_26  and  N1_27 
ROOT
HETATM    1  C7  UNL     1      -1.576   8.796 -24.623  1.00  0.00    -0.042 C 
HETATM    2  C8  UNL     1      -1.473   9.052 -23.148  1.00  0.00     0.042 C 
HETATM    3  C9  UNL     1      -2.678  10.006 -23.027  1.00  0.00     0.045 C 
HETATM    4  C10 UNL     1      -2.517  10.909 -24.193  1.00  0.00    -0.031 C 
HETATM    5  C11 UNL     1      -3.031  12.099 -24.229  1.00  0.00     0.009 C 
HETATM    6  C20 UNL     1      -1.709  10.121 -25.211  1.00  0.00     0.039 C 
ENDROOT
BRANCH   5   7
HETATM    7  C12 UNL     1      -3.829  12.848 -23.290  1.00  0.00     0.000 C 
HETATM    8  C13 UNL     1      -5.011  12.602 -22.552  1.00  0.00    -0.002 C 
BRANCH   8   9
HETATM    9  C14 UNL     1      -6.393  12.542 -23.042  1.00  0.00    -0.000 C 
BRANCH   9  10
HETATM   10  C15 UNL     1      -7.276  11.382 -22.948  1.00  0.00     0.206 C 
BRANCH  10  11
HETATM   11  O2  UNL     1      -7.743  11.224 -21.673  1.00  0.00    -0.314 OA
BRANCH  11  12
HETATM   12  C16 UNL     1      -8.801  10.653 -21.107  1.00  0.00     0.283 C 
HETATM   13  O3  UNL     1      -8.706  10.061 -19.976  1.00  0.00    -0.260 OA
BRANCH  12  14
HETATM   14  C17 UNL     1     -10.135  10.648 -21.740  1.00  0.00     0.089 C 
HETATM   15  C18 UNL     1     -10.907  11.603 -22.099  1.00  0.00     0.090 C 
BRANCH  15  16
HETATM   16  C19 UNL     1     -12.216  11.186 -22.744  1.00  0.00     0.198 C 
HETATM   17  O4  UNL     1     -13.274  11.545 -22.243  1.00  0.00    -0.645 OA
HETATM   18  O5  UNL     1     -12.182  10.405 -23.899  1.00  0.00    -0.645 OA
ENDBRANCH  15  16
ENDBRANCH  12  14
ENDBRANCH  11  12
ENDBRANCH  10  11
ENDBRANCH   9  10
ENDBRANCH   8   9
ENDBRANCH   5   7
BRANCH   6  19
HETATM   19  N1  UNL     1      -0.705  10.808 -25.851  1.00  0.00    -0.380 N 
HETATM   20  C21 UNL     1      -0.153  10.563 -27.089  1.00  0.00     0.123 C 
HETATM   21  C22 UNL     1      -0.074  11.842 -27.949  1.00  0.00     0.020 C 
HETATM   22  C23 UNL     1       0.895  12.846 -27.323  1.00  0.00     0.002 C 
HETATM   23  C24 UNL     1       0.149  13.693 -26.329  1.00  0.00     0.002 C 
HETATM   24  C25 UNL     1       0.068  13.018 -25.008  1.00  0.00     0.020 C 
HETATM   25  C26 UNL     1       0.188  11.535 -25.004  1.00  0.00     0.123 C 
ENDBRANCH   6  19
BRANCH   1  26
HETATM   26  C4  UNL     1      -0.835   7.670 -25.112  1.00  0.00     0.004 C 
HETATM   27  C5  UNL     1      -0.669   7.507 -26.569  1.00  0.00     0.022 C 
HETATM   28  C6  UNL     1       0.543   7.513 -24.399  1.00  0.00     0.022 C 
BRANCH  26  29
HETATM   29  C3  UNL     1      -1.497   6.359 -24.607  1.00  0.00     0.130 C 
BRANCH  29  30
HETATM   30  C2  UNL     1      -0.875   5.136 -25.169  1.00  0.00     0.028 C 
HETATM   31  C1  UNL     1      -2.029   4.188 -25.529  1.00  0.00     0.007 C 
ENDBRANCH  29  30
BRANCH  29  32
HETATM   32  O1  UNL     1      -2.848   6.481 -24.996  1.00  0.00    -0.395 OA
ATOM     33  H1  UNL     1      -3.072   7.381 -25.201  1.00  0.00     0.210 HD
ENDBRANCH  29  32
ENDBRANCH  26  29
ENDBRANCH   1  26
TORSDOF 12
ENDMDL
MODEL 4
REMARK VINA RESULT: -8.008289382      1.852      4.078
REMARK  12 active torsions:
REMARK  status: ('A' for Active; 'I' for Inactive)
REMARK    1  A    between atoms: C2_2  and  C3_3 
REMARK    2  A    between atoms: C3_3  and  O1_4 
REMARK    3  A    between atoms: C3_3  and  C4_6 
REMARK    4  A    between atoms: C4_6  and  C7_9 
REMARK    5  A    between atoms: C11_13  and  C12_14 
REMARK    6  A    between atoms: C13_15  and  C14_16 
REMARK    7  A    between atoms: C14_16  and  C15_17 
REMARK    8  A    between atoms: C15_17  and  O2_18 
REMARK    9  A    between atoms: O2_18  and  C16_19 
REMARK   10  A    between atoms: C16_19  and  C17_21 
REMARK   11  A    between atoms: C18_22  and  C19_23 
REMARK   12  A    between atoms: C20_26  and  N1_27 
ROOT
HETATM    1  C7  UNL     1      -0.214  11.285 -26.656  1.00  0.00    -0.042 C 
HETATM    2  C8  UNL     1       0.296  10.244 -25.703  1.00  0.00     0.042 C 
HETATM    3  C9  UNL     1      -1.038   9.958 -24.988  1.00  0.00     0.045 C 
HETATM    4  C10 UNL     1      -1.598  11.312 -24.754  1.00  0.00    -0.031 C 
HETATM    5  C11 UNL     1      -2.460  11.557 -23.816  1.00  0.00     0.009 C 
HETATM    6  C20 UNL     1      -0.975  12.200 -25.818  1.00  0.00     0.039 C 
ENDROOT
BRANCH   5   7
HETATM    7  C12 UNL     1      -3.088  10.721 -22.823  1.00  0.00     0.000 C 
HETATM    8  C13 UNL     1      -4.417  10.326 -22.534  1.00  0.00    -0.002 C 
BRANCH   8   9
HETATM    9  C14 UNL     1      -5.495  11.126 -21.943  1.00  0.00    -0.000 C 
BRANCH   9  10
HETATM   10  C15 UNL     1      -6.728  11.519 -22.622  1.00  0.00     0.206 C 
BRANCH  10  11
HETATM   11  O2  UNL     1      -7.759  11.638 -21.733  1.00  0.00    -0.314 OA
BRANCH  11  12
HETATM   12  C16 UNL     1      -8.730  10.849 -21.284  1.00  0.00     0.283 C 
HETATM   13  O3  UNL     1      -8.506   9.982 -20.369  1.00  0.00    -0.260 OA
BRANCH  12  14
HETATM   14  C17 UNL     1     -10.109  10.907 -21.809  1.00  0.00     0.089 C 
HETATM   15  C18 UNL     1     -10.567  10.817 -23.000  1.00  0.00     0.090 C 
BRANCH  15  16
HETATM   16  C19 UNL     1     -12.077  10.907 -23.135  1.00  0.00     0.198 C 
HETATM   17  O4  UNL     1     -12.649  10.203 -23.957  1.00  0.00    -0.645 OA
HETATM   18  O5  UNL     1     -12.777  11.789 -22.314  1.00  0.00    -0.645 OA
ENDBRANCH  15  16
ENDBRANCH  12  14
ENDBRANCH  11  12
ENDBRANCH  10  11
ENDBRANCH   9  10
ENDBRANCH   8   9
ENDBRANCH   5   7
BRANCH   6  19
HETATM   19  N1  UNL     1      -0.542  13.435 -25.398  1.00  0.00    -0.380 N 
HETATM   20  C21 UNL     1       0.641  13.763 -24.774  1.00  0.00     0.123 C 
HETATM   21  C22 UNL     1       1.332  14.970 -25.444  1.00  0.00     0.020 C 
HETATM   22  C23 UNL     1       0.484  16.230 -25.275  1.00  0.00     0.002 C 
HETATM   23  C24 UNL     1      -0.506  16.311 -26.404  1.00  0.00     0.002 C 
HETATM   24  C25 UNL     1      -1.722  15.509 -26.106  1.00  0.00     0.020 C 
HETATM   25  C26 UNL     1      -1.568  14.396 -25.132  1.00  0.00     0.123 C 
ENDBRANCH   6  19
BRANCH   1  26
HETATM   26  C4  UNL     1       0.645  11.589 -27.763  1.00  0.00     0.004 C 
HETATM   27  C5  UNL     1       0.297  12.722 -28.642  1.00  0.00     0.022 C 
HETATM   28  C6  UNL     1       2.143  11.687 -27.341  1.00  0.00     0.022 C 
BRANCH  26  29
HETATM   29  C3  UNL     1       0.755  10.347 -28.687  1.00  0.00     0.130 C 
BRANCH  29  30
HETATM   30  C2  UNL     1       1.638  10.565 -29.858  1.00  0.00     0.028 C 
HETATM   31  C1  UNL     1       2.457   9.277 -30.031  1.00  0.00     0.007 C 
ENDBRANCH  29  30
BRANCH  29  32
HETATM   32  O1  UNL     1      -0.576  10.090 -29.082  1.00  0.00    -0.395 OA
ATOM     33  H1  UNL     1      -1.092   9.743 -28.363  1.00  0.00     0.210 HD
ENDBRANCH  29  32
ENDBRANCH  26  29
ENDBRANCH   1  26
TORSDOF 12
ENDMDL
MODEL 5
REMARK VINA RESULT: -7.955678470      2.228      3.376
REMARK  12 active torsions:
REMARK  status: ('A' for Active; 'I' for Inactive)
REMARK    1  A    between atoms: C2_2  and  C3_3 
REMARK    2  A    between atoms: C3_3  and  O1_4 
REMARK    3  A    between atoms: C3_3  and  C4_6 
REMARK    4  A    between atoms: C4_6  and  C7_9 
REMARK    5  A    between atoms: C11_13  and  C12_14 
REMARK    6  A    between atoms: C13_15  and  C14_16 
REMARK    7  A    between atoms: C14_16  and  C15_17 
REMARK    8  A    between atoms: C15_17  and  O2_18 
REMARK    9  A    between atoms: O2_18  and  C16_19 
REMARK   10  A    between atoms: C16_19  and  C17_21 
REMARK   11  A    between atoms: C18_22  and  C19_23 
REMARK   12  A    between atoms: C20_26  and  N1_27 
ROOT
HETATM    1  C7  UNL     1       0.566   9.876 -25.868  1.00  0.00    -0.042 C 
HETATM    2  C8  UNL     1      -0.667  10.684 -26.145  1.00  0.00     0.042 C 
HETATM    3  C9  UNL     1      -1.131  10.846 -24.684  1.00  0.00     0.045 C 
HETATM    4  C10 UNL     1      -0.956   9.486 -24.117  1.00  0.00    -0.031 C 
HETATM    5  C11 UNL     1      -1.622   9.070 -23.084  1.00  0.00     0.009 C 
HETATM    6  C20 UNL     1       0.115   8.824 -24.968  1.00  0.00     0.039 C 
ENDROOT
BRANCH   5   7
HETATM    7  C12 UNL     1      -2.613   9.695 -22.244  1.00  0.00     0.000 C 
HETATM    8  C13 UNL     1      -3.892  10.266 -22.450  1.00  0.00    -0.002 C 
BRANCH   8   9
HETATM    9  C14 UNL     1      -4.224  11.547 -23.084  1.00  0.00    -0.000 C 
BRANCH   9  10
HETATM   10  C15 UNL     1      -5.471  12.286 -22.899  1.00  0.00     0.206 C 
BRANCH  10  11
HETATM   11  O2  UNL     1      -6.546  11.443 -22.907  1.00  0.00    -0.314 OA
BRANCH  11  12
HETATM   12  C16 UNL     1      -7.434  11.019 -22.014  1.00  0.00     0.283 C 
HETATM   13  O3  UNL     1      -7.060  10.478 -20.915  1.00  0.00    -0.260 OA
BRANCH  12  14
HETATM   14  C17 UNL     1      -8.891  11.127 -22.229  1.00  0.00     0.089 C 
HETATM   15  C18 UNL     1      -9.635  10.754 -23.201  1.00  0.00     0.090 C 
BRANCH  15  16
HETATM   16  C19 UNL     1     -11.119  11.030 -23.040  1.00  0.00     0.198 C 
HETATM   17  O4  UNL     1     -11.494  11.815 -22.178  1.00  0.00    -0.645 OA
HETATM   18  O5  UNL     1     -12.021  10.384 -23.883  1.00  0.00    -0.645 OA
ENDBRANCH  15  16
ENDBRANCH  12  14
ENDBRANCH  11  12
ENDBRANCH  10  11
ENDBRANCH   9  10
ENDBRANCH   8   9
ENDBRANCH   5   7
BRANCH   6  19
HETATM   19  N1  UNL     1      -0.120   7.519 -25.331  1.00  0.00    -0.380 N 
HETATM   20  C21 UNL     1       0.767   6.466 -25.365  1.00  0.00     0.123 C 
HETATM   21  C22 UNL     1       0.205   5.214 -24.658  1.00  0.00     0.020 C 
HETATM   22  C23 UNL     1      -1.010   4.676 -25.413  1.00  0.00     0.002 C 
HETATM   23  C24 UNL     1      -2.245   5.376 -24.916  1.00  0.00     0.002 C 
HETATM   24  C25 UNL     1      -2.443   6.671 -25.616  1.00  0.00     0.020 C 
HETATM   25  C26 UNL     1      -1.233   7.306 -26.204  1.00  0.00     0.123 C 
ENDBRANCH   6  19
BRANCH   1  26
HETATM   26  C4  UNL     1       1.508   9.789 -26.946  1.00  0.00     0.004 C 
HETATM   27  C5  UNL     1       2.749   9.016 -26.744  1.00  0.00     0.022 C 
HETATM   28  C6  UNL     1       0.834   9.370 -28.288  1.00  0.00     0.022 C 
BRANCH  26  29
HETATM   29  C3  UNL     1       1.954  11.218 -27.357  1.00  0.00     0.130 C 
BRANCH  29  30
HETATM   30  C2  UNL     1       2.719  11.249 -28.627  1.00  0.00     0.028 C 
HETATM   31  C1  UNL     1       3.625  12.487 -28.559  1.00  0.00     0.007 C 
ENDBRANCH  29  30
BRANCH  29  32
HETATM   32  O1  UNL     1       2.736  11.663 -26.269  1.00  0.00    -0.395 OA
ATOM     33  H1  UNL     1       3.218  10.948 -25.870  1.00  0.00     0.210 HD
ENDBRANCH  29  32
ENDBRANCH  26  29
ENDBRANCH   1  26
TORSDOF 12
ENDMDL
