MODEL 1
REMARK VINA RESULT: -8.044438867      0.000      0.000
REMARK  14 active torsions:
REMARK  status: ('A' for Active; 'I' for Inactive)
REMARK    1  A    between atoms: C2_2  and  C3_3 
REMARK    2  A    between atoms: C4_4  and  C5_5 
REMARK    3  A    between atoms: C7_7  and  O1_8 
REMARK    4  A    between atoms: O1_8  and  C8_9 
REMARK    5  A    between atoms: C8_9  and  C9_11 
REMARK    6  A    between atoms: C9_11  and  O3_12 
REMARK    7  A    between atoms: C9_11  and  C10_14 
REMARK    8  A    between atoms: C10_14  and  C11_15 
REMARK    9  A    between atoms: C11_15  and  C12_16 
REMARK   10  A    between atoms: C14_18  and  C15_19 
REMARK   11  A    between atoms: C15_19  and  C17_21 
REMARK   12  A    between atoms: C19_25  and  C20_26 
REMARK   13  A    between atoms: C20_26  and  C21_27 
REMARK   14  A    between atoms: C26_32  and  O6_33 
ROOT
HETATM    1  C5  UNL     1      -2.283  10.476 -22.989  1.00  0.00     0.017 C 
HETATM    2  C6  UNL     1      -1.823   9.393 -22.042  1.00  0.00     0.042 C 
HETATM    3  C7  UNL     1      -1.573   8.511 -23.223  1.00  0.00     0.137 C 
HETATM    4  C14 UNL     1      -1.785   9.689 -24.143  1.00  0.00     0.029 C 
ENDROOT
BRANCH   4   5
HETATM    5  C15 UNL     1      -0.527  10.280 -24.740  1.00  0.00     0.021 C 
HETATM    6  C16 UNL     1       0.303   9.304 -25.507  1.00  0.00     0.013 C 
BRANCH   5   7
HETATM    7  C17 UNL     1      -0.825  11.542 -25.519  1.00  0.00     0.164 C 
HETATM    8  O4  UNL     1      -0.125  11.548 -26.743  1.00  0.00    -0.313 OA
HETATM    9  C18 UNL     1       0.168  12.704 -27.421  1.00  0.00     0.263 C 
HETATM   10  O5  UNL     1       0.037  12.740 -28.663  1.00  0.00    -0.265 OA
HETATM   11  C19 UNL     1       0.629  13.877 -26.693  1.00  0.00     0.091 C 
HETATM   12  C25 UNL     1       0.632  13.585 -25.231  1.00  0.00     0.049 C 
HETATM   13  C26 UNL     1      -0.559  12.789 -24.760  1.00  0.00     0.148 C 
BRANCH  11  14
HETATM   14  C20 UNL     1      -0.070  15.162 -27.045  1.00  0.00     0.042 C 
BRANCH  14  15
HETATM   15  C21 UNL     1       0.186  16.253 -26.100  1.00  0.00    -0.024 C 
HETATM   16  C22 UNL     1      -0.773  17.135 -25.839  1.00  0.00    -0.091 C 
HETATM   17  C23 UNL     1      -2.098  17.010 -26.508  1.00  0.00     0.042 C 
HETATM   18  C24 UNL     1      -0.584  18.267 -24.891  1.00  0.00     0.042 C 
ENDBRANCH  14  15
ENDBRANCH  11  14
BRANCH  13  19
HETATM   19  O6  UNL     1      -1.669  13.670 -24.799  1.00  0.00    -0.393 OA
ATOM     20  H6  UNL     1      -2.367  13.379 -24.224  1.00  0.00     0.210 HD
ENDBRANCH  13  19
ENDBRANCH   5   7
ENDBRANCH   4   5
BRANCH   1  21
HETATM   21  C4  UNL     1      -3.701  10.832 -22.908  1.00  0.00    -0.026 C 
HETATM   22  C3  UNL     1      -4.228  12.033 -23.064  1.00  0.00    -0.031 C 
BRANCH  22  23
HETATM   23  C2  UNL     1      -5.685  12.261 -22.956  1.00  0.00     0.022 C 
HETATM   24  C1  UNL     1      -6.237  11.314 -21.940  1.00  0.00     0.009 C 
ENDBRANCH  22  23
ENDBRANCH   1  21
BRANCH   3  25
HETATM   25  O1  UNL     1      -2.473   7.440 -23.397  1.00  0.00    -0.314 OA
BRANCH  25  26
HETATM   26  C8  UNL     1      -2.287   6.430 -24.336  1.00  0.00     0.288 C 
HETATM   27  O2  UNL     1      -3.168   5.529 -24.327  1.00  0.00    -0.262 OA
BRANCH  26  28
HETATM   28  C9  UNL     1      -1.152   6.401 -25.276  1.00  0.00     0.217 C 
BRANCH  28  29
HETATM   29  O3  UNL     1      -1.691   6.112 -26.551  1.00  0.00    -0.386 OA
ATOM     30  H3  UNL     1      -2.323   6.795 -26.739  1.00  0.00     0.210 HD
ENDBRANCH  28  29
BRANCH  28  31
HETATM   31  C10 UNL     1      -0.192   5.270 -24.977  1.00  0.00     0.042 C 
BRANCH  31  32
HETATM   32  C11 UNL     1       1.197   5.752 -24.721  1.00  0.00     0.003 C 
BRANCH  32  33
HETATM   33  C12 UNL     1       2.136   4.661 -24.284  1.00  0.00    -0.004 C 
HETATM   34  C13 UNL     1       3.246   5.202 -23.402  1.00  0.00     0.005 C 
ENDBRANCH  32  33
ENDBRANCH  31  32
ENDBRANCH  28  31
ENDBRANCH  26  28
ENDBRANCH  25  26
ENDBRANCH   3  25
TORSDOF 14
ENDMDL
MODEL 2
REMARK VINA RESULT: -7.831141570      1.476      2.090
REMARK  14 active torsions:
REMARK  status: ('A' for Active; 'I' for Inactive)
REMARK    1  A    between atoms: C2_2  and  C3_3 
REMARK    2  A    between atoms: C4_4  and  C5_5 
REMARK    3  A    between atoms: C7_7  and  O1_8 
REMARK    4  A    between atoms: O1_8  and  C8_9 
REMARK    5  A    between atoms: C8_9  and  C9_11 
REMARK    6  A    between atoms: C9_11  and  O3_12 
REMARK    7  A    between atoms: C9_11  and  C10_14 
REMARK    8  A    between atoms: C10_14  and  C11_15 
REMARK    9  A    between atoms: C11_15  and  C12_16 
REMARK   10  A    between atoms: C14_18  and  C15_19 
REMARK   11  A    between atoms: C15_19  and  C17_21 
REMARK   12  A    between atoms: C19_25  and  C20_26 
REMARK   13  A    between atoms: C20_26  and  C21_27 
REMARK   14  A    between atoms: C26_32  and  O6_33 
ROOT
HETATM    1  C5  UNL     1      -1.761  10.482 -23.460  1.00  0.00     0.017 C 
HETATM    2  C6  UNL     1      -1.161   9.369 -22.633  1.00  0.00     0.042 C 
HETATM    3  C7  UNL     1      -0.906   8.612 -23.897  1.00  0.00     0.137 C 
HETATM    4  C14 UNL     1      -1.266   9.838 -24.700  1.00  0.00     0.029 C 
ENDROOT
BRANCH   4   5
HETATM    5  C15 UNL     1      -0.096  10.583 -25.306  1.00  0.00     0.021 C 
HETATM    6  C16 UNL     1       0.806   9.733 -26.137  1.00  0.00     0.013 C 
BRANCH   5   7
HETATM    7  C17 UNL     1      -0.550  11.837 -26.020  1.00  0.00     0.164 C 
HETATM    8  O4  UNL     1      -0.059  11.862 -27.341  1.00  0.00    -0.313 OA
HETATM    9  C18 UNL     1       0.090  13.025 -28.052  1.00  0.00     0.263 C 
HETATM   10  O5  UNL     1      -0.241  13.059 -29.256  1.00  0.00    -0.265 OA
HETATM   11  C19 UNL     1       0.632  14.210 -27.403  1.00  0.00     0.091 C 
HETATM   12  C25 UNL     1       0.880  13.918 -25.962  1.00  0.00     0.049 C 
HETATM   13  C26 UNL     1      -0.198  13.091 -25.309  1.00  0.00     0.148 C 
BRANCH  11  14
HETATM   14  C20 UNL     1      -0.149  15.477 -27.632  1.00  0.00     0.042 C 
BRANCH  14  15
HETATM   15  C21 UNL     1       0.277  16.595 -26.785  1.00  0.00    -0.024 C 
HETATM   16  C22 UNL     1      -0.636  17.393 -26.242  1.00  0.00    -0.091 C 
HETATM   17  C23 UNL     1      -2.082  17.145 -26.496  1.00  0.00     0.042 C 
HETATM   18  C24 UNL     1      -0.277  18.545 -25.371  1.00  0.00     0.042 C 
ENDBRANCH  14  15
ENDBRANCH  11  14
BRANCH  13  19
HETATM   19  O6  UNL     1      -1.322  13.942 -25.163  1.00  0.00    -0.393 OA
ATOM     20  H6  UNL     1      -1.642  13.948 -24.269  1.00  0.00     0.210 HD
ENDBRANCH  13  19
ENDBRANCH   5   7
ENDBRANCH   4   5
BRANCH   1  21
HETATM   21  C4  UNL     1      -3.197  10.706 -23.279  1.00  0.00    -0.026 C 
HETATM   22  C3  UNL     1      -3.820  11.870 -23.235  1.00  0.00    -0.031 C 
BRANCH  22  23
HETATM   23  C2  UNL     1      -5.284  11.960 -23.045  1.00  0.00     0.022 C 
HETATM   24  C1  UNL     1      -5.684  10.977 -21.993  1.00  0.00     0.009 C 
ENDBRANCH  22  23
ENDBRANCH   1  21
BRANCH   3  25
HETATM   25  O1  UNL     1      -1.723   7.484 -24.118  1.00  0.00    -0.314 OA
BRANCH  25  26
HETATM   26  C8  UNL     1      -1.308   6.369 -24.840  1.00  0.00     0.288 C 
HETATM   27  O2  UNL     1      -0.063   6.173 -24.843  1.00  0.00    -0.262 OA
BRANCH  26  28
HETATM   28  C9  UNL     1      -2.240   5.476 -25.552  1.00  0.00     0.217 C 
BRANCH  28  29
HETATM   29  O3  UNL     1      -3.257   6.298 -26.088  1.00  0.00    -0.386 OA
ATOM     30  H3  UNL     1      -4.011   6.204 -25.517  1.00  0.00     0.210 HD
ENDBRANCH  28  29
BRANCH  28  31
HETATM   31  C10 UNL     1      -2.945   4.521 -24.612  1.00  0.00     0.042 C 
BRANCH  31  32
HETATM   32  C11 UNL     1      -2.804   3.097 -25.033  1.00  0.00     0.003 C 
BRANCH  32  33
HETATM   33  C12 UNL     1      -1.865   2.907 -26.193  1.00  0.00    -0.004 C 
HETATM   34  C13 UNL     1      -2.369   1.842 -27.148  1.00  0.00     0.005 C 
ENDBRANCH  32  33
ENDBRANCH  31  32
ENDBRANCH  28  31
ENDBRANCH  26  28
ENDBRANCH  25  26
ENDBRANCH   3  25
TORSDOF 14
ENDMDL
MODEL 3
REMARK VINA RESULT: -7.542145116      2.348      8.392
REMARK  14 active torsions:
REMARK  status: ('A' for Active; 'I' for Inactive)
REMARK    1  A    between atoms: C2_2  and  C3_3 
REMARK    2  A    between atoms: C4_4  and  C5_5 
REMARK    3  A    between atoms: C7_7  and  O1_8 
REMARK    4  A    between atoms: O1_8  and  C8_9 
REMARK    5  A    between atoms: C8_9  and  C9_11 
REMARK    6  A    between atoms: C9_11  and  O3_12 
REMARK    7  A    between atoms: C9_11  and  C10_14 
REMARK    8  A    between atoms: C10_14  and  C11_15 
REMARK    9  A    between atoms: C11_15  and  C12_16 
REMARK   10  A    between atoms: C14_18  and  C15_19 
REMARK   11  A    between atoms: C15_19  and  C17_21 
REMARK   12  A    between atoms: C19_25  and  C20_26 
REMARK   13  A    between atoms: C20_26  and  C21_27 
REMARK   14  A    between atoms: C26_32  and  O6_33 
ROOT
HETATM    1  C5  UNL     1      -2.218  13.867 -25.282  1.00  0.00     0.017 C 
HETATM    2  C6  UNL     1      -2.334  15.200 -25.984  1.00  0.00     0.042 C 
HETATM    3  C7  UNL     1      -0.920  15.491 -25.595  1.00  0.00     0.137 C 
HETATM    4  C14 UNL     1      -0.756  14.061 -25.137  1.00  0.00     0.029 C 
ENDROOT
BRANCH   4   5
HETATM    5  C15 UNL     1       0.036  13.169 -26.068  1.00  0.00     0.021 C 
HETATM    6  C16 UNL     1       1.271  13.803 -26.619  1.00  0.00     0.013 C 
BRANCH   5   7
HETATM    7  C17 UNL     1       0.295  11.815 -25.446  1.00  0.00     0.164 C 
HETATM    8  O4  UNL     1       1.211  11.078 -26.224  1.00  0.00    -0.313 OA
HETATM    9  C18 UNL     1       1.282   9.709 -26.183  1.00  0.00     0.263 C 
HETATM   10  O5  UNL     1       2.400   9.149 -26.173  1.00  0.00    -0.265 OA
HETATM   11  C19 UNL     1       0.061   8.918 -26.150  1.00  0.00     0.091 C 
HETATM   12  C25 UNL     1      -1.119   9.827 -26.103  1.00  0.00     0.049 C 
HETATM   13  C26 UNL     1      -0.937  11.024 -25.203  1.00  0.00     0.148 C 
BRANCH  11  14
HETATM   14  C20 UNL     1       0.027   7.838 -25.103  1.00  0.00     0.042 C 
BRANCH  14  15
HETATM   15  C21 UNL     1      -0.763   6.665 -25.487  1.00  0.00    -0.024 C 
HETATM   16  C22 UNL     1      -1.834   6.331 -24.775  1.00  0.00    -0.091 C 
HETATM   17  C23 UNL     1      -2.222   7.148 -23.592  1.00  0.00     0.042 C 
HETATM   18  C24 UNL     1      -2.683   5.155 -25.108  1.00  0.00     0.042 C 
ENDBRANCH  14  15
ENDBRANCH  11  14
BRANCH  13  19
HETATM   19  O6  UNL     1      -0.990  10.536 -23.874  1.00  0.00    -0.393 OA
ATOM     20  H6  UNL     1      -0.988   9.586 -23.849  1.00  0.00     0.210 HD
ENDBRANCH  13  19
ENDBRANCH   5   7
ENDBRANCH   4   5
BRANCH   1  21
HETATM   21  C4  UNL     1      -3.053  13.702 -24.090  1.00  0.00    -0.026 C 
HETATM   22  C3  UNL     1      -3.922  12.735 -23.857  1.00  0.00    -0.031 C 
BRANCH  22  23
HETATM   23  C2  UNL     1      -4.707  12.682 -22.605  1.00  0.00     0.022 C 
HETATM   24  C1  UNL     1      -5.206  11.285 -22.420  1.00  0.00     0.009 C 
ENDBRANCH  22  23
ENDBRANCH   1  21
BRANCH   3  25
HETATM   25  O1  UNL     1      -0.741  16.469 -24.596  1.00  0.00    -0.314 OA
BRANCH  25  26
HETATM   26  C8  UNL     1      -0.317  17.767 -24.863  1.00  0.00     0.288 C 
HETATM   27  O2  UNL     1      -1.238  18.577 -25.150  1.00  0.00    -0.262 OA
BRANCH  26  28
HETATM   28  C9  UNL     1       1.098  18.178 -24.819  1.00  0.00     0.217 C 
BRANCH  28  29
HETATM   29  O3  UNL     1       1.130  19.552 -25.151  1.00  0.00    -0.386 OA
ATOM     30  H3  UNL     1       1.549  19.998 -24.424  1.00  0.00     0.210 HD
ENDBRANCH  28  29
BRANCH  28  31
HETATM   31  C10 UNL     1       1.927  17.486 -25.879  1.00  0.00     0.042 C 
BRANCH  31  32
HETATM   32  C11 UNL     1       1.742  18.089 -27.232  1.00  0.00     0.003 C 
BRANCH  32  33
HETATM   33  C12 UNL     1       0.976  17.205 -28.179  1.00  0.00    -0.004 C 
HETATM   34  C13 UNL     1      -0.315  17.861 -28.630  1.00  0.00     0.005 C 
ENDBRANCH  32  33
ENDBRANCH  31  32
ENDBRANCH  28  31
ENDBRANCH  26  28
ENDBRANCH  25  26
ENDBRANCH   3  25
TORSDOF 14
ENDMDL
MODEL 4
REMARK VINA RESULT: -7.472242928      3.082      7.418
REMARK  14 active torsions:
REMARK  status: ('A' for Active; 'I' for Inactive)
REMARK    1  A    between atoms: C2_2  and  C3_3 
REMARK    2  A    between atoms: C4_4  and  C5_5 
REMARK    3  A    between atoms: C7_7  and  O1_8 
REMARK    4  A    between atoms: O1_8  and  C8_9 
REMARK    5  A    between atoms: C8_9  and  C9_11 
REMARK    6  A    between atoms: C9_11  and  O3_12 
REMARK    7  A    between atoms: C9_11  and  C10_14 
REMARK    8  A    between atoms: C10_14  and  C11_15 
REMARK    9  A    between atoms: C11_15  and  C12_16 
REMARK   10  A    between atoms: C14_18  and  C15_19 
REMARK   11  A    between atoms: C15_19  and  C17_21 
REMARK   12  A    between atoms: C19_25  and  C20_26 
REMARK   13  A    between atoms: C20_26  and  C21_27 
REMARK   14  A    between atoms: C26_32  and  O6_33 
ROOT
HETATM    1  C5  UNL     1      -2.485   9.104 -22.487  1.00  0.00     0.017 C 
HETATM    2  C6  UNL     1      -1.176   9.801 -22.779  1.00  0.00     0.042 C 
HETATM    3  C7  UNL     1      -1.859  10.549 -23.879  1.00  0.00     0.137 C 
HETATM    4  C14 UNL     1      -3.194  10.036 -23.395  1.00  0.00     0.029 C 
ENDROOT
BRANCH   4   5
HETATM    5  C15 UNL     1      -4.040  11.040 -22.642  1.00  0.00     0.021 C 
HETATM    6  C16 UNL     1      -4.024  12.414 -23.226  1.00  0.00     0.013 C 
BRANCH   5   7
HETATM    7  C17 UNL     1      -5.438  10.515 -22.404  1.00  0.00     0.164 C 
HETATM    8  O4  UNL     1      -6.365  11.180 -23.232  1.00  0.00    -0.313 OA
HETATM    9  C18 UNL     1      -7.701  11.258 -22.931  1.00  0.00     0.263 C 
HETATM   10  O5  UNL     1      -8.548  11.099 -23.836  1.00  0.00    -0.265 OA
HETATM   11  C19 UNL     1      -8.124  11.525 -21.564  1.00  0.00     0.091 C 
HETATM   12  C25 UNL     1      -6.926  11.606 -20.680  1.00  0.00     0.049 C 
HETATM   13  C26 UNL     1      -5.867  10.578 -20.985  1.00  0.00     0.148 C 
BRANCH  11  14
HETATM   14  C20 UNL     1      -9.197  10.610 -21.037  1.00  0.00     0.042 C 
BRANCH  14  15
HETATM   15  C21 UNL     1     -10.353  11.315 -20.476  1.00  0.00    -0.024 C 
HETATM   16  C22 UNL     1     -11.445  11.479 -21.215  1.00  0.00    -0.091 C 
HETATM   17  C23 UNL     1     -11.486  10.947 -22.605  1.00  0.00     0.042 C 
HETATM   18  C24 UNL     1     -12.655  12.184 -20.711  1.00  0.00     0.042 C 
ENDBRANCH  14  15
ENDBRANCH  11  14
BRANCH  13  19
HETATM   19  O6  UNL     1      -6.377   9.333 -20.539  1.00  0.00    -0.393 OA
ATOM     20  H6  UNL     1      -5.938   8.603 -20.960  1.00  0.00     0.210 HD
ENDBRANCH  13  19
ENDBRANCH   5   7
ENDBRANCH   4   5
BRANCH   1  21
HETATM   21  C4  UNL     1      -2.512   7.664 -22.754  1.00  0.00    -0.026 C 
HETATM   22  C3  UNL     1      -2.678   7.078 -23.926  1.00  0.00    -0.031 C 
BRANCH  22  23
HETATM   23  C2  UNL     1      -2.687   5.606 -24.063  1.00  0.00     0.022 C 
HETATM   24  C1  UNL     1      -2.439   5.264 -25.497  1.00  0.00     0.009 C 
ENDBRANCH  22  23
ENDBRANCH   1  21
BRANCH   3  25
HETATM   25  O1  UNL     1      -1.508  10.175 -25.193  1.00  0.00    -0.314 OA
BRANCH  25  26
HETATM   26  C8  UNL     1      -0.507  10.804 -25.926  1.00  0.00     0.288 C 
HETATM   27  O2  UNL     1      -0.243  11.981 -25.562  1.00  0.00    -0.262 OA
BRANCH  26  28
HETATM   28  C9  UNL     1       0.201  10.157 -27.046  1.00  0.00     0.217 C 
BRANCH  28  29
HETATM   29  O3  UNL     1      -0.777   9.465 -27.796  1.00  0.00    -0.386 OA
ATOM     30  H3  UNL     1      -1.386   9.092 -27.169  1.00  0.00     0.210 HD
ENDBRANCH  28  29
BRANCH  28  31
HETATM   31  C10 UNL     1       1.170   9.096 -26.570  1.00  0.00     0.042 C 
BRANCH  31  32
HETATM   32  C11 UNL     1       0.496   7.798 -26.272  1.00  0.00     0.003 C 
BRANCH  32  33
HETATM   33  C12 UNL     1       0.717   7.321 -24.863  1.00  0.00    -0.004 C 
HETATM   34  C13 UNL     1       1.165   5.872 -24.830  1.00  0.00     0.005 C 
ENDBRANCH  32  33
ENDBRANCH  31  32
ENDBRANCH  28  31
ENDBRANCH  26  28
ENDBRANCH  25  26
ENDBRANCH   3  25
TORSDOF 14
ENDMDL
MODEL 5
REMARK VINA RESULT: -7.383131797      0.828      1.180
REMARK  14 active torsions:
REMARK  status: ('A' for Active; 'I' for Inactive)
REMARK    1  A    between atoms: C2_2  and  C3_3 
REMARK    2  A    between atoms: C4_4  and  C5_5 
REMARK    3  A    between atoms: C7_7  and  O1_8 
REMARK    4  A    between atoms: O1_8  and  C8_9 
REMARK    5  A    between atoms: C8_9  and  C9_11 
REMARK    6  A    between atoms: C9_11  and  O3_12 
REMARK    7  A    between atoms: C9_11  and  C10_14 
REMARK    8  A    between atoms: C10_14  and  C11_15 
REMARK    9  A    between atoms: C11_15  and  C12_16 
REMARK   10  A    between atoms: C14_18  and  C15_19 
REMARK   11  A    between atoms: C15_19  and  C17_21 
REMARK   12  A    between atoms: C19_25  and  C20_26 
REMARK   13  A    between atoms: C20_26  and  C21_27 
REMARK   14  A    between atoms: C26_32  and  O6_33 
ROOT
HETATM    1  C5  UNL     1      -2.104  10.448 -23.134  1.00  0.00     0.017 C 
HETATM    2  C6  UNL     1      -1.717   9.300 -22.230  1.00  0.00     0.042 C 
HETATM    3  C7  UNL     1      -1.533   8.449 -23.444  1.00  0.00     0.137 C 
HETATM    4  C14 UNL     1      -1.666   9.672 -24.319  1.00  0.00     0.029 C 
ENDROOT
BRANCH   4   5
HETATM    5  C15 UNL     1      -0.371  10.197 -24.901  1.00  0.00     0.021 C 
HETATM    6  C16 UNL     1       0.378   9.200 -25.721  1.00  0.00     0.013 C 
BRANCH   5   7
HETATM    7  C17 UNL     1      -0.582  11.512 -25.618  1.00  0.00     0.164 C 
HETATM    8  O4  UNL     1       0.274  11.613 -26.733  1.00  0.00    -0.313 OA
HETATM    9  C18 UNL     1       0.639  12.817 -27.278  1.00  0.00     0.263 C 
HETATM   10  O5  UNL     1       0.674  12.946 -28.521  1.00  0.00    -0.265 OA
HETATM   11  C19 UNL     1       0.982  13.934 -26.411  1.00  0.00     0.091 C 
HETATM   12  C25 UNL     1       0.795  13.533 -24.987  1.00  0.00     0.049 C 
HETATM   13  C26 UNL     1      -0.437  12.700 -24.740  1.00  0.00     0.148 C 
BRANCH  11  14
HETATM   14  C20 UNL     1       0.318  15.240 -26.758  1.00  0.00     0.042 C 
BRANCH  14  15
HETATM   15  C21 UNL     1       0.378  16.237 -25.685  1.00  0.00    -0.024 C 
HETATM   16  C22 UNL     1       1.376  17.113 -25.657  1.00  0.00    -0.091 C 
HETATM   17  C23 UNL     1       2.426  17.075 -26.713  1.00  0.00     0.042 C 
HETATM   18  C24 UNL     1       1.500  18.153 -24.599  1.00  0.00     0.042 C 
ENDBRANCH  14  15
ENDBRANCH  11  14
BRANCH  13  19
HETATM   19  O6  UNL     1      -1.544  13.577 -24.862  1.00  0.00    -0.393 OA
ATOM     20  H6  UNL     1      -1.294  14.479 -24.701  1.00  0.00     0.210 HD
ENDBRANCH  13  19
ENDBRANCH   5   7
ENDBRANCH   4   5
BRANCH   1  21
HETATM   21  C4  UNL     1      -3.494  10.897 -23.032  1.00  0.00    -0.026 C 
HETATM   22  C3  UNL     1      -4.421  10.432 -22.213  1.00  0.00    -0.031 C 
BRANCH  22  23
HETATM   23  C2  UNL     1      -5.796  10.975 -22.210  1.00  0.00     0.022 C 
HETATM   24  C1  UNL     1      -5.773  12.320 -22.861  1.00  0.00     0.009 C 
ENDBRANCH  22  23
ENDBRANCH   1  21
BRANCH   3  25
HETATM   25  O1  UNL     1      -2.505   7.449 -23.653  1.00  0.00    -0.314 OA
BRANCH  25  26
HETATM   26  C8  UNL     1      -2.283   6.317 -24.430  1.00  0.00     0.288 C 
HETATM   27  O2  UNL     1      -3.209   5.462 -24.398  1.00  0.00    -0.262 OA
BRANCH  26  28
HETATM   28  C9  UNL     1      -1.065   6.117 -25.236  1.00  0.00     0.217 C 
BRANCH  28  29
HETATM   29  O3  UNL     1      -1.425   6.364 -26.580  1.00  0.00    -0.386 OA
ATOM     30  H3  UNL     1      -2.024   5.671 -26.832  1.00  0.00     0.210 HD
ENDBRANCH  28  29
BRANCH  28  31
HETATM   31  C10 UNL     1      -0.588   4.681 -25.202  1.00  0.00     0.042 C 
BRANCH  31  32
HETATM   32  C11 UNL     1       0.834   4.561 -24.764  1.00  0.00     0.003 C 
BRANCH  32  33
HETATM   33  C12 UNL     1       1.528   5.888 -24.622  1.00  0.00    -0.004 C 
HETATM   34  C13 UNL     1       2.887   5.737 -23.964  1.00  0.00     0.005 C 
ENDBRANCH  32  33
ENDBRANCH  31  32
ENDBRANCH  28  31
ENDBRANCH  26  28
ENDBRANCH  25  26
ENDBRANCH   3  25
TORSDOF 14
ENDMDL
