MODEL 1
REMARK VINA RESULT: -7.625923859      0.000      0.000
REMARK  17 active torsions:
REMARK  status: ('A' for Active; 'I' for Inactive)
REMARK    1  A    between atoms: C2_2  and  C3_3 
REMARK    2  A    between atoms: C3_3  and  C4_4 
REMARK    3  A    between atoms: C4_4  and  N1_5 
REMARK    4  A    between atoms: N1_5  and  C5_7 
REMARK    5  A    between atoms: C6_10  and  N3_11 
REMARK    6  A    between atoms: N3_11  and  C7_12 
REMARK    7  A    between atoms: C7_12  and  C8_13 
REMARK    8  A    between atoms: C9_14  and  C10_15 
REMARK    9  A    between atoms: C10_15  and  O1_16 
REMARK   10  A    between atoms: C10_15  and  C11_18 
REMARK   11  A    between atoms: C11_18  and  O2_19 
REMARK   12  A    between atoms: C12_23  and  N5_24 
REMARK   13  A    between atoms: N5_24  and  C13_26 
REMARK   14  A    between atoms: C13_26  and  C14_27 
REMARK   15  A    between atoms: C14_27  and  C15_28 
REMARK   16  A    between atoms: C15_28  and  N6_29 
REMARK   17  A    between atoms: N6_29  and  C16_32 
ROOT
HETATM    1  C5  UNL     1      11.558  38.963  -5.322  1.00  0.00     0.696 A 
HETATM    2  N2  UNL     1      12.301  38.336  -6.248  1.00  0.00    -0.148 N 
ATOM      3  H2  UNL     1      12.602  37.378  -6.066  1.00  0.00     0.188 HD
HETATM    4  C6  UNL     1      12.672  38.930  -7.429  1.00  0.00     0.287 A 
HETATM    5  N4  UNL     1      12.221  40.215  -7.583  1.00  0.00    -0.148 N 
ATOM      6  H4  UNL     1      12.465  40.709  -8.441  1.00  0.00     0.188 HD
HETATM    7  C12 UNL     1      11.484  40.855  -6.680  1.00  0.00     0.696 A 
HETATM    8  N7  UNL     1      11.151  40.215  -5.536  1.00  0.00    -0.022 N 
ATOM      9  H7  UNL     1      10.585  40.692  -4.833  1.00  0.00     0.203 HD
ENDROOT
BRANCH   7  10
HETATM   10  N5  UNL     1      11.045  42.063  -6.791  1.00  0.00    -0.225 N 
ATOM     11  H5  UNL     1      10.863  42.569  -5.925  1.00  0.00     0.177 HD
BRANCH  10  12
HETATM   12  C13 UNL     1      10.791  42.761  -8.014  1.00  0.00     0.139 C 
BRANCH  12  13
HETATM   13  C14 UNL     1      11.156  44.233  -7.784  1.00  0.00     0.048 C 
BRANCH  13  14
HETATM   14  C15 UNL     1      12.525  44.452  -8.397  1.00  0.00     0.234 C 
BRANCH  14  15
HETATM   15  N6  UNL     1      12.887  43.494  -9.386  1.00  0.00    -0.071 N 
ATOM     16  H62 UNL     1      12.417  42.602  -9.233  1.00  0.00     0.277 HD
ATOM     17  H61 UNL     1      12.489  43.727 -10.296  1.00  0.00     0.277 HD
BRANCH  15  18
HETATM   18  C16 UNL     1      14.307  43.335  -9.456  1.00  0.00     0.185 C 
HETATM   19  C17 UNL     1      14.724  41.991  -9.947  1.00  0.00     0.033 C 
HETATM   20  C18 UNL     1      16.233  41.883  -9.854  1.00  0.00     0.002 C 
HETATM   21  C19 UNL     1      16.890  43.225  -9.607  1.00  0.00     0.000 C 
HETATM   22  C20 UNL     1      16.390  43.857  -8.324  1.00  0.00     0.002 C 
HETATM   23  C21 UNL     1      14.944  43.490  -8.059  1.00  0.00     0.033 C 
ENDBRANCH  15  18
ENDBRANCH  14  15
ENDBRANCH  13  14
ENDBRANCH  12  13
ENDBRANCH  10  12
ENDBRANCH   7  10
BRANCH   4  24
HETATM   24  N3  UNL     1      13.326  38.410  -8.271  1.00  0.00    -0.383 NA
BRANCH  24  25
HETATM   25  C7  UNL     1      14.038  37.834  -9.238  1.00  0.00     0.186 C 
BRANCH  25  26
HETATM   26  C8  UNL     1      13.937  38.395 -10.616  1.00  0.00     0.030 C 
HETATM   27  C9  UNL     1      14.001  37.647 -11.666  1.00  0.00     0.009 C 
BRANCH  27  28
HETATM   28  C10 UNL     1      14.170  36.194 -11.723  1.00  0.00     0.164 C 
BRANCH  28  29
HETATM   29  O1  UNL     1      15.496  35.763 -11.791  1.00  0.00    -0.390 OA
ATOM     30  H1  UNL     1      15.663  35.091 -12.441  1.00  0.00     0.210 HD
ENDBRANCH  28  29
BRANCH  28  31
HETATM   31  C11 UNL     1      13.303  35.502 -12.758  1.00  0.00     0.199 C 
BRANCH  31  32
HETATM   32  O2  UNL     1      13.077  34.187 -12.407  1.00  0.00    -0.398 OA
ATOM     33  H2  UNL     1      13.681  33.609 -12.858  1.00  0.00     0.209 HD
ENDBRANCH  31  32
ENDBRANCH  28  31
ENDBRANCH  27  28
ENDBRANCH  25  26
ENDBRANCH  24  25
ENDBRANCH   4  24
BRANCH   1  34
HETATM   34  N1  UNL     1      11.235  38.366  -4.230  1.00  0.00    -0.225 N 
ATOM     35  H1  UNL     1      11.826  37.593  -3.925  1.00  0.00     0.177 HD
BRANCH  34  36
HETATM   36  C4  UNL     1      10.116  38.700  -3.408  1.00  0.00     0.138 C 
BRANCH  36  37
HETATM   37  C3  UNL     1      10.511  38.780  -1.964  1.00  0.00     0.020 C 
BRANCH  37  38
HETATM   38  C2  UNL     1       9.680  37.934  -1.044  1.00  0.00    -0.003 C 
HETATM   39  C1  UNL     1       9.799  36.462  -1.266  1.00  0.00     0.005 C 
ENDBRANCH  37  38
ENDBRANCH  36  37
ENDBRANCH  34  36
ENDBRANCH   1  34
TORSDOF 17
ENDMDL
MODEL 2
REMARK VINA RESULT: -7.567515247      2.918      8.529
REMARK  17 active torsions:
REMARK  status: ('A' for Active; 'I' for Inactive)
REMARK    1  A    between atoms: C2_2  and  C3_3 
REMARK    2  A    between atoms: C3_3  and  C4_4 
REMARK    3  A    between atoms: C4_4  and  N1_5 
REMARK    4  A    between atoms: N1_5  and  C5_7 
REMARK    5  A    between atoms: C6_10  and  N3_11 
REMARK    6  A    between atoms: N3_11  and  C7_12 
REMARK    7  A    between atoms: C7_12  and  C8_13 
REMARK    8  A    between atoms: C9_14  and  C10_15 
REMARK    9  A    between atoms: C10_15  and  O1_16 
REMARK   10  A    between atoms: C10_15  and  C11_18 
REMARK   11  A    between atoms: C11_18  and  O2_19 
REMARK   12  A    between atoms: C12_23  and  N5_24 
REMARK   13  A    between atoms: N5_24  and  C13_26 
REMARK   14  A    between atoms: C13_26  and  C14_27 
REMARK   15  A    between atoms: C14_27  and  C15_28 
REMARK   16  A    between atoms: C15_28  and  N6_29 
REMARK   17  A    between atoms: N6_29  and  C16_32 
ROOT
HETATM    1  C5  UNL     1      14.243  38.110  -9.462  1.00  0.00     0.696 A 
HETATM    2  N2  UNL     1      14.863  39.228  -9.872  1.00  0.00    -0.148 N 
ATOM      3  H2  UNL     1      15.711  39.139 -10.432  1.00  0.00     0.188 HD
HETATM    4  C6  UNL     1      14.404  40.486  -9.567  1.00  0.00     0.287 A 
HETATM    5  N4  UNL     1      13.261  40.504  -8.812  1.00  0.00    -0.148 N 
ATOM      6  H4  UNL     1      12.871  41.410  -8.554  1.00  0.00     0.188 HD
HETATM    7  C12 UNL     1      12.629  39.409  -8.395  1.00  0.00     0.696 A 
HETATM    8  N7  UNL     1      13.133  38.199  -8.728  1.00  0.00    -0.022 N 
ATOM      9  H7  UNL     1      12.660  37.350  -8.417  1.00  0.00     0.203 HD
ENDROOT
BRANCH   7  10
HETATM   10  N5  UNL     1      11.555  39.390  -7.682  1.00  0.00    -0.225 N 
ATOM     11  H5  UNL     1      10.708  39.050  -8.135  1.00  0.00     0.177 HD
BRANCH  10  12
HETATM   12  C13 UNL     1      11.439  39.801  -6.316  1.00  0.00     0.139 C 
BRANCH  12  13
HETATM   13  C14 UNL     1      11.185  38.540  -5.481  1.00  0.00     0.048 C 
BRANCH  13  14
HETATM   14  C15 UNL     1      10.369  38.963  -4.275  1.00  0.00     0.234 C 
BRANCH  14  15
HETATM   15  N6  UNL     1      11.106  39.024  -3.059  1.00  0.00    -0.071 N 
ATOM     16  H62 UNL     1      11.974  38.493  -3.119  1.00  0.00     0.277 HD
ATOM     17  H61 UNL     1      11.500  39.953  -2.906  1.00  0.00     0.277 HD
BRANCH  15  18
HETATM   18  C16 UNL     1      10.308  38.602  -1.949  1.00  0.00     0.185 C 
HETATM   19  C17 UNL     1      10.702  39.244  -0.664  1.00  0.00     0.033 C 
HETATM   20  C18 UNL     1       9.890  38.629   0.460  1.00  0.00     0.002 C 
HETATM   21  C19 UNL     1       8.729  37.806  -0.057  1.00  0.00     0.000 C 
HETATM   22  C20 UNL     1       9.205  36.681  -0.954  1.00  0.00     0.002 C 
HETATM   23  C21 UNL     1      10.448  37.082  -1.723  1.00  0.00     0.033 C 
ENDBRANCH  15  18
ENDBRANCH  14  15
ENDBRANCH  13  14
ENDBRANCH  12  13
ENDBRANCH  10  12
ENDBRANCH   7  10
BRANCH   4  24
HETATM   24  N3  UNL     1      14.921  41.496  -9.911  1.00  0.00    -0.383 NA
BRANCH  24  25
HETATM   25  C7  UNL     1      15.511  42.635 -10.268  1.00  0.00     0.186 C 
BRANCH  25  26
HETATM   26  C8  UNL     1      16.612  43.158  -9.407  1.00  0.00     0.030 C 
HETATM   27  C9  UNL     1      16.381  43.894  -8.372  1.00  0.00     0.009 C 
BRANCH  27  28
HETATM   28  C10 UNL     1      15.084  44.337  -7.859  1.00  0.00     0.164 C 
BRANCH  28  29
HETATM   29  O1  UNL     1      15.064  45.643  -7.369  1.00  0.00    -0.390 OA
ATOM     30  H1  UNL     1      14.404  46.205  -7.759  1.00  0.00     0.210 HD
ENDBRANCH  28  29
BRANCH  28  31
HETATM   31  C11 UNL     1      14.429  43.368  -6.892  1.00  0.00     0.199 C 
BRANCH  31  32
HETATM   32  O2  UNL     1      13.195  42.967  -7.361  1.00  0.00    -0.398 OA
ATOM     33  H2  UNL     1      12.688  42.555  -6.670  1.00  0.00     0.209 HD
ENDBRANCH  31  32
ENDBRANCH  28  31
ENDBRANCH  27  28
ENDBRANCH  25  26
ENDBRANCH  24  25
ENDBRANCH   4  24
BRANCH   1  34
HETATM   34  N1  UNL     1      14.711  36.953  -9.770  1.00  0.00    -0.225 N 
ATOM     35  H1  UNL     1      15.065  36.372  -9.010  1.00  0.00     0.177 HD
BRANCH  34  36
HETATM   36  C4  UNL     1      14.775  36.415 -11.091  1.00  0.00     0.138 C 
BRANCH  36  37
HETATM   37  C3  UNL     1      13.452  36.527 -11.784  1.00  0.00     0.020 C 
BRANCH  37  38
HETATM   38  C2  UNL     1      13.386  35.838 -13.116  1.00  0.00    -0.003 C 
HETATM   39  C1  UNL     1      14.069  36.560 -14.231  1.00  0.00     0.005 C 
ENDBRANCH  37  38
ENDBRANCH  36  37
ENDBRANCH  34  36
ENDBRANCH   1  34
TORSDOF 17
ENDMDL
MODEL 3
REMARK VINA RESULT: -7.562523055      4.716      7.893
REMARK  17 active torsions:
REMARK  status: ('A' for Active; 'I' for Inactive)
REMARK    1  A    between atoms: C2_2  and  C3_3 
REMARK    2  A    between atoms: C3_3  and  C4_4 
REMARK    3  A    between atoms: C4_4  and  N1_5 
REMARK    4  A    between atoms: N1_5  and  C5_7 
REMARK    5  A    between atoms: C6_10  and  N3_11 
REMARK    6  A    between atoms: N3_11  and  C7_12 
REMARK    7  A    between atoms: C7_12  and  C8_13 
REMARK    8  A    between atoms: C9_14  and  C10_15 
REMARK    9  A    between atoms: C10_15  and  O1_16 
REMARK   10  A    between atoms: C10_15  and  C11_18 
REMARK   11  A    between atoms: C11_18  and  O2_19 
REMARK   12  A    between atoms: C12_23  and  N5_24 
REMARK   13  A    between atoms: N5_24  and  C13_26 
REMARK   14  A    between atoms: C13_26  and  C14_27 
REMARK   15  A    between atoms: C14_27  and  C15_28 
REMARK   16  A    between atoms: C15_28  and  N6_29 
REMARK   17  A    between atoms: N6_29  and  C16_32 
ROOT
HETATM    1  C5  UNL     1      10.461  38.786  -3.739  1.00  0.00     0.696 A 
HETATM    2  N2  UNL     1       9.541  39.762  -3.706  1.00  0.00    -0.148 N 
ATOM      3  H2  UNL     1       8.831  39.741  -2.974  1.00  0.00     0.188 HD
HETATM    4  C6  UNL     1       9.515  40.789  -4.619  1.00  0.00     0.287 A 
HETATM    5  N4  UNL     1      10.507  40.733  -5.563  1.00  0.00    -0.148 N 
ATOM      6  H4  UNL     1      10.540  41.468  -6.268  1.00  0.00     0.188 HD
HETATM    7  C12 UNL     1      11.429  39.775  -5.614  1.00  0.00     0.696 A 
HETATM    8  N7  UNL     1      11.400  38.791  -4.686  1.00  0.00    -0.022 N 
ATOM      9  H7  UNL     1      12.100  38.050  -4.711  1.00  0.00     0.203 HD
ENDROOT
BRANCH   7  10
HETATM   10  N5  UNL     1      12.372  39.690  -6.488  1.00  0.00    -0.225 N 
ATOM     11  H5  UNL     1      12.915  40.535  -6.664  1.00  0.00     0.177 HD
BRANCH  10  12
HETATM   12  C13 UNL     1      12.731  38.524  -7.237  1.00  0.00     0.139 C 
BRANCH  12  13
HETATM   13  C14 UNL     1      13.127  38.988  -8.643  1.00  0.00     0.048 C 
BRANCH  13  14
HETATM   14  C15 UNL     1      13.629  37.768  -9.390  1.00  0.00     0.234 C 
BRANCH  14  15
HETATM   15  N6  UNL     1      14.790  37.999 -10.180  1.00  0.00    -0.071 N 
ATOM     16  H62 UNL     1      15.080  38.976 -10.144  1.00  0.00     0.277 HD
ATOM     17  H61 UNL     1      15.618  37.575  -9.762  1.00  0.00     0.277 HD
BRANCH  15  18
HETATM   18  C16 UNL     1      14.595  37.557 -11.527  1.00  0.00     0.185 C 
HETATM   19  C17 UNL     1      14.463  38.678 -12.500  1.00  0.00     0.033 C 
HETATM   20  C18 UNL     1      14.126  38.105 -13.862  1.00  0.00     0.002 C 
HETATM   21  C19 UNL     1      14.331  36.606 -13.921  1.00  0.00     0.000 C 
HETATM   22  C20 UNL     1      13.477  35.891 -12.894  1.00  0.00     0.002 C 
HETATM   23  C21 UNL     1      13.294  36.736 -11.649  1.00  0.00     0.033 C 
ENDBRANCH  15  18
ENDBRANCH  14  15
ENDBRANCH  13  14
ENDBRANCH  12  13
ENDBRANCH  10  12
ENDBRANCH   7  10
BRANCH   4  24
HETATM   24  N3  UNL     1       8.721  41.670  -4.623  1.00  0.00    -0.383 NA
BRANCH  24  25
HETATM   25  C7  UNL     1       7.808  42.640  -4.618  1.00  0.00     0.186 C 
BRANCH  25  26
HETATM   26  C8  UNL     1       6.834  42.683  -3.490  1.00  0.00     0.030 C 
HETATM   27  C9  UNL     1       7.111  43.257  -2.368  1.00  0.00     0.009 C 
BRANCH  27  28
HETATM   28  C10 UNL     1       8.350  43.940  -1.992  1.00  0.00     0.164 C 
BRANCH  28  29
HETATM   29  O1  UNL     1       9.392  43.092  -1.615  1.00  0.00    -0.390 OA
ATOM     30  H1  UNL     1      10.262  43.415  -1.821  1.00  0.00     0.210 HD
ENDBRANCH  28  29
BRANCH  28  31
HETATM   31  C11 UNL     1       8.164  45.074  -1.001  1.00  0.00     0.199 C 
BRANCH  31  32
HETATM   32  O2  UNL     1       9.105  46.062  -1.207  1.00  0.00    -0.398 OA
ATOM     33  H2  UNL     1       9.871  45.917  -0.664  1.00  0.00     0.209 HD
ENDBRANCH  31  32
ENDBRANCH  28  31
ENDBRANCH  27  28
ENDBRANCH  25  26
ENDBRANCH  24  25
ENDBRANCH   4  24
BRANCH   1  34
HETATM   34  N1  UNL     1      10.445  37.843  -2.864  1.00  0.00    -0.225 N 
ATOM     35  H1  UNL     1      11.344  37.487  -2.542  1.00  0.00     0.177 HD
BRANCH  34  36
HETATM   36  C4  UNL     1       9.268  37.256  -2.307  1.00  0.00     0.138 C 
BRANCH  36  37
HETATM   37  C3  UNL     1       9.508  36.797  -0.902  1.00  0.00     0.020 C 
BRANCH  37  38
HETATM   38  C2  UNL     1       8.881  37.663   0.152  1.00  0.00    -0.003 C 
HETATM   39  C1  UNL     1       9.729  38.804   0.611  1.00  0.00     0.005 C 
ENDBRANCH  37  38
ENDBRANCH  36  37
ENDBRANCH  34  36
ENDBRANCH   1  34
TORSDOF 17
ENDMDL
MODEL 4
REMARK VINA RESULT: -7.556841648      4.096      7.010
REMARK  17 active torsions:
REMARK  status: ('A' for Active; 'I' for Inactive)
REMARK    1  A    between atoms: C2_2  and  C3_3 
REMARK    2  A    between atoms: C3_3  and  C4_4 
REMARK    3  A    between atoms: C4_4  and  N1_5 
REMARK    4  A    between atoms: N1_5  and  C5_7 
REMARK    5  A    between atoms: C6_10  and  N3_11 
REMARK    6  A    between atoms: N3_11  and  C7_12 
REMARK    7  A    between atoms: C7_12  and  C8_13 
REMARK    8  A    between atoms: C9_14  and  C10_15 
REMARK    9  A    between atoms: C10_15  and  O1_16 
REMARK   10  A    between atoms: C10_15  and  C11_18 
REMARK   11  A    between atoms: C11_18  and  O2_19 
REMARK   12  A    between atoms: C12_23  and  N5_24 
REMARK   13  A    between atoms: N5_24  and  C13_26 
REMARK   14  A    between atoms: C13_26  and  C14_27 
REMARK   15  A    between atoms: C14_27  and  C15_28 
REMARK   16  A    between atoms: C15_28  and  N6_29 
REMARK   17  A    between atoms: N6_29  and  C16_32 
ROOT
HETATM    1  C5  UNL     1       9.836  38.146  -3.081  1.00  0.00     0.696 A 
HETATM    2  N2  UNL     1       8.862  39.057  -2.927  1.00  0.00    -0.148 N 
ATOM      3  H2  UNL     1       8.162  38.906  -2.201  1.00  0.00     0.188 HD
HETATM    4  C6  UNL     1       8.770  40.183  -3.707  1.00  0.00     0.287 A 
HETATM    5  N4  UNL     1       9.754  40.300  -4.653  1.00  0.00    -0.148 N 
ATOM      6  H4  UNL     1       9.739  41.116  -5.263  1.00  0.00     0.188 HD
HETATM    7  C12 UNL     1      10.728  39.410  -4.823  1.00  0.00     0.696 A 
HETATM    8  N7  UNL     1      10.764  38.320  -4.023  1.00  0.00    -0.022 N 
ATOM      9  H7  UNL     1      11.504  37.629  -4.140  1.00  0.00     0.203 HD
ENDROOT
BRANCH   7  10
HETATM   10  N5  UNL     1      11.666  39.486  -5.705  1.00  0.00    -0.225 N 
ATOM     11  H5  UNL     1      12.532  39.943  -5.418  1.00  0.00     0.177 HD
BRANCH  10  12
HETATM   12  C13 UNL     1      11.610  38.993  -7.046  1.00  0.00     0.139 C 
BRANCH  12  13
HETATM   13  C14 UNL     1      13.006  38.466  -7.398  1.00  0.00     0.048 C 
BRANCH  13  14
HETATM   14  C15 UNL     1      13.247  38.785  -8.860  1.00  0.00     0.234 C 
BRANCH  14  15
HETATM   15  N6  UNL     1      14.506  38.346  -9.358  1.00  0.00    -0.071 N 
ATOM     16  H62 UNL     1      15.237  39.036  -9.190  1.00  0.00     0.277 HD
ATOM     17  H61 UNL     1      14.882  37.579  -8.801  1.00  0.00     0.277 HD
BRANCH  15  18
HETATM   18  C16 UNL     1      14.421  37.997 -10.744  1.00  0.00     0.185 C 
HETATM   19  C17 UNL     1      14.312  39.181 -11.642  1.00  0.00     0.033 C 
HETATM   20  C18 UNL     1      14.091  38.698 -13.062  1.00  0.00     0.002 C 
HETATM   21  C19 UNL     1      14.359  37.215 -13.212  1.00  0.00     0.000 C 
HETATM   22  C20 UNL     1      13.465  36.398 -12.301  1.00  0.00     0.002 C 
HETATM   23  C21 UNL     1      13.165  37.143 -11.015  1.00  0.00     0.033 C 
ENDBRANCH  15  18
ENDBRANCH  14  15
ENDBRANCH  13  14
ENDBRANCH  12  13
ENDBRANCH  10  12
ENDBRANCH   7  10
BRANCH   4  24
HETATM   24  N3  UNL     1       7.927  41.012  -3.601  1.00  0.00    -0.383 NA
BRANCH  24  25
HETATM   25  C7  UNL     1       6.963  41.921  -3.469  1.00  0.00     0.186 C 
BRANCH  25  26
HETATM   26  C8  UNL     1       7.359  43.354  -3.347  1.00  0.00     0.030 C 
HETATM   27  C9  UNL     1       7.920  43.995  -4.316  1.00  0.00     0.009 C 
BRANCH  27  28
HETATM   28  C10 UNL     1       8.261  43.488  -5.647  1.00  0.00     0.164 C 
BRANCH  28  29
HETATM   29  O1  UNL     1       9.563  43.002  -5.771  1.00  0.00    -0.390 OA
ATOM     30  H1  UNL     1       9.629  42.136  -6.154  1.00  0.00     0.210 HD
ENDBRANCH  28  29
BRANCH  28  31
HETATM   31  C11 UNL     1       7.903  44.426  -6.784  1.00  0.00     0.199 C 
BRANCH  31  32
HETATM   32  O2  UNL     1       6.604  44.218  -7.201  1.00  0.00    -0.398 OA
ATOM     33  H2  UNL     1       6.441  43.293  -7.348  1.00  0.00     0.209 HD
ENDBRANCH  31  32
ENDBRANCH  28  31
ENDBRANCH  27  28
ENDBRANCH  25  26
ENDBRANCH  24  25
ENDBRANCH   4  24
BRANCH   1  34
HETATM   34  N1  UNL     1       9.881  37.104  -2.328  1.00  0.00    -0.225 N 
ATOM     35  H1  UNL     1      10.069  36.208  -2.778  1.00  0.00     0.177 HD
BRANCH  34  36
HETATM   36  C4  UNL     1       9.690  37.102  -0.913  1.00  0.00     0.138 C 
BRANCH  36  37
HETATM   37  C3  UNL     1      10.453  38.216  -0.263  1.00  0.00     0.020 C 
BRANCH  37  38
HETATM   38  C2  UNL     1       9.670  38.996   0.752  1.00  0.00    -0.003 C 
HETATM   39  C1  UNL     1       8.555  38.243   1.399  1.00  0.00     0.005 C 
ENDBRANCH  37  38
ENDBRANCH  36  37
ENDBRANCH  34  36
ENDBRANCH   1  34
TORSDOF 17
ENDMDL
MODEL 5
REMARK VINA RESULT: -7.494746016      0.896      1.047
REMARK  17 active torsions:
REMARK  status: ('A' for Active; 'I' for Inactive)
REMARK    1  A    between atoms: C2_2  and  C3_3 
REMARK    2  A    between atoms: C3_3  and  C4_4 
REMARK    3  A    between atoms: C4_4  and  N1_5 
REMARK    4  A    between atoms: N1_5  and  C5_7 
REMARK    5  A    between atoms: C6_10  and  N3_11 
REMARK    6  A    between atoms: N3_11  and  C7_12 
REMARK    7  A    between atoms: C7_12  and  C8_13 
REMARK    8  A    between atoms: C9_14  and  C10_15 
REMARK    9  A    between atoms: C10_15  and  O1_16 
REMARK   10  A    between atoms: C10_15  and  C11_18 
REMARK   11  A    between atoms: C11_18  and  O2_19 
REMARK   12  A    between atoms: C12_23  and  N5_24 
REMARK   13  A    between atoms: N5_24  and  C13_26 
REMARK   14  A    between atoms: C13_26  and  C14_27 
REMARK   15  A    between atoms: C14_27  and  C15_28 
REMARK   16  A    between atoms: C15_28  and  N6_29 
REMARK   17  A    between atoms: N6_29  and  C16_32 
ROOT
HETATM    1  C5  UNL     1      11.507  39.016  -5.638  1.00  0.00     0.696 A 
HETATM    2  N2  UNL     1      11.950  38.334  -6.706  1.00  0.00    -0.148 N 
ATOM      3  H2  UNL     1      12.142  37.337  -6.605  1.00  0.00     0.188 HD
HETATM    4  C6  UNL     1      12.155  38.923  -7.930  1.00  0.00     0.287 A 
HETATM    5  N4  UNL     1      11.870  40.263  -7.968  1.00  0.00    -0.148 N 
ATOM      6  H4  UNL     1      12.003  40.756  -8.851  1.00  0.00     0.188 HD
HETATM    7  C12 UNL     1      11.431  40.958  -6.923  1.00  0.00     0.696 A 
HETATM    8  N7  UNL     1      11.249  40.320  -5.744  1.00  0.00    -0.022 N 
ATOM      9  H7  UNL     1      10.912  40.838  -4.933  1.00  0.00     0.203 HD
ENDROOT
BRANCH   7  10
HETATM   10  N5  UNL     1      11.156  42.218  -6.923  1.00  0.00    -0.225 N 
ATOM     11  H5  UNL     1      11.258  42.712  -6.038  1.00  0.00     0.177 HD
BRANCH  10  12
HETATM   12  C13 UNL     1      10.722  42.989  -8.048  1.00  0.00     0.139 C 
BRANCH  12  13
HETATM   13  C14 UNL     1      11.429  44.347  -7.970  1.00  0.00     0.048 C 
BRANCH  13  14
HETATM   14  C15 UNL     1      12.870  44.123  -8.382  1.00  0.00     0.234 C 
BRANCH  14  15
HETATM   15  N6  UNL     1      13.031  43.331  -9.553  1.00  0.00    -0.071 N 
ATOM     16  H62 UNL     1      12.423  42.512  -9.538  1.00  0.00     0.277 HD
ATOM     17  H61 UNL     1      12.646  43.796 -10.376  1.00  0.00     0.277 HD
BRANCH  15  18
HETATM   18  C16 UNL     1      14.400  42.966  -9.748  1.00  0.00     0.185 C 
HETATM   19  C17 UNL     1      14.598  41.501  -9.933  1.00  0.00     0.033 C 
HETATM   20  C18 UNL     1      16.085  41.211  -9.992  1.00  0.00     0.002 C 
HETATM   21  C19 UNL     1      16.908  42.470 -10.168  1.00  0.00     0.000 C 
HETATM   22  C20 UNL     1      16.671  43.447  -9.034  1.00  0.00     0.002 C 
HETATM   23  C21 UNL     1      15.248  43.355  -8.518  1.00  0.00     0.033 C 
ENDBRANCH  15  18
ENDBRANCH  14  15
ENDBRANCH  13  14
ENDBRANCH  12  13
ENDBRANCH  10  12
ENDBRANCH   7  10
BRANCH   4  24
HETATM   24  N3  UNL     1      12.543  38.356  -8.897  1.00  0.00    -0.383 NA
BRANCH  24  25
HETATM   25  C7  UNL     1      13.002  37.708  -9.966  1.00  0.00     0.186 C 
BRANCH  25  26
HETATM   26  C8  UNL     1      14.385  37.152  -9.912  1.00  0.00     0.030 C 
HETATM   27  C9  UNL     1      14.865  36.416 -10.858  1.00  0.00     0.009 C 
BRANCH  27  28
HETATM   28  C10 UNL     1      14.202  36.004 -12.097  1.00  0.00     0.164 C 
BRANCH  28  29
HETATM   29  O1  UNL     1      13.970  34.633 -12.207  1.00  0.00    -0.390 OA
ATOM     30  H1  UNL     1      14.620  34.084 -11.783  1.00  0.00     0.210 HD
ENDBRANCH  28  29
BRANCH  28  31
HETATM   31  C11 UNL     1      14.827  36.569 -13.359  1.00  0.00     0.199 C 
BRANCH  31  32
HETATM   32  O2  UNL     1      14.598  35.735 -14.434  1.00  0.00    -0.398 OA
ATOM     33  H2  UNL     1      15.312  35.786 -15.059  1.00  0.00     0.209 HD
ENDBRANCH  31  32
ENDBRANCH  28  31
ENDBRANCH  27  28
ENDBRANCH  25  26
ENDBRANCH  24  25
ENDBRANCH   4  24
BRANCH   1  34
HETATM   34  N1  UNL     1      11.331  38.422  -4.511  1.00  0.00    -0.225 N 
ATOM     35  H1  UNL     1      11.792  37.522  -4.378  1.00  0.00     0.177 HD
BRANCH  34  36
HETATM   36  C4  UNL     1      10.542  38.921  -3.431  1.00  0.00     0.138 C 
BRANCH  36  37
HETATM   37  C3  UNL     1       9.625  37.863  -2.898  1.00  0.00     0.020 C 
BRANCH  37  38
HETATM   38  C2  UNL     1       9.908  37.448  -1.483  1.00  0.00    -0.003 C 
HETATM   39  C1  UNL     1       9.336  36.125  -1.091  1.00  0.00     0.005 C 
ENDBRANCH  37  38
ENDBRANCH  36  37
ENDBRANCH  34  36
ENDBRANCH   1  34
TORSDOF 17
ENDMDL
