MODEL 1
REMARK VINA RESULT: -6.540628065      0.000      0.000
REMARK  16 active torsions:
REMARK  status: ('A' for Active; 'I' for Inactive)
REMARK    1  A    between atoms: C2_2  and  C3_3 
REMARK    2  A    between atoms: N1_5  and  C5_6 
REMARK    3  A    between atoms: C5_6  and  C6_7 
REMARK    4  A    between atoms: C6_7  and  C7_8 
REMARK    5  A    between atoms: C7_8  and  C8_9 
REMARK    6  A    between atoms: C8_9  and  N2_10 
REMARK    7  A    between atoms: N2_10  and  C9_13 
REMARK    8  A    between atoms: C9_13  and  C10_14 
REMARK    9  A    between atoms: C10_14  and  C11_15 
REMARK   10  A    between atoms: C11_15  and  C12_16 
REMARK   11  A    between atoms: C12_16  and  N3_17 
REMARK   12  A    between atoms: C18_27  and  C19_28 
REMARK   13  A    between atoms: C19_28  and  O2_29 
REMARK   14  A    between atoms: C19_28  and  C20_31 
REMARK   15  A    between atoms: C20_31  and  C21_32 
REMARK   16  A    between atoms: C21_32  and  N4_33 
ROOT
HETATM    1  C3  UNL     1      14.820  39.816 -10.948  1.00  0.00     0.069 C 
HETATM    2  C4  UNL     1      14.080  41.064 -10.431  1.00  0.00     0.146 C 
HETATM    3  N1  UNL     1      12.980  40.548  -9.641  1.00  0.00    -0.351 N 
HETATM    4  C13 UNL     1      13.153  39.158  -9.445  1.00  0.00     0.225 C 
HETATM    5  O1  UNL     1      12.309  38.392  -8.957  1.00  0.00    -0.273 OA
HETATM    6  C14 UNL     1      14.485  38.829  -9.921  1.00  0.00     0.097 C 
HETATM    7  C15 UNL     1      14.695  37.392 -10.262  1.00  0.00     0.015 C 
HETATM    8  C16 UNL     1      13.550  36.788 -11.030  1.00  0.00     0.007 C 
HETATM    9  C17 UNL     1      14.128  36.304 -12.355  1.00  0.00     0.055 C 
HETATM   10  C18 UNL     1      13.844  37.244 -13.469  1.00  0.00     0.018 C 
HETATM   11  N5  UNL     1      13.765  38.641 -13.145  1.00  0.00    -0.331 N 
ATOM     12  H5  UNL     1      13.033  39.075 -13.708  1.00  0.00     0.168 HD
HETATM   13  C22 UNL     1      14.353  39.624 -12.311  1.00  0.00     0.233 C 
HETATM   14  O3  UNL     1      14.549  40.720 -12.962  1.00  0.00    -0.272 OA
ENDROOT
BRANCH   3  15
HETATM   15  C5  UNL     1      11.896  41.389  -9.148  1.00  0.00     0.126 C 
BRANCH  15  16
HETATM   16  C6  UNL     1      12.482  42.319  -8.096  1.00  0.00     0.022 C 
BRANCH  16  17
HETATM   17  C7  UNL     1      12.730  41.619  -6.791  1.00  0.00     0.029 C 
BRANCH  17  18
HETATM   18  C8  UNL     1      11.552  40.771  -6.376  1.00  0.00     0.232 C 
BRANCH  18  19
HETATM   19  N2  UNL     1      11.999  39.425  -6.022  1.00  0.00    -0.075 N 
ATOM     20  H22 UNL     1      12.478  38.968  -6.798  1.00  0.00     0.277 HD
ATOM     21  H21 UNL     1      12.773  39.444  -5.357  1.00  0.00     0.277 HD
BRANCH  19  22
HETATM   22  C9  UNL     1      10.885  38.633  -5.534  1.00  0.00     0.232 C 
BRANCH  22  23
HETATM   23  C10 UNL     1      10.210  39.293  -4.360  1.00  0.00     0.029 C 
BRANCH  23  24
HETATM   24  C11 UNL     1       9.713  38.269  -3.345  1.00  0.00     0.029 C 
BRANCH  24  25
HETATM   25  C12 UNL     1      10.289  38.637  -1.998  1.00  0.00     0.229 C 
BRANCH  25  26
HETATM   26  N3  UNL     1      11.600  39.190  -2.204  1.00  0.00    -0.079 N 
ATOM     27  H33 UNL     1      12.290  38.482  -2.458  1.00  0.00     0.274 HD
ATOM     28  H32 UNL     1      11.660  39.752  -3.053  1.00  0.00     0.274 HD
ATOM     29  H31 UNL     1      11.862  39.712  -1.368  1.00  0.00     0.274 HD
ENDBRANCH  25  26
ENDBRANCH  24  25
ENDBRANCH  23  24
ENDBRANCH  22  23
ENDBRANCH  19  22
ENDBRANCH  18  19
ENDBRANCH  17  18
ENDBRANCH  16  17
ENDBRANCH  15  16
ENDBRANCH   3  15
BRANCH   1  30
HETATM   30  C2  UNL     1      16.282  40.203 -10.991  1.00  0.00     0.017 C 
HETATM   31  C1  UNL     1      16.659  41.403 -10.213  1.00  0.00     0.006 C 
ENDBRANCH   1  30
BRANCH  10  32
HETATM   32  C19 UNL     1      14.550  36.978 -14.761  1.00  0.00     0.165 C 
BRANCH  32  33
HETATM   33  O2  UNL     1      14.716  35.609 -15.001  1.00  0.00    -0.390 OA
ATOM     34  H2  UNL     1      14.000  35.245 -15.508  1.00  0.00     0.210 HD
ENDBRANCH  32  33
BRANCH  32  35
HETATM   35  C20 UNL     1      15.828  37.664 -15.018  1.00  0.00     0.065 C 
BRANCH  35  36
HETATM   36  C21 UNL     1      17.054  36.794 -15.068  1.00  0.00     0.232 C 
BRANCH  36  37
HETATM   37  N4  UNL     1      17.462  36.356 -13.743  1.00  0.00    -0.079 N 
ATOM     38  H43 UNL     1      16.772  35.728 -13.331  1.00  0.00     0.274 HD
ATOM     39  H42 UNL     1      18.254  35.716 -13.792  1.00  0.00     0.274 HD
ATOM     40  H41 UNL     1      17.660  37.145 -13.127  1.00  0.00     0.274 HD
ENDBRANCH  36  37
ENDBRANCH  35  36
ENDBRANCH  32  35
ENDBRANCH  10  32
TORSDOF 16
ENDMDL
MODEL 2
REMARK VINA RESULT: -6.505884553      2.103      3.517
REMARK  16 active torsions:
REMARK  status: ('A' for Active; 'I' for Inactive)
REMARK    1  A    between atoms: C2_2  and  C3_3 
REMARK    2  A    between atoms: N1_5  and  C5_6 
REMARK    3  A    between atoms: C5_6  and  C6_7 
REMARK    4  A    between atoms: C6_7  and  C7_8 
REMARK    5  A    between atoms: C7_8  and  C8_9 
REMARK    6  A    between atoms: C8_9  and  N2_10 
REMARK    7  A    between atoms: N2_10  and  C9_13 
REMARK    8  A    between atoms: C9_13  and  C10_14 
REMARK    9  A    between atoms: C10_14  and  C11_15 
REMARK   10  A    between atoms: C11_15  and  C12_16 
REMARK   11  A    between atoms: C12_16  and  N3_17 
REMARK   12  A    between atoms: C18_27  and  C19_28 
REMARK   13  A    between atoms: C19_28  and  O2_29 
REMARK   14  A    between atoms: C19_28  and  C20_31 
REMARK   15  A    between atoms: C20_31  and  C21_32 
REMARK   16  A    between atoms: C21_32  and  N4_33 
ROOT
HETATM    1  C3  UNL     1      14.035  37.271 -11.863  1.00  0.00     0.069 C 
HETATM    2  C4  UNL     1      13.685  37.172 -10.367  1.00  0.00     0.146 C 
HETATM    3  N1  UNL     1      13.815  38.524  -9.860  1.00  0.00    -0.351 N 
HETATM    4  C13 UNL     1      13.958  39.421 -10.943  1.00  0.00     0.225 C 
HETATM    5  O1  UNL     1      14.255  40.621 -10.847  1.00  0.00    -0.273 OA
HETATM    6  C14 UNL     1      13.691  38.664 -12.154  1.00  0.00     0.097 C 
HETATM    7  C15 UNL     1      14.248  39.257 -13.404  1.00  0.00     0.015 C 
HETATM    8  C16 UNL     1      15.652  39.775 -13.244  1.00  0.00     0.007 C 
HETATM    9  C17 UNL     1      16.511  39.005 -14.241  1.00  0.00     0.055 C 
HETATM   10  C18 UNL     1      17.278  37.909 -13.595  1.00  0.00     0.018 C 
HETATM   11  N5  UNL     1      16.672  37.264 -12.463  1.00  0.00    -0.331 N 
ATOM     12  H5  UNL     1      17.396  37.039 -11.780  1.00  0.00     0.168 HD
HETATM   13  C22 UNL     1      15.417  36.834 -11.970  1.00  0.00     0.233 C 
HETATM   14  O3  UNL     1      15.511  35.665 -11.432  1.00  0.00    -0.272 OA
ENDROOT
BRANCH   3  15
HETATM   15  C5  UNL     1      13.789  38.842  -8.437  1.00  0.00     0.126 C 
BRANCH  15  16
HETATM   16  C6  UNL     1      12.352  38.685  -7.961  1.00  0.00     0.022 C 
BRANCH  16  17
HETATM   17  C7  UNL     1      12.269  38.289  -6.515  1.00  0.00     0.029 C 
BRANCH  17  18
HETATM   18  C8  UNL     1      11.142  38.998  -5.803  1.00  0.00     0.232 C 
BRANCH  18  19
HETATM   19  N2  UNL     1      11.250  38.794  -4.360  1.00  0.00    -0.075 N 
ATOM     20  H22 UNL     1      11.681  37.897  -4.134  1.00  0.00     0.277 HD
ATOM     21  H21 UNL     1      11.948  39.408  -3.940  1.00  0.00     0.277 HD
BRANCH  19  22
HETATM   22  C9  UNL     1       9.951  38.942  -3.729  1.00  0.00     0.232 C 
BRANCH  22  23
HETATM   23  C10 UNL     1       9.655  37.798  -2.794  1.00  0.00     0.029 C 
BRANCH  23  24
HETATM   24  C11 UNL     1       9.626  38.251  -1.338  1.00  0.00     0.029 C 
BRANCH  24  25
HETATM   25  C12 UNL     1       8.932  37.177  -0.535  1.00  0.00     0.229 C 
BRANCH  25  26
HETATM   26  N3  UNL     1       9.326  35.896  -1.056  1.00  0.00    -0.079 N 
ATOM     27  H33 UNL     1       9.062  35.772  -2.034  1.00  0.00     0.274 HD
ATOM     28  H32 UNL     1      10.336  35.815  -1.174  1.00  0.00     0.274 HD
ATOM     29  H31 UNL     1       8.942  35.172  -0.450  1.00  0.00     0.274 HD
ENDBRANCH  25  26
ENDBRANCH  24  25
ENDBRANCH  23  24
ENDBRANCH  22  23
ENDBRANCH  19  22
ENDBRANCH  18  19
ENDBRANCH  17  18
ENDBRANCH  16  17
ENDBRANCH  15  16
ENDBRANCH   3  15
BRANCH   1  30
HETATM   30  C2  UNL     1      13.154  36.253 -12.552  1.00  0.00     0.017 C 
HETATM   31  C1  UNL     1      13.431  36.017 -13.985  1.00  0.00     0.006 C 
ENDBRANCH   1  30
BRANCH  10  32
HETATM   32  C19 UNL     1      17.978  36.957 -14.512  1.00  0.00     0.165 C 
BRANCH  32  33
HETATM   33  O2  UNL     1      19.109  37.529 -15.105  1.00  0.00    -0.390 OA
ATOM     34  H2  UNL     1      19.856  36.942 -15.095  1.00  0.00     0.210 HD
ENDBRANCH  32  33
BRANCH  32  35
HETATM   35  C20 UNL     1      17.190  36.274 -15.552  1.00  0.00     0.065 C 
BRANCH  35  36
HETATM   36  C21 UNL     1      17.870  35.140 -16.269  1.00  0.00     0.232 C 
BRANCH  36  37
HETATM   37  N4  UNL     1      18.847  34.473 -15.422  1.00  0.00    -0.079 N 
ATOM     38  H43 UNL     1      19.595  35.109 -15.148  1.00  0.00     0.274 HD
ATOM     39  H42 UNL     1      18.461  34.270 -14.500  1.00  0.00     0.274 HD
ATOM     40  H41 UNL     1      19.218  33.631 -15.862  1.00  0.00     0.274 HD
ENDBRANCH  36  37
ENDBRANCH  35  36
ENDBRANCH  32  35
ENDBRANCH  10  32
TORSDOF 16
ENDMDL
MODEL 3
REMARK VINA RESULT: -6.358306142      2.383      8.479
REMARK  16 active torsions:
REMARK  status: ('A' for Active; 'I' for Inactive)
REMARK    1  A    between atoms: C2_2  and  C3_3 
REMARK    2  A    between atoms: N1_5  and  C5_6 
REMARK    3  A    between atoms: C5_6  and  C6_7 
REMARK    4  A    between atoms: C6_7  and  C7_8 
REMARK    5  A    between atoms: C7_8  and  C8_9 
REMARK    6  A    between atoms: C8_9  and  N2_10 
REMARK    7  A    between atoms: N2_10  and  C9_13 
REMARK    8  A    between atoms: C9_13  and  C10_14 
REMARK    9  A    between atoms: C10_14  and  C11_15 
REMARK   10  A    between atoms: C11_15  and  C12_16 
REMARK   11  A    between atoms: C12_16  and  N3_17 
REMARK   12  A    between atoms: C18_27  and  C19_28 
REMARK   13  A    between atoms: C19_28  and  O2_29 
REMARK   14  A    between atoms: C19_28  and  C20_31 
REMARK   15  A    between atoms: C20_31  and  C21_32 
REMARK   16  A    between atoms: C21_32  and  N4_33 
ROOT
HETATM    1  C3  UNL     1      14.936  39.979 -12.368  1.00  0.00     0.069 C 
HETATM    2  C4  UNL     1      16.340  40.299 -12.913  1.00  0.00     0.146 C 
HETATM    3  N1  UNL     1      16.901  39.016 -13.285  1.00  0.00    -0.351 N 
HETATM    4  C13 UNL     1      15.887  38.031 -13.246  1.00  0.00     0.225 C 
HETATM    5  O1  UNL     1      16.070  36.809 -13.348  1.00  0.00    -0.273 OA
HETATM    6  C14 UNL     1      14.627  38.731 -13.066  1.00  0.00     0.097 C 
HETATM    7  C15 UNL     1      13.516  37.899 -12.519  1.00  0.00     0.015 C 
HETATM    8  C16 UNL     1      13.944  37.007 -11.385  1.00  0.00     0.007 C 
HETATM    9  C17 UNL     1      13.098  37.405 -10.180  1.00  0.00     0.055 C 
HETATM   10  C18 UNL     1      13.842  38.275  -9.234  1.00  0.00     0.018 C 
HETATM   11  N5  UNL     1      14.826  39.161  -9.792  1.00  0.00    -0.331 N 
ATOM     12  H5  UNL     1      15.623  39.218  -9.157  1.00  0.00     0.168 HD
HETATM   13  C22 UNL     1      15.071  39.980 -10.921  1.00  0.00     0.233 C 
HETATM   14  O3  UNL     1      15.583  41.109 -10.566  1.00  0.00    -0.272 OA
ENDROOT
BRANCH   3  15
HETATM   15  C5  UNL     1      18.304  38.838 -13.642  1.00  0.00     0.126 C 
BRANCH  15  16
HETATM   16  C6  UNL     1      18.456  39.228 -15.105  1.00  0.00     0.022 C 
BRANCH  16  17
HETATM   17  C7  UNL     1      18.197  38.076 -16.033  1.00  0.00     0.029 C 
BRANCH  17  18
HETATM   18  C8  UNL     1      18.818  36.797 -15.527  1.00  0.00     0.232 C 
BRANCH  18  19
HETATM   19  N2  UNL     1      17.810  35.742 -15.449  1.00  0.00    -0.075 N 
ATOM     20  H22 UNL     1      18.184  34.888 -15.036  1.00  0.00     0.277 HD
ATOM     21  H21 UNL     1      17.097  35.949 -14.749  1.00  0.00     0.277 HD
BRANCH  19  22
HETATM   22  C9  UNL     1      17.228  35.500 -16.757  1.00  0.00     0.232 C 
BRANCH  22  23
HETATM   23  C10 UNL     1      15.746  35.246 -16.666  1.00  0.00     0.029 C 
BRANCH  23  24
HETATM   24  C11 UNL     1      14.944  36.538 -16.757  1.00  0.00     0.029 C 
BRANCH  24  25
HETATM   25  C12 UNL     1      13.602  36.295 -16.107  1.00  0.00     0.229 C 
BRANCH  25  26
HETATM   26  N3  UNL     1      13.798  35.433 -14.974  1.00  0.00    -0.079 N 
ATOM     27  H33 UNL     1      13.690  34.446 -15.208  1.00  0.00     0.274 HD
ATOM     28  H32 UNL     1      14.772  35.399 -14.671  1.00  0.00     0.274 HD
ATOM     29  H31 UNL     1      13.167  35.733 -14.231  1.00  0.00     0.274 HD
ENDBRANCH  25  26
ENDBRANCH  24  25
ENDBRANCH  23  24
ENDBRANCH  22  23
ENDBRANCH  19  22
ENDBRANCH  18  19
ENDBRANCH  17  18
ENDBRANCH  16  17
ENDBRANCH  15  16
ENDBRANCH   3  15
BRANCH   1  30
HETATM   30  C2  UNL     1      14.070  41.152 -12.771  1.00  0.00     0.017 C 
HETATM   31  C1  UNL     1      13.828  41.313 -14.222  1.00  0.00     0.006 C 
ENDBRANCH   1  30
BRANCH  10  32
HETATM   32  C19 UNL     1      13.041  38.901  -8.136  1.00  0.00     0.165 C 
BRANCH  32  33
HETATM   33  O2  UNL     1      11.821  38.247  -7.933  1.00  0.00    -0.390 OA
ATOM     34  H2  UNL     1      11.598  38.180  -7.012  1.00  0.00     0.210 HD
ENDBRANCH  32  33
BRANCH  32  35
HETATM   35  C20 UNL     1      12.801  40.353  -8.181  1.00  0.00     0.065 C 
BRANCH  35  36
HETATM   36  C21 UNL     1      11.674  40.870  -7.328  1.00  0.00     0.232 C 
BRANCH  36  37
HETATM   37  N4  UNL     1      11.878  40.568  -5.921  1.00  0.00    -0.079 N 
ATOM     38  H43 UNL     1      12.526  39.789  -5.798  1.00  0.00     0.274 HD
ATOM     39  H42 UNL     1      12.418  41.300  -5.459  1.00  0.00     0.274 HD
ATOM     40  H41 UNL     1      10.997  40.397  -5.437  1.00  0.00     0.274 HD
ENDBRANCH  36  37
ENDBRANCH  35  36
ENDBRANCH  32  35
ENDBRANCH  10  32
TORSDOF 16
ENDMDL
MODEL 4
REMARK VINA RESULT: -6.345156302      4.413      8.737
REMARK  16 active torsions:
REMARK  status: ('A' for Active; 'I' for Inactive)
REMARK    1  A    between atoms: C2_2  and  C3_3 
REMARK    2  A    between atoms: N1_5  and  C5_6 
REMARK    3  A    between atoms: C5_6  and  C6_7 
REMARK    4  A    between atoms: C6_7  and  C7_8 
REMARK    5  A    between atoms: C7_8  and  C8_9 
REMARK    6  A    between atoms: C8_9  and  N2_10 
REMARK    7  A    between atoms: N2_10  and  C9_13 
REMARK    8  A    between atoms: C9_13  and  C10_14 
REMARK    9  A    between atoms: C10_14  and  C11_15 
REMARK   10  A    between atoms: C11_15  and  C12_16 
REMARK   11  A    between atoms: C12_16  and  N3_17 
REMARK   12  A    between atoms: C18_27  and  C19_28 
REMARK   13  A    between atoms: C19_28  and  O2_29 
REMARK   14  A    between atoms: C19_28  and  C20_31 
REMARK   15  A    between atoms: C20_31  and  C21_32 
REMARK   16  A    between atoms: C21_32  and  N4_33 
ROOT
HETATM    1  C3  UNL     1      13.238  42.158  -9.285  1.00  0.00     0.069 C 
HETATM    2  C4  UNL     1      14.205  43.346  -9.136  1.00  0.00     0.146 C 
HETATM    3  N1  UNL     1      15.518  42.801  -9.418  1.00  0.00    -0.351 N 
HETATM    4  C13 UNL     1      15.381  41.498  -9.951  1.00  0.00     0.225 C 
HETATM    5  O1  UNL     1      16.310  40.699 -10.141  1.00  0.00    -0.273 OA
HETATM    6  C14 UNL     1      13.967  41.300 -10.220  1.00  0.00     0.097 C 
HETATM    7  C15 UNL     1      13.537  39.875 -10.318  1.00  0.00     0.015 C 
HETATM    8  C16 UNL     1      14.136  38.999  -9.251  1.00  0.00     0.007 C 
HETATM    9  C17 UNL     1      12.966  38.409  -8.471  1.00  0.00     0.055 C 
HETATM   10  C18 UNL     1      12.734  39.115  -7.185  1.00  0.00     0.018 C 
HETATM   11  N5  UNL     1      13.039  40.518  -7.143  1.00  0.00    -0.331 N 
ATOM     12  H5  UNL     1      13.434  40.747  -6.231  1.00  0.00     0.168 HD
HETATM   13  C22 UNL     1      12.980  41.692  -7.933  1.00  0.00     0.233 C 
HETATM   14  O3  UNL     1      12.560  42.693  -7.236  1.00  0.00    -0.272 OA
ENDROOT
BRANCH   3  15
HETATM   15  C5  UNL     1      16.751  43.538  -9.172  1.00  0.00     0.126 C 
BRANCH  15  16
HETATM   16  C6  UNL     1      16.544  44.367  -7.913  1.00  0.00     0.022 C 
BRANCH  16  17
HETATM   17  C7  UNL     1      17.614  45.404  -7.729  1.00  0.00     0.029 C 
BRANCH  17  18
HETATM   18  C8  UNL     1      18.666  45.321  -8.809  1.00  0.00     0.232 C 
BRANCH  18  19
HETATM   19  N2  UNL     1      19.998  45.486  -8.229  1.00  0.00    -0.075 N 
ATOM     20  H22 UNL     1      20.221  46.467  -8.062  1.00  0.00     0.277 HD
ATOM     21  H21 UNL     1      20.036  45.156  -7.265  1.00  0.00     0.277 HD
BRANCH  19  22
HETATM   22  C9  UNL     1      20.996  44.840  -9.062  1.00  0.00     0.232 C 
BRANCH  22  23
HETATM   23  C10 UNL     1      22.101  44.237  -8.235  1.00  0.00     0.029 C 
BRANCH  23  24
HETATM   24  C11 UNL     1      23.478  44.654  -8.740  1.00  0.00     0.029 C 
BRANCH  24  25
HETATM   25  C12 UNL     1      23.531  46.163  -8.744  1.00  0.00     0.229 C 
BRANCH  25  26
HETATM   26  N3  UNL     1      23.565  46.617  -7.380  1.00  0.00    -0.079 N 
ATOM     27  H33 UNL     1      23.723  45.858  -6.717  1.00  0.00     0.274 HD
ATOM     28  H32 UNL     1      24.401  47.162  -7.169  1.00  0.00     0.274 HD
ATOM     29  H31 UNL     1      22.704  47.131  -7.192  1.00  0.00     0.274 HD
ENDBRANCH  25  26
ENDBRANCH  24  25
ENDBRANCH  23  24
ENDBRANCH  22  23
ENDBRANCH  19  22
ENDBRANCH  18  19
ENDBRANCH  17  18
ENDBRANCH  16  17
ENDBRANCH  15  16
ENDBRANCH   3  15
BRANCH   1  30
HETATM   30  C2  UNL     1      11.960  42.746  -9.842  1.00  0.00     0.017 C 
HETATM   31  C1  UNL     1      12.071  43.410 -11.159  1.00  0.00     0.006 C 
ENDBRANCH   1  30
BRANCH  10  32
HETATM   32  C19 UNL     1      11.480  38.762  -6.449  1.00  0.00     0.165 C 
BRANCH  32  33
HETATM   33  O2  UNL     1      10.402  38.543  -7.315  1.00  0.00    -0.390 OA
ATOM     34  H2  UNL     1       9.732  39.210  -7.229  1.00  0.00     0.210 HD
ENDBRANCH  32  33
BRANCH  32  35
HETATM   35  C20 UNL     1      11.038  39.639  -5.352  1.00  0.00     0.065 C 
BRANCH  35  36
HETATM   36  C21 UNL     1      10.536  38.955  -4.110  1.00  0.00     0.232 C 
BRANCH  36  37
HETATM   37  N4  UNL     1      11.455  39.116  -2.995  1.00  0.00    -0.079 N 
ATOM     38  H43 UNL     1      12.393  38.797  -3.238  1.00  0.00     0.274 HD
ATOM     39  H42 UNL     1      11.659  40.100  -2.822  1.00  0.00     0.274 HD
ATOM     40  H41 UNL     1      11.114  38.655  -2.152  1.00  0.00     0.274 HD
ENDBRANCH  36  37
ENDBRANCH  35  36
ENDBRANCH  32  35
ENDBRANCH  10  32
TORSDOF 16
ENDMDL
MODEL 5
REMARK VINA RESULT: -6.276365821      2.325      7.325
REMARK  16 active torsions:
REMARK  status: ('A' for Active; 'I' for Inactive)
REMARK    1  A    between atoms: C2_2  and  C3_3 
REMARK    2  A    between atoms: N1_5  and  C5_6 
REMARK    3  A    between atoms: C5_6  and  C6_7 
REMARK    4  A    between atoms: C6_7  and  C7_8 
REMARK    5  A    between atoms: C7_8  and  C8_9 
REMARK    6  A    between atoms: C8_9  and  N2_10 
REMARK    7  A    between atoms: N2_10  and  C9_13 
REMARK    8  A    between atoms: C9_13  and  C10_14 
REMARK    9  A    between atoms: C10_14  and  C11_15 
REMARK   10  A    between atoms: C11_15  and  C12_16 
REMARK   11  A    between atoms: C12_16  and  N3_17 
REMARK   12  A    between atoms: C18_27  and  C19_28 
REMARK   13  A    between atoms: C19_28  and  O2_29 
REMARK   14  A    between atoms: C19_28  and  C20_31 
REMARK   15  A    between atoms: C20_31  and  C21_32 
REMARK   16  A    between atoms: C21_32  and  N4_33 
ROOT
HETATM    1  C3  UNL     1      14.712  42.273 -10.013  1.00  0.00     0.069 C 
HETATM    2  C4  UNL     1      15.448  41.695 -11.236  1.00  0.00     0.146 C 
HETATM    3  N1  UNL     1      14.562  41.938 -12.357  1.00  0.00    -0.351 N 
HETATM    4  C13 UNL     1      13.521  42.805 -11.955  1.00  0.00     0.225 C 
HETATM    5  O1  UNL     1      12.513  43.076 -12.625  1.00  0.00    -0.273 OA
HETATM    6  C14 UNL     1      13.870  43.297 -10.633  1.00  0.00     0.097 C 
HETATM    7  C15 UNL     1      12.725  43.817  -9.831  1.00  0.00     0.015 C 
HETATM    8  C16 UNL     1      11.499  42.948  -9.910  1.00  0.00     0.007 C 
HETATM    9  C17 UNL     1      11.190  42.506  -8.484  1.00  0.00     0.055 C 
HETATM   10  C18 UNL     1      11.654  41.122  -8.211  1.00  0.00     0.018 C 
HETATM   11  N5  UNL     1      12.832  40.677  -8.902  1.00  0.00    -0.331 N 
ATOM     12  H5  UNL     1      12.723  39.693  -9.149  1.00  0.00     0.168 HD
HETATM   13  C22 UNL     1      14.093  41.134  -9.357  1.00  0.00     0.233 C 
HETATM   14  O3  UNL     1      15.011  40.260  -9.117  1.00  0.00    -0.272 OA
ENDROOT
BRANCH   3  15
HETATM   15  C5  UNL     1      14.774  41.351 -13.675  1.00  0.00     0.126 C 
BRANCH  15  16
HETATM   16  C6  UNL     1      14.316  39.901 -13.608  1.00  0.00     0.022 C 
BRANCH  16  17
HETATM   17  C7  UNL     1      15.413  38.939 -13.961  1.00  0.00     0.029 C 
BRANCH  17  18
HETATM   18  C8  UNL     1      16.383  38.751 -12.820  1.00  0.00     0.232 C 
BRANCH  18  19
HETATM   19  N2  UNL     1      16.674  37.331 -12.634  1.00  0.00    -0.075 N 
ATOM     20  H22 UNL     1      17.512  37.045 -13.140  1.00  0.00     0.277 HD
ATOM     21  H21 UNL     1      16.994  37.130 -11.686  1.00  0.00     0.277 HD
BRANCH  19  22
HETATM   22  C9  UNL     1      15.522  36.526 -12.998  1.00  0.00     0.232 C 
BRANCH  22  23
HETATM   23  C10 UNL     1      14.774  36.048 -11.781  1.00  0.00     0.029 C 
BRANCH  23  24
HETATM   24  C11 UNL     1      13.392  36.683 -11.680  1.00  0.00     0.029 C 
BRANCH  24  25
HETATM   25  C12 UNL     1      13.336  37.464 -10.389  1.00  0.00     0.229 C 
BRANCH  25  26
HETATM   26  N3  UNL     1      14.563  37.243  -9.673  1.00  0.00    -0.079 N 
ATOM     27  H33 UNL     1      14.719  36.258  -9.457  1.00  0.00     0.274 HD
ATOM     28  H32 UNL     1      15.388  37.390 -10.255  1.00  0.00     0.274 HD
ATOM     29  H31 UNL     1      14.559  37.832  -8.841  1.00  0.00     0.274 HD
ENDBRANCH  25  26
ENDBRANCH  24  25
ENDBRANCH  23  24
ENDBRANCH  22  23
ENDBRANCH  19  22
ENDBRANCH  18  19
ENDBRANCH  17  18
ENDBRANCH  16  17
ENDBRANCH  15  16
ENDBRANCH   3  15
BRANCH   1  30
HETATM   30  C2  UNL     1      15.796  42.817  -9.110  1.00  0.00     0.017 C 
HETATM   31  C1  UNL     1      16.991  43.365  -9.788  1.00  0.00     0.006 C 
ENDBRANCH   1  30
BRANCH  10  32
HETATM   32  C19 UNL     1      11.600  40.672  -6.785  1.00  0.00     0.165 C 
BRANCH  32  33
HETATM   33  O2  UNL     1      12.615  41.245  -6.011  1.00  0.00    -0.390 OA
ATOM     34  H2  UNL     1      12.970  42.031  -6.409  1.00  0.00     0.210 HD
ENDBRANCH  32  33
BRANCH  32  35
HETATM   35  C20 UNL     1      11.547  39.226  -6.506  1.00  0.00     0.065 C 
BRANCH  35  36
HETATM   36  C21 UNL     1      10.721  38.805  -5.322  1.00  0.00     0.232 C 
BRANCH  36  37
HETATM   37  N4  UNL     1      11.387  39.102  -4.064  1.00  0.00    -0.079 N 
ATOM     38  H43 UNL     1      10.719  39.393  -3.350  1.00  0.00     0.274 HD
ATOM     39  H42 UNL     1      11.737  38.253  -3.621  1.00  0.00     0.274 HD
ATOM     40  H41 UNL     1      12.129  39.791  -4.180  1.00  0.00     0.274 HD
ENDBRANCH  36  37
ENDBRANCH  35  36
ENDBRANCH  32  35
ENDBRANCH  10  32
TORSDOF 16
ENDMDL
