MODEL 1
REMARK VINA RESULT: -8.140542949      0.000      0.000
REMARK  14 active torsions:
REMARK  status: ('A' for Active; 'I' for Inactive)
REMARK       I    between atoms: N1_1  and  C1_4 
REMARK       I    between atoms: C1_4  and  N3_6 
REMARK    1  A    between atoms: N3_6  and  C2_8 
REMARK    2  A    between atoms: C3_11  and  O1_12 
REMARK    3  A    between atoms: O1_12  and  C4_13 
REMARK    4  A    between atoms: C4_13  and  C5_14 
REMARK    5  A    between atoms: C5_14  and  C6_15 
REMARK    6  A    between atoms: C6_15  and  C7_16 
REMARK    7  A    between atoms: C7_16  and  C8_17 
REMARK    8  A    between atoms: C8_17  and  C9_18 
REMARK    9  A    between atoms: C10_23  and  N7_24 
REMARK   10  A    between atoms: C11_26  and  C12_27 
REMARK   11  A    between atoms: C12_27  and  C13_28 
REMARK   12  A    between atoms: C13_28  and  C14_29 
REMARK   13  A    between atoms: C14_29  and  N8_30 
REMARK   14  A    between atoms: N8_30  and  C15_32 
ROOT
HETATM    1  C2  UNL     1      11.154 -40.555   6.032  1.00  0.00     0.702 A 
HETATM    2  N4  UNL     1      10.438 -39.964   5.062  1.00  0.00    -0.153 N 
ATOM      3  H4  UNL     1       9.702 -40.480   4.580  1.00  0.00     0.188 HD
HETATM    4  C3  UNL     1      10.697 -38.691   4.733  1.00  0.00     0.252 A 
HETATM    5  N6  UNL     1      11.678 -38.046   5.400  1.00  0.00    -0.154 N 
ATOM      6  H6  UNL     1      11.862 -37.078   5.139  1.00  0.00     0.188 HD
HETATM    7  C10 UNL     1      12.430 -38.573   6.376  1.00  0.00     0.699 A 
HETATM    8  N9  UNL     1      12.112 -39.901   6.671  1.00  0.00    -0.022 N 
ATOM      9  H9  UNL     1      12.635 -40.382   7.402  1.00  0.00     0.203 HD
ENDROOT
BRANCH   7  10
HETATM   10  N7  UNL     1      13.331 -38.046   7.017  1.00  0.00    -0.205 N 
HETATM   11  C11 UNL     1      13.818 -37.802   8.265  1.00  0.00     0.079 C 
ATOM     12  H7  UNL     1      13.972 -37.618   6.349  1.00  0.00     0.183 HD
BRANCH  11  13
HETATM   13  C12 UNL     1      13.076 -38.295   9.462  1.00  0.00     0.046 C 
BRANCH  13  14
HETATM   14  C13 UNL     1      13.464 -39.596  10.045  1.00  0.00     0.024 C 
BRANCH  14  15
HETATM   15  C14 UNL     1      14.152 -39.601  11.346  1.00  0.00     0.114 C 
BRANCH  15  16
HETATM   16  N8  UNL     1      15.335 -38.842  11.502  1.00  0.00    -0.417 N 
ATOM     17  H8  UNL     1      16.069 -38.845  10.794  1.00  0.00     0.153 HD
BRANCH  16  18
HETATM   18  C15 UNL     1      15.452 -38.072  12.700  1.00  0.00     0.076 C 
HETATM   19  C16 UNL     1      15.921 -36.662  12.435  1.00  0.00     0.024 C 
HETATM   20  C17 UNL     1      14.913 -35.967  11.578  1.00  0.00     0.002 C 
HETATM   21  C18 UNL     1      13.691 -35.692  12.421  1.00  0.00     0.000 C 
HETATM   22  C19 UNL     1      13.691 -36.556  13.662  1.00  0.00     0.002 C 
HETATM   23  C20 UNL     1      14.059 -37.978  13.313  1.00  0.00     0.024 C 
ENDBRANCH  16  18
ENDBRANCH  15  16
ENDBRANCH  14  15
ENDBRANCH  13  14
ENDBRANCH  11  13
ENDBRANCH   7  10
BRANCH   4  24
HETATM   24  O1  UNL     1       9.969 -38.086   3.743  1.00  0.00    -0.321 OA
BRANCH  24  25
HETATM   25  C4  UNL     1      10.166 -38.057   2.387  1.00  0.00     0.178 C 
BRANCH  25  26
HETATM   26  C5  UNL     1      10.801 -39.272   1.764  1.00  0.00     0.027 C 
BRANCH  26  27
HETATM   27  C6  UNL     1       9.826 -40.056   0.925  1.00  0.00     0.002 C 
BRANCH  27  28
HETATM   28  C7  UNL     1       9.813 -41.503   1.142  1.00  0.00     0.009 C 
BRANCH  28  29
HETATM   29  C8  UNL     1       8.655 -42.156   1.751  1.00  0.00     0.099 C 
BRANCH  29  30
HETATM   30  C9  UNL     1       8.450 -41.854   3.187  1.00  0.00     0.231 C 
HETATM   31  N5  UNL     1       7.668 -40.751   3.633  1.00  0.00    -0.062 NA
HETATM   32  O2  UNL     1       8.985 -42.602   4.043  1.00  0.00    -0.277 OA
ENDBRANCH  29  30
ENDBRANCH  28  29
ENDBRANCH  27  28
ENDBRANCH  26  27
ENDBRANCH  25  26
ENDBRANCH  24  25
ENDBRANCH   4  24
BRANCH   1  33
HETATM   33  N3  UNL     1      10.948 -41.796   6.394  1.00  0.00    -0.163 N 
HETATM   34  C1  UNL     1      11.759 -42.304   7.450  1.00  0.00     0.200 C 
HETATM   35  N1  UNL     1      11.234 -42.338   8.612  1.00  0.00    -0.373 N 
HETATM   36  N2  UNL     1      13.089 -42.753   7.236  1.00  0.00    -0.063 NA
ATOM     37  H12 UNL     1      11.814 -42.701   9.367  1.00  0.00     0.158 HD
ATOM     38  H11 UNL     1      10.279 -42.016   8.765  1.00  0.00     0.158 HD
ATOM     39  H3  UNL     1      10.240 -42.373   5.941  1.00  0.00     0.187 HD
ENDBRANCH   1  33
TORSDOF 14
ENDMDL
MODEL 2
REMARK VINA RESULT: -7.738110588      2.535      5.232
REMARK  14 active torsions:
REMARK  status: ('A' for Active; 'I' for Inactive)
REMARK       I    between atoms: N1_1  and  C1_4 
REMARK       I    between atoms: C1_4  and  N3_6 
REMARK    1  A    between atoms: N3_6  and  C2_8 
REMARK    2  A    between atoms: C3_11  and  O1_12 
REMARK    3  A    between atoms: O1_12  and  C4_13 
REMARK    4  A    between atoms: C4_13  and  C5_14 
REMARK    5  A    between atoms: C5_14  and  C6_15 
REMARK    6  A    between atoms: C6_15  and  C7_16 
REMARK    7  A    between atoms: C7_16  and  C8_17 
REMARK    8  A    between atoms: C8_17  and  C9_18 
REMARK    9  A    between atoms: C10_23  and  N7_24 
REMARK   10  A    between atoms: C11_26  and  C12_27 
REMARK   11  A    between atoms: C12_27  and  C13_28 
REMARK   12  A    between atoms: C13_28  and  C14_29 
REMARK   13  A    between atoms: C14_29  and  N8_30 
REMARK   14  A    between atoms: N8_30  and  C15_32 
ROOT
HETATM    1  C2  UNL     1      11.099 -38.899   4.800  1.00  0.00     0.702 A 
HETATM    2  N4  UNL     1      10.752 -40.158   5.116  1.00  0.00    -0.153 N 
ATOM      3  H4  UNL     1      10.075 -40.663   4.545  1.00  0.00     0.188 HD
HETATM    4  C3  UNL     1      11.303 -40.745   6.188  1.00  0.00     0.252 A 
HETATM    5  N6  UNL     1      12.197 -40.039   6.913  1.00  0.00    -0.154 N 
ATOM      6  H6  UNL     1      12.608 -40.499   7.724  1.00  0.00     0.188 HD
HETATM    7  C10 UNL     1      12.588 -38.783   6.656  1.00  0.00     0.699 A 
HETATM    8  N9  UNL     1      11.978 -38.228   5.529  1.00  0.00    -0.022 N 
ATOM      9  H9  UNL     1      12.217 -37.274   5.258  1.00  0.00     0.203 HD
ENDROOT
BRANCH   7  10
HETATM   10  N7  UNL     1      13.390 -38.090   7.271  1.00  0.00    -0.205 N 
HETATM   11  C11 UNL     1      13.812 -37.703   8.506  1.00  0.00     0.079 C 
ATOM     12  H7  UNL     1      13.974 -37.613   6.584  1.00  0.00     0.183 HD
BRANCH  11  13
HETATM   13  C12 UNL     1      13.129 -38.227   9.724  1.00  0.00     0.046 C 
BRANCH  13  14
HETATM   14  C13 UNL     1      13.553 -39.537  10.261  1.00  0.00     0.024 C 
BRANCH  14  15
HETATM   15  C14 UNL     1      14.291 -39.563  11.535  1.00  0.00     0.114 C 
BRANCH  15  16
HETATM   16  N8  UNL     1      15.453 -38.769  11.674  1.00  0.00    -0.417 N 
ATOM     17  H8  UNL     1      16.191 -38.775  10.969  1.00  0.00     0.153 HD
BRANCH  16  18
HETATM   18  C15 UNL     1      15.544 -37.960  12.847  1.00  0.00     0.076 C 
HETATM   19  C16 UNL     1      15.962 -36.543  12.540  1.00  0.00     0.024 C 
HETATM   20  C17 UNL     1      14.930 -35.910  11.664  1.00  0.00     0.002 C 
HETATM   21  C18 UNL     1      13.700 -35.653  12.500  1.00  0.00     0.000 C 
HETATM   22  C19 UNL     1      13.730 -36.479  13.766  1.00  0.00     0.002 C 
HETATM   23  C20 UNL     1      14.148 -37.896  13.459  1.00  0.00     0.024 C 
ENDBRANCH  16  18
ENDBRANCH  15  16
ENDBRANCH  14  15
ENDBRANCH  13  14
ENDBRANCH  11  13
ENDBRANCH   7  10
BRANCH   4  24
HETATM   24  O1  UNL     1      10.950 -42.027   6.513  1.00  0.00    -0.321 OA
BRANCH  24  25
HETATM   25  C4  UNL     1      10.955 -42.670   7.724  1.00  0.00     0.178 C 
BRANCH  25  26
HETATM   26  C5  UNL     1      12.108 -43.598   7.998  1.00  0.00     0.027 C 
BRANCH  26  27
HETATM   27  C6  UNL     1      13.087 -43.013   8.982  1.00  0.00     0.002 C 
BRANCH  27  28
HETATM   28  C7  UNL     1      14.396 -42.644   8.442  1.00  0.00     0.009 C 
BRANCH  28  29
HETATM   29  C8  UNL     1      15.105 -43.539   7.528  1.00  0.00     0.099 C 
BRANCH  29  30
HETATM   30  C9  UNL     1      16.379 -44.086   8.051  1.00  0.00     0.231 C 
HETATM   31  N5  UNL     1      17.010 -45.229   7.482  1.00  0.00    -0.062 NA
HETATM   32  O2  UNL     1      16.921 -43.520   9.031  1.00  0.00    -0.277 OA
ENDBRANCH  29  30
ENDBRANCH  28  29
ENDBRANCH  27  28
ENDBRANCH  26  27
ENDBRANCH  25  26
ENDBRANCH  24  25
ENDBRANCH   4  24
BRANCH   1  33
HETATM   33  N3  UNL     1      10.592 -38.274   3.768  1.00  0.00    -0.163 N 
HETATM   34  C1  UNL     1      10.473 -39.018   2.558  1.00  0.00     0.200 C 
HETATM   35  N1  UNL     1       9.320 -39.490   2.285  1.00  0.00    -0.373 N 
HETATM   36  N2  UNL     1      11.574 -39.233   1.688  1.00  0.00    -0.063 NA
ATOM     37  H12 UNL     1       9.234 -40.022   1.420  1.00  0.00     0.158 HD
ATOM     38  H11 UNL     1       8.529 -39.335   2.910  1.00  0.00     0.158 HD
ATOM     39  H3  UNL     1      10.296 -37.300   3.826  1.00  0.00     0.187 HD
ENDBRANCH   1  33
TORSDOF 14
ENDMDL
MODEL 3
REMARK VINA RESULT: -7.702527495      2.306      8.935
REMARK  14 active torsions:
REMARK  status: ('A' for Active; 'I' for Inactive)
REMARK       I    between atoms: N1_1  and  C1_4 
REMARK       I    between atoms: C1_4  and  N3_6 
REMARK    1  A    between atoms: N3_6  and  C2_8 
REMARK    2  A    between atoms: C3_11  and  O1_12 
REMARK    3  A    between atoms: O1_12  and  C4_13 
REMARK    4  A    between atoms: C4_13  and  C5_14 
REMARK    5  A    between atoms: C5_14  and  C6_15 
REMARK    6  A    between atoms: C6_15  and  C7_16 
REMARK    7  A    between atoms: C7_16  and  C8_17 
REMARK    8  A    between atoms: C8_17  and  C9_18 
REMARK    9  A    between atoms: C10_23  and  N7_24 
REMARK   10  A    between atoms: C11_26  and  C12_27 
REMARK   11  A    between atoms: C12_27  and  C13_28 
REMARK   12  A    between atoms: C13_28  and  C14_29 
REMARK   13  A    between atoms: C14_29  and  N8_30 
REMARK   14  A    between atoms: N8_30  and  C15_32 
ROOT
HETATM    1  C2  UNL     1      11.493 -41.024   6.287  1.00  0.00     0.702 A 
HETATM    2  N4  UNL     1      12.198 -41.152   7.423  1.00  0.00    -0.153 N 
ATOM      3  H4  UNL     1      12.950 -40.497   7.637  1.00  0.00     0.188 HD
HETATM    4  C3  UNL     1      11.903 -42.145   8.274  1.00  0.00     0.252 A 
HETATM    5  N6  UNL     1      10.898 -42.986   7.950  1.00  0.00    -0.154 N 
ATOM      6  H6  UNL     1      10.685 -43.736   8.607  1.00  0.00     0.188 HD
HETATM    7  C10 UNL     1      10.156 -42.917   6.836  1.00  0.00     0.699 A 
HETATM    8  N9  UNL     1      10.511 -41.863   5.992  1.00  0.00    -0.022 N 
ATOM      9  H9  UNL     1       9.998 -41.735   5.120  1.00  0.00     0.203 HD
ENDROOT
BRANCH   7  10
HETATM   10  N7  UNL     1       9.235 -43.645   6.485  1.00  0.00    -0.205 N 
HETATM   11  C11 UNL     1       8.110 -43.732   5.722  1.00  0.00     0.079 C 
ATOM     12  H7  UNL     1       9.361 -44.545   6.948  1.00  0.00     0.183 HD
BRANCH  11  13
HETATM   13  C12 UNL     1       7.654 -42.552   4.932  1.00  0.00     0.046 C 
BRANCH  13  14
HETATM   14  C13 UNL     1       8.281 -42.298   3.618  1.00  0.00     0.024 C 
BRANCH  14  15
HETATM   15  C14 UNL     1       8.558 -40.904   3.234  1.00  0.00     0.114 C 
BRANCH  15  16
HETATM   16  N8  UNL     1       9.497 -40.645   2.210  1.00  0.00    -0.417 N 
ATOM     17  H8  UNL     1       9.696 -41.330   1.481  1.00  0.00     0.153 HD
BRANCH  16  18
HETATM   18  C15 UNL     1      10.154 -39.377   2.245  1.00  0.00     0.076 C 
HETATM   19  C16 UNL     1      10.878 -39.066   0.957  1.00  0.00     0.024 C 
HETATM   20  C17 UNL     1       9.882 -39.000  -0.156  1.00  0.00     0.002 C 
HETATM   21  C18 UNL     1       9.075 -37.736   0.012  1.00  0.00     0.000 C 
HETATM   22  C19 UNL     1       9.208 -37.198   1.418  1.00  0.00     0.002 C 
HETATM   23  C20 UNL     1       9.074 -38.314   2.424  1.00  0.00     0.024 C 
ENDBRANCH  16  18
ENDBRANCH  15  16
ENDBRANCH  14  15
ENDBRANCH  13  14
ENDBRANCH  11  13
ENDBRANCH   7  10
BRANCH   4  24
HETATM   24  O1  UNL     1      12.621 -42.278   9.432  1.00  0.00    -0.321 OA
BRANCH  24  25
HETATM   25  C4  UNL     1      13.072 -41.328  10.312  1.00  0.00     0.178 C 
BRANCH  25  26
HETATM   26  C5  UNL     1      14.564 -41.184  10.453  1.00  0.00     0.027 C 
BRANCH  26  27
HETATM   27  C6  UNL     1      14.946 -39.917  11.174  1.00  0.00     0.002 C 
BRANCH  27  28
HETATM   28  C7  UNL     1      13.837 -39.069  11.611  1.00  0.00     0.009 C 
BRANCH  28  29
HETATM   29  C8  UNL     1      13.590 -37.777  10.973  1.00  0.00     0.099 C 
BRANCH  29  30
HETATM   30  C9  UNL     1      13.419 -37.826   9.502  1.00  0.00     0.231 C 
HETATM   31  N5  UNL     1      14.477 -37.523   8.599  1.00  0.00    -0.062 NA
HETATM   32  O2  UNL     1      12.299 -38.150   9.036  1.00  0.00    -0.277 OA
ENDBRANCH  29  30
ENDBRANCH  28  29
ENDBRANCH  27  28
ENDBRANCH  26  27
ENDBRANCH  25  26
ENDBRANCH  24  25
ENDBRANCH   4  24
BRANCH   1  33
HETATM   33  N3  UNL     1      11.737 -40.076   5.418  1.00  0.00    -0.163 N 
HETATM   34  C1  UNL     1      11.380 -38.749   5.794  1.00  0.00     0.200 C 
HETATM   35  N1  UNL     1      12.321 -38.000   6.218  1.00  0.00    -0.373 N 
HETATM   36  N2  UNL     1      10.047 -38.268   5.708  1.00  0.00    -0.063 NA
ATOM     37  H12 UNL     1      12.066 -37.050   6.488  1.00  0.00     0.158 HD
ATOM     38  H11 UNL     1      13.278 -38.345   6.280  1.00  0.00     0.158 HD
ATOM     39  H3  UNL     1      12.162 -40.278   4.513  1.00  0.00     0.187 HD
ENDBRANCH   1  33
TORSDOF 14
ENDMDL
MODEL 4
REMARK VINA RESULT: -7.632862100      3.217      7.315
REMARK  14 active torsions:
REMARK  status: ('A' for Active; 'I' for Inactive)
REMARK       I    between atoms: N1_1  and  C1_4 
REMARK       I    between atoms: C1_4  and  N3_6 
REMARK    1  A    between atoms: N3_6  and  C2_8 
REMARK    2  A    between atoms: C3_11  and  O1_12 
REMARK    3  A    between atoms: O1_12  and  C4_13 
REMARK    4  A    between atoms: C4_13  and  C5_14 
REMARK    5  A    between atoms: C5_14  and  C6_15 
REMARK    6  A    between atoms: C6_15  and  C7_16 
REMARK    7  A    between atoms: C7_16  and  C8_17 
REMARK    8  A    between atoms: C8_17  and  C9_18 
REMARK    9  A    between atoms: C10_23  and  N7_24 
REMARK   10  A    between atoms: C11_26  and  C12_27 
REMARK   11  A    between atoms: C12_27  and  C13_28 
REMARK   12  A    between atoms: C13_28  and  C14_29 
REMARK   13  A    between atoms: C14_29  and  N8_30 
REMARK   14  A    between atoms: N8_30  and  C15_32 
ROOT
HETATM    1  C2  UNL     1      10.937 -40.133   5.724  1.00  0.00     0.702 A 
HETATM    2  N4  UNL     1      11.250 -39.039   6.438  1.00  0.00    -0.153 N 
ATOM      3  H4  UNL     1      11.013 -38.111   6.088  1.00  0.00     0.188 HD
HETATM    4  C3  UNL     1      11.877 -39.176   7.615  1.00  0.00     0.252 A 
HETATM    5  N6  UNL     1      12.170 -40.424   8.040  1.00  0.00    -0.154 N 
ATOM      6  H6  UNL     1      12.645 -40.513   8.937  1.00  0.00     0.188 HD
HETATM    7  C10 UNL     1      11.887 -41.556   7.380  1.00  0.00     0.699 A 
HETATM    8  N9  UNL     1      11.236 -41.346   6.163  1.00  0.00    -0.022 N 
ATOM      9  H9  UNL     1      10.982 -42.153   5.594  1.00  0.00     0.203 HD
ENDROOT
BRANCH   7  10
HETATM   10  N7  UNL     1      12.125 -42.712   7.709  1.00  0.00    -0.205 N 
HETATM   11  C11 UNL     1      13.100 -43.648   7.871  1.00  0.00     0.079 C 
ATOM     12  H7  UNL     1      11.237 -43.147   7.963  1.00  0.00     0.183 HD
BRANCH  11  13
HETATM   13  C12 UNL     1      14.518 -43.307   7.555  1.00  0.00     0.046 C 
BRANCH  13  14
HETATM   14  C13 UNL     1      15.589 -44.147   8.132  1.00  0.00     0.024 C 
BRANCH  14  15
HETATM   15  C14 UNL     1      16.640 -43.489   8.925  1.00  0.00     0.114 C 
BRANCH  15  16
HETATM   16  N8  UNL     1      16.301 -42.901  10.166  1.00  0.00    -0.417 N 
ATOM     17  H8  UNL     1      15.965 -43.462  10.948  1.00  0.00     0.153 HD
BRANCH  16  18
HETATM   18  C15 UNL     1      16.452 -41.484  10.269  1.00  0.00     0.076 C 
HETATM   19  C16 UNL     1      15.186 -40.742   9.917  1.00  0.00     0.024 C 
HETATM   20  C17 UNL     1      14.111 -41.128  10.881  1.00  0.00     0.002 C 
HETATM   21  C18 UNL     1      14.431 -40.499  12.215  1.00  0.00     0.000 C 
HETATM   22  C19 UNL     1      15.882 -40.079  12.276  1.00  0.00     0.002 C 
HETATM   23  C20 UNL     1      16.769 -41.170  11.728  1.00  0.00     0.024 C 
ENDBRANCH  16  18
ENDBRANCH  15  16
ENDBRANCH  14  15
ENDBRANCH  13  14
ENDBRANCH  11  13
ENDBRANCH   7  10
BRANCH   4  24
HETATM   24  O1  UNL     1      12.199 -38.063   8.344  1.00  0.00    -0.321 OA
BRANCH  24  25
HETATM   25  C4  UNL     1      12.834 -37.946   9.553  1.00  0.00     0.178 C 
BRANCH  25  26
HETATM   26  C5  UNL     1      14.218 -37.354   9.542  1.00  0.00     0.027 C 
BRANCH  26  27
HETATM   27  C6  UNL     1      14.585 -36.741  10.868  1.00  0.00     0.002 C 
BRANCH  27  28
HETATM   28  C7  UNL     1      13.539 -36.752  11.891  1.00  0.00     0.009 C 
BRANCH  28  29
HETATM   29  C8  UNL     1      13.388 -35.630  12.817  1.00  0.00     0.099 C 
BRANCH  29  30
HETATM   30  C9  UNL     1      13.717 -35.935  14.229  1.00  0.00     0.231 C 
HETATM   31  N5  UNL     1      14.942 -36.550  14.613  1.00  0.00    -0.062 NA
HETATM   32  O2  UNL     1      12.884 -35.636  15.120  1.00  0.00    -0.277 OA
ENDBRANCH  29  30
ENDBRANCH  28  29
ENDBRANCH  27  28
ENDBRANCH  26  27
ENDBRANCH  25  26
ENDBRANCH  24  25
ENDBRANCH   4  24
BRANCH   1  33
HETATM   33  N3  UNL     1      10.328 -40.060   4.567  1.00  0.00    -0.163 N 
HETATM   34  C1  UNL     1       9.948 -38.761   4.120  1.00  0.00     0.200 C 
HETATM   35  N1  UNL     1      10.708 -38.205   3.260  1.00  0.00    -0.373 N 
HETATM   36  N2  UNL     1       8.782 -38.105   4.597  1.00  0.00    -0.063 NA
ATOM     37  H12 UNL     1      10.435 -37.276   2.940  1.00  0.00     0.158 HD
ATOM     38  H11 UNL     1      11.544 -38.676   2.918  1.00  0.00     0.158 HD
ATOM     39  H3  UNL     1      10.134 -40.893   4.013  1.00  0.00     0.187 HD
ENDBRANCH   1  33
TORSDOF 14
ENDMDL
MODEL 5
REMARK VINA RESULT: -7.622486320      2.461      9.322
REMARK  14 active torsions:
REMARK  status: ('A' for Active; 'I' for Inactive)
REMARK       I    between atoms: N1_1  and  C1_4 
REMARK       I    between atoms: C1_4  and  N3_6 
REMARK    1  A    between atoms: N3_6  and  C2_8 
REMARK    2  A    between atoms: C3_11  and  O1_12 
REMARK    3  A    between atoms: O1_12  and  C4_13 
REMARK    4  A    between atoms: C4_13  and  C5_14 
REMARK    5  A    between atoms: C5_14  and  C6_15 
REMARK    6  A    between atoms: C6_15  and  C7_16 
REMARK    7  A    between atoms: C7_16  and  C8_17 
REMARK    8  A    between atoms: C8_17  and  C9_18 
REMARK    9  A    between atoms: C10_23  and  N7_24 
REMARK   10  A    between atoms: C11_26  and  C12_27 
REMARK   11  A    between atoms: C12_27  and  C13_28 
REMARK   12  A    between atoms: C13_28  and  C14_29 
REMARK   13  A    between atoms: C14_29  and  N8_30 
REMARK   14  A    between atoms: N8_30  and  C15_32 
ROOT
HETATM    1  C2  UNL     1      11.286 -40.597   6.170  1.00  0.00     0.702 A 
HETATM    2  N4  UNL     1      12.214 -39.981   6.922  1.00  0.00    -0.153 N 
ATOM      3  H4  UNL     1      12.660 -40.476   7.694  1.00  0.00     0.188 HD
HETATM    4  C3  UNL     1      12.549 -38.712   6.649  1.00  0.00     0.252 A 
HETATM    5  N6  UNL     1      11.934 -38.098   5.616  1.00  0.00    -0.154 N 
ATOM      6  H6  UNL     1      12.200 -37.134   5.420  1.00  0.00     0.188 HD
HETATM    7  C10 UNL     1      11.002 -38.651   4.826  1.00  0.00     0.699 A 
HETATM    8  N9  UNL     1      10.698 -39.971   5.162  1.00  0.00    -0.022 N 
ATOM      9  H9  UNL     1       9.999 -40.471   4.613  1.00  0.00     0.203 HD
ENDROOT
BRANCH   7  10
HETATM   10  N7  UNL     1      10.409 -38.151   3.878  1.00  0.00    -0.205 N 
HETATM   11  C11 UNL     1      10.195 -38.217   2.535  1.00  0.00     0.079 C 
ATOM     12  H7  UNL     1       9.853 -37.375   4.239  1.00  0.00     0.183 HD
BRANCH  11  13
HETATM   13  C12 UNL     1      10.895 -39.253   1.721  1.00  0.00     0.046 C 
BRANCH  13  14
HETATM   14  C13 UNL     1      10.109 -40.021   0.732  1.00  0.00     0.024 C 
BRANCH  14  15
HETATM   15  C14 UNL     1       9.546 -41.318   1.143  1.00  0.00     0.114 C 
BRANCH  15  16
HETATM   16  N8  UNL     1       9.016 -41.457   2.446  1.00  0.00    -0.417 N 
ATOM     17  H8  UNL     1       8.879 -40.651   3.056  1.00  0.00     0.153 HD
BRANCH  16  18
HETATM   18  C15 UNL     1       8.682 -42.780   2.867  1.00  0.00     0.076 C 
HETATM   19  C16 UNL     1       8.002 -42.803   4.215  1.00  0.00     0.024 C 
HETATM   20  C17 UNL     1       6.716 -42.046   4.123  1.00  0.00     0.002 C 
HETATM   21  C18 UNL     1       5.744 -42.872   3.316  1.00  0.00     0.000 C 
HETATM   22  C19 UNL     1       6.472 -43.929   2.518  1.00  0.00     0.002 C 
HETATM   23  C20 UNL     1       7.691 -43.340   1.852  1.00  0.00     0.024 C 
ENDBRANCH  16  18
ENDBRANCH  15  16
ENDBRANCH  14  15
ENDBRANCH  13  14
ENDBRANCH  11  13
ENDBRANCH   7  10
BRANCH   4  24
HETATM   24  O1  UNL     1      13.493 -38.082   7.415  1.00  0.00    -0.321 OA
BRANCH  24  25
HETATM   25  C4  UNL     1      13.569 -37.918   8.774  1.00  0.00     0.178 C 
BRANCH  25  26
HETATM   26  C5  UNL     1      14.290 -38.987   9.550  1.00  0.00     0.027 C 
BRANCH  26  27
HETATM   27  C6  UNL     1      13.929 -38.970  11.012  1.00  0.00     0.002 C 
BRANCH  27  28
HETATM   28  C7  UNL     1      13.471 -37.685  11.544  1.00  0.00     0.009 C 
BRANCH  28  29
HETATM   29  C8  UNL     1      13.926 -37.214  12.852  1.00  0.00     0.099 C 
BRANCH  29  30
HETATM   30  C9  UNL     1      13.322 -35.939  13.304  1.00  0.00     0.231 C 
HETATM   31  N5  UNL     1      13.068 -35.658  14.675  1.00  0.00    -0.062 NA
HETATM   32  O2  UNL     1      13.024 -35.075  12.442  1.00  0.00    -0.277 OA
ENDBRANCH  29  30
ENDBRANCH  28  29
ENDBRANCH  27  28
ENDBRANCH  26  27
ENDBRANCH  25  26
ENDBRANCH  24  25
ENDBRANCH   4  24
BRANCH   1  33
HETATM   33  N3  UNL     1      10.918 -41.833   6.392  1.00  0.00    -0.163 N 
HETATM   34  C1  UNL     1      11.588 -42.529   7.439  1.00  0.00     0.200 C 
HETATM   35  N1  UNL     1      10.979 -42.609   8.557  1.00  0.00    -0.373 N 
HETATM   36  N2  UNL     1      12.872 -43.110   7.264  1.00  0.00    -0.063 NA
ATOM     37  H12 UNL     1      11.459 -43.107   9.306  1.00  0.00     0.158 HD
ATOM     38  H11 UNL     1      10.057 -42.192   8.682  1.00  0.00     0.158 HD
ATOM     39  H3  UNL     1      10.185 -42.278   5.840  1.00  0.00     0.187 HD
ENDBRANCH   1  33
TORSDOF 14
ENDMDL
