MODEL 1
REMARK VINA RESULT: -6.203676036      0.000      0.000
REMARK  16 active torsions:
REMARK  status: ('A' for Active; 'I' for Inactive)
REMARK    1  A    between atoms: N1_1  and  C1_5 
REMARK    2  A    between atoms: C1_5  and  C2_6 
REMARK    3  A    between atoms: C2_6  and  C3_7 
REMARK    4  A    between atoms: C3_7  and  C4_8 
REMARK    5  A    between atoms: C4_8  and  C5_9 
REMARK    6  A    between atoms: C5_9  and  N2_10 
REMARK    7  A    between atoms: N2_10  and  C6_12 
REMARK    8  A    between atoms: N3_19  and  C13_20 
REMARK    9  A    between atoms: C13_20  and  C14_21 
REMARK   10  A    between atoms: C14_21  and  C15_22 
REMARK   11  A    between atoms: C15_22  and  N4_23 
REMARK   12  A    between atoms: C17_29  and  C18_30 
REMARK   13  A    between atoms: C18_30  and  C19_31 
REMARK   14  A    between atoms: C19_31  and  C20_32 
REMARK   15  A    between atoms: C20_32  and  C21_33 
REMARK   16  A    between atoms: C21_33  and  N5_34 
ROOT
HETATM    1  C6  UNL     1      15.119 -40.623  10.403  1.00  0.00     0.173 C 
HETATM    2  C7  UNL     1      16.136 -41.448  11.077  1.00  0.00     0.035 C 
HETATM    3  C8  UNL     1      17.193 -42.048  10.130  1.00  0.00     0.002 C 
HETATM    4  C9  UNL     1      17.253 -43.533  10.202  1.00  0.00     0.000 C 
HETATM    5  C10 UNL     1      17.674 -44.259   8.974  1.00  0.00     0.002 C 
HETATM    6  C11 UNL     1      16.746 -44.447   7.875  1.00  0.00     0.020 C 
HETATM    7  C12 UNL     1      15.369 -43.955   7.901  1.00  0.00     0.126 C 
HETATM    8  N3  UNL     1      14.413 -44.509   8.812  1.00  0.00    -0.347 N 
HETATM    9  C16 UNL     1      13.457 -43.804   9.576  1.00  0.00     0.266 C 
HETATM   10  O1  UNL     1      13.374 -44.207  10.799  1.00  0.00    -0.266 OA
HETATM   11  C17 UNL     1      12.552 -42.707   9.237  1.00  0.00     0.080 C 
HETATM   12  N6  UNL     1      12.683 -41.509  10.028  1.00  0.00    -0.324 N 
ATOM     13  H6  UNL     1      11.867 -40.897   9.998  1.00  0.00     0.169 HD
HETATM   14  C22 UNL     1      13.718 -41.040  10.821  1.00  0.00     0.244 C 
HETATM   15  O2  UNL     1      13.570 -40.905  12.074  1.00  0.00    -0.271 OA
ENDROOT
BRANCH   1  16
HETATM   16  N2  UNL     1      15.123 -39.250  10.354  1.00  0.00    -0.389 N 
ATOM     17  H2  UNL     1      15.821 -38.798  10.945  1.00  0.00     0.159 HD
BRANCH  16  18
HETATM   18  C5  UNL     1      14.331 -38.394   9.630  1.00  0.00     0.056 C 
BRANCH  18  19
HETATM   19  C4  UNL     1      13.327 -37.518  10.320  1.00  0.00     0.044 C 
BRANCH  19  20
HETATM   20  C3  UNL     1      13.514 -37.469  11.836  1.00  0.00     0.007 C 
BRANCH  20  21
HETATM   21  C2  UNL     1      13.278 -36.085  12.349  1.00  0.00     0.027 C 
BRANCH  21  22
HETATM   22  C1  UNL     1      13.525 -36.030  13.865  1.00  0.00     0.229 C 
BRANCH  22  23
HETATM   23  N1  UNL     1      14.937 -35.988  14.133  1.00  0.00    -0.079 N 
ATOM     24  H13 UNL     1      15.332 -36.922  14.251  1.00  0.00     0.274 HD
ATOM     25  H12 UNL     1      15.473 -35.702  13.314  1.00  0.00     0.274 HD
ATOM     26  H11 UNL     1      15.122 -35.391  14.939  1.00  0.00     0.274 HD
ENDBRANCH  22  23
ENDBRANCH  21  22
ENDBRANCH  20  21
ENDBRANCH  19  20
ENDBRANCH  18  19
ENDBRANCH  16  18
ENDBRANCH   1  16
BRANCH  11  27
HETATM   27  C18 UNL     1      12.348 -42.483   7.771  1.00  0.00     0.063 C 
BRANCH  27  28
HETATM   28  C19 UNL     1      12.954 -41.160   7.295  1.00  0.00     0.008 C 
BRANCH  28  29
HETATM   29  C20 UNL     1      11.780 -40.424   6.642  1.00  0.00     0.027 C 
BRANCH  29  30
HETATM   30  C21 UNL     1      11.786 -38.946   6.952  1.00  0.00     0.229 C 
BRANCH  30  31
HETATM   31  N5  UNL     1      12.099 -38.289   5.673  1.00  0.00    -0.079 N 
ATOM     32  H53 UNL     1      12.725 -37.489   5.761  1.00  0.00     0.274 HD
ATOM     33  H52 UNL     1      12.702 -38.841   5.062  1.00  0.00     0.274 HD
ATOM     34  H51 UNL     1      11.193 -38.062   5.263  1.00  0.00     0.274 HD
ENDBRANCH  30  31
ENDBRANCH  29  30
ENDBRANCH  28  29
ENDBRANCH  27  28
ENDBRANCH  11  27
BRANCH   8  35
HETATM   35  C13 UNL     1      14.410 -45.964   8.955  1.00  0.00     0.127 C 
BRANCH  35  36
HETATM   36  C14 UNL     1      13.388 -46.626   8.067  1.00  0.00     0.047 C 
BRANCH  36  37
HETATM   37  C15 UNL     1      14.067 -47.386   6.936  1.00  0.00     0.231 C 
BRANCH  37  38
HETATM   38  N4  UNL     1      13.818 -46.811   5.658  1.00  0.00    -0.079 N 
ATOM     39  H43 UNL     1      12.824 -46.621   5.530  1.00  0.00     0.274 HD
ATOM     40  H42 UNL     1      14.176 -45.856   5.611  1.00  0.00     0.274 HD
ATOM     41  H41 UNL     1      14.184 -47.377   4.892  1.00  0.00     0.274 HD
ENDBRANCH  37  38
ENDBRANCH  36  37
ENDBRANCH  35  36
ENDBRANCH   8  35
TORSDOF 16
ENDMDL
MODEL 2
REMARK VINA RESULT: -6.104018760      4.016      8.318
REMARK  16 active torsions:
REMARK  status: ('A' for Active; 'I' for Inactive)
REMARK    1  A    between atoms: N1_1  and  C1_5 
REMARK    2  A    between atoms: C1_5  and  C2_6 
REMARK    3  A    between atoms: C2_6  and  C3_7 
REMARK    4  A    between atoms: C3_7  and  C4_8 
REMARK    5  A    between atoms: C4_8  and  C5_9 
REMARK    6  A    between atoms: C5_9  and  N2_10 
REMARK    7  A    between atoms: N2_10  and  C6_12 
REMARK    8  A    between atoms: N3_19  and  C13_20 
REMARK    9  A    between atoms: C13_20  and  C14_21 
REMARK   10  A    between atoms: C14_21  and  C15_22 
REMARK   11  A    between atoms: C15_22  and  N4_23 
REMARK   12  A    between atoms: C17_29  and  C18_30 
REMARK   13  A    between atoms: C18_30  and  C19_31 
REMARK   14  A    between atoms: C19_31  and  C20_32 
REMARK   15  A    between atoms: C20_32  and  C21_33 
REMARK   16  A    between atoms: C21_33  and  N5_34 
ROOT
HETATM    1  C6  UNL     1      13.592 -38.500  10.030  1.00  0.00     0.173 C 
HETATM    2  C7  UNL     1      14.626 -39.534   9.850  1.00  0.00     0.035 C 
HETATM    3  C8  UNL     1      14.433 -40.782  10.734  1.00  0.00     0.002 C 
HETATM    4  C9  UNL     1      15.605 -41.053  11.610  1.00  0.00     0.000 C 
HETATM    5  C10 UNL     1      15.345 -41.730  12.908  1.00  0.00     0.002 C 
HETATM    6  C11 UNL     1      14.802 -40.989  14.029  1.00  0.00     0.020 C 
HETATM    7  C12 UNL     1      14.487 -39.563  13.966  1.00  0.00     0.126 C 
HETATM    8  N3  UNL     1      15.529 -38.590  13.820  1.00  0.00    -0.347 N 
HETATM    9  C16 UNL     1      15.520 -37.451  12.986  1.00  0.00     0.266 C 
HETATM   10  O1  UNL     1      16.623 -37.273  12.342  1.00  0.00    -0.266 OA
HETATM   11  C17 UNL     1      14.494 -36.443  12.721  1.00  0.00     0.080 C 
HETATM   12  N6  UNL     1      14.095 -36.292  11.345  1.00  0.00    -0.324 N 
ATOM     13  H6  UNL     1      13.635 -35.405  11.137  1.00  0.00     0.169 HD
HETATM   14  C22 UNL     1      14.222 -37.135  10.252  1.00  0.00     0.244 C 
HETATM   15  O2  UNL     1      14.940 -36.810   9.256  1.00  0.00    -0.271 OA
ENDROOT
BRANCH   1  16
HETATM   16  N2  UNL     1      12.518 -38.307   9.195  1.00  0.00    -0.389 N 
ATOM     17  H2  UNL     1      11.722 -37.829   9.618  1.00  0.00     0.159 HD
BRANCH  16  18
HETATM   18  C5  UNL     1      12.353 -38.659   7.878  1.00  0.00     0.056 C 
BRANCH  18  19
HETATM   19  C4  UNL     1      12.000 -40.069   7.506  1.00  0.00     0.044 C 
BRANCH  19  20
HETATM   20  C3  UNL     1      11.270 -40.173   6.168  1.00  0.00     0.007 C 
BRANCH  20  21
HETATM   21  C2  UNL     1      11.080 -38.818   5.567  1.00  0.00     0.027 C 
BRANCH  21  22
HETATM   22  C1  UNL     1      10.441 -38.937   4.174  1.00  0.00     0.229 C 
BRANCH  22  23
HETATM   23  N1  UNL     1      11.464 -39.083   3.174  1.00  0.00    -0.079 N 
ATOM     24  H13 UNL     1      12.398 -39.108   3.583  1.00  0.00     0.274 HD
ATOM     25  H12 UNL     1      11.458 -40.013   2.755  1.00  0.00     0.274 HD
ATOM     26  H11 UNL     1      11.374 -38.347   2.473  1.00  0.00     0.274 HD
ENDBRANCH  22  23
ENDBRANCH  21  22
ENDBRANCH  20  21
ENDBRANCH  19  20
ENDBRANCH  18  19
ENDBRANCH  16  18
ENDBRANCH   1  16
BRANCH  11  27
HETATM   27  C18 UNL     1      13.377 -36.398  13.716  1.00  0.00     0.063 C 
BRANCH  27  28
HETATM   28  C19 UNL     1      13.697 -35.496  14.911  1.00  0.00     0.008 C 
BRANCH  28  29
HETATM   29  C20 UNL     1      13.577 -36.425  16.124  1.00  0.00     0.027 C 
BRANCH  29  30
HETATM   30  C21 UNL     1      13.658 -35.674  17.432  1.00  0.00     0.229 C 
BRANCH  30  31
HETATM   31  N5  UNL     1      13.847 -34.265  17.050  1.00  0.00    -0.079 N 
ATOM     32  H53 UNL     1      14.280 -34.139  16.136  1.00  0.00     0.274 HD
ATOM     33  H52 UNL     1      12.978 -33.775  16.836  1.00  0.00     0.274 HD
ATOM     34  H51 UNL     1      14.375 -33.852  17.819  1.00  0.00     0.274 HD
ENDBRANCH  30  31
ENDBRANCH  29  30
ENDBRANCH  28  29
ENDBRANCH  27  28
ENDBRANCH  11  27
BRANCH   8  35
HETATM   35  C13 UNL     1      16.726 -38.786  14.635  1.00  0.00     0.127 C 
BRANCH  35  36
HETATM   36  C14 UNL     1      16.856 -37.750  15.722  1.00  0.00     0.047 C 
BRANCH  36  37
HETATM   37  C15 UNL     1      18.161 -36.979  15.578  1.00  0.00     0.231 C 
BRANCH  37  38
HETATM   38  N4  UNL     1      18.016 -35.790  14.808  1.00  0.00    -0.079 N 
ATOM     39  H43 UNL     1      17.418 -35.116  15.287  1.00  0.00     0.274 HD
ATOM     40  H42 UNL     1      18.886 -35.257  14.791  1.00  0.00     0.274 HD
ATOM     41  H41 UNL     1      17.679 -35.971  13.862  1.00  0.00     0.274 HD
ENDBRANCH  37  38
ENDBRANCH  36  37
ENDBRANCH  35  36
ENDBRANCH   8  35
TORSDOF 16
ENDMDL
MODEL 3
REMARK VINA RESULT: -5.882625713      2.950      8.182
REMARK  16 active torsions:
REMARK  status: ('A' for Active; 'I' for Inactive)
REMARK    1  A    between atoms: N1_1  and  C1_5 
REMARK    2  A    between atoms: C1_5  and  C2_6 
REMARK    3  A    between atoms: C2_6  and  C3_7 
REMARK    4  A    between atoms: C3_7  and  C4_8 
REMARK    5  A    between atoms: C4_8  and  C5_9 
REMARK    6  A    between atoms: C5_9  and  N2_10 
REMARK    7  A    between atoms: N2_10  and  C6_12 
REMARK    8  A    between atoms: N3_19  and  C13_20 
REMARK    9  A    between atoms: C13_20  and  C14_21 
REMARK   10  A    between atoms: C14_21  and  C15_22 
REMARK   11  A    between atoms: C15_22  and  N4_23 
REMARK   12  A    between atoms: C17_29  and  C18_30 
REMARK   13  A    between atoms: C18_30  and  C19_31 
REMARK   14  A    between atoms: C19_31  and  C20_32 
REMARK   15  A    between atoms: C20_32  and  C21_33 
REMARK   16  A    between atoms: C21_33  and  N5_34 
ROOT
HETATM    1  C6  UNL     1      13.595 -38.512  10.036  1.00  0.00     0.173 C 
HETATM    2  C7  UNL     1      14.624 -39.553   9.879  1.00  0.00     0.035 C 
HETATM    3  C8  UNL     1      14.399 -40.802  10.755  1.00  0.00     0.002 C 
HETATM    4  C9  UNL     1      15.546 -41.085  11.659  1.00  0.00     0.000 C 
HETATM    5  C10 UNL     1      15.247 -41.764  12.948  1.00  0.00     0.002 C 
HETATM    6  C11 UNL     1      14.681 -41.022  14.057  1.00  0.00     0.020 C 
HETATM    7  C12 UNL     1      14.380 -39.593  13.991  1.00  0.00     0.126 C 
HETATM    8  N3  UNL     1      15.433 -38.629  13.874  1.00  0.00    -0.347 N 
HETATM    9  C16 UNL     1      15.454 -37.487  13.044  1.00  0.00     0.266 C 
HETATM   10  O1  UNL     1      16.575 -37.315  12.429  1.00  0.00    -0.266 OA
HETATM   11  C17 UNL     1      14.444 -36.470  12.756  1.00  0.00     0.080 C 
HETATM   12  N6  UNL     1      14.081 -36.311  11.370  1.00  0.00    -0.324 N 
ATOM     13  H6  UNL     1      13.634 -35.420  11.154  1.00  0.00     0.169 HD
HETATM   14  C22 UNL     1      14.230 -37.152  10.279  1.00  0.00     0.244 C 
HETATM   15  O2  UNL     1      14.975 -36.830   9.303  1.00  0.00    -0.271 OA
ENDROOT
BRANCH   1  16
HETATM   16  N2  UNL     1      12.543 -38.307   9.175  1.00  0.00    -0.389 N 
ATOM     17  H2  UNL     1      11.700 -37.926   9.604  1.00  0.00     0.159 HD
BRANCH  16  18
HETATM   18  C5  UNL     1      12.456 -38.537   7.823  1.00  0.00     0.056 C 
BRANCH  18  19
HETATM   19  C4  UNL     1      11.571 -39.626   7.293  1.00  0.00     0.044 C 
BRANCH  19  20
HETATM   20  C3  UNL     1      11.944 -41.013   7.814  1.00  0.00     0.007 C 
BRANCH  20  21
HETATM   21  C2  UNL     1      12.980 -41.641   6.940  1.00  0.00     0.027 C 
BRANCH  21  22
HETATM   22  C1  UNL     1      13.667 -42.802   7.677  1.00  0.00     0.229 C 
BRANCH  22  23
HETATM   23  N1  UNL     1      14.578 -43.477   6.793  1.00  0.00    -0.079 N 
ATOM     24  H13 UNL     1      14.387 -43.265   5.813  1.00  0.00     0.274 HD
ATOM     25  H12 UNL     1      15.521 -43.092   6.848  1.00  0.00     0.274 HD
ATOM     26  H11 UNL     1      14.564 -44.480   6.976  1.00  0.00     0.274 HD
ENDBRANCH  22  23
ENDBRANCH  21  22
ENDBRANCH  20  21
ENDBRANCH  19  20
ENDBRANCH  18  19
ENDBRANCH  16  18
ENDBRANCH   1  16
BRANCH  11  27
HETATM   27  C18 UNL     1      13.302 -36.418  13.722  1.00  0.00     0.063 C 
BRANCH  27  28
HETATM   28  C19 UNL     1      13.556 -35.441  14.873  1.00  0.00     0.008 C 
BRANCH  28  29
HETATM   29  C20 UNL     1      13.515 -36.321  16.127  1.00  0.00     0.027 C 
BRANCH  29  30
HETATM   30  C21 UNL     1      13.873 -35.554  17.378  1.00  0.00     0.229 C 
BRANCH  30  31
HETATM   31  N5  UNL     1      13.867 -34.139  16.971  1.00  0.00    -0.079 N 
ATOM     32  H53 UNL     1      13.415 -33.969  16.073  1.00  0.00     0.274 HD
ATOM     33  H52 UNL     1      13.246 -33.552  17.528  1.00  0.00     0.274 HD
ATOM     34  H51 UNL     1      14.846 -33.851  17.002  1.00  0.00     0.274 HD
ENDBRANCH  30  31
ENDBRANCH  29  30
ENDBRANCH  28  29
ENDBRANCH  27  28
ENDBRANCH  11  27
BRANCH   8  35
HETATM   35  C13 UNL     1      16.607 -38.837  14.720  1.00  0.00     0.127 C 
BRANCH  35  36
HETATM   36  C14 UNL     1      16.518 -38.082  16.021  1.00  0.00     0.047 C 
BRANCH  36  37
HETATM   37  C15 UNL     1      17.577 -36.990  16.085  1.00  0.00     0.231 C 
BRANCH  37  38
HETATM   38  N4  UNL     1      17.215 -35.828  15.347  1.00  0.00    -0.079 N 
ATOM     39  H43 UNL     1      18.036 -35.392  14.926  1.00  0.00     0.274 HD
ATOM     40  H42 UNL     1      16.707 -36.078  14.498  1.00  0.00     0.274 HD
ATOM     41  H41 UNL     1      16.688 -35.155  15.903  1.00  0.00     0.274 HD
ENDBRANCH  37  38
ENDBRANCH  36  37
ENDBRANCH  35  36
ENDBRANCH   8  35
TORSDOF 16
ENDMDL
MODEL 4
REMARK VINA RESULT: -5.820462008      2.665      6.466
REMARK  16 active torsions:
REMARK  status: ('A' for Active; 'I' for Inactive)
REMARK    1  A    between atoms: N1_1  and  C1_5 
REMARK    2  A    between atoms: C1_5  and  C2_6 
REMARK    3  A    between atoms: C2_6  and  C3_7 
REMARK    4  A    between atoms: C3_7  and  C4_8 
REMARK    5  A    between atoms: C4_8  and  C5_9 
REMARK    6  A    between atoms: C5_9  and  N2_10 
REMARK    7  A    between atoms: N2_10  and  C6_12 
REMARK    8  A    between atoms: N3_19  and  C13_20 
REMARK    9  A    between atoms: C13_20  and  C14_21 
REMARK   10  A    between atoms: C14_21  and  C15_22 
REMARK   11  A    between atoms: C15_22  and  N4_23 
REMARK   12  A    between atoms: C17_29  and  C18_30 
REMARK   13  A    between atoms: C18_30  and  C19_31 
REMARK   14  A    between atoms: C19_31  and  C20_32 
REMARK   15  A    between atoms: C20_32  and  C21_33 
REMARK   16  A    between atoms: C21_33  and  N5_34 
ROOT
HETATM    1  C6  UNL     1      12.785 -39.271   7.629  1.00  0.00     0.173 C 
HETATM    2  C7  UNL     1      12.402 -38.602   8.883  1.00  0.00     0.035 C 
HETATM    3  C8  UNL     1      13.592 -38.062   9.701  1.00  0.00     0.002 C 
HETATM    4  C9  UNL     1      13.645 -38.621  11.079  1.00  0.00     0.000 C 
HETATM    5  C10 UNL     1      14.984 -38.748  11.713  1.00  0.00     0.002 C 
HETATM    6  C11 UNL     1      15.873 -39.832  11.344  1.00  0.00     0.020 C 
HETATM    7  C12 UNL     1      15.523 -40.851  10.356  1.00  0.00     0.126 C 
HETATM    8  N3  UNL     1      14.474 -41.792  10.616  1.00  0.00    -0.347 N 
HETATM    9  C16 UNL     1      13.476 -42.225   9.716  1.00  0.00     0.266 C 
HETATM   10  O1  UNL     1      12.296 -42.273  10.236  1.00  0.00    -0.266 OA
HETATM   11  C17 UNL     1      13.536 -42.627   8.311  1.00  0.00     0.080 C 
HETATM   12  N6  UNL     1      12.705 -41.879   7.402  1.00  0.00    -0.324 N 
ATOM     13  H6  UNL     1      12.517 -42.354   6.519  1.00  0.00     0.169 HD
HETATM   14  C22 UNL     1      12.114 -40.630   7.512  1.00  0.00     0.244 C 
HETATM   15  O2  UNL     1      10.851 -40.504   7.525  1.00  0.00    -0.271 OA
ENDROOT
BRANCH   1  16
HETATM   16  N2  UNL     1      12.733 -38.697   6.381  1.00  0.00    -0.389 N 
ATOM     17  H2  UNL     1      13.622 -38.662   5.883  1.00  0.00     0.159 HD
BRANCH  16  18
HETATM   18  C5  UNL     1      11.664 -38.164   5.704  1.00  0.00     0.056 C 
BRANCH  18  19
HETATM   19  C4  UNL     1      11.066 -38.888   4.534  1.00  0.00     0.044 C 
BRANCH  19  20
HETATM   20  C3  UNL     1       9.637 -38.449   4.220  1.00  0.00     0.007 C 
BRANCH  20  21
HETATM   21  C2  UNL     1       9.381 -38.509   2.749  1.00  0.00     0.027 C 
BRANCH  21  22
HETATM   22  C1  UNL     1       9.230 -37.090   2.176  1.00  0.00     0.229 C 
BRANCH  22  23
HETATM   23  N1  UNL     1      10.468 -36.663   1.583  1.00  0.00    -0.079 N 
ATOM     24  H13 UNL     1      11.096 -36.243   2.270  1.00  0.00     0.274 HD
ATOM     25  H12 UNL     1      11.053 -37.453   1.310  1.00  0.00     0.274 HD
ATOM     26  H11 UNL     1      10.284 -36.036   0.801  1.00  0.00     0.274 HD
ENDBRANCH  22  23
ENDBRANCH  21  22
ENDBRANCH  20  21
ENDBRANCH  19  20
ENDBRANCH  18  19
ENDBRANCH  16  18
ENDBRANCH   1  16
BRANCH  11  27
HETATM   27  C18 UNL     1      14.906 -42.950   7.801  1.00  0.00     0.063 C 
BRANCH  27  28
HETATM   28  C19 UNL     1      15.412 -44.304   8.306  1.00  0.00     0.008 C 
BRANCH  28  29
HETATM   29  C20 UNL     1      16.844 -44.019   8.769  1.00  0.00     0.027 C 
BRANCH  29  30
HETATM   30  C21 UNL     1      17.817 -45.079   8.308  1.00  0.00     0.229 C 
BRANCH  30  31
HETATM   31  N5  UNL     1      17.145 -45.748   7.183  1.00  0.00    -0.079 N 
ATOM     32  H53 UNL     1      17.770 -45.994   6.415  1.00  0.00     0.274 HD
ATOM     33  H52 UNL     1      16.838 -46.699   7.390  1.00  0.00     0.274 HD
ATOM     34  H51 UNL     1      16.388 -45.119   6.915  1.00  0.00     0.274 HD
ENDBRANCH  30  31
ENDBRANCH  29  30
ENDBRANCH  28  29
ENDBRANCH  27  28
ENDBRANCH  11  27
BRANCH   8  35
HETATM   35  C13 UNL     1      14.442 -42.383  11.953  1.00  0.00     0.127 C 
BRANCH  35  36
HETATM   36  C14 UNL     1      14.720 -43.864  11.932  1.00  0.00     0.047 C 
BRANCH  36  37
HETATM   37  C15 UNL     1      13.674 -44.620  12.739  1.00  0.00     0.231 C 
BRANCH  37  38
HETATM   38  N4  UNL     1      12.432 -43.929  12.817  1.00  0.00    -0.079 N 
ATOM     39  H43 UNL     1      11.999 -44.057  13.732  1.00  0.00     0.274 HD
ATOM     40  H42 UNL     1      12.577 -42.919  12.842  1.00  0.00     0.274 HD
ATOM     41  H41 UNL     1      11.789 -44.187  12.069  1.00  0.00     0.274 HD
ENDBRANCH  37  38
ENDBRANCH  36  37
ENDBRANCH  35  36
ENDBRANCH   8  35
TORSDOF 16
ENDMDL
MODEL 5
REMARK VINA RESULT: -5.763511771      2.283      4.391
REMARK  16 active torsions:
REMARK  status: ('A' for Active; 'I' for Inactive)
REMARK    1  A    between atoms: N1_1  and  C1_5 
REMARK    2  A    between atoms: C1_5  and  C2_6 
REMARK    3  A    between atoms: C2_6  and  C3_7 
REMARK    4  A    between atoms: C3_7  and  C4_8 
REMARK    5  A    between atoms: C4_8  and  C5_9 
REMARK    6  A    between atoms: C5_9  and  N2_10 
REMARK    7  A    between atoms: N2_10  and  C6_12 
REMARK    8  A    between atoms: N3_19  and  C13_20 
REMARK    9  A    between atoms: C13_20  and  C14_21 
REMARK   10  A    between atoms: C14_21  and  C15_22 
REMARK   11  A    between atoms: C15_22  and  N4_23 
REMARK   12  A    between atoms: C17_29  and  C18_30 
REMARK   13  A    between atoms: C18_30  and  C19_31 
REMARK   14  A    between atoms: C19_31  and  C20_32 
REMARK   15  A    between atoms: C20_32  and  C21_33 
REMARK   16  A    between atoms: C21_33  and  N5_34 
ROOT
HETATM    1  C6  UNL     1      13.829 -38.622  11.506  1.00  0.00     0.173 C 
HETATM    2  C7  UNL     1      14.290 -38.026  10.241  1.00  0.00     0.035 C 
HETATM    3  C8  UNL     1      13.186 -37.872   9.175  1.00  0.00     0.002 C 
HETATM    4  C9  UNL     1      13.510 -38.579   7.906  1.00  0.00     0.000 C 
HETATM    5  C10 UNL     1      12.369 -39.084   7.097  1.00  0.00     0.002 C 
HETATM    6  C11 UNL     1      11.673 -40.296   7.481  1.00  0.00     0.020 C 
HETATM    7  C12 UNL     1      12.038 -41.089   8.654  1.00  0.00     0.126 C 
HETATM    8  N3  UNL     1      13.290 -41.783   8.706  1.00  0.00    -0.347 N 
HETATM    9  C16 UNL     1      14.172 -41.870   9.806  1.00  0.00     0.266 C 
HETATM   10  O1  UNL     1      15.411 -41.700   9.490  1.00  0.00    -0.266 OA
HETATM   11  C17 UNL     1      13.938 -42.115  11.228  1.00  0.00     0.080 C 
HETATM   12  N6  UNL     1      14.410 -41.098  12.133  1.00  0.00    -0.324 N 
ATOM     13  H6  UNL     1      14.525 -41.414  13.096  1.00  0.00     0.169 HD
HETATM   14  C22 UNL     1      14.736 -39.766  11.930  1.00  0.00     0.244 C 
HETATM   15  O2  UNL     1      15.924 -39.352  12.096  1.00  0.00    -0.271 OA
ENDROOT
BRANCH   1  16
HETATM   16  N2  UNL     1      13.527 -37.915  12.646  1.00  0.00    -0.389 N 
ATOM     17  H2  UNL     1      13.277 -38.484  13.454  1.00  0.00     0.159 HD
BRANCH  16  18
HETATM   18  C5  UNL     1      13.511 -36.559  12.860  1.00  0.00     0.056 C 
BRANCH  18  19
HETATM   19  C4  UNL     1      13.531 -36.009  14.256  1.00  0.00     0.044 C 
BRANCH  19  20
HETATM   20  C3  UNL     1      14.390 -36.833  15.215  1.00  0.00     0.007 C 
BRANCH  20  21
HETATM   21  C2  UNL     1      15.750 -36.230  15.349  1.00  0.00     0.027 C 
BRANCH  21  22
HETATM   22  C1  UNL     1      16.792 -37.101  14.627  1.00  0.00     0.229 C 
BRANCH  22  23
HETATM   23  N1  UNL     1      17.030 -36.591  13.305  1.00  0.00    -0.079 N 
ATOM     24  H13 UNL     1      16.903 -37.307  12.589  1.00  0.00     0.274 HD
ATOM     25  H12 UNL     1      16.296 -35.949  13.005  1.00  0.00     0.274 HD
ATOM     26  H11 UNL     1      17.955 -36.162  13.256  1.00  0.00     0.274 HD
ENDBRANCH  22  23
ENDBRANCH  21  22
ENDBRANCH  20  21
ENDBRANCH  19  20
ENDBRANCH  18  19
ENDBRANCH  16  18
ENDBRANCH   1  16
BRANCH  11  27
HETATM   27  C18 UNL     1      12.595 -42.687  11.560  1.00  0.00     0.063 C 
BRANCH  27  28
HETATM   28  C19 UNL     1      12.556 -44.210  11.403  1.00  0.00     0.008 C 
BRANCH  28  29
HETATM   29  C20 UNL     1      11.300 -44.467  10.562  1.00  0.00     0.027 C 
BRANCH  29  30
HETATM   30  C21 UNL     1      10.357 -43.288  10.564  1.00  0.00     0.229 C 
BRANCH  30  31
HETATM   31  N5  UNL     1       9.019 -43.871  10.752  1.00  0.00    -0.079 N 
ATOM     32  H53 UNL     1       8.656 -44.346   9.925  1.00  0.00     0.274 HD
ATOM     33  H52 UNL     1       9.005 -44.683  11.368  1.00  0.00     0.274 HD
ATOM     34  H51 UNL     1       8.437 -43.097  11.074  1.00  0.00     0.274 HD
ENDBRANCH  30  31
ENDBRANCH  29  30
ENDBRANCH  28  29
ENDBRANCH  27  28
ENDBRANCH  11  27
BRANCH   8  35
HETATM   35  C13 UNL     1      13.694 -42.496   7.495  1.00  0.00     0.127 C 
BRANCH  35  36
HETATM   36  C14 UNL     1      13.362 -43.966   7.557  1.00  0.00     0.047 C 
BRANCH  36  37
HETATM   37  C15 UNL     1      14.613 -44.789   7.834  1.00  0.00     0.231 C 
BRANCH  37  38
HETATM   38  N4  UNL     1      15.812 -44.100   7.495  1.00  0.00    -0.079 N 
ATOM     39  H43 UNL     1      16.536 -44.754   7.196  1.00  0.00     0.274 HD
ATOM     40  H42 UNL     1      15.697 -43.572   6.629  1.00  0.00     0.274 HD
ATOM     41  H41 UNL     1      16.149 -43.500   8.248  1.00  0.00     0.274 HD
ENDBRANCH  37  38
ENDBRANCH  36  37
ENDBRANCH  35  36
ENDBRANCH   8  35
TORSDOF 16
ENDMDL
