MODEL 1
REMARK VINA RESULT: -8.247647760      0.000      0.000
REMARK  15 active torsions:
REMARK  status: ('A' for Active; 'I' for Inactive)
REMARK    1  A    between atoms: N1_1  and  C1_5 
REMARK    2  A    between atoms: C1_5  and  C2_6 
REMARK    3  A    between atoms: C1_5  and  C7_11 
REMARK    4  A    between atoms: C7_11  and  O1_12 
REMARK    5  A    between atoms: C7_11  and  C8_14 
REMARK    6  A    between atoms: C8_14  and  O2_15 
REMARK    7  A    between atoms: C8_14  and  C9_17 
REMARK    8  A    between atoms: C9_17  and  C10_18 
REMARK    9  A    between atoms: C10_18  and  C11_19 
REMARK   10  A    between atoms: C11_19  and  C12_20 
REMARK   11  A    between atoms: C13_21  and  C14_22 
REMARK   12  A    between atoms: C14_22  and  C15_23 
REMARK   13  A    between atoms: C15_23  and  C16_24 
REMARK   14  A    between atoms: C16_24  and  C17_25 
REMARK   15  A    between atoms: C18_29  and  C19_30 
ROOT
HETATM    1  C10 UNL     1      12.248 -40.338   7.544  1.00  0.00     0.128 C 
HETATM    2  O5  UNL     1      13.513 -40.983   7.351  1.00  0.00    -0.356 OA
HETATM    3  C18 UNL     1      13.239 -42.252   6.926  1.00  0.00     0.230 C 
HETATM    4  C20 UNL     1      11.936 -42.687   7.550  1.00  0.00     0.124 C 
HETATM    5  C21 UNL     1      11.554 -41.459   8.303  1.00  0.00     0.164 C 
HETATM    6  O8  UNL     1      10.859 -41.456   9.267  1.00  0.00    -0.295 OA
ENDROOT
BRANCH   1   7
HETATM    7  C9  UNL     1      11.602 -40.061   6.276  1.00  0.00     0.080 C 
BRANCH   7   8
HETATM    8  C8  UNL     1      10.913 -38.854   5.843  1.00  0.00     0.152 C 
BRANCH   8   9
HETATM    9  C7  UNL     1       9.934 -38.815   4.752  1.00  0.00     0.177 C 
BRANCH   9  10
HETATM   10  C1  UNL     1      10.477 -38.273   3.430  1.00  0.00     0.218 C 
BRANCH  10  11
HETATM   11  N1  UNL     1      11.320 -39.424   2.956  1.00  0.00    -0.072 N 
ATOM     12  H13 UNL     1      11.083 -40.314   3.395  1.00  0.00     0.274 HD
ATOM     13  H12 UNL     1      11.124 -39.707   1.996  1.00  0.00     0.274 HD
ATOM     14  H11 UNL     1      12.288 -39.138   3.108  1.00  0.00     0.274 HD
ENDBRANCH  10  11
BRANCH  10  15
HETATM   15  C2  UNL     1       9.398 -38.099   2.384  1.00  0.00     0.018 C 
HETATM   16  C3  UNL     1       9.584 -39.127   1.271  1.00  0.00     0.007 C 
HETATM   17  C4  UNL     1      10.006 -38.307   0.076  1.00  0.00     0.000 C 
HETATM   18  C5  UNL     1       9.058 -37.115   0.239  1.00  0.00     0.000 C 
HETATM   19  C6  UNL     1       9.389 -36.763   1.703  1.00  0.00     0.007 C 
ENDBRANCH  10  15
ENDBRANCH   9  10
BRANCH   9  20
HETATM   20  O1  UNL     1       8.721 -38.192   4.944  1.00  0.00    -0.391 OA
ATOM     21  H1  UNL     1       8.921 -37.348   5.332  1.00  0.00     0.210 HD
ENDBRANCH   9  20
ENDBRANCH   8   9
BRANCH   8  22
HETATM   22  O2  UNL     1      12.029 -38.055   5.286  1.00  0.00    -0.393 OA
ATOM     23  H2  UNL     1      12.264 -37.501   6.022  1.00  0.00     0.210 HD
ENDBRANCH   8  22
ENDBRANCH   7   8
ENDBRANCH   1   7
BRANCH   1  24
HETATM   24  C11 UNL     1      12.405 -39.203   8.481  1.00  0.00     0.073 C 
BRANCH  24  25
HETATM   25  C12 UNL     1      13.612 -39.400   9.364  1.00  0.00    -0.027 C 
HETATM   26  C13 UNL     1      13.580 -39.171  10.663  1.00  0.00    -0.030 C 
BRANCH  26  27
HETATM   27  C14 UNL     1      14.801 -39.383  11.489  1.00  0.00     0.027 C 
BRANCH  27  28
HETATM   28  C15 UNL     1      14.976 -38.284  12.501  1.00  0.00     0.014 C 
BRANCH  28  29
HETATM   29  C16 UNL     1      13.798 -37.371  12.586  1.00  0.00     0.113 C 
BRANCH  29  30
HETATM   30  C17 UNL     1      14.053 -35.993  12.126  1.00  0.00     0.172 C 
HETATM   31  O3  UNL     1      15.077 -35.718  11.466  1.00  0.00    -0.648 OA
HETATM   32  O4  UNL     1      13.158 -34.987  12.421  1.00  0.00    -0.648 OA
ENDBRANCH  29  30
ENDBRANCH  28  29
ENDBRANCH  27  28
ENDBRANCH  26  27
ENDBRANCH  24  25
ENDBRANCH   1  24
BRANCH   3  33
HETATM   33  C19 UNL     1      14.334 -43.196   7.271  1.00  0.00     0.203 C 
HETATM   34  O6  UNL     1      14.509 -44.296   6.693  1.00  0.00    -0.646 OA
HETATM   35  O7  UNL     1      15.219 -42.859   8.286  1.00  0.00    -0.646 OA
ENDBRANCH   3  33
TORSDOF 15
ENDMDL
MODEL 2
REMARK VINA RESULT: -7.833367508      1.465      1.826
REMARK  15 active torsions:
REMARK  status: ('A' for Active; 'I' for Inactive)
REMARK    1  A    between atoms: N1_1  and  C1_5 
REMARK    2  A    between atoms: C1_5  and  C2_6 
REMARK    3  A    between atoms: C1_5  and  C7_11 
REMARK    4  A    between atoms: C7_11  and  O1_12 
REMARK    5  A    between atoms: C7_11  and  C8_14 
REMARK    6  A    between atoms: C8_14  and  O2_15 
REMARK    7  A    between atoms: C8_14  and  C9_17 
REMARK    8  A    between atoms: C9_17  and  C10_18 
REMARK    9  A    between atoms: C10_18  and  C11_19 
REMARK   10  A    between atoms: C11_19  and  C12_20 
REMARK   11  A    between atoms: C13_21  and  C14_22 
REMARK   12  A    between atoms: C14_22  and  C15_23 
REMARK   13  A    between atoms: C15_23  and  C16_24 
REMARK   14  A    between atoms: C16_24  and  C17_25 
REMARK   15  A    between atoms: C18_29  and  C19_30 
ROOT
HETATM    1  C10 UNL     1      12.878 -40.830   8.391  1.00  0.00     0.128 C 
HETATM    2  O5  UNL     1      13.986 -41.667   8.036  1.00  0.00    -0.356 OA
HETATM    3  C18 UNL     1      13.525 -42.535   7.088  1.00  0.00     0.230 C 
HETATM    4  C20 UNL     1      12.067 -42.805   7.365  1.00  0.00     0.124 C 
HETATM    5  C21 UNL     1      11.829 -41.921   8.540  1.00  0.00     0.164 C 
HETATM    6  O8  UNL     1      10.986 -42.108   9.357  1.00  0.00    -0.295 OA
ENDROOT
BRANCH   1   7
HETATM    7  C9  UNL     1      12.553 -39.908   7.320  1.00  0.00     0.080 C 
BRANCH   7   8
HETATM    8  C8  UNL     1      11.265 -39.325   6.972  1.00  0.00     0.152 C 
BRANCH   8   9
HETATM    9  C7  UNL     1      10.971 -38.698   5.680  1.00  0.00     0.177 C 
BRANCH   9  10
HETATM   10  C1  UNL     1      10.975 -39.659   4.492  1.00  0.00     0.218 C 
BRANCH  10  11
HETATM   11  N1  UNL     1      10.021 -40.723   4.960  1.00  0.00    -0.072 N 
ATOM     12  H13 UNL     1       9.582 -40.513   5.856  1.00  0.00     0.274 HD
ATOM     13  H12 UNL     1       9.162 -40.771   4.412  1.00  0.00     0.274 HD
ATOM     14  H11 UNL     1      10.557 -41.592   4.960  1.00  0.00     0.274 HD
ENDBRANCH  10  11
BRANCH  10  15
HETATM   15  C2  UNL     1      10.344 -39.059   3.254  1.00  0.00     0.018 C 
HETATM   16  C3  UNL     1       9.125 -39.882   2.844  1.00  0.00     0.007 C 
HETATM   17  C4  UNL     1       9.542 -40.543   1.552  1.00  0.00     0.000 C 
HETATM   18  C5  UNL     1      10.272 -39.370   0.892  1.00  0.00     0.000 C 
HETATM   19  C6  UNL     1      11.232 -39.022   2.047  1.00  0.00     0.007 C 
ENDBRANCH  10  15
ENDBRANCH   9  10
BRANCH   9  20
HETATM   20  O1  UNL     1      11.689 -37.595   5.276  1.00  0.00    -0.391 OA
ATOM     21  H1  UNL     1      11.438 -36.892   5.864  1.00  0.00     0.210 HD
ENDBRANCH   9  20
ENDBRANCH   8   9
BRANCH   8  22
HETATM   22  O2  UNL     1      11.197 -38.172   7.899  1.00  0.00    -0.393 OA
ATOM     23  H2  UNL     1      11.892 -38.371   8.515  1.00  0.00     0.210 HD
ENDBRANCH   8  22
ENDBRANCH   7   8
ENDBRANCH   1   7
BRANCH   1  24
HETATM   24  C11 UNL     1      13.102 -40.248   9.735  1.00  0.00     0.073 C 
BRANCH  24  25
HETATM   25  C12 UNL     1      14.013 -39.049   9.654  1.00  0.00    -0.027 C 
HETATM   26  C13 UNL     1      13.743 -37.916  10.273  1.00  0.00    -0.030 C 
BRANCH  26  27
HETATM   27  C14 UNL     1      14.677 -36.762  10.161  1.00  0.00     0.027 C 
BRANCH  27  28
HETATM   28  C15 UNL     1      15.181 -36.331  11.512  1.00  0.00     0.014 C 
BRANCH  28  29
HETATM   29  C16 UNL     1      14.293 -36.758  12.633  1.00  0.00     0.113 C 
BRANCH  29  30
HETATM   30  C17 UNL     1      13.403 -35.702  13.149  1.00  0.00     0.172 C 
HETATM   31  O3  UNL     1      13.020 -34.769  12.412  1.00  0.00    -0.648 OA
HETATM   32  O4  UNL     1      12.980 -35.732  14.462  1.00  0.00    -0.648 OA
ENDBRANCH  29  30
ENDBRANCH  28  29
ENDBRANCH  27  28
ENDBRANCH  26  27
ENDBRANCH  24  25
ENDBRANCH   1  24
BRANCH   3  33
HETATM   33  C19 UNL     1      14.306 -43.800   7.077  1.00  0.00     0.203 C 
HETATM   34  O6  UNL     1      13.842 -44.897   6.681  1.00  0.00    -0.646 OA
HETATM   35  O7  UNL     1      15.619 -43.786   7.525  1.00  0.00    -0.646 OA
ENDBRANCH   3  33
TORSDOF 15
ENDMDL
MODEL 3
REMARK VINA RESULT: -7.352009863      1.792      2.385
REMARK  15 active torsions:
REMARK  status: ('A' for Active; 'I' for Inactive)
REMARK    1  A    between atoms: N1_1  and  C1_5 
REMARK    2  A    between atoms: C1_5  and  C2_6 
REMARK    3  A    between atoms: C1_5  and  C7_11 
REMARK    4  A    between atoms: C7_11  and  O1_12 
REMARK    5  A    between atoms: C7_11  and  C8_14 
REMARK    6  A    between atoms: C8_14  and  O2_15 
REMARK    7  A    between atoms: C8_14  and  C9_17 
REMARK    8  A    between atoms: C9_17  and  C10_18 
REMARK    9  A    between atoms: C10_18  and  C11_19 
REMARK   10  A    between atoms: C11_19  and  C12_20 
REMARK   11  A    between atoms: C13_21  and  C14_22 
REMARK   12  A    between atoms: C14_22  and  C15_23 
REMARK   13  A    between atoms: C15_23  and  C16_24 
REMARK   14  A    between atoms: C16_24  and  C17_25 
REMARK   15  A    between atoms: C18_29  and  C19_30 
ROOT
HETATM    1  C10 UNL     1      12.301 -41.713   8.043  1.00  0.00     0.128 C 
HETATM    2  O5  UNL     1      12.419 -43.007   7.438  1.00  0.00    -0.356 OA
HETATM    3  C18 UNL     1      11.261 -43.672   7.721  1.00  0.00     0.230 C 
HETATM    4  C20 UNL     1      10.757 -43.194   9.060  1.00  0.00     0.124 C 
HETATM    5  C21 UNL     1      11.776 -42.161   9.398  1.00  0.00     0.164 C 
HETATM    6  O8  UNL     1      12.049 -41.829  10.507  1.00  0.00    -0.295 OA
ENDROOT
BRANCH   1   7
HETATM    7  C9  UNL     1      11.340 -40.889   7.335  1.00  0.00     0.080 C 
BRANCH   7   8
HETATM    8  C8  UNL     1      11.283 -40.560   5.918  1.00  0.00     0.152 C 
BRANCH   8   9
HETATM    9  C7  UNL     1      10.931 -39.236   5.397  1.00  0.00     0.177 C 
BRANCH   9  10
HETATM   10  C1  UNL     1      10.076 -39.258   4.130  1.00  0.00     0.218 C 
BRANCH  10  11
HETATM   11  N1  UNL     1       8.888 -38.439   4.553  1.00  0.00    -0.072 N 
ATOM     12  H13 UNL     1       8.810 -37.548   4.062  1.00  0.00     0.274 HD
ATOM     13  H12 UNL     1       7.995 -38.825   4.245  1.00  0.00     0.274 HD
ATOM     14  H11 UNL     1       8.966 -38.343   5.565  1.00  0.00     0.274 HD
ENDBRANCH  10  11
BRANCH  10  15
HETATM   15  C2  UNL     1      10.710 -38.499   2.985  1.00  0.00     0.018 C 
HETATM   16  C3  UNL     1       9.710 -37.498   2.410  1.00  0.00     0.007 C 
HETATM   17  C4  UNL     1       9.381 -38.048   1.044  1.00  0.00     0.000 C 
HETATM   18  C5  UNL     1      10.780 -38.485   0.602  1.00  0.00     0.000 C 
HETATM   19  C6  UNL     1      11.144 -39.347   1.828  1.00  0.00     0.007 C 
ENDBRANCH  10  15
ENDBRANCH   9  10
BRANCH   9  20
HETATM   20  O1  UNL     1      11.920 -38.305   5.167  1.00  0.00    -0.391 OA
ATOM     21  H1  UNL     1      11.502 -37.456   5.255  1.00  0.00     0.210 HD
ENDBRANCH   9  20
ENDBRANCH   8   9
BRANCH   8  22
HETATM   22  O2  UNL     1      10.141 -41.386   5.463  1.00  0.00    -0.393 OA
ATOM     23  H2  UNL     1      10.567 -42.204   5.232  1.00  0.00     0.210 HD
ENDBRANCH   8  22
ENDBRANCH   7   8
ENDBRANCH   1   7
BRANCH   1  24
HETATM   24  C11 UNL     1      13.648 -41.139   8.260  1.00  0.00     0.073 C 
BRANCH  24  25
HETATM   25  C12 UNL     1      13.561 -39.663   8.557  1.00  0.00    -0.027 C 
HETATM   26  C13 UNL     1      14.317 -39.081   9.467  1.00  0.00    -0.030 C 
BRANCH  26  27
HETATM   27  C14 UNL     1      14.190 -37.618   9.719  1.00  0.00     0.027 C 
BRANCH  27  28
HETATM   28  C15 UNL     1      13.142 -37.330  10.758  1.00  0.00     0.014 C 
BRANCH  28  29
HETATM   29  C16 UNL     1      13.683 -37.313  12.149  1.00  0.00     0.113 C 
BRANCH  29  30
HETATM   30  C17 UNL     1      13.390 -36.082  12.908  1.00  0.00     0.172 C 
HETATM   31  O3  UNL     1      12.978 -35.055  12.329  1.00  0.00    -0.648 OA
HETATM   32  O4  UNL     1      13.570 -36.052  14.275  1.00  0.00    -0.648 OA
ENDBRANCH  29  30
ENDBRANCH  28  29
ENDBRANCH  27  28
ENDBRANCH  26  27
ENDBRANCH  24  25
ENDBRANCH   1  24
BRANCH   3  33
HETATM   33  C19 UNL     1      11.460 -45.145   7.724  1.00  0.00     0.203 C 
HETATM   34  O6  UNL     1      10.770 -45.936   8.411  1.00  0.00    -0.646 OA
HETATM   35  O7  UNL     1      12.460 -45.692   6.932  1.00  0.00    -0.646 OA
ENDBRANCH   3  33
TORSDOF 15
ENDMDL
MODEL 4
REMARK VINA RESULT: -7.349952945      2.016      2.579
REMARK  15 active torsions:
REMARK  status: ('A' for Active; 'I' for Inactive)
REMARK    1  A    between atoms: N1_1  and  C1_5 
REMARK    2  A    between atoms: C1_5  and  C2_6 
REMARK    3  A    between atoms: C1_5  and  C7_11 
REMARK    4  A    between atoms: C7_11  and  O1_12 
REMARK    5  A    between atoms: C7_11  and  C8_14 
REMARK    6  A    between atoms: C8_14  and  O2_15 
REMARK    7  A    between atoms: C8_14  and  C9_17 
REMARK    8  A    between atoms: C9_17  and  C10_18 
REMARK    9  A    between atoms: C10_18  and  C11_19 
REMARK   10  A    between atoms: C11_19  and  C12_20 
REMARK   11  A    between atoms: C13_21  and  C14_22 
REMARK   12  A    between atoms: C14_22  and  C15_23 
REMARK   13  A    between atoms: C15_23  and  C16_24 
REMARK   14  A    between atoms: C16_24  and  C17_25 
REMARK   15  A    between atoms: C18_29  and  C19_30 
ROOT
HETATM    1  C10 UNL     1      12.287 -40.393   7.588  1.00  0.00     0.128 C 
HETATM    2  O5  UNL     1      13.540 -41.057   7.380  1.00  0.00    -0.356 OA
HETATM    3  C18 UNL     1      13.242 -42.315   6.939  1.00  0.00     0.230 C 
HETATM    4  C20 UNL     1      11.935 -42.736   7.565  1.00  0.00     0.124 C 
HETATM    5  C21 UNL     1      11.577 -41.512   8.335  1.00  0.00     0.164 C 
HETATM    6  O8  UNL     1      10.887 -41.510   9.303  1.00  0.00    -0.295 OA
ENDROOT
BRANCH   1   7
HETATM    7  C9  UNL     1      11.639 -40.088   6.327  1.00  0.00     0.080 C 
BRANCH   7   8
HETATM    8  C8  UNL     1      10.959 -38.868   5.918  1.00  0.00     0.152 C 
BRANCH   8   9
HETATM    9  C7  UNL     1       9.976 -38.801   4.831  1.00  0.00     0.177 C 
BRANCH   9  10
HETATM   10  C1  UNL     1      10.524 -38.258   3.512  1.00  0.00     0.218 C 
BRANCH  10  11
HETATM   11  N1  UNL     1      11.359 -39.413   3.033  1.00  0.00    -0.072 N 
ATOM     12  H13 UNL     1      11.726 -39.288   2.089  1.00  0.00     0.274 HD
ATOM     13  H12 UNL     1      12.261 -39.489   3.504  1.00  0.00     0.274 HD
ATOM     14  H11 UNL     1      10.771 -40.240   3.137  1.00  0.00     0.274 HD
ENDBRANCH  10  11
BRANCH  10  15
HETATM   15  C2  UNL     1       9.447 -38.070   2.466  1.00  0.00     0.018 C 
HETATM   16  C3  UNL     1       9.601 -39.120   1.369  1.00  0.00     0.007 C 
HETATM   17  C4  UNL     1      10.041 -38.332   0.160  1.00  0.00     0.000 C 
HETATM   18  C5  UNL     1       9.128 -37.112   0.306  1.00  0.00     0.000 C 
HETATM   19  C6  UNL     1       9.473 -36.746   1.764  1.00  0.00     0.007 C 
ENDBRANCH  10  15
ENDBRANCH   9  10
BRANCH   9  20
HETATM   20  O1  UNL     1       8.776 -38.159   5.033  1.00  0.00    -0.391 OA
ATOM     21  H1  UNL     1       8.858 -37.710   5.867  1.00  0.00     0.210 HD
ENDBRANCH   9  20
ENDBRANCH   8   9
BRANCH   8  22
HETATM   22  O2  UNL     1      12.079 -38.068   5.372  1.00  0.00    -0.393 OA
ATOM     23  H2  UNL     1      12.684 -38.046   6.105  1.00  0.00     0.210 HD
ENDBRANCH   8  22
ENDBRANCH   7   8
ENDBRANCH   1   7
BRANCH   1  24
HETATM   24  C11 UNL     1      12.468 -39.273   8.540  1.00  0.00     0.073 C 
BRANCH  24  25
HETATM   25  C12 UNL     1      13.545 -39.594   9.545  1.00  0.00    -0.027 C 
HETATM   26  C13 UNL     1      13.677 -38.925  10.674  1.00  0.00    -0.030 C 
BRANCH  26  27
HETATM   27  C14 UNL     1      14.758 -39.284  11.633  1.00  0.00     0.027 C 
BRANCH  27  28
HETATM   28  C15 UNL     1      14.224 -40.093  12.784  1.00  0.00     0.014 C 
BRANCH  28  29
HETATM   29  C16 UNL     1      14.784 -41.474  12.840  1.00  0.00     0.113 C 
BRANCH  29  30
HETATM   30  C17 UNL     1      14.083 -42.458  11.995  1.00  0.00     0.172 C 
HETATM   31  O3  UNL     1      12.841 -42.420  11.863  1.00  0.00    -0.648 OA
HETATM   32  O4  UNL     1      14.794 -43.438  11.335  1.00  0.00    -0.648 OA
ENDBRANCH  29  30
ENDBRANCH  28  29
ENDBRANCH  27  28
ENDBRANCH  26  27
ENDBRANCH  24  25
ENDBRANCH   1  24
BRANCH   3  33
HETATM   33  C19 UNL     1      14.322 -43.282   7.267  1.00  0.00     0.203 C 
HETATM   34  O6  UNL     1      15.266 -43.027   8.053  1.00  0.00    -0.646 OA
HETATM   35  O7  UNL     1      14.302 -44.539   6.679  1.00  0.00    -0.646 OA
ENDBRANCH   3  33
TORSDOF 15
ENDMDL
MODEL 5
REMARK VINA RESULT: -7.186325494      2.534      8.314
REMARK  15 active torsions:
REMARK  status: ('A' for Active; 'I' for Inactive)
REMARK    1  A    between atoms: N1_1  and  C1_5 
REMARK    2  A    between atoms: C1_5  and  C2_6 
REMARK    3  A    between atoms: C1_5  and  C7_11 
REMARK    4  A    between atoms: C7_11  and  O1_12 
REMARK    5  A    between atoms: C7_11  and  C8_14 
REMARK    6  A    between atoms: C8_14  and  O2_15 
REMARK    7  A    between atoms: C8_14  and  C9_17 
REMARK    8  A    between atoms: C9_17  and  C10_18 
REMARK    9  A    between atoms: C10_18  and  C11_19 
REMARK   10  A    between atoms: C11_19  and  C12_20 
REMARK   11  A    between atoms: C13_21  and  C14_22 
REMARK   12  A    between atoms: C14_22  and  C15_23 
REMARK   13  A    between atoms: C15_23  and  C16_24 
REMARK   14  A    between atoms: C16_24  and  C17_25 
REMARK   15  A    between atoms: C18_29  and  C19_30 
ROOT
HETATM    1  C10 UNL     1      12.256 -40.999   7.453  1.00  0.00     0.128 C 
HETATM    2  O5  UNL     1      10.965 -41.554   7.736  1.00  0.00    -0.356 OA
HETATM    3  C18 UNL     1      11.145 -42.452   8.749  1.00  0.00     0.230 C 
HETATM    4  C20 UNL     1      12.524 -43.048   8.612  1.00  0.00     0.124 C 
HETATM    5  C21 UNL     1      13.044 -42.299   7.433  1.00  0.00     0.164 C 
HETATM    6  O8  UNL     1      13.886 -42.708   6.700  1.00  0.00    -0.295 OA
ENDROOT
BRANCH   1   7
HETATM    7  C9  UNL     1      12.692 -40.116   8.517  1.00  0.00     0.080 C 
BRANCH   7   8
HETATM    8  C8  UNL     1      13.257 -38.778   8.424  1.00  0.00     0.152 C 
BRANCH   8   9
HETATM    9  C7  UNL     1      14.373 -38.300   9.247  1.00  0.00     0.177 C 
BRANCH   9  10
HETATM   10  C1  UNL     1      14.171 -38.471  10.752  1.00  0.00     0.218 C 
BRANCH  10  11
HETATM   11  N1  UNL     1      15.318 -39.376  11.109  1.00  0.00    -0.072 N 
ATOM     12  H13 UNL     1      15.973 -38.964  11.773  1.00  0.00     0.274 HD
ATOM     13  H12 UNL     1      15.047 -40.173  11.685  1.00  0.00     0.274 HD
ATOM     14  H11 UNL     1      15.747 -39.640  10.221  1.00  0.00     0.274 HD
ENDBRANCH  10  11
BRANCH  10  15
HETATM   15  C2  UNL     1      14.406 -37.191  11.522  1.00  0.00     0.018 C 
HETATM   16  C3  UNL     1      15.260 -37.476  12.755  1.00  0.00     0.007 C 
HETATM   17  C4  UNL     1      14.318 -37.268  13.915  1.00  0.00     0.000 C 
HETATM   18  C5  UNL     1      13.588 -36.014  13.427  1.00  0.00     0.000 C 
HETATM   19  C6  UNL     1      13.165 -36.526  12.036  1.00  0.00     0.007 C 
ENDBRANCH  10  15
ENDBRANCH   9  10
BRANCH   9  20
HETATM   20  O1  UNL     1      14.849 -37.019   9.075  1.00  0.00    -0.391 OA
ATOM     21  H1  UNL     1      14.745 -36.825   8.150  1.00  0.00     0.210 HD
ENDBRANCH   9  20
ENDBRANCH   8   9
BRANCH   8  22
HETATM   22  O2  UNL     1      12.135 -37.943   8.909  1.00  0.00    -0.393 OA
ATOM     23  H2  UNL     1      12.590 -37.237   9.354  1.00  0.00     0.210 HD
ENDBRANCH   8  22
ENDBRANCH   7   8
ENDBRANCH   1   7
BRANCH   1  24
HETATM   24  C11 UNL     1      12.272 -40.453   6.077  1.00  0.00     0.073 C 
BRANCH  24  25
HETATM   25  C12 UNL     1      10.892 -40.012   5.659  1.00  0.00    -0.027 C 
HETATM   26  C13 UNL     1      10.696 -39.052   4.776  1.00  0.00    -0.030 C 
BRANCH  26  27
HETATM   27  C14 UNL     1       9.311 -38.656   4.398  1.00  0.00     0.027 C 
BRANCH  27  28
HETATM   28  C15 UNL     1       9.017 -38.993   2.961  1.00  0.00     0.014 C 
BRANCH  28  29
HETATM   29  C16 UNL     1       9.784 -38.156   1.993  1.00  0.00     0.113 C 
BRANCH  29  30
HETATM   30  C17 UNL     1       8.984 -37.133   1.295  1.00  0.00     0.172 C 
HETATM   31  O3  UNL     1       8.617 -36.094   1.884  1.00  0.00    -0.648 OA
HETATM   32  O4  UNL     1       8.629 -37.312  -0.026  1.00  0.00    -0.648 OA
ENDBRANCH  29  30
ENDBRANCH  28  29
ENDBRANCH  27  28
ENDBRANCH  26  27
ENDBRANCH  24  25
ENDBRANCH   1  24
BRANCH   3  33
HETATM   33  C19 UNL     1      10.105 -43.513   8.735  1.00  0.00     0.203 C 
HETATM   34  O6  UNL     1       9.506 -43.911   9.763  1.00  0.00    -0.646 OA
HETATM   35  O7  UNL     1       9.767 -44.109   7.527  1.00  0.00    -0.646 OA
ENDBRANCH   3  33
TORSDOF 15
ENDMDL
