MODEL 1
REMARK VINA RESULT: -6.864160303      0.000      0.000
REMARK  15 active torsions:
REMARK  status: ('A' for Active; 'I' for Inactive)
REMARK    1  A    between atoms: C5_6  and  C6_7 
REMARK    2  A    between atoms: C6_7  and  N1_8 
REMARK    3  A    between atoms: N1_8  and  C7_11 
REMARK    4  A    between atoms: C7_11  and  C8_12 
REMARK    5  A    between atoms: C8_12  and  C9_13 
REMARK    6  A    between atoms: C9_13  and  C10_14 
REMARK    7  A    between atoms: C10_14  and  C11_15 
REMARK    8  A    between atoms: C11_15  and  C12_16 
REMARK    9  A    between atoms: C12_16  and  C13_17 
REMARK   10  A    between atoms: C13_17  and  C14_18 
REMARK   11  A    between atoms: C14_18  and  C15_19 
REMARK   12  A    between atoms: C15_19  and  C16_20 
REMARK   13  A    between atoms: C16_20  and  N2_21 
REMARK   14  A    between atoms: C18_29  and  C19_30 
REMARK   15  A    between atoms: C22_38  and  O4_39 
ROOT
HETATM    1  C1  UNL     1      15.712 -35.357  16.408  1.00  0.00     0.048 C 
HETATM    2  C2  UNL     1      15.222 -36.599  15.666  1.00  0.00    -0.025 C 
HETATM    3  C3  UNL     1      15.978 -37.674  15.640  1.00  0.00     0.062 C 
HETATM    4  C4  UNL     1      15.753 -38.959  15.014  1.00  0.00     0.185 C 
HETATM    5  O1  UNL     1      15.460 -39.920  15.832  1.00  0.00    -0.288 OA
HETATM    6  C5  UNL     1      15.814 -39.326  13.588  1.00  0.00     0.085 C 
HETATM    7  C17 UNL     1      14.497 -39.382  12.905  1.00  0.00     0.254 C 
HETATM    8  O2  UNL     1      13.787 -40.431  13.200  1.00  0.00    -0.268 OA
HETATM    9  N3  UNL     1      13.915 -38.491  12.010  1.00  0.00    -0.344 N 
ATOM     10  H3  UNL     1      12.900 -38.574  11.955  1.00  0.00     0.163 HD
HETATM   11  C18 UNL     1      14.450 -37.490  11.154  1.00  0.00     0.175 C 
HETATM   12  C20 UNL     1      14.138 -36.081  11.622  1.00  0.00     0.062 C 
HETATM   13  C21 UNL     1      13.225 -36.019  12.799  1.00  0.00     0.238 C 
HETATM   14  N5  UNL     1      13.905 -35.479  13.972  1.00  0.00    -0.045 N 
ATOM     15  H51 UNL     1      13.524 -34.571  14.240  1.00  0.00     0.280 HD
ATOM     16  H52 UNL     1      14.858 -35.190  13.752  1.00  0.00     0.280 HD
HETATM   17  C22 UNL     1      13.876 -36.407  15.069  1.00  0.00     0.348 C 
ENDROOT
BRANCH   6  18
HETATM   18  C6  UNL     1      16.919 -38.729  12.789  1.00  0.00     0.280 C 
BRANCH  18  19
HETATM   19  N1  UNL     1      17.923 -39.743  12.486  1.00  0.00    -0.071 N 
ATOM     20  H12 UNL     1      18.530 -39.428  11.729  1.00  0.00     0.277 HD
ATOM     21  H11 UNL     1      18.606 -39.806  13.241  1.00  0.00     0.277 HD
BRANCH  19  22
HETATM   22  C7  UNL     1      17.385 -41.035  12.190  1.00  0.00     0.232 C 
BRANCH  22  23
HETATM   23  C8  UNL     1      17.550 -41.301  10.690  1.00  0.00     0.027 C 
BRANCH  23  24
HETATM   24  C9  UNL     1      16.203 -41.802  10.132  1.00  0.00     0.002 C 
BRANCH  24  25
HETATM   25  C10 UNL     1      16.363 -43.056   9.369  1.00  0.00     0.000 C 
BRANCH  25  26
HETATM   26  C11 UNL     1      15.417 -43.258   8.265  1.00  0.00     0.000 C 
BRANCH  26  27
HETATM   27  C12 UNL     1      14.002 -42.815   8.369  1.00  0.00     0.000 C 
BRANCH  27  28
HETATM   28  C13 UNL     1      13.399 -41.991   7.327  1.00  0.00     0.000 C 
BRANCH  28  29
HETATM   29  C14 UNL     1      12.862 -40.655   7.699  1.00  0.00     0.002 C 
BRANCH  29  30
HETATM   30  C15 UNL     1      11.557 -40.171   7.284  1.00  0.00     0.027 C 
BRANCH  30  31
HETATM   31  C16 UNL     1      11.433 -38.971   6.409  1.00  0.00     0.229 C 
BRANCH  31  32
HETATM   32  N2  UNL     1      12.704 -38.212   6.415  1.00  0.00    -0.079 N 
ATOM     33  H23 UNL     1      13.281 -38.436   7.226  1.00  0.00     0.274 HD
ATOM     34  H22 UNL     1      13.343 -38.529   5.686  1.00  0.00     0.274 HD
ATOM     35  H21 UNL     1      12.510 -37.212   6.346  1.00  0.00     0.274 HD
ENDBRANCH  31  32
ENDBRANCH  30  31
ENDBRANCH  29  30
ENDBRANCH  28  29
ENDBRANCH  27  28
ENDBRANCH  26  27
ENDBRANCH  25  26
ENDBRANCH  24  25
ENDBRANCH  23  24
ENDBRANCH  22  23
ENDBRANCH  19  22
ENDBRANCH  18  19
ENDBRANCH   6  18
BRANCH  11  36
HETATM   36  C19 UNL     1      13.752 -37.583   9.801  1.00  0.00     0.254 C 
HETATM   37  N4  UNL     1      14.647 -37.476   8.690  1.00  0.00    -0.060 NA
HETATM   38  O3  UNL     1      12.526 -37.738   9.716  1.00  0.00    -0.275 OA
ENDBRANCH  11  36
BRANCH  17  39
HETATM   39  O4  UNL     1      13.060 -35.766  16.055  1.00  0.00    -0.366 OA
ATOM     40  H4  UNL     1      13.198 -34.830  15.971  1.00  0.00     0.212 HD
ENDBRANCH  17  39
TORSDOF 15
ENDMDL
MODEL 2
REMARK VINA RESULT: -6.562837337      3.406      6.622
REMARK  15 active torsions:
REMARK  status: ('A' for Active; 'I' for Inactive)
REMARK    1  A    between atoms: C5_6  and  C6_7 
REMARK    2  A    between atoms: C6_7  and  N1_8 
REMARK    3  A    between atoms: N1_8  and  C7_11 
REMARK    4  A    between atoms: C7_11  and  C8_12 
REMARK    5  A    between atoms: C8_12  and  C9_13 
REMARK    6  A    between atoms: C9_13  and  C10_14 
REMARK    7  A    between atoms: C10_14  and  C11_15 
REMARK    8  A    between atoms: C11_15  and  C12_16 
REMARK    9  A    between atoms: C12_16  and  C13_17 
REMARK   10  A    between atoms: C13_17  and  C14_18 
REMARK   11  A    between atoms: C14_18  and  C15_19 
REMARK   12  A    between atoms: C15_19  and  C16_20 
REMARK   13  A    between atoms: C16_20  and  N2_21 
REMARK   14  A    between atoms: C18_29  and  C19_30 
REMARK   15  A    between atoms: C22_38  and  O4_39 
ROOT
HETATM    1  C1  UNL     1      16.242 -40.148  11.731  1.00  0.00     0.048 C 
HETATM    2  C2  UNL     1      14.875 -40.598  11.217  1.00  0.00    -0.025 C 
HETATM    3  C3  UNL     1      14.695 -41.855  10.882  1.00  0.00     0.062 C 
HETATM    4  C4  UNL     1      13.519 -42.527  10.372  1.00  0.00     0.185 C 
HETATM    5  O1  UNL     1      12.917 -43.295  11.224  1.00  0.00    -0.288 OA
HETATM    6  C5  UNL     1      12.918 -42.463   9.028  1.00  0.00     0.085 C 
HETATM    7  C17 UNL     1      11.763 -41.536   8.909  1.00  0.00     0.254 C 
HETATM    8  O2  UNL     1      10.663 -41.983   9.438  1.00  0.00    -0.268 OA
HETATM    9  N3  UNL     1      11.684 -40.278   8.324  1.00  0.00    -0.344 N 
ATOM     10  H3  UNL     1      10.903 -39.718   8.666  1.00  0.00     0.163 HD
HETATM   11  C18 UNL     1      12.472 -39.613   7.344  1.00  0.00     0.175 C 
HETATM   12  C20 UNL     1      13.307 -38.486   7.919  1.00  0.00     0.062 C 
HETATM   13  C21 UNL     1      13.041 -38.204   9.359  1.00  0.00     0.238 C 
HETATM   14  N5  UNL     1      14.204 -38.513  10.184  1.00  0.00    -0.045 N 
ATOM     15  H51 UNL     1      14.607 -37.670  10.594  1.00  0.00     0.280 HD
ATOM     16  H52 UNL     1      14.999 -38.807   9.617  1.00  0.00     0.280 HD
HETATM   17  C22 UNL     1      13.888 -39.489  11.192  1.00  0.00     0.348 C 
ENDROOT
BRANCH   6  18
HETATM   18  C6  UNL     1      13.856 -42.461   7.873  1.00  0.00     0.280 C 
BRANCH  18  19
HETATM   19  N1  UNL     1      13.928 -43.794   7.283  1.00  0.00    -0.071 N 
ATOM     20  H12 UNL     1      13.011 -44.238   7.295  1.00  0.00     0.277 HD
ATOM     21  H11 UNL     1      14.078 -43.730   6.277  1.00  0.00     0.277 HD
BRANCH  19  22
HETATM   22  C7  UNL     1      14.906 -44.650   7.880  1.00  0.00     0.232 C 
BRANCH  22  23
HETATM   23  C8  UNL     1      16.189 -43.844   8.106  1.00  0.00     0.027 C 
BRANCH  23  24
HETATM   24  C9  UNL     1      17.380 -44.822   8.153  1.00  0.00     0.002 C 
BRANCH  24  25
HETATM   25  C10 UNL     1      18.167 -44.662   9.392  1.00  0.00     0.000 C 
BRANCH  25  26
HETATM   26  C11 UNL     1      18.051 -43.358  10.058  1.00  0.00     0.000 C 
BRANCH  26  27
HETATM   27  C12 UNL     1      19.245 -42.657  10.597  1.00  0.00     0.000 C 
BRANCH  27  28
HETATM   28  C13 UNL     1      20.516 -43.357  10.749  1.00  0.00     0.000 C 
BRANCH  28  29
HETATM   29  C14 UNL     1      21.580 -43.126   9.737  1.00  0.00     0.002 C 
BRANCH  29  30
HETATM   30  C15 UNL     1      21.963 -44.107   8.736  1.00  0.00     0.027 C 
BRANCH  30  31
HETATM   31  C16 UNL     1      23.322 -44.719   8.751  1.00  0.00     0.229 C 
BRANCH  31  32
HETATM   32  N2  UNL     1      23.605 -45.346   7.439  1.00  0.00    -0.079 N 
ATOM     33  H23 UNL     1      23.754 -46.352   7.520  1.00  0.00     0.274 HD
ATOM     34  H22 UNL     1      22.782 -45.366   6.838  1.00  0.00     0.274 HD
ATOM     35  H21 UNL     1      24.394 -44.875   6.994  1.00  0.00     0.274 HD
ENDBRANCH  31  32
ENDBRANCH  30  31
ENDBRANCH  29  30
ENDBRANCH  28  29
ENDBRANCH  27  28
ENDBRANCH  26  27
ENDBRANCH  25  26
ENDBRANCH  24  25
ENDBRANCH  23  24
ENDBRANCH  22  23
ENDBRANCH  19  22
ENDBRANCH  18  19
ENDBRANCH   6  18
BRANCH  11  36
HETATM   36  C19 UNL     1      11.537 -38.908   6.366  1.00  0.00     0.254 C 
HETATM   37  N4  UNL     1      10.587 -39.785   5.753  1.00  0.00    -0.060 NA
HETATM   38  O3  UNL     1      11.626 -37.691   6.152  1.00  0.00    -0.275 OA
ENDBRANCH  11  36
BRANCH  17  39
HETATM   39  O4  UNL     1      14.015 -38.778  12.428  1.00  0.00    -0.366 OA
ATOM     40  H4  UNL     1      13.373 -39.137  13.028  1.00  0.00     0.212 HD
ENDBRANCH  17  39
TORSDOF 15
ENDMDL
MODEL 3
REMARK VINA RESULT: -6.424018903      2.348      5.057
REMARK  15 active torsions:
REMARK  status: ('A' for Active; 'I' for Inactive)
REMARK    1  A    between atoms: C5_6  and  C6_7 
REMARK    2  A    between atoms: C6_7  and  N1_8 
REMARK    3  A    between atoms: N1_8  and  C7_11 
REMARK    4  A    between atoms: C7_11  and  C8_12 
REMARK    5  A    between atoms: C8_12  and  C9_13 
REMARK    6  A    between atoms: C9_13  and  C10_14 
REMARK    7  A    between atoms: C10_14  and  C11_15 
REMARK    8  A    between atoms: C11_15  and  C12_16 
REMARK    9  A    between atoms: C12_16  and  C13_17 
REMARK   10  A    between atoms: C13_17  and  C14_18 
REMARK   11  A    between atoms: C14_18  and  C15_19 
REMARK   12  A    between atoms: C15_19  and  C16_20 
REMARK   13  A    between atoms: C16_20  and  N2_21 
REMARK   14  A    between atoms: C18_29  and  C19_30 
REMARK   15  A    between atoms: C22_38  and  O4_39 
ROOT
HETATM    1  C1  UNL     1      12.958 -39.477   8.453  1.00  0.00     0.048 C 
HETATM    2  C2  UNL     1      14.077 -39.325   9.482  1.00  0.00    -0.025 C 
HETATM    3  C3  UNL     1      14.558 -40.395  10.073  1.00  0.00     0.062 C 
HETATM    4  C4  UNL     1      15.598 -40.523  11.071  1.00  0.00     0.185 C 
HETATM    5  O1  UNL     1      16.721 -40.999  10.631  1.00  0.00    -0.288 OA
HETATM    6  C5  UNL     1      15.558 -40.196  12.507  1.00  0.00     0.085 C 
HETATM    7  C17 UNL     1      16.148 -38.879  12.859  1.00  0.00     0.254 C 
HETATM    8  O2  UNL     1      17.447 -38.853  12.835  1.00  0.00    -0.268 OA
HETATM    9  N3  UNL     1      15.526 -37.685  13.206  1.00  0.00    -0.344 N 
ATOM     10  H3  UNL     1      16.116 -36.864  13.067  1.00  0.00     0.163 HD
HETATM   11  C18 UNL     1      14.236 -37.378  13.717  1.00  0.00     0.175 C 
HETATM   12  C20 UNL     1      13.342 -36.696  12.698  1.00  0.00     0.062 C 
HETATM   13  C21 UNL     1      14.025 -36.358  11.417  1.00  0.00     0.238 C 
HETATM   14  N5  UNL     1      13.478 -37.127  10.304  1.00  0.00    -0.045 N 
ATOM     15  H51 UNL     1      12.990 -36.527   9.639  1.00  0.00     0.280 HD
ATOM     16  H52 UNL     1      12.692 -37.706  10.600  1.00  0.00     0.280 HD
HETATM   17  C22 UNL     1      14.496 -37.911   9.658  1.00  0.00     0.348 C 
ENDROOT
BRANCH   6  18
HETATM   18  C6  UNL     1      14.314 -40.552  13.241  1.00  0.00     0.280 C 
BRANCH  18  19
HETATM   19  N1  UNL     1      14.290 -41.983  13.526  1.00  0.00    -0.071 N 
ATOM     20  H12 UNL     1      15.183 -42.409  13.281  1.00  0.00     0.277 HD
ATOM     21  H11 UNL     1      14.289 -42.146  14.532  1.00  0.00     0.277 HD
BRANCH  19  22
HETATM   22  C7  UNL     1      13.212 -42.689  12.904  1.00  0.00     0.232 C 
BRANCH  22  23
HETATM   23  C8  UNL     1      13.796 -43.665  11.877  1.00  0.00     0.027 C 
BRANCH  23  24
HETATM   24  C9  UNL     1      12.684 -44.048  10.880  1.00  0.00     0.002 C 
BRANCH  24  25
HETATM   25  C10 UNL     1      11.881 -42.876  10.483  1.00  0.00     0.000 C 
BRANCH  25  26
HETATM   26  C11 UNL     1      11.541 -42.788   9.057  1.00  0.00     0.000 C 
BRANCH  26  27
HETATM   27  C12 UNL     1      12.350 -43.485   8.025  1.00  0.00     0.000 C 
BRANCH  27  28
HETATM   28  C13 UNL     1      13.489 -42.823   7.397  1.00  0.00     0.000 C 
BRANCH  28  29
HETATM   29  C14 UNL     1      14.808 -43.510   7.414  1.00  0.00     0.002 C 
BRANCH  29  30
HETATM   30  C15 UNL     1      15.715 -43.478   8.549  1.00  0.00     0.027 C 
BRANCH  30  31
HETATM   31  C16 UNL     1      17.035 -44.167   8.488  1.00  0.00     0.229 C 
BRANCH  31  32
HETATM   32  N2  UNL     1      17.879 -43.738   9.627  1.00  0.00    -0.079 N 
ATOM     33  H23 UNL     1      17.387 -43.809  10.517  1.00  0.00     0.274 HD
ATOM     34  H22 UNL     1      18.630 -44.401   9.818  1.00  0.00     0.274 HD
ATOM     35  H21 UNL     1      18.234 -42.795   9.458  1.00  0.00     0.274 HD
ENDBRANCH  31  32
ENDBRANCH  30  31
ENDBRANCH  29  30
ENDBRANCH  28  29
ENDBRANCH  27  28
ENDBRANCH  26  27
ENDBRANCH  25  26
ENDBRANCH  24  25
ENDBRANCH  23  24
ENDBRANCH  22  23
ENDBRANCH  19  22
ENDBRANCH  18  19
ENDBRANCH   6  18
BRANCH  11  36
HETATM   36  C19 UNL     1      14.385 -36.336  14.821  1.00  0.00     0.254 C 
HETATM   37  N4  UNL     1      13.175 -35.627  15.103  1.00  0.00    -0.060 NA
HETATM   38  O3  UNL     1      15.468 -36.153  15.394  1.00  0.00    -0.275 OA
ENDBRANCH  11  36
BRANCH  17  39
HETATM   39  O4  UNL     1      14.611 -37.336   8.352  1.00  0.00    -0.366 OA
ATOM     40  H4  UNL     1      14.238 -36.463   8.394  1.00  0.00     0.212 HD
ENDBRANCH  17  39
TORSDOF 15
ENDMDL
MODEL 4
REMARK VINA RESULT: -6.380193334      1.906      2.187
REMARK  15 active torsions:
REMARK  status: ('A' for Active; 'I' for Inactive)
REMARK    1  A    between atoms: C5_6  and  C6_7 
REMARK    2  A    between atoms: C6_7  and  N1_8 
REMARK    3  A    between atoms: N1_8  and  C7_11 
REMARK    4  A    between atoms: C7_11  and  C8_12 
REMARK    5  A    between atoms: C8_12  and  C9_13 
REMARK    6  A    between atoms: C9_13  and  C10_14 
REMARK    7  A    between atoms: C10_14  and  C11_15 
REMARK    8  A    between atoms: C11_15  and  C12_16 
REMARK    9  A    between atoms: C12_16  and  C13_17 
REMARK   10  A    between atoms: C13_17  and  C14_18 
REMARK   11  A    between atoms: C14_18  and  C15_19 
REMARK   12  A    between atoms: C15_19  and  C16_20 
REMARK   13  A    between atoms: C16_20  and  N2_21 
REMARK   14  A    between atoms: C18_29  and  C19_30 
REMARK   15  A    between atoms: C22_38  and  O4_39 
ROOT
HETATM    1  C1  UNL     1      15.784 -35.358  16.449  1.00  0.00     0.048 C 
HETATM    2  C2  UNL     1      15.265 -36.598  15.723  1.00  0.00    -0.025 C 
HETATM    3  C3  UNL     1      15.990 -37.693  15.720  1.00  0.00     0.062 C 
HETATM    4  C4  UNL     1      15.734 -38.982  15.113  1.00  0.00     0.185 C 
HETATM    5  O1  UNL     1      15.408 -39.921  15.945  1.00  0.00    -0.288 OA
HETATM    6  C5  UNL     1      15.794 -39.373  13.694  1.00  0.00     0.085 C 
HETATM    7  C17 UNL     1      14.480 -39.404  13.003  1.00  0.00     0.254 C 
HETATM    8  O2  UNL     1      13.740 -40.428  13.309  1.00  0.00    -0.268 OA
HETATM    9  N3  UNL     1      13.929 -38.512  12.089  1.00  0.00    -0.344 N 
ATOM     10  H3  UNL     1      12.912 -38.567  12.029  1.00  0.00     0.163 HD
HETATM   11  C18 UNL     1      14.498 -37.540  11.221  1.00  0.00     0.175 C 
HETATM   12  C20 UNL     1      14.222 -36.116  11.665  1.00  0.00     0.062 C 
HETATM   13  C21 UNL     1      13.303 -36.009  12.833  1.00  0.00     0.238 C 
HETATM   14  N5  UNL     1      13.990 -35.469  14.002  1.00  0.00    -0.045 N 
ATOM     15  H51 UNL     1      13.633 -34.547  14.253  1.00  0.00     0.280 HD
ATOM     16  H52 UNL     1      14.953 -35.210  13.784  1.00  0.00     0.280 HD
HETATM   17  C22 UNL     1      13.928 -36.378  15.114  1.00  0.00     0.348 C 
ENDROOT
BRANCH   6  18
HETATM   18  C6  UNL     1      16.921 -38.821  12.894  1.00  0.00     0.280 C 
BRANCH  18  19
HETATM   19  N1  UNL     1      17.970 -39.823  12.745  1.00  0.00    -0.071 N 
ATOM     20  H12 UNL     1      18.707 -39.479  12.129  1.00  0.00     0.277 HD
ATOM     21  H11 UNL     1      18.498 -39.917  13.612  1.00  0.00     0.277 HD
BRANCH  19  22
HETATM   22  C7  UNL     1      17.506 -41.101  12.302  1.00  0.00     0.232 C 
BRANCH  22  23
HETATM   23  C8  UNL     1      17.410 -41.083  10.773  1.00  0.00     0.027 C 
BRANCH  23  24
HETATM   24  C9  UNL     1      16.987 -42.486  10.293  1.00  0.00     0.002 C 
BRANCH  24  25
HETATM   25  C10 UNL     1      15.825 -42.423   9.385  1.00  0.00     0.000 C 
BRANCH  25  26
HETATM   26  C11 UNL     1      14.908 -41.295   9.597  1.00  0.00     0.000 C 
BRANCH  26  27
HETATM   27  C12 UNL     1      13.496 -41.513  10.006  1.00  0.00     0.000 C 
BRANCH  27  28
HETATM   28  C13 UNL     1      12.398 -41.161   9.112  1.00  0.00     0.000 C 
BRANCH  28  29
HETATM   29  C14 UNL     1      11.283 -42.130   8.940  1.00  0.00     0.002 C 
BRANCH  29  30
HETATM   30  C15 UNL     1      10.646 -42.824  10.046  1.00  0.00     0.027 C 
BRANCH  30  31
HETATM   31  C16 UNL     1       9.720 -43.964   9.797  1.00  0.00     0.229 C 
BRANCH  31  32
HETATM   32  N2  UNL     1       8.696 -44.024  10.865  1.00  0.00    -0.079 N 
ATOM     33  H23 UNL     1       8.839 -44.819  11.489  1.00  0.00     0.274 HD
ATOM     34  H22 UNL     1       8.812 -43.276  11.549  1.00  0.00     0.274 HD
ATOM     35  H21 UNL     1       7.763 -44.024  10.451  1.00  0.00     0.274 HD
ENDBRANCH  31  32
ENDBRANCH  30  31
ENDBRANCH  29  30
ENDBRANCH  28  29
ENDBRANCH  27  28
ENDBRANCH  26  27
ENDBRANCH  25  26
ENDBRANCH  24  25
ENDBRANCH  23  24
ENDBRANCH  22  23
ENDBRANCH  19  22
ENDBRANCH  18  19
ENDBRANCH   6  18
BRANCH  11  36
HETATM   36  C19 UNL     1      13.806 -37.636   9.865  1.00  0.00     0.254 C 
HETATM   37  N4  UNL     1      14.713 -37.590   8.759  1.00  0.00    -0.060 NA
HETATM   38  O3  UNL     1      12.576 -37.744   9.773  1.00  0.00    -0.275 OA
ENDBRANCH  11  36
BRANCH  17  39
HETATM   39  O4  UNL     1      13.124 -35.699  16.084  1.00  0.00    -0.366 OA
ATOM     40  H4  UNL     1      12.313 -35.452  15.656  1.00  0.00     0.212 HD
ENDBRANCH  17  39
TORSDOF 15
ENDMDL
MODEL 5
REMARK VINA RESULT: -6.272927188      3.636      7.909
REMARK  15 active torsions:
REMARK  status: ('A' for Active; 'I' for Inactive)
REMARK    1  A    between atoms: C5_6  and  C6_7 
REMARK    2  A    between atoms: C6_7  and  N1_8 
REMARK    3  A    between atoms: N1_8  and  C7_11 
REMARK    4  A    between atoms: C7_11  and  C8_12 
REMARK    5  A    between atoms: C8_12  and  C9_13 
REMARK    6  A    between atoms: C9_13  and  C10_14 
REMARK    7  A    between atoms: C10_14  and  C11_15 
REMARK    8  A    between atoms: C11_15  and  C12_16 
REMARK    9  A    between atoms: C12_16  and  C13_17 
REMARK   10  A    between atoms: C13_17  and  C14_18 
REMARK   11  A    between atoms: C14_18  and  C15_19 
REMARK   12  A    between atoms: C15_19  and  C16_20 
REMARK   13  A    between atoms: C16_20  and  N2_21 
REMARK   14  A    between atoms: C18_29  and  C19_30 
REMARK   15  A    between atoms: C22_38  and  O4_39 
ROOT
HETATM    1  C1  UNL     1      13.489 -41.671  13.020  1.00  0.00     0.048 C 
HETATM    2  C2  UNL     1      13.616 -42.286  11.627  1.00  0.00    -0.025 C 
HETATM    3  C3  UNL     1      14.199 -41.600  10.671  1.00  0.00     0.062 C 
HETATM    4  C4  UNL     1      14.438 -41.946   9.286  1.00  0.00     0.185 C 
HETATM    5  O1  UNL     1      15.669 -42.237   9.002  1.00  0.00    -0.288 OA
HETATM    6  C5  UNL     1      13.488 -42.008   8.162  1.00  0.00     0.085 C 
HETATM    7  C17 UNL     1      12.995 -43.372   7.842  1.00  0.00     0.254 C 
HETATM    8  O2  UNL     1      13.858 -44.120   7.223  1.00  0.00    -0.268 OA
HETATM    9  N3  UNL     1      11.763 -43.962   8.104  1.00  0.00    -0.344 N 
ATOM     10  H3  UNL     1      11.790 -44.982   8.097  1.00  0.00     0.163 HD
HETATM   11  C18 UNL     1      10.473 -43.430   8.378  1.00  0.00     0.175 C 
HETATM   12  C20 UNL     1      10.046 -43.623   9.820  1.00  0.00     0.062 C 
HETATM   13  C21 UNL     1      10.990 -44.444  10.630  1.00  0.00     0.238 C 
HETATM   14  N5  UNL     1      11.617 -43.651  11.683  1.00  0.00    -0.045 N 
ATOM     15  H51 UNL     1      11.319 -43.957  12.609  1.00  0.00     0.280 HD
ATOM     16  H52 UNL     1      11.248 -42.701  11.705  1.00  0.00     0.280 HD
HETATM   17  C22 UNL     1      13.050 -43.657  11.562  1.00  0.00     0.348 C 
ENDROOT
BRANCH   6  18
HETATM   18  C6  UNL     1      12.465 -40.929   8.088  1.00  0.00     0.280 C 
BRANCH  18  19
HETATM   19  N1  UNL     1      12.748 -40.046   6.962  1.00  0.00    -0.071 N 
ATOM     20  H12 UNL     1      13.693 -40.205   6.614  1.00  0.00     0.277 HD
ATOM     21  H11 UNL     1      12.211 -40.331   6.143  1.00  0.00     0.277 HD
BRANCH  19  22
HETATM   22  C7  UNL     1      12.543 -38.658   7.235  1.00  0.00     0.232 C 
BRANCH  22  23
HETATM   23  C8  UNL     1      12.813 -38.408   8.722  1.00  0.00     0.027 C 
BRANCH  23  24
HETATM   24  C9  UNL     1      14.257 -37.892   8.877  1.00  0.00     0.002 C 
BRANCH  24  25
HETATM   25  C10 UNL     1      14.427 -37.115  10.120  1.00  0.00     0.000 C 
BRANCH  25  26
HETATM   26  C11 UNL     1      13.302 -37.162  11.062  1.00  0.00     0.000 C 
BRANCH  26  27
HETATM   27  C12 UNL     1      13.378 -36.502  12.391  1.00  0.00     0.000 C 
BRANCH  27  28
HETATM   28  C13 UNL     1      13.899 -37.218  13.551  1.00  0.00     0.000 C 
BRANCH  28  29
HETATM   29  C14 UNL     1      14.404 -36.429  14.706  1.00  0.00     0.002 C 
BRANCH  29  30
HETATM   30  C15 UNL     1      13.540 -35.696  15.616  1.00  0.00     0.027 C 
BRANCH  30  31
HETATM   31  C16 UNL     1      14.053 -35.217  16.931  1.00  0.00     0.229 C 
BRANCH  31  32
HETATM   32  N2  UNL     1      13.747 -33.777  17.094  1.00  0.00    -0.079 N 
ATOM     33  H23 UNL     1      14.586 -33.227  17.284  1.00  0.00     0.274 HD
ATOM     34  H22 UNL     1      13.479 -33.340  16.213  1.00  0.00     0.274 HD
ATOM     35  H21 UNL     1      13.036 -33.654  17.816  1.00  0.00     0.274 HD
ENDBRANCH  31  32
ENDBRANCH  30  31
ENDBRANCH  29  30
ENDBRANCH  28  29
ENDBRANCH  27  28
ENDBRANCH  26  27
ENDBRANCH  25  26
ENDBRANCH  24  25
ENDBRANCH  23  24
ENDBRANCH  22  23
ENDBRANCH  19  22
ENDBRANCH  18  19
ENDBRANCH   6  18
BRANCH  11  36
HETATM   36  C19 UNL     1       9.441 -44.227   7.586  1.00  0.00     0.254 C 
HETATM   37  N4  UNL     1      10.004 -44.967   6.499  1.00  0.00    -0.060 NA
HETATM   38  O3  UNL     1       8.240 -44.208   7.889  1.00  0.00    -0.275 OA
ENDBRANCH  11  36
BRANCH  17  39
HETATM   39  O4  UNL     1      13.501 -44.361  12.724  1.00  0.00    -0.366 OA
ATOM     40  H4  UNL     1      12.874 -45.053  12.897  1.00  0.00     0.212 HD
ENDBRANCH  17  39
TORSDOF 15
ENDMDL
