MODEL 1
REMARK VINA RESULT: -8.421137085      0.000      0.000
REMARK  15 active torsions:
REMARK  status: ('A' for Active; 'I' for Inactive)
REMARK    1  A    between atoms: N1_1  and  C1_5 
REMARK    2  A    between atoms: C1_5  and  C2_6 
REMARK    3  A    between atoms: C2_6  and  C3_7 
REMARK    4  A    between atoms: C3_7  and  N2_8 
REMARK    5  A    between atoms: N2_8  and  C4_10 
REMARK    6  A    between atoms: N4_17  and  C8_19 
REMARK    7  A    between atoms: C8_19  and  C9_20 
REMARK    8  A    between atoms: C12_23  and  N5_24 
REMARK    9  A    between atoms: N5_24  and  C13_26 
REMARK   10  A    between atoms: C13_26  and  C14_27 
REMARK   11  A    between atoms: C14_27  and  C15_28 
REMARK   12  A    between atoms: C15_28  and  C16_29 
REMARK   13  A    between atoms: C16_29  and  C17_30 
REMARK   14  A    between atoms: C17_30  and  N6_31 
REMARK   15  A    between atoms: N6_31  and  C18_33 
ROOT
HETATM    1  C4  UNL     1      35.726  41.621  -4.105  1.00  0.00     0.682 A 
HETATM    2  N3  UNL     1      36.181  40.417  -4.496  1.00  0.00    -0.155 N 
ATOM      3  H3  UNL     1      36.807  39.923  -3.859  1.00  0.00     0.187 HD
HETATM    4  C5  UNL     1      35.880  39.814  -5.654  1.00  0.00     0.277 A 
HETATM    5  O1  UNL     1      36.345  38.677  -5.956  1.00  0.00    -0.266 OA
HETATM    6  C6  UNL     1      35.038  40.460  -6.529  1.00  0.00     0.121 A 
HETATM    7  C7  UNL     1      34.659  39.931  -7.757  1.00  0.00     0.122 A 
HETATM    8  N4  UNL     1      35.125  38.793  -8.087  1.00  0.00    -0.369 N 
ATOM      9  H4  UNL     1      35.754  38.319  -7.438  1.00  0.00     0.161 HD
HETATM   10  N7  UNL     1      33.835  40.593  -8.579  1.00  0.00    -0.338 N 
ATOM     11  H7  UNL     1      33.565  40.190  -9.476  1.00  0.00     0.168 HD
HETATM   12  C24 UNL     1      33.362  41.819  -8.198  1.00  0.00     0.183 A 
HETATM   13  N8  UNL     1      33.726  42.334  -7.014  1.00  0.00    -0.337 N 
ATOM     14  H8  UNL     1      33.358  43.248  -6.752  1.00  0.00     0.168 HD
HETATM   15  C25 UNL     1      34.555  41.701  -6.151  1.00  0.00     0.141 A 
HETATM   16  N9  UNL     1      34.897  42.250  -4.976  1.00  0.00    -0.175 N 
ATOM     17  H9  UNL     1      34.522  43.166  -4.730  1.00  0.00     0.186 HD
ENDROOT
BRANCH   8  18
HETATM   18  C8  UNL     1      34.808  38.144  -9.330  1.00  0.00     0.186 C 
BRANCH  18  19
HETATM   19  C9  UNL     1      33.669  37.185  -9.089  1.00  0.00     0.073 A 
HETATM   20  C10 UNL     1      33.671  35.823  -9.221  1.00  0.00     0.039 A 
HETATM   21  C11 UNL     1      32.415  35.397  -8.900  1.00  0.00     0.058 A 
HETATM   22  C12 UNL     1      31.661  36.525  -8.572  1.00  0.00     0.143 A 
HETATM   23  O2  UNL     1      32.465  37.549  -8.704  1.00  0.00    -0.297 OA
BRANCH  22  24
HETATM   24  N5  UNL     1      30.307  36.418  -8.199  1.00  0.00    -0.371 N 
ATOM     25  H5  UNL     1      30.120  36.176  -7.226  1.00  0.00     0.161 HD
BRANCH  24  26
HETATM   26  C13 UNL     1      29.167  36.613  -9.044  1.00  0.00     0.121 C 
BRANCH  26  27
HETATM   27  C14 UNL     1      29.405  37.222 -10.369  1.00  0.00     0.020 C 
BRANCH  27  28
HETATM   28  C15 UNL     1      29.247  38.660 -10.545  1.00  0.00     0.003 C 
BRANCH  28  29
HETATM   29  C16 UNL     1      30.322  39.597 -10.186  1.00  0.00     0.019 C 
BRANCH  29  30
HETATM   30  C17 UNL     1      31.162  40.186 -11.256  1.00  0.00     0.114 C 
BRANCH  30  31
HETATM   31  N6  UNL     1      31.297  41.592 -11.189  1.00  0.00    -0.417 N 
ATOM     32  H6  UNL     1      30.572  42.159 -10.749  1.00  0.00     0.153 HD
BRANCH  31  33
HETATM   33  C18 UNL     1      32.452  42.206 -11.742  1.00  0.00     0.076 C 
HETATM   34  C19 UNL     1      32.336  41.961 -13.258  1.00  0.00     0.024 C 
HETATM   35  C20 UNL     1      31.735  43.220 -13.887  1.00  0.00     0.002 C 
HETATM   36  C21 UNL     1      32.829  44.249 -13.867  1.00  0.00     0.000 C 
HETATM   37  C22 UNL     1      33.263  44.484 -12.470  1.00  0.00     0.002 C 
HETATM   38  C23 UNL     1      32.577  43.634 -11.417  1.00  0.00     0.024 C 
ENDBRANCH  31  33
ENDBRANCH  30  31
ENDBRANCH  29  30
ENDBRANCH  28  29
ENDBRANCH  27  28
ENDBRANCH  26  27
ENDBRANCH  24  26
ENDBRANCH  22  24
ENDBRANCH  18  19
ENDBRANCH   8  18
BRANCH   1  39
HETATM   39  N2  UNL     1      36.036  42.176  -2.983  1.00  0.00    -0.226 N 
ATOM     40  H2  UNL     1      36.510  43.077  -3.039  1.00  0.00     0.177 HD
BRANCH  39  41
HETATM   41  C3  UNL     1      35.789  41.672  -1.678  1.00  0.00     0.139 C 
BRANCH  41  42
HETATM   42  C2  UNL     1      36.546  42.409  -0.599  1.00  0.00     0.047 C 
BRANCH  42  43
HETATM   43  C1  UNL     1      37.587  43.339  -1.136  1.00  0.00     0.231 C 
BRANCH  43  44
HETATM   44  N1  UNL     1      37.249  44.746  -0.879  1.00  0.00    -0.079 N 
ATOM     45  H13 UNL     1      38.010  45.366  -1.153  1.00  0.00     0.274 HD
ATOM     46  H12 UNL     1      36.531  45.078  -1.523  1.00  0.00     0.274 HD
ATOM     47  H11 UNL     1      36.976  44.899   0.092  1.00  0.00     0.274 HD
ENDBRANCH  43  44
ENDBRANCH  42  43
ENDBRANCH  41  42
ENDBRANCH  39  41
ENDBRANCH   1  39
TORSDOF 15
ENDMDL
MODEL 2
REMARK VINA RESULT: -8.356295039      1.330      1.593
REMARK  15 active torsions:
REMARK  status: ('A' for Active; 'I' for Inactive)
REMARK    1  A    between atoms: N1_1  and  C1_5 
REMARK    2  A    between atoms: C1_5  and  C2_6 
REMARK    3  A    between atoms: C2_6  and  C3_7 
REMARK    4  A    between atoms: C3_7  and  N2_8 
REMARK    5  A    between atoms: N2_8  and  C4_10 
REMARK    6  A    between atoms: N4_17  and  C8_19 
REMARK    7  A    between atoms: C8_19  and  C9_20 
REMARK    8  A    between atoms: C12_23  and  N5_24 
REMARK    9  A    between atoms: N5_24  and  C13_26 
REMARK   10  A    between atoms: C13_26  and  C14_27 
REMARK   11  A    between atoms: C14_27  and  C15_28 
REMARK   12  A    between atoms: C15_28  and  C16_29 
REMARK   13  A    between atoms: C16_29  and  C17_30 
REMARK   14  A    between atoms: C17_30  and  N6_31 
REMARK   15  A    between atoms: N6_31  and  C18_33 
ROOT
HETATM    1  C4  UNL     1      35.278  41.643  -4.828  1.00  0.00     0.682 A 
HETATM    2  N3  UNL     1      35.486  40.375  -5.224  1.00  0.00    -0.155 N 
ATOM      3  H3  UNL     1      36.097  39.797  -4.645  1.00  0.00     0.187 HD
HETATM    4  C5  UNL     1      34.955  39.806  -6.315  1.00  0.00     0.277 A 
HETATM    5  O1  UNL     1      35.194  38.604  -6.625  1.00  0.00    -0.266 OA
HETATM    6  C6  UNL     1      34.127  40.564  -7.110  1.00  0.00     0.121 A 
HETATM    7  C7  UNL     1      33.523  40.080  -8.264  1.00  0.00     0.122 A 
HETATM    8  N4  UNL     1      33.759  38.876  -8.603  1.00  0.00    -0.369 N 
ATOM      9  H4  UNL     1      34.378  38.319  -8.014  1.00  0.00     0.161 HD
HETATM   10  N7  UNL     1      32.722  40.852  -9.010  1.00  0.00    -0.338 N 
ATOM     11  H7  UNL     1      32.284  40.481  -9.854  1.00  0.00     0.168 HD
HETATM   12  C24 UNL     1      32.499  42.145  -8.623  1.00  0.00     0.183 A 
HETATM   13  N8  UNL     1      33.080  42.616  -7.510  1.00  0.00    -0.337 N 
ATOM     14  H8  UNL     1      32.897  43.583  -7.242  1.00  0.00     0.168 HD
HETATM   15  C25 UNL     1      33.897  41.874  -6.726  1.00  0.00     0.141 A 
HETATM   16  N9  UNL     1      34.460  42.382  -5.620  1.00  0.00    -0.175 N 
ATOM     17  H9  UNL     1      34.268  43.351  -5.368  1.00  0.00     0.186 HD
ENDROOT
BRANCH   8  18
HETATM   18  C8  UNL     1      33.196  38.263  -9.776  1.00  0.00     0.186 C 
BRANCH  18  19
HETATM   19  C9  UNL     1      31.872  37.645  -9.399  1.00  0.00     0.073 A 
HETATM   20  C10 UNL     1      31.503  37.115  -8.192  1.00  0.00     0.039 A 
HETATM   21  C11 UNL     1      30.220  36.674  -8.335  1.00  0.00     0.058 A 
HETATM   22  C12 UNL     1      29.826  36.950  -9.645  1.00  0.00     0.143 A 
HETATM   23  O2  UNL     1      30.851  37.526 -10.219  1.00  0.00    -0.297 OA
BRANCH  22  24
HETATM   24  N5  UNL     1      28.541  36.607 -10.111  1.00  0.00    -0.371 N 
ATOM     25  H5  UNL     1      28.331  35.611 -10.178  1.00  0.00     0.161 HD
BRANCH  24  26
HETATM   26  C13 UNL     1      27.500  37.511 -10.501  1.00  0.00     0.121 C 
BRANCH  26  27
HETATM   27  C14 UNL     1      27.902  38.884 -10.869  1.00  0.00     0.020 C 
BRANCH  27  28
HETATM   28  C15 UNL     1      28.100  39.231 -12.270  1.00  0.00     0.003 C 
BRANCH  28  29
HETATM   29  C16 UNL     1      28.758  40.486 -12.662  1.00  0.00     0.019 C 
BRANCH  29  30
HETATM   30  C17 UNL     1      30.170  40.721 -12.273  1.00  0.00     0.114 C 
BRANCH  30  31
HETATM   31  N6  UNL     1      30.485  42.071 -11.998  1.00  0.00    -0.417 N 
ATOM     32  H6  UNL     1      29.761  42.716 -11.684  1.00  0.00     0.153 HD
BRANCH  31  33
HETATM   33  C18 UNL     1      31.822  42.519 -12.165  1.00  0.00     0.076 C 
HETATM   34  C19 UNL     1      32.152  42.223 -13.640  1.00  0.00     0.024 C 
HETATM   35  C20 UNL     1      31.939  43.515 -14.432  1.00  0.00     0.002 C 
HETATM   36  C21 UNL     1      33.094  44.408 -14.075  1.00  0.00     0.000 C 
HETATM   37  C22 UNL     1      33.099  44.651 -12.614  1.00  0.00     0.002 C 
HETATM   38  C23 UNL     1      32.019  43.936 -11.825  1.00  0.00     0.024 C 
ENDBRANCH  31  33
ENDBRANCH  30  31
ENDBRANCH  29  30
ENDBRANCH  28  29
ENDBRANCH  27  28
ENDBRANCH  26  27
ENDBRANCH  24  26
ENDBRANCH  22  24
ENDBRANCH  18  19
ENDBRANCH   8  18
BRANCH   1  39
HETATM   39  N2  UNL     1      35.805  42.162  -3.772  1.00  0.00    -0.226 N 
ATOM     40  H2  UNL     1      35.198  42.753  -3.206  1.00  0.00     0.177 HD
BRANCH  39  41
HETATM   41  C3  UNL     1      37.139  42.001  -3.309  1.00  0.00     0.139 C 
BRANCH  41  42
HETATM   42  C2  UNL     1      37.346  42.495  -1.897  1.00  0.00     0.047 C 
BRANCH  42  43
HETATM   43  C1  UNL     1      36.505  43.683  -1.556  1.00  0.00     0.231 C 
BRANCH  43  44
HETATM   44  N1  UNL     1      37.287  44.737  -0.897  1.00  0.00    -0.079 N 
ATOM     45  H13 UNL     1      38.085  45.018  -1.467  1.00  0.00     0.274 HD
ATOM     46  H12 UNL     1      36.780  45.622  -0.884  1.00  0.00     0.274 HD
ATOM     47  H11 UNL     1      37.579  44.463   0.041  1.00  0.00     0.274 HD
ENDBRANCH  43  44
ENDBRANCH  42  43
ENDBRANCH  41  42
ENDBRANCH  39  41
ENDBRANCH   1  39
TORSDOF 15
ENDMDL
MODEL 3
REMARK VINA RESULT: -8.331829617      2.198      3.907
REMARK  15 active torsions:
REMARK  status: ('A' for Active; 'I' for Inactive)
REMARK    1  A    between atoms: N1_1  and  C1_5 
REMARK    2  A    between atoms: C1_5  and  C2_6 
REMARK    3  A    between atoms: C2_6  and  C3_7 
REMARK    4  A    between atoms: C3_7  and  N2_8 
REMARK    5  A    between atoms: N2_8  and  C4_10 
REMARK    6  A    between atoms: N4_17  and  C8_19 
REMARK    7  A    between atoms: C8_19  and  C9_20 
REMARK    8  A    between atoms: C12_23  and  N5_24 
REMARK    9  A    between atoms: N5_24  and  C13_26 
REMARK   10  A    between atoms: C13_26  and  C14_27 
REMARK   11  A    between atoms: C14_27  and  C15_28 
REMARK   12  A    between atoms: C15_28  and  C16_29 
REMARK   13  A    between atoms: C16_29  and  C17_30 
REMARK   14  A    between atoms: C17_30  and  N6_31 
REMARK   15  A    between atoms: N6_31  and  C18_33 
ROOT
HETATM    1  C4  UNL     1      35.041  41.404  -5.141  1.00  0.00     0.682 A 
HETATM    2  N3  UNL     1      34.200  41.899  -6.066  1.00  0.00    -0.155 N 
ATOM      3  H3  UNL     1      33.794  42.818  -5.888  1.00  0.00     0.187 HD
HETATM    4  C5  UNL     1      33.852  41.283  -7.204  1.00  0.00     0.277 A 
HETATM    5  O1  UNL     1      33.054  41.811  -8.032  1.00  0.00    -0.266 OA
HETATM    6  C6  UNL     1      34.387  40.044  -7.468  1.00  0.00     0.121 A 
HETATM    7  C7  UNL     1      34.096  39.314  -8.614  1.00  0.00     0.122 A 
HETATM    8  N4  UNL     1      33.285  39.820  -9.455  1.00  0.00    -0.369 N 
ATOM      9  H4  UNL     1      32.886  40.737  -9.254  1.00  0.00     0.161 HD
HETATM   10  N7  UNL     1      34.639  38.110  -8.833  1.00  0.00    -0.338 N 
ATOM     11  H7  UNL     1      34.417  37.588  -9.681  1.00  0.00     0.168 HD
HETATM   12  C24 UNL     1      35.497  37.591  -7.903  1.00  0.00     0.183 A 
HETATM   13  N8  UNL     1      35.781  38.291  -6.795  1.00  0.00    -0.337 N 
ATOM     14  H8  UNL     1      36.425  37.884  -6.116  1.00  0.00     0.168 HD
HETATM   15  C25 UNL     1      35.255  39.511  -6.531  1.00  0.00     0.141 A 
HETATM   16  N9  UNL     1      35.562  40.181  -5.411  1.00  0.00    -0.175 N 
ATOM     17  H9  UNL     1      36.206  39.758  -4.742  1.00  0.00     0.186 HD
ENDROOT
BRANCH   8  18
HETATM   18  C8  UNL     1      32.905  39.162 -10.676  1.00  0.00     0.186 C 
BRANCH  18  19
HETATM   19  C9  UNL     1      31.410  39.283 -10.836  1.00  0.00     0.073 A 
HETATM   20  C10 UNL     1      30.437  38.963  -9.928  1.00  0.00     0.039 A 
HETATM   21  C11 UNL     1      29.241  39.239 -10.524  1.00  0.00     0.058 A 
HETATM   22  C12 UNL     1      29.513  39.731 -11.801  1.00  0.00     0.143 A 
HETATM   23  O2  UNL     1      30.816  39.732 -11.920  1.00  0.00    -0.297 OA
BRANCH  22  24
HETATM   24  N5  UNL     1      28.476  40.105 -12.678  1.00  0.00    -0.371 N 
ATOM     25  H5  UNL     1      27.632  39.532 -12.658  1.00  0.00     0.161 HD
BRANCH  24  26
HETATM   26  C13 UNL     1      28.484  41.206 -13.596  1.00  0.00     0.121 C 
BRANCH  26  27
HETATM   27  C14 UNL     1      28.998  42.497 -13.096  1.00  0.00     0.020 C 
BRANCH  27  28
HETATM   28  C15 UNL     1      28.847  43.700 -13.906  1.00  0.00     0.003 C 
BRANCH  28  29
HETATM   29  C16 UNL     1      29.558  43.857 -15.183  1.00  0.00     0.019 C 
BRANCH  29  30
HETATM   30  C17 UNL     1      31.022  43.623 -15.235  1.00  0.00     0.114 C 
BRANCH  30  31
HETATM   31  N6  UNL     1      31.797  44.613 -14.590  1.00  0.00    -0.417 N 
ATOM     32  H6  UNL     1      31.683  45.597 -14.833  1.00  0.00     0.153 HD
BRANCH  31  33
HETATM   33  C18 UNL     1      32.737  44.223 -13.600  1.00  0.00     0.076 C 
HETATM   34  C19 UNL     1      32.494  45.192 -12.427  1.00  0.00     0.024 C 
HETATM   35  C20 UNL     1      31.589  44.482 -11.418  1.00  0.00     0.002 C 
HETATM   36  C21 UNL     1      32.457  43.459 -10.741  1.00  0.00     0.000 C 
HETATM   37  C22 UNL     1      32.997  42.521 -11.752  1.00  0.00     0.002 C 
HETATM   38  C23 UNL     1      32.618  42.816 -13.192  1.00  0.00     0.024 C 
ENDBRANCH  31  33
ENDBRANCH  30  31
ENDBRANCH  29  30
ENDBRANCH  28  29
ENDBRANCH  27  28
ENDBRANCH  26  27
ENDBRANCH  24  26
ENDBRANCH  22  24
ENDBRANCH  18  19
ENDBRANCH   8  18
BRANCH   1  39
HETATM   39  N2  UNL     1      35.356  42.022  -4.053  1.00  0.00    -0.226 N 
ATOM     40  H2  UNL     1      34.611  42.550  -3.600  1.00  0.00     0.177 HD
BRANCH  39  41
HETATM   41  C3  UNL     1      36.626  42.048  -3.417  1.00  0.00     0.139 C 
BRANCH  41  42
HETATM   42  C2  UNL     1      36.558  42.453  -1.963  1.00  0.00     0.047 C 
BRANCH  42  43
HETATM   43  C1  UNL     1      35.636  41.599  -1.153  1.00  0.00     0.231 C 
BRANCH  43  44
HETATM   44  N1  UNL     1      36.030  40.185  -1.183  1.00  0.00    -0.079 N 
ATOM     45  H13 UNL     1      36.828  40.036  -1.801  1.00  0.00     0.274 HD
ATOM     46  H12 UNL     1      36.455  39.899  -0.301  1.00  0.00     0.274 HD
ATOM     47  H11 UNL     1      35.249  39.578  -1.433  1.00  0.00     0.274 HD
ENDBRANCH  43  44
ENDBRANCH  42  43
ENDBRANCH  41  42
ENDBRANCH  39  41
ENDBRANCH   1  39
TORSDOF 15
ENDMDL
MODEL 4
REMARK VINA RESULT: -8.290740867      2.155      5.466
REMARK  15 active torsions:
REMARK  status: ('A' for Active; 'I' for Inactive)
REMARK    1  A    between atoms: N1_1  and  C1_5 
REMARK    2  A    between atoms: C1_5  and  C2_6 
REMARK    3  A    between atoms: C2_6  and  C3_7 
REMARK    4  A    between atoms: C3_7  and  N2_8 
REMARK    5  A    between atoms: N2_8  and  C4_10 
REMARK    6  A    between atoms: N4_17  and  C8_19 
REMARK    7  A    between atoms: C8_19  and  C9_20 
REMARK    8  A    between atoms: C12_23  and  N5_24 
REMARK    9  A    between atoms: N5_24  and  C13_26 
REMARK   10  A    between atoms: C13_26  and  C14_27 
REMARK   11  A    between atoms: C14_27  and  C15_28 
REMARK   12  A    between atoms: C15_28  and  C16_29 
REMARK   13  A    between atoms: C16_29  and  C17_30 
REMARK   14  A    between atoms: C17_30  and  N6_31 
REMARK   15  A    between atoms: N6_31  and  C18_33 
ROOT
HETATM    1  C4  UNL     1      34.984  41.453  -4.913  1.00  0.00     0.682 A 
HETATM    2  N3  UNL     1      34.259  42.267  -5.701  1.00  0.00    -0.155 N 
ATOM      3  H3  UNL     1      33.989  43.173  -5.316  1.00  0.00     0.187 HD
HETATM    4  C5  UNL     1      33.863  41.987  -6.949  1.00  0.00     0.277 A 
HETATM    5  O1  UNL     1      33.183  42.805  -7.634  1.00  0.00    -0.266 OA
HETATM    6  C6  UNL     1      34.216  40.773  -7.490  1.00  0.00     0.121 A 
HETATM    7  C7  UNL     1      33.860  40.375  -8.774  1.00  0.00     0.122 A 
HETATM    8  N4  UNL     1      33.165  41.177  -9.476  1.00  0.00    -0.369 N 
ATOM      9  H4  UNL     1      32.900  42.074  -9.071  1.00  0.00     0.161 HD
HETATM   10  N7  UNL     1      34.225  39.183  -9.263  1.00  0.00    -0.338 N 
ATOM     11  H7  UNL     1      33.958  38.907 -10.208  1.00  0.00     0.168 HD
HETATM   12  C24 UNL     1      34.963  38.341  -8.476  1.00  0.00     0.183 A 
HETATM   13  N8  UNL     1      35.308  38.720  -7.237  1.00  0.00    -0.337 N 
ATOM     14  H8  UNL     1      35.860  38.076  -6.670  1.00  0.00     0.168 HD
HETATM   15  C25 UNL     1      34.962  39.914  -6.701  1.00  0.00     0.141 A 
HETATM   16  N9  UNL     1      35.326  40.257  -5.457  1.00  0.00    -0.175 N 
ATOM     17  H9  UNL     1      35.875  39.600  -4.903  1.00  0.00     0.186 HD
ENDROOT
BRANCH   8  18
HETATM   18  C8  UNL     1      32.734  40.878 -10.816  1.00  0.00     0.186 C 
BRANCH  18  19
HETATM   19  C9  UNL     1      32.795  42.148 -11.628  1.00  0.00     0.073 A 
HETATM   20  C10 UNL     1      33.147  43.401 -11.207  1.00  0.00     0.039 A 
HETATM   21  C11 UNL     1      33.046  44.221 -12.293  1.00  0.00     0.058 A 
HETATM   22  C12 UNL     1      32.630  43.439 -13.371  1.00  0.00     0.143 A 
HETATM   23  O2  UNL     1      32.501  42.222 -12.908  1.00  0.00    -0.297 OA
BRANCH  22  24
HETATM   24  N5  UNL     1      32.425  44.000 -14.647  1.00  0.00    -0.371 N 
ATOM     25  H5  UNL     1      33.200  44.533 -15.042  1.00  0.00     0.161 HD
BRANCH  24  26
HETATM   26  C13 UNL     1      31.240  43.899 -15.448  1.00  0.00     0.121 C 
BRANCH  26  27
HETATM   27  C14 UNL     1      29.946  43.871 -14.737  1.00  0.00     0.020 C 
BRANCH  27  28
HETATM   28  C15 UNL     1      29.292  42.595 -14.472  1.00  0.00     0.003 C 
BRANCH  28  29
HETATM   29  C16 UNL     1      29.066  42.123 -13.098  1.00  0.00     0.019 C 
BRANCH  29  30
HETATM   30  C17 UNL     1      28.625  40.725 -12.872  1.00  0.00     0.114 C 
BRANCH  30  31
HETATM   31  N6  UNL     1      29.147  40.128 -11.701  1.00  0.00    -0.417 N 
ATOM     32  H6  UNL     1      29.566  40.704 -10.972  1.00  0.00     0.153 HD
BRANCH  31  33
HETATM   33  C18 UNL     1      29.081  38.717 -11.553  1.00  0.00     0.076 C 
HETATM   34  C19 UNL     1      30.484  38.310 -11.065  1.00  0.00     0.024 C 
HETATM   35  C20 UNL     1      30.424  38.171  -9.542  1.00  0.00     0.002 C 
HETATM   36  C21 UNL     1      29.671  36.898  -9.277  1.00  0.00     0.000 C 
HETATM   37  C22 UNL     1      28.319  36.989  -9.876  1.00  0.00     0.002 C 
HETATM   38  C23 UNL     1      28.022  38.267 -10.638  1.00  0.00     0.024 C 
ENDBRANCH  31  33
ENDBRANCH  30  31
ENDBRANCH  29  30
ENDBRANCH  28  29
ENDBRANCH  27  28
ENDBRANCH  26  27
ENDBRANCH  24  26
ENDBRANCH  22  24
ENDBRANCH  18  19
ENDBRANCH   8  18
BRANCH   1  39
HETATM   39  N2  UNL     1      35.349  41.752  -3.713  1.00  0.00    -0.226 N 
ATOM     40  H2  UNL     1      34.602  41.889  -3.033  1.00  0.00     0.177 HD
BRANCH  39  41
HETATM   41  C3  UNL     1      36.676  41.910  -3.233  1.00  0.00     0.139 C 
BRANCH  41  42
HETATM   42  C2  UNL     1      36.846  43.105  -2.324  1.00  0.00     0.047 C 
BRANCH  42  43
HETATM   43  C1  UNL     1      37.177  42.733  -0.914  1.00  0.00     0.231 C 
BRANCH  43  44
HETATM   44  N1  UNL     1      36.090  41.979  -0.276  1.00  0.00    -0.079 N 
ATOM     45  H13 UNL     1      35.825  42.395   0.617  1.00  0.00     0.274 HD
ATOM     46  H12 UNL     1      35.210  42.101  -0.778  1.00  0.00     0.274 HD
ATOM     47  H11 UNL     1      36.323  40.992  -0.171  1.00  0.00     0.274 HD
ENDBRANCH  43  44
ENDBRANCH  42  43
ENDBRANCH  41  42
ENDBRANCH  39  41
ENDBRANCH   1  39
TORSDOF 15
ENDMDL
MODEL 5
REMARK VINA RESULT: -8.247788200      1.534      2.185
REMARK  15 active torsions:
REMARK  status: ('A' for Active; 'I' for Inactive)
REMARK    1  A    between atoms: N1_1  and  C1_5 
REMARK    2  A    between atoms: C1_5  and  C2_6 
REMARK    3  A    between atoms: C2_6  and  C3_7 
REMARK    4  A    between atoms: C3_7  and  N2_8 
REMARK    5  A    between atoms: N2_8  and  C4_10 
REMARK    6  A    between atoms: N4_17  and  C8_19 
REMARK    7  A    between atoms: C8_19  and  C9_20 
REMARK    8  A    between atoms: C12_23  and  N5_24 
REMARK    9  A    between atoms: N5_24  and  C13_26 
REMARK   10  A    between atoms: C13_26  and  C14_27 
REMARK   11  A    between atoms: C14_27  and  C15_28 
REMARK   12  A    between atoms: C15_28  and  C16_29 
REMARK   13  A    between atoms: C16_29  and  C17_30 
REMARK   14  A    between atoms: C17_30  and  N6_31 
REMARK   15  A    between atoms: N6_31  and  C18_33 
ROOT
HETATM    1  C4  UNL     1      35.362  41.541  -4.414  1.00  0.00     0.682 A 
HETATM    2  N3  UNL     1      35.660  40.320  -4.892  1.00  0.00    -0.155 N 
ATOM      3  H3  UNL     1      36.247  39.719  -4.312  1.00  0.00     0.187 HD
HETATM    4  C5  UNL     1      35.249  39.827  -6.068  1.00  0.00     0.277 A 
HETATM    5  O1  UNL     1      35.567  38.665  -6.454  1.00  0.00    -0.266 OA
HETATM    6  C6  UNL     1      34.455  40.617  -6.867  1.00  0.00     0.121 A 
HETATM    7  C7  UNL     1      33.972  40.211  -8.105  1.00  0.00     0.122 A 
HETATM    8  N4  UNL     1      34.291  39.050  -8.520  1.00  0.00    -0.369 N 
ATOM      9  H4  UNL     1      34.884  38.469  -7.927  1.00  0.00     0.161 HD
HETATM   10  N7  UNL     1      33.201  41.011  -8.852  1.00  0.00    -0.338 N 
ATOM     11  H7  UNL     1      32.853  40.697  -9.758  1.00  0.00     0.168 HD
HETATM   12  C24 UNL     1      32.888  42.257  -8.381  1.00  0.00     0.183 A 
HETATM   13  N8  UNL     1      33.352  42.654  -7.187  1.00  0.00    -0.337 N 
ATOM     14  H8  UNL     1      33.103  43.587  -6.857  1.00  0.00     0.168 HD
HETATM   15  C25 UNL     1      34.134  41.880  -6.398  1.00  0.00     0.141 A 
HETATM   16  N9  UNL     1      34.580  42.312  -5.210  1.00  0.00    -0.175 N 
ATOM     17  H9  UNL     1      34.323  43.248  -4.897  1.00  0.00     0.186 HD
ENDROOT
BRANCH   8  18
HETATM   18  C8  UNL     1      33.855  38.519  -9.783  1.00  0.00     0.186 C 
BRANCH  18  19
HETATM   19  C9  UNL     1      32.349  38.439  -9.771  1.00  0.00     0.073 A 
HETATM   20  C10 UNL     1      31.560  37.492  -9.175  1.00  0.00     0.039 A 
HETATM   21  C11 UNL     1      30.267  37.838  -9.441  1.00  0.00     0.058 A 
HETATM   22  C12 UNL     1      30.294  39.007 -10.202  1.00  0.00     0.143 A 
HETATM   23  O2  UNL     1      31.557  39.308 -10.360  1.00  0.00    -0.297 OA
BRANCH  22  24
HETATM   24  N5  UNL     1      29.105  39.619 -10.647  1.00  0.00    -0.371 N 
ATOM     25  H5  UNL     1      28.516  40.044  -9.931  1.00  0.00     0.161 HD
BRANCH  24  26
HETATM   26  C13 UNL     1      28.639  39.706 -12.000  1.00  0.00     0.121 C 
BRANCH  26  27
HETATM   27  C14 UNL     1      28.933  38.564 -12.889  1.00  0.00     0.020 C 
BRANCH  27  28
HETATM   28  C15 UNL     1      29.872  38.727 -13.992  1.00  0.00     0.003 C 
BRANCH  28  29
HETATM   29  C16 UNL     1      31.325  38.649 -13.777  1.00  0.00     0.019 C 
BRANCH  29  30
HETATM   30  C17 UNL     1      32.149  39.873 -13.925  1.00  0.00     0.114 C 
BRANCH  30  31
HETATM   31  N6  UNL     1      32.051  40.780 -12.845  1.00  0.00    -0.417 N 
ATOM     32  H6  UNL     1      32.272  40.478 -11.896  1.00  0.00     0.153 HD
BRANCH  31  33
HETATM   33  C18 UNL     1      31.639  42.116 -13.095  1.00  0.00     0.076 C 
HETATM   34  C19 UNL     1      31.793  42.831 -11.739  1.00  0.00     0.024 C 
HETATM   35  C20 UNL     1      33.137  43.563 -11.751  1.00  0.00     0.002 C 
HETATM   36  C21 UNL     1      32.951  44.747 -12.657  1.00  0.00     0.000 C 
HETATM   37  C22 UNL     1      32.566  44.280 -14.009  1.00  0.00     0.002 C 
HETATM   38  C23 UNL     1      32.399  42.779 -14.164  1.00  0.00     0.024 C 
ENDBRANCH  31  33
ENDBRANCH  30  31
ENDBRANCH  29  30
ENDBRANCH  28  29
ENDBRANCH  27  28
ENDBRANCH  26  27
ENDBRANCH  24  26
ENDBRANCH  22  24
ENDBRANCH  18  19
ENDBRANCH   8  18
BRANCH   1  39
HETATM   39  N2  UNL     1      35.775  41.987  -3.277  1.00  0.00    -0.226 N 
ATOM     40  H2  UNL     1      35.079  42.051  -2.535  1.00  0.00     0.177 HD
BRANCH  39  41
HETATM   41  C3  UNL     1      37.093  42.400  -2.943  1.00  0.00     0.139 C 
BRANCH  41  42
HETATM   42  C2  UNL     1      37.130  43.525  -1.936  1.00  0.00     0.047 C 
BRANCH  42  43
HETATM   43  C1  UNL     1      37.541  43.082  -0.568  1.00  0.00     0.231 C 
BRANCH  43  44
HETATM   44  N1  UNL     1      36.639  42.054  -0.031  1.00  0.00    -0.079 N 
ATOM     45  H13 UNL     1      36.316  41.424  -0.766  1.00  0.00     0.274 HD
ATOM     46  H12 UNL     1      37.144  41.383   0.547  1.00  0.00     0.274 HD
ATOM     47  H11 UNL     1      35.854  42.465   0.476  1.00  0.00     0.274 HD
ENDBRANCH  43  44
ENDBRANCH  42  43
ENDBRANCH  41  42
ENDBRANCH  39  41
ENDBRANCH   1  39
TORSDOF 15
ENDMDL
