MODEL 1
REMARK VINA RESULT: -7.125547866      0.000      0.000
REMARK  20 active torsions:
REMARK  status: ('A' for Active; 'I' for Inactive)
REMARK    1  A    between atoms: C1_2  and  C2_3 
REMARK       I    between atoms: C1_2  and  N1_26 
REMARK    2  A    between atoms: C2_3  and  C3_4 
REMARK    3  A    between atoms: C3_4  and  C4_5 
REMARK    4  A    between atoms: C4_5  and  C5_6 
REMARK    5  A    between atoms: C5_6  and  C6_7 
REMARK    6  A    between atoms: C6_7  and  C7_8 
REMARK    7  A    between atoms: C7_8  and  C8_9 
REMARK    8  A    between atoms: C8_9  and  C9_10 
REMARK    9  A    between atoms: C9_10  and  C10_11 
REMARK   10  A    between atoms: C10_11  and  C11_12 
REMARK   11  A    between atoms: C11_12  and  C12_13 
REMARK   12  A    between atoms: C12_13  and  C13_14 
REMARK   13  A    between atoms: C13_14  and  C14_15 
REMARK   14  A    between atoms: C14_15  and  C15_16 
REMARK   15  A    between atoms: C18_19  and  O2_20 
REMARK   16  A    between atoms: C19_22  and  O3_23 
REMARK   17  A    between atoms: C22_28  and  O4_29 
REMARK   18  A    between atoms: C23_31  and  O5_32 
REMARK   19  A    between atoms: C24_34  and  O6_35 
REMARK   20  A    between atoms: C25_37  and  O7_38 
ROOT
HETATM    1  C5  UNL     1      34.149  38.846  -8.815  1.00  0.00    -0.031 C 
ENDROOT
BRANCH   1   2
HETATM    2  C4  UNL     1      33.506  40.153  -8.823  1.00  0.00    -0.030 C 
BRANCH   2   3
HETATM    3  C3  UNL     1      33.853  41.257  -7.946  1.00  0.00     0.036 C 
BRANCH   3   4
HETATM    4  C2  UNL     1      35.194  41.256  -7.318  1.00  0.00     0.107 C 
BRANCH   4   5
HETATM    5  C1  UNL     1      35.163  41.893  -5.973  1.00  0.00     0.222 C 
HETATM    6  O1  UNL     1      34.714  43.053  -5.753  1.00  0.00    -0.273 OA
HETATM    7  N1  UNL     1      35.662  41.182  -4.860  1.00  0.00    -0.321 N 
HETATM    8  C21 UNL     1      36.176  39.842  -5.075  1.00  0.00     0.163 C 
HETATM    9  C25 UNL     1      35.664  41.795  -3.559  1.00  0.00     0.254 C 
HETATM   10  C22 UNL     1      37.273  39.526  -4.088  1.00  0.00     0.167 C 
HETATM   11  C23 UNL     1      37.895  40.747  -3.497  1.00  0.00     0.181 C 
HETATM   12  C24 UNL     1      36.984  41.733  -2.875  1.00  0.00     0.198 C 
BRANCH  10  13
HETATM   13  O4  UNL     1      38.278  38.780  -4.700  1.00  0.00    -0.391 OA
ATOM     14  H4  UNL     1      38.679  39.278  -5.401  1.00  0.00     0.210 HD
ENDBRANCH  10  13
BRANCH  11  15
HETATM   15  O5  UNL     1      38.786  41.368  -4.404  1.00  0.00    -0.390 OA
ATOM     16  H5  UNL     1      38.804  42.311  -4.285  1.00  0.00     0.210 HD
ENDBRANCH  11  15
BRANCH  12  17
HETATM   17  O6  UNL     1      36.905  41.556  -1.494  1.00  0.00    -0.389 OA
ATOM     18  H6  UNL     1      36.009  41.420  -1.211  1.00  0.00     0.210 HD
ENDBRANCH  12  17
BRANCH   9  19
HETATM   19  O7  UNL     1      34.698  41.143  -2.772  1.00  0.00    -0.374 OA
ATOM     20  H7  UNL     1      34.211  40.552  -3.336  1.00  0.00     0.212 HD
ENDBRANCH   9  19
ENDBRANCH   4   5
ENDBRANCH   3   4
ENDBRANCH   2   3
ENDBRANCH   1   2
BRANCH   1  21
HETATM   21  C6  UNL     1      34.000  37.896  -7.702  1.00  0.00     0.027 C 
BRANCH  21  22
HETATM   22  C7  UNL     1      32.530  37.699  -7.306  1.00  0.00     0.004 C 
BRANCH  22  23
HETATM   23  C8  UNL     1      31.826  36.671  -8.114  1.00  0.00     0.000 C 
BRANCH  23  24
HETATM   24  C9  UNL     1      30.439  37.082  -8.541  1.00  0.00     0.000 C 
BRANCH  24  25
HETATM   25  C10 UNL     1      30.453  38.085  -9.656  1.00  0.00     0.000 C 
BRANCH  25  26
HETATM   26  C11 UNL     1      31.278  37.646 -10.837  1.00  0.00     0.000 C 
BRANCH  26  27
HETATM   27  C12 UNL     1      31.662  38.785 -11.737  1.00  0.00     0.000 C 
BRANCH  27  28
HETATM   28  C13 UNL     1      30.822  39.985 -11.375  1.00  0.00     0.000 C 
BRANCH  28  29
HETATM   29  C14 UNL     1      30.785  41.033 -12.448  1.00  0.00     0.005 C 
BRANCH  29  30
HETATM   30  C15 UNL     1      32.194  41.632 -12.517  1.00  0.00    -0.012 C 
HETATM   31  C16 UNL     1      32.400  42.533 -11.326  1.00  0.00     0.007 C 
HETATM   32  C17 UNL     1      33.350  43.665 -11.602  1.00  0.00     0.034 C 
HETATM   33  C18 UNL     1      32.757  44.616 -12.617  1.00  0.00     0.147 C 
HETATM   34  C19 UNL     1      31.709  43.860 -13.401  1.00  0.00     0.147 C 
HETATM   35  C20 UNL     1      32.242  42.490 -13.760  1.00  0.00     0.039 C 
BRANCH  33  36
HETATM   36  O2  UNL     1      32.233  45.754 -12.013  1.00  0.00    -0.393 OA
ATOM     37  H2  UNL     1      31.312  45.650 -11.804  1.00  0.00     0.210 HD
ENDBRANCH  33  36
BRANCH  34  38
HETATM   38  O3  UNL     1      31.453  44.576 -14.585  1.00  0.00    -0.393 OA
ATOM     39  H3  UNL     1      30.913  44.031 -15.145  1.00  0.00     0.210 HD
ENDBRANCH  34  38
ENDBRANCH  29  30
ENDBRANCH  28  29
ENDBRANCH  27  28
ENDBRANCH  26  27
ENDBRANCH  25  26
ENDBRANCH  24  25
ENDBRANCH  23  24
ENDBRANCH  22  23
ENDBRANCH  21  22
ENDBRANCH   1  21
TORSDOF 20
ENDMDL
MODEL 2
REMARK VINA RESULT: -7.090454403      2.584      5.137
REMARK  20 active torsions:
REMARK  status: ('A' for Active; 'I' for Inactive)
REMARK    1  A    between atoms: C1_2  and  C2_3 
REMARK       I    between atoms: C1_2  and  N1_26 
REMARK    2  A    between atoms: C2_3  and  C3_4 
REMARK    3  A    between atoms: C3_4  and  C4_5 
REMARK    4  A    between atoms: C4_5  and  C5_6 
REMARK    5  A    between atoms: C5_6  and  C6_7 
REMARK    6  A    between atoms: C6_7  and  C7_8 
REMARK    7  A    between atoms: C7_8  and  C8_9 
REMARK    8  A    between atoms: C8_9  and  C9_10 
REMARK    9  A    between atoms: C9_10  and  C10_11 
REMARK   10  A    between atoms: C10_11  and  C11_12 
REMARK   11  A    between atoms: C11_12  and  C12_13 
REMARK   12  A    between atoms: C12_13  and  C13_14 
REMARK   13  A    between atoms: C13_14  and  C14_15 
REMARK   14  A    between atoms: C14_15  and  C15_16 
REMARK   15  A    between atoms: C18_19  and  O2_20 
REMARK   16  A    between atoms: C19_22  and  O3_23 
REMARK   17  A    between atoms: C22_28  and  O4_29 
REMARK   18  A    between atoms: C23_31  and  O5_32 
REMARK   19  A    between atoms: C24_34  and  O6_35 
REMARK   20  A    between atoms: C25_37  and  O7_38 
ROOT
HETATM    1  C5  UNL     1      32.601  42.286  -8.721  1.00  0.00    -0.031 C 
ENDROOT
BRANCH   1   2
HETATM    2  C4  UNL     1      33.190  42.029  -7.414  1.00  0.00    -0.030 C 
BRANCH   2   3
HETATM    3  C3  UNL     1      34.583  41.687  -7.181  1.00  0.00     0.036 C 
BRANCH   3   4
HETATM    4  C2  UNL     1      35.172  42.014  -5.862  1.00  0.00     0.107 C 
BRANCH   4   5
HETATM    5  C1  UNL     1      35.898  40.849  -5.289  1.00  0.00     0.222 C 
HETATM    6  O1  UNL     1      35.924  39.704  -5.821  1.00  0.00    -0.273 OA
HETATM    7  N1  UNL     1      36.607  41.004  -4.078  1.00  0.00    -0.321 N 
HETATM    8  C21 UNL     1      36.610  42.310  -3.445  1.00  0.00     0.163 C 
HETATM    9  C25 UNL     1      37.291  39.880  -3.497  1.00  0.00     0.254 C 
HETATM   10  C22 UNL     1      36.715  42.176  -1.945  1.00  0.00     0.167 C 
HETATM   11  C23 UNL     1      36.302  40.832  -1.448  1.00  0.00     0.181 C 
HETATM   12  C24 UNL     1      36.957  39.656  -2.065  1.00  0.00     0.198 C 
BRANCH  10  13
HETATM   13  O4  UNL     1      35.923  43.133  -1.315  1.00  0.00    -0.391 OA
ATOM     14  H4  UNL     1      35.645  42.824  -0.462  1.00  0.00     0.210 HD
ENDBRANCH  10  13
BRANCH  11  15
HETATM   15  O5  UNL     1      34.894  40.690  -1.438  1.00  0.00    -0.390 OA
ATOM     16  H5  UNL     1      34.522  40.842  -2.299  1.00  0.00     0.210 HD
ENDBRANCH  11  15
BRANCH  12  17
HETATM   17  O6  UNL     1      38.026  39.204  -1.291  1.00  0.00    -0.389 OA
ATOM     18  H6  UNL     1      38.170  39.762  -0.536  1.00  0.00     0.210 HD
ENDBRANCH  12  17
BRANCH   9  19
HETATM   19  O7  UNL     1      38.674  40.101  -3.626  1.00  0.00    -0.374 OA
ATOM     20  H7  UNL     1      38.970  40.563  -2.851  1.00  0.00     0.212 HD
ENDBRANCH   9  19
ENDBRANCH   4   5
ENDBRANCH   3   4
ENDBRANCH   2   3
ENDBRANCH   1   2
BRANCH   1  21
HETATM   21  C6  UNL     1      33.398  42.713  -9.879  1.00  0.00     0.027 C 
BRANCH  21  22
HETATM   22  C7  UNL     1      32.567  43.527 -10.882  1.00  0.00     0.004 C 
BRANCH  22  23
HETATM   23  C8  UNL     1      33.062  43.439 -12.279  1.00  0.00     0.000 C 
BRANCH  23  24
HETATM   24  C9  UNL     1      31.971  43.209 -13.294  1.00  0.00     0.000 C 
BRANCH  24  25
HETATM   25  C10 UNL     1      32.234  42.014 -14.161  1.00  0.00     0.000 C 
BRANCH  25  26
HETATM   26  C11 UNL     1      32.102  40.707 -13.424  1.00  0.00     0.000 C 
BRANCH  26  27
HETATM   27  C12 UNL     1      30.811  40.590 -12.667  1.00  0.00     0.000 C 
BRANCH  27  28
HETATM   28  C13 UNL     1      31.106  40.013 -11.304  1.00  0.00     0.000 C 
BRANCH  28  29
HETATM   29  C14 UNL     1      32.479  39.417 -11.194  1.00  0.00     0.005 C 
BRANCH  29  30
HETATM   30  C15 UNL     1      32.328  38.130 -10.377  1.00  0.00    -0.012 C 
HETATM   31  C16 UNL     1      31.504  38.424  -9.150  1.00  0.00     0.007 C 
HETATM   32  C17 UNL     1      31.853  37.543  -7.983  1.00  0.00     0.034 C 
HETATM   33  C18 UNL     1      33.255  37.838  -7.499  1.00  0.00     0.147 C 
HETATM   34  C19 UNL     1      34.010  38.483  -8.638  1.00  0.00     0.147 C 
HETATM   35  C20 UNL     1      33.715  37.738  -9.922  1.00  0.00     0.039 C 
BRANCH  33  36
HETATM   36  O2  UNL     1      33.251  38.636  -6.360  1.00  0.00    -0.393 OA
ATOM     37  H2  UNL     1      32.408  39.054  -6.226  1.00  0.00     0.210 HD
ENDBRANCH  33  36
BRANCH  34  38
HETATM   38  O3  UNL     1      35.385  38.382  -8.357  1.00  0.00    -0.393 OA
ATOM     39  H3  UNL     1      35.616  39.090  -7.768  1.00  0.00     0.210 HD
ENDBRANCH  34  38
ENDBRANCH  29  30
ENDBRANCH  28  29
ENDBRANCH  27  28
ENDBRANCH  26  27
ENDBRANCH  25  26
ENDBRANCH  24  25
ENDBRANCH  23  24
ENDBRANCH  22  23
ENDBRANCH  21  22
ENDBRANCH   1  21
TORSDOF 20
ENDMDL
MODEL 3
REMARK VINA RESULT: -6.828495212      2.839      7.901
REMARK  20 active torsions:
REMARK  status: ('A' for Active; 'I' for Inactive)
REMARK    1  A    between atoms: C1_2  and  C2_3 
REMARK       I    between atoms: C1_2  and  N1_26 
REMARK    2  A    between atoms: C2_3  and  C3_4 
REMARK    3  A    between atoms: C3_4  and  C4_5 
REMARK    4  A    between atoms: C4_5  and  C5_6 
REMARK    5  A    between atoms: C5_6  and  C6_7 
REMARK    6  A    between atoms: C6_7  and  C7_8 
REMARK    7  A    between atoms: C7_8  and  C8_9 
REMARK    8  A    between atoms: C8_9  and  C9_10 
REMARK    9  A    between atoms: C9_10  and  C10_11 
REMARK   10  A    between atoms: C10_11  and  C11_12 
REMARK   11  A    between atoms: C11_12  and  C12_13 
REMARK   12  A    between atoms: C12_13  and  C13_14 
REMARK   13  A    between atoms: C13_14  and  C14_15 
REMARK   14  A    between atoms: C14_15  and  C15_16 
REMARK   15  A    between atoms: C18_19  and  O2_20 
REMARK   16  A    between atoms: C19_22  and  O3_23 
REMARK   17  A    between atoms: C22_28  and  O4_29 
REMARK   18  A    between atoms: C23_31  and  O5_32 
REMARK   19  A    between atoms: C24_34  and  O6_35 
REMARK   20  A    between atoms: C25_37  and  O7_38 
ROOT
HETATM    1  C5  UNL     1      30.442  38.098 -10.100  1.00  0.00    -0.031 C 
ENDROOT
BRANCH   1   2
HETATM    2  C4  UNL     1      31.278  37.772 -11.247  1.00  0.00    -0.030 C 
BRANCH   2   3
HETATM    3  C3  UNL     1      31.871  38.745 -12.148  1.00  0.00     0.036 C 
BRANCH   3   4
HETATM    4  C2  UNL     1      31.102  39.974 -12.453  1.00  0.00     0.107 C 
BRANCH   4   5
HETATM    5  C1  UNL     1      31.820  40.832 -13.435  1.00  0.00     0.222 C 
HETATM    6  O1  UNL     1      32.577  40.384 -14.341  1.00  0.00    -0.273 OA
HETATM    7  N1  UNL     1      31.664  42.234 -13.370  1.00  0.00    -0.321 N 
HETATM    8  C21 UNL     1      30.792  42.783 -12.349  1.00  0.00     0.163 C 
HETATM    9  C25 UNL     1      32.373  43.078 -14.294  1.00  0.00     0.254 C 
HETATM   10  C22 UNL     1      31.266  44.150 -11.919  1.00  0.00     0.167 C 
HETATM   11  C23 UNL     1      32.704  44.395 -12.235  1.00  0.00     0.181 C 
HETATM   12  C24 UNL     1      33.131  44.176 -13.635  1.00  0.00     0.198 C 
BRANCH  10  13
HETATM   13  O4  UNL     1      31.090  44.317 -10.547  1.00  0.00    -0.391 OA
ATOM     14  H4  UNL     1      31.502  45.121 -10.256  1.00  0.00     0.210 HD
ENDBRANCH  10  13
BRANCH  11  15
HETATM   15  O5  UNL     1      33.558  43.729 -11.325  1.00  0.00    -0.390 OA
ATOM     16  H5  UNL     1      33.185  43.701 -10.452  1.00  0.00     0.210 HD
ENDBRANCH  11  15
BRANCH  12  17
HETATM   17  O6  UNL     1      33.153  45.370 -14.356  1.00  0.00    -0.389 OA
ATOM     18  H6  UNL     1      33.940  45.445 -14.881  1.00  0.00     0.210 HD
ENDBRANCH  12  17
BRANCH   9  19
HETATM   19  O7  UNL     1      31.435  43.627 -15.185  1.00  0.00    -0.374 OA
ATOM     20  H7  UNL     1      30.919  44.268 -14.710  1.00  0.00     0.212 HD
ENDBRANCH   9  19
ENDBRANCH   4   5
ENDBRANCH   3   4
ENDBRANCH   2   3
ENDBRANCH   1   2
BRANCH   1  21
HETATM   21  C6  UNL     1      29.161  37.428  -9.837  1.00  0.00     0.027 C 
BRANCH  21  22
HETATM   22  C7  UNL     1      29.301  36.300  -8.805  1.00  0.00     0.004 C 
BRANCH  22  23
HETATM   23  C8  UNL     1      30.508  36.420  -7.949  1.00  0.00     0.000 C 
BRANCH  23  24
HETATM   24  C9  UNL     1      31.348  35.168  -7.907  1.00  0.00     0.000 C 
BRANCH  24  25
HETATM   25  C10 UNL     1      31.393  34.459  -9.228  1.00  0.00     0.000 C 
BRANCH  25  26
HETATM   26  C11 UNL     1      32.677  34.690  -9.981  1.00  0.00     0.000 C 
BRANCH  26  27
HETATM   27  C12 UNL     1      33.823  35.059  -9.084  1.00  0.00     0.000 C 
BRANCH  27  28
HETATM   28  C13 UNL     1      34.340  36.413  -9.503  1.00  0.00     0.000 C 
BRANCH  28  29
HETATM   29  C14 UNL     1      34.694  37.301  -8.345  1.00  0.00     0.005 C 
BRANCH  29  30
HETATM   30  C15 UNL     1      33.610  38.382  -8.281  1.00  0.00    -0.012 C 
HETATM   31  C16 UNL     1      33.984  39.503  -9.218  1.00  0.00     0.007 C 
HETATM   32  C17 UNL     1      33.467  40.841  -8.767  1.00  0.00     0.034 C 
HETATM   33  C18 UNL     1      34.146  41.264  -7.484  1.00  0.00     0.147 C 
HETATM   34  C19 UNL     1      34.674  40.019  -6.809  1.00  0.00     0.147 C 
HETATM   35  C20 UNL     1      33.625  38.930  -6.873  1.00  0.00     0.039 C 
BRANCH  33  36
HETATM   36  O2  UNL     1      35.152  42.196  -7.715  1.00  0.00    -0.393 OA
ATOM     37  H2  UNL     1      35.975  41.778  -7.941  1.00  0.00     0.210 HD
ENDBRANCH  33  36
BRANCH  34  38
HETATM   38  O3  UNL     1      34.926  40.331  -5.460  1.00  0.00    -0.393 OA
ATOM     39  H3  UNL     1      34.188  40.028  -4.946  1.00  0.00     0.210 HD
ENDBRANCH  34  38
ENDBRANCH  29  30
ENDBRANCH  28  29
ENDBRANCH  27  28
ENDBRANCH  26  27
ENDBRANCH  25  26
ENDBRANCH  24  25
ENDBRANCH  23  24
ENDBRANCH  22  23
ENDBRANCH  21  22
ENDBRANCH   1  21
TORSDOF 20
ENDMDL
MODEL 4
REMARK VINA RESULT: -6.799003015      2.251      5.283
REMARK  20 active torsions:
REMARK  status: ('A' for Active; 'I' for Inactive)
REMARK    1  A    between atoms: C1_2  and  C2_3 
REMARK       I    between atoms: C1_2  and  N1_26 
REMARK    2  A    between atoms: C2_3  and  C3_4 
REMARK    3  A    between atoms: C3_4  and  C4_5 
REMARK    4  A    between atoms: C4_5  and  C5_6 
REMARK    5  A    between atoms: C5_6  and  C6_7 
REMARK    6  A    between atoms: C6_7  and  C7_8 
REMARK    7  A    between atoms: C7_8  and  C8_9 
REMARK    8  A    between atoms: C8_9  and  C9_10 
REMARK    9  A    between atoms: C9_10  and  C10_11 
REMARK   10  A    between atoms: C10_11  and  C11_12 
REMARK   11  A    between atoms: C11_12  and  C12_13 
REMARK   12  A    between atoms: C12_13  and  C13_14 
REMARK   13  A    between atoms: C13_14  and  C14_15 
REMARK   14  A    between atoms: C14_15  and  C15_16 
REMARK   15  A    between atoms: C18_19  and  O2_20 
REMARK   16  A    between atoms: C19_22  and  O3_23 
REMARK   17  A    between atoms: C22_28  and  O4_29 
REMARK   18  A    between atoms: C23_31  and  O5_32 
REMARK   19  A    between atoms: C24_34  and  O6_35 
REMARK   20  A    between atoms: C25_37  and  O7_38 
ROOT
HETATM    1  C5  UNL     1      33.354  42.336  -9.566  1.00  0.00    -0.031 C 
ENDROOT
BRANCH   1   2
HETATM    2  C4  UNL     1      33.436  40.956  -9.107  1.00  0.00    -0.030 C 
BRANCH   2   3
HETATM    3  C3  UNL     1      33.848  40.544  -7.777  1.00  0.00     0.036 C 
BRANCH   3   4
HETATM    4  C2  UNL     1      35.196  40.940  -7.308  1.00  0.00     0.107 C 
BRANCH   4   5
HETATM    5  C1  UNL     1      35.123  41.706  -6.035  1.00  0.00     0.222 C 
HETATM    6  O1  UNL     1      34.599  42.851  -5.931  1.00  0.00    -0.273 OA
HETATM    7  N1  UNL     1      35.667  41.145  -4.859  1.00  0.00    -0.321 N 
HETATM    8  C21 UNL     1      36.267  39.826  -4.940  1.00  0.00     0.163 C 
HETATM    9  C25 UNL     1      35.629  41.886  -3.627  1.00  0.00     0.254 C 
HETATM   10  C22 UNL     1      37.383  39.684  -3.933  1.00  0.00     0.167 C 
HETATM   11  C23 UNL     1      37.924  40.996  -3.472  1.00  0.00     0.181 C 
HETATM   12  C24 UNL     1      36.950  41.979  -2.948  1.00  0.00     0.198 C 
BRANCH  10  13
HETATM   13  O4  UNL     1      38.434  38.947  -4.472  1.00  0.00    -0.391 OA
ATOM     14  H4  UNL     1      38.211  38.024  -4.499  1.00  0.00     0.210 HD
ENDBRANCH  10  13
BRANCH  11  15
HETATM   15  O5  UNL     1      38.772  41.579  -4.444  1.00  0.00    -0.390 OA
ATOM     16  H5  UNL     1      39.522  41.026  -4.630  1.00  0.00     0.210 HD
ENDBRANCH  11  15
BRANCH  12  17
HETATM   17  O6  UNL     1      36.883  41.939  -1.555  1.00  0.00    -0.389 OA
ATOM     18  H6  UNL     1      37.678  42.273  -1.159  1.00  0.00     0.210 HD
ENDBRANCH  12  17
BRANCH   9  19
HETATM   19  O7  UNL     1      34.708  41.256  -2.771  1.00  0.00    -0.374 OA
ATOM     20  H7  UNL     1      34.511  41.855  -2.060  1.00  0.00     0.212 HD
ENDBRANCH   9  19
ENDBRANCH   4   5
ENDBRANCH   3   4
ENDBRANCH   2   3
ENDBRANCH   1   2
BRANCH   1  21
HETATM   21  C6  UNL     1      32.089  43.083  -9.610  1.00  0.00     0.027 C 
BRANCH  21  22
HETATM   22  C7  UNL     1      31.904  43.826 -10.941  1.00  0.00     0.004 C 
BRANCH  22  23
HETATM   23  C8  UNL     1      32.918  43.476 -11.967  1.00  0.00     0.000 C 
BRANCH  23  24
HETATM   24  C9  UNL     1      32.326  43.117 -13.307  1.00  0.00     0.000 C 
BRANCH  24  25
HETATM   25  C10 UNL     1      32.453  41.657 -13.621  1.00  0.00     0.000 C 
BRANCH  25  26
HETATM   26  C11 UNL     1      31.235  40.859 -13.237  1.00  0.00     0.000 C 
BRANCH  26  27
HETATM   27  C12 UNL     1      31.459  39.993 -12.032  1.00  0.00     0.000 C 
BRANCH  27  28
HETATM   28  C13 UNL     1      30.221  40.044 -11.170  1.00  0.00     0.000 C 
BRANCH  28  29
HETATM   29  C14 UNL     1      30.389  39.361  -9.844  1.00  0.00     0.005 C 
BRANCH  29  30
HETATM   30  C15 UNL     1      30.692  37.891 -10.149  1.00  0.00    -0.012 C 
HETATM   31  C16 UNL     1      29.443  37.078  -9.924  1.00  0.00     0.007 C 
HETATM   32  C17 UNL     1      29.730  35.665  -9.499  1.00  0.00     0.034 C 
HETATM   33  C18 UNL     1      30.370  35.646  -8.129  1.00  0.00     0.147 C 
HETATM   34  C19 UNL     1      30.996  37.001  -7.893  1.00  0.00     0.147 C 
HETATM   35  C20 UNL     1      31.726  37.441  -9.143  1.00  0.00     0.039 C 
BRANCH  33  36
HETATM   36  O2  UNL     1      29.453  35.316  -7.136  1.00  0.00    -0.393 OA
ATOM     37  H2  UNL     1      29.879  35.155  -6.302  1.00  0.00     0.210 HD
ENDBRANCH  33  36
BRANCH  34  38
HETATM   38  O3  UNL     1      31.924  36.872  -6.843  1.00  0.00    -0.393 OA
ATOM     39  H3  UNL     1      32.348  37.713  -6.722  1.00  0.00     0.210 HD
ENDBRANCH  34  38
ENDBRANCH  29  30
ENDBRANCH  28  29
ENDBRANCH  27  28
ENDBRANCH  26  27
ENDBRANCH  25  26
ENDBRANCH  24  25
ENDBRANCH  23  24
ENDBRANCH  22  23
ENDBRANCH  21  22
ENDBRANCH   1  21
TORSDOF 20
ENDMDL
MODEL 5
REMARK VINA RESULT: -6.653111553      1.931      3.762
REMARK  20 active torsions:
REMARK  status: ('A' for Active; 'I' for Inactive)
REMARK    1  A    between atoms: C1_2  and  C2_3 
REMARK       I    between atoms: C1_2  and  N1_26 
REMARK    2  A    between atoms: C2_3  and  C3_4 
REMARK    3  A    between atoms: C3_4  and  C4_5 
REMARK    4  A    between atoms: C4_5  and  C5_6 
REMARK    5  A    between atoms: C5_6  and  C6_7 
REMARK    6  A    between atoms: C6_7  and  C7_8 
REMARK    7  A    between atoms: C7_8  and  C8_9 
REMARK    8  A    between atoms: C8_9  and  C9_10 
REMARK    9  A    between atoms: C9_10  and  C10_11 
REMARK   10  A    between atoms: C10_11  and  C11_12 
REMARK   11  A    between atoms: C11_12  and  C12_13 
REMARK   12  A    between atoms: C12_13  and  C13_14 
REMARK   13  A    between atoms: C13_14  and  C14_15 
REMARK   14  A    between atoms: C14_15  and  C15_16 
REMARK   15  A    between atoms: C18_19  and  O2_20 
REMARK   16  A    between atoms: C19_22  and  O3_23 
REMARK   17  A    between atoms: C22_28  and  O4_29 
REMARK   18  A    between atoms: C23_31  and  O5_32 
REMARK   19  A    between atoms: C24_34  and  O6_35 
REMARK   20  A    between atoms: C25_37  and  O7_38 
ROOT
HETATM    1  C5  UNL     1      38.104  36.373  -6.534  1.00  0.00    -0.031 C 
ENDROOT
BRANCH   1   2
HETATM    2  C4  UNL     1      37.984  37.314  -5.429  1.00  0.00    -0.030 C 
BRANCH   2   3
HETATM    3  C3  UNL     1      38.468  37.079  -4.080  1.00  0.00     0.036 C 
BRANCH   3   4
HETATM    4  C2  UNL     1      38.950  38.241  -3.298  1.00  0.00     0.107 C 
BRANCH   4   5
HETATM    5  C1  UNL     1      37.928  38.694  -2.315  1.00  0.00     0.222 C 
HETATM    6  O1  UNL     1      37.406  37.943  -1.445  1.00  0.00    -0.273 OA
HETATM    7  N1  UNL     1      37.499  40.039  -2.336  1.00  0.00    -0.321 N 
HETATM    8  C21 UNL     1      38.088  40.934  -3.314  1.00  0.00     0.163 C 
HETATM    9  C25 UNL     1      36.492  40.485  -1.410  1.00  0.00     0.254 C 
HETATM   10  C22 UNL     1      37.103  42.004  -3.720  1.00  0.00     0.167 C 
HETATM   11  C23 UNL     1      35.686  41.630  -3.440  1.00  0.00     0.181 C 
HETATM   12  C24 UNL     1      35.363  41.202  -2.061  1.00  0.00     0.198 C 
BRANCH  10  13
HETATM   13  O4  UNL     1      37.218  42.281  -5.080  1.00  0.00    -0.391 OA
ATOM     14  H4  UNL     1      36.975  43.182  -5.257  1.00  0.00     0.210 HD
ENDBRANCH  10  13
BRANCH  11  15
HETATM   15  O5  UNL     1      35.194  40.708  -4.394  1.00  0.00    -0.390 OA
ATOM     16  H5  UNL     1      34.280  40.499  -4.238  1.00  0.00     0.210 HD
ENDBRANCH  11  15
BRANCH  12  17
HETATM   17  O6  UNL     1      34.844  42.256  -1.308  1.00  0.00    -0.389 OA
ATOM     18  H6  UNL     1      35.116  42.202  -0.400  1.00  0.00     0.210 HD
ENDBRANCH  12  17
BRANCH   9  19
HETATM   19  O7  UNL     1      37.110  41.335  -0.476  1.00  0.00    -0.374 OA
ATOM     20  H7  UNL     1      37.202  42.192  -0.876  1.00  0.00     0.212 HD
ENDBRANCH   9  19
ENDBRANCH   4   5
ENDBRANCH   3   4
ENDBRANCH   2   3
ENDBRANCH   1   2
BRANCH   1  21
HETATM   21  C6  UNL     1      37.047  36.191  -7.539  1.00  0.00     0.027 C 
BRANCH  21  22
HETATM   22  C7  UNL     1      36.023  37.335  -7.511  1.00  0.00     0.004 C 
BRANCH  22  23
HETATM   23  C8  UNL     1      34.792  37.054  -8.294  1.00  0.00     0.000 C 
BRANCH  23  24
HETATM   24  C9  UNL     1      33.608  37.892  -7.882  1.00  0.00     0.000 C 
BRANCH  24  25
HETATM   25  C10 UNL     1      32.541  37.940  -8.934  1.00  0.00     0.000 C 
BRANCH  25  26
HETATM   26  C11 UNL     1      32.167  39.343  -9.335  1.00  0.00     0.000 C 
BRANCH  26  27
HETATM   27  C12 UNL     1      33.301  40.315  -9.189  1.00  0.00     0.000 C 
BRANCH  27  28
HETATM   28  C13 UNL     1      32.736  41.714  -9.210  1.00  0.00     0.000 C 
BRANCH  28  29
HETATM   29  C14 UNL     1      33.349  42.589 -10.265  1.00  0.00     0.005 C 
BRANCH  29  30
HETATM   30  C15 UNL     1      32.257  42.838 -11.310  1.00  0.00    -0.012 C 
HETATM   31  C16 UNL     1      32.719  42.294 -12.637  1.00  0.00     0.007 C 
HETATM   32  C17 UNL     1      32.147  43.043 -13.809  1.00  0.00     0.034 C 
HETATM   33  C18 UNL     1      32.683  44.456 -13.845  1.00  0.00     0.147 C 
HETATM   34  C19 UNL     1      33.145  44.809 -12.450  1.00  0.00     0.147 C 
HETATM   35  C20 UNL     1      32.118  44.337 -11.445  1.00  0.00     0.039 C 
BRANCH  33  36
HETATM   36  O2  UNL     1      33.700  44.599 -14.782  1.00  0.00    -0.393 OA
ATOM     37  H2  UNL     1      33.978  45.504 -14.865  1.00  0.00     0.210 HD
ENDBRANCH  33  36
BRANCH  34  38
HETATM   38  O3  UNL     1      33.251  46.210 -12.371  1.00  0.00    -0.393 OA
ATOM     39  H3  UNL     1      34.174  46.434 -12.371  1.00  0.00     0.210 HD
ENDBRANCH  34  38
ENDBRANCH  29  30
ENDBRANCH  28  29
ENDBRANCH  27  28
ENDBRANCH  26  27
ENDBRANCH  25  26
ENDBRANCH  24  25
ENDBRANCH  23  24
ENDBRANCH  22  23
ENDBRANCH  21  22
ENDBRANCH   1  21
TORSDOF 20
ENDMDL
