MODEL 1
REMARK VINA RESULT: -7.732501242      0.000      0.000
REMARK  16 active torsions:
REMARK  status: ('A' for Active; 'I' for Inactive)
REMARK    1  A    between atoms: N1_1  and  C1_4 
REMARK    2  A    between atoms: N3_8  and  C3_10 
REMARK    3  A    between atoms: C3_10  and  C4_11 
REMARK    4  A    between atoms: C5_12  and  C6_13 
REMARK    5  A    between atoms: C6_13  and  N4_14 
REMARK    6  A    between atoms: N4_14  and  C7_17 
REMARK    7  A    between atoms: C7_17  and  C8_18 
REMARK    8  A    between atoms: C8_18  and  C9_19 
REMARK    9  A    between atoms: C9_19  and  C10_20 
REMARK   10  A    between atoms: C10_20  and  C11_21 
REMARK   11  A    between atoms: C11_21  and  C12_22 
REMARK   12  A    between atoms: N7_32  and  C16_33 
REMARK   13  A    between atoms: C16_33  and  C17_34 
REMARK   14  A    between atoms: C17_34  and  C18_35 
REMARK   15  A    between atoms: C18_35  and  C19_36 
REMARK   16  A    between atoms: C19_36  and  O3_37 
ROOT
HETATM    1  C1  UNL     1      34.668  38.277  -7.627  1.00  0.00     0.145 A 
HETATM    2  N2  UNL     1      35.180  38.746  -6.482  1.00  0.00    -0.175 N 
ATOM      3  H2  UNL     1      35.621  38.099  -5.828  1.00  0.00     0.186 HD
HETATM    4  C2  UNL     1      35.125  40.057  -6.178  1.00  0.00     0.681 A 
HETATM    5  N3  UNL     1      35.645  40.422  -5.045  1.00  0.00    -0.223 N 
ATOM      6  H3  UNL     1      36.066  39.713  -4.444  1.00  0.00     0.178 HD
HETATM    7  N5  UNL     1      34.561  40.963  -6.991  1.00  0.00    -0.174 N 
ATOM      8  H5  UNL     1      34.538  41.948  -6.728  1.00  0.00     0.186 HD
HETATM    9  C13 UNL     1      34.020  40.551  -8.178  1.00  0.00     0.155 A 
HETATM   10  C14 UNL     1      34.079  39.198  -8.488  1.00  0.00     0.123 A 
HETATM   11  N6  UNL     1      33.486  39.066  -9.663  1.00  0.00    -0.346 N 
ATOM     12  H6  UNL     1      33.367  38.186 -10.165  1.00  0.00     0.167 HD
HETATM   13  C15 UNL     1      33.068  40.255 -10.091  1.00  0.00     0.185 A 
HETATM   14  N7  UNL     1      33.394  41.169  -9.183  1.00  0.00    -0.327 N 
ENDROOT
BRANCH   5  15
HETATM   15  C3  UNL     1      35.648  41.812  -4.604  1.00  0.00     0.165 C 
BRANCH  15  16
HETATM   16  C4  UNL     1      36.848  42.007  -3.790  1.00  0.00    -0.009 C 
HETATM   17  C5  UNL     1      36.875  41.901  -2.487  1.00  0.00    -0.002 C 
BRANCH  17  18
HETATM   18  C6  UNL     1      35.763  41.582  -1.615  1.00  0.00     0.259 C 
BRANCH  18  19
HETATM   19  N4  UNL     1      35.732  40.161  -1.240  1.00  0.00    -0.072 N 
ATOM     20  H42 UNL     1      35.300  40.016  -0.327  1.00  0.00     0.277 HD
ATOM     21  H41 UNL     1      35.068  39.632  -1.805  1.00  0.00     0.277 HD
BRANCH  19  22
HETATM   22  C7  UNL     1      37.024  39.617  -1.301  1.00  0.00     0.232 C 
BRANCH  22  23
HETATM   23  C8  UNL     1      37.184  38.134  -1.321  1.00  0.00     0.027 C 
BRANCH  23  24
HETATM   24  C9  UNL     1      38.508  37.551  -1.541  1.00  0.00     0.002 C 
BRANCH  24  25
HETATM   25  C10 UNL     1      39.251  37.801  -2.793  1.00  0.00     0.010 C 
BRANCH  25  26
HETATM   26  C11 UNL     1      38.949  36.853  -3.925  1.00  0.00     0.113 C 
BRANCH  26  27
HETATM   27  C12 UNL     1      38.051  37.530  -4.886  1.00  0.00     0.172 C 
HETATM   28  O1  UNL     1      37.948  38.776  -4.848  1.00  0.00    -0.648 OA
HETATM   29  O2  UNL     1      37.310  36.841  -5.838  1.00  0.00    -0.648 OA
ENDBRANCH  26  27
ENDBRANCH  25  26
ENDBRANCH  24  25
ENDBRANCH  23  24
ENDBRANCH  22  23
ENDBRANCH  19  22
ENDBRANCH  18  19
ENDBRANCH  17  18
ENDBRANCH  15  16
ENDBRANCH   5  15
BRANCH   1  30
HETATM   30  N1  UNL     1      34.708  37.042  -7.941  1.00  0.00    -0.383 N 
ATOM     31  H12 UNL     1      35.018  36.350  -7.259  1.00  0.00     0.157 HD
ATOM     32  H11 UNL     1      34.437  36.701  -8.863  1.00  0.00     0.157 HD
ENDBRANCH   1  30
BRANCH  14  33
HETATM   33  C16 UNL     1      33.165  42.606  -9.224  1.00  0.00     0.131 C 
BRANCH  33  34
HETATM   34  C17 UNL     1      32.289  43.059 -10.354  1.00  0.00     0.023 C 
BRANCH  34  35
HETATM   35  C18 UNL     1      33.088  43.600 -11.465  1.00  0.00     0.039 C 
BRANCH  35  36
HETATM   36  C19 UNL     1      32.270  44.345 -12.511  1.00  0.00     0.058 C 
HETATM   37  C20 UNL     1      30.811  44.147 -12.356  1.00  0.00     0.038 C 
HETATM   38  C21 UNL     1      30.156  43.228 -13.332  1.00  0.00     0.003 C 
HETATM   39  C22 UNL     1      30.699  43.386 -14.736  1.00  0.00     0.000 C 
HETATM   40  C23 UNL     1      32.190  43.219 -14.786  1.00  0.00     0.003 C 
HETATM   41  C24 UNL     1      32.850  44.162 -13.861  1.00  0.00     0.038 C 
BRANCH  36  42
HETATM   42  O3  UNL     1      32.508  45.711 -12.174  1.00  0.00    -0.390 OA
ATOM     43  H3  UNL     1      33.435  45.810 -12.355  1.00  0.00     0.210 HD
ENDBRANCH  36  42
ENDBRANCH  35  36
ENDBRANCH  34  35
ENDBRANCH  33  34
ENDBRANCH  14  33
TORSDOF 16
ENDMDL
MODEL 2
REMARK VINA RESULT: -7.707266806      3.129      8.686
REMARK  16 active torsions:
REMARK  status: ('A' for Active; 'I' for Inactive)
REMARK    1  A    between atoms: N1_1  and  C1_4 
REMARK    2  A    between atoms: N3_8  and  C3_10 
REMARK    3  A    between atoms: C3_10  and  C4_11 
REMARK    4  A    between atoms: C5_12  and  C6_13 
REMARK    5  A    between atoms: C6_13  and  N4_14 
REMARK    6  A    between atoms: N4_14  and  C7_17 
REMARK    7  A    between atoms: C7_17  and  C8_18 
REMARK    8  A    between atoms: C8_18  and  C9_19 
REMARK    9  A    between atoms: C9_19  and  C10_20 
REMARK   10  A    between atoms: C10_20  and  C11_21 
REMARK   11  A    between atoms: C11_21  and  C12_22 
REMARK   12  A    between atoms: N7_32  and  C16_33 
REMARK   13  A    between atoms: C16_33  and  C17_34 
REMARK   14  A    between atoms: C17_34  and  C18_35 
REMARK   15  A    between atoms: C18_35  and  C19_36 
REMARK   16  A    between atoms: C19_36  and  O3_37 
ROOT
HETATM    1  C1  UNL     1      35.020  41.589  -5.200  1.00  0.00     0.145 A 
HETATM    2  N2  UNL     1      34.152  42.329  -5.902  1.00  0.00    -0.175 N 
ATOM      3  H2  UNL     1      33.851  43.232  -5.534  1.00  0.00     0.186 HD
HETATM    4  C2  UNL     1      33.668  41.905  -7.085  1.00  0.00     0.681 A 
HETATM    5  N3  UNL     1      32.830  42.687  -7.695  1.00  0.00    -0.223 N 
ATOM      6  H3  UNL     1      32.577  43.574  -7.259  1.00  0.00     0.178 HD
HETATM    7  N5  UNL     1      34.021  40.730  -7.628  1.00  0.00    -0.174 N 
ATOM      8  H5  UNL     1      33.634  40.440  -8.527  1.00  0.00     0.186 HD
HETATM    9  C13 UNL     1      34.905  39.924  -6.964  1.00  0.00     0.155 A 
HETATM   10  C14 UNL     1      35.401  40.366  -5.744  1.00  0.00     0.123 A 
HETATM   11  N6  UNL     1      36.212  39.414  -5.313  1.00  0.00    -0.346 N 
ATOM     12  H6  UNL     1      36.735  39.440  -4.438  1.00  0.00     0.167 HD
HETATM   13  C15 UNL     1      36.243  38.417  -6.194  1.00  0.00     0.185 A 
HETATM   14  N7  UNL     1      35.443  38.727  -7.210  1.00  0.00    -0.327 N 
ENDROOT
BRANCH   5  15
HETATM   15  C3  UNL     1      32.238  42.340  -8.981  1.00  0.00     0.165 C 
BRANCH  15  16
HETATM   16  C4  UNL     1      33.232  42.640 -10.011  1.00  0.00    -0.009 C 
HETATM   17  C5  UNL     1      33.027  43.457 -11.011  1.00  0.00    -0.002 C 
BRANCH  17  18
HETATM   18  C6  UNL     1      31.818  44.204 -11.295  1.00  0.00     0.259 C 
BRANCH  18  19
HETATM   19  N4  UNL     1      31.956  45.072 -12.473  1.00  0.00    -0.072 N 
ATOM     20  H42 UNL     1      31.085  45.145 -12.998  1.00  0.00     0.277 HD
ATOM     21  H41 UNL     1      32.057  46.054 -12.213  1.00  0.00     0.277 HD
BRANCH  19  22
HETATM   22  C7  UNL     1      33.017  44.630 -13.277  1.00  0.00     0.232 C 
BRANCH  22  23
HETATM   23  C8  UNL     1      32.744  44.252 -14.693  1.00  0.00     0.027 C 
BRANCH  23  24
HETATM   24  C9  UNL     1      31.999  43.027 -14.986  1.00  0.00     0.002 C 
BRANCH  24  25
HETATM   25  C10 UNL     1      32.230  41.792 -14.207  1.00  0.00     0.010 C 
BRANCH  25  26
HETATM   26  C11 UNL     1      30.993  41.138 -13.649  1.00  0.00     0.113 C 
BRANCH  26  27
HETATM   27  C12 UNL     1      31.337  40.482 -12.369  1.00  0.00     0.172 C 
HETATM   28  O1  UNL     1      30.497  40.483 -11.441  1.00  0.00    -0.648 OA
HETATM   29  O2  UNL     1      32.558  39.858 -12.147  1.00  0.00    -0.648 OA
ENDBRANCH  26  27
ENDBRANCH  25  26
ENDBRANCH  24  25
ENDBRANCH  23  24
ENDBRANCH  22  23
ENDBRANCH  19  22
ENDBRANCH  18  19
ENDBRANCH  17  18
ENDBRANCH  15  16
ENDBRANCH   5  15
BRANCH   1  30
HETATM   30  N1  UNL     1      35.493  41.967  -4.079  1.00  0.00    -0.383 N 
ATOM     31  H12 UNL     1      34.916  41.928  -3.239  1.00  0.00     0.157 HD
ATOM     32  H11 UNL     1      36.446  42.314  -3.975  1.00  0.00     0.157 HD
ENDBRANCH   1  30
BRANCH  14  33
HETATM   33  C16 UNL     1      35.175  37.958  -8.416  1.00  0.00     0.131 C 
BRANCH  33  34
HETATM   34  C17 UNL     1      34.035  36.991  -8.290  1.00  0.00     0.023 C 
BRANCH  34  35
HETATM   35  C18 UNL     1      33.193  36.999  -9.498  1.00  0.00     0.039 C 
BRANCH  35  36
HETATM   36  C19 UNL     1      31.789  37.542  -9.272  1.00  0.00     0.058 C 
HETATM   37  C20 UNL     1      31.260  37.237  -7.923  1.00  0.00     0.038 C 
HETATM   38  C21 UNL     1      30.235  36.156  -7.838  1.00  0.00     0.003 C 
HETATM   39  C22 UNL     1      29.251  36.195  -8.988  1.00  0.00     0.000 C 
HETATM   40  C23 UNL     1      29.940  36.154 -10.322  1.00  0.00     0.003 C 
HETATM   41  C24 UNL     1      30.920  37.253 -10.434  1.00  0.00     0.038 C 
BRANCH  36  42
HETATM   42  O3  UNL     1      31.998  38.953  -9.289  1.00  0.00    -0.390 OA
ATOM     43  H3  UNL     1      32.076  39.161  -8.366  1.00  0.00     0.210 HD
ENDBRANCH  36  42
ENDBRANCH  35  36
ENDBRANCH  34  35
ENDBRANCH  33  34
ENDBRANCH  14  33
TORSDOF 16
ENDMDL
MODEL 3
REMARK VINA RESULT: -7.578726244      3.180      6.192
REMARK  16 active torsions:
REMARK  status: ('A' for Active; 'I' for Inactive)
REMARK    1  A    between atoms: N1_1  and  C1_4 
REMARK    2  A    between atoms: N3_8  and  C3_10 
REMARK    3  A    between atoms: C3_10  and  C4_11 
REMARK    4  A    between atoms: C5_12  and  C6_13 
REMARK    5  A    between atoms: C6_13  and  N4_14 
REMARK    6  A    between atoms: N4_14  and  C7_17 
REMARK    7  A    between atoms: C7_17  and  C8_18 
REMARK    8  A    between atoms: C8_18  and  C9_19 
REMARK    9  A    between atoms: C9_19  and  C10_20 
REMARK   10  A    between atoms: C10_20  and  C11_21 
REMARK   11  A    between atoms: C11_21  and  C12_22 
REMARK   12  A    between atoms: N7_32  and  C16_33 
REMARK   13  A    between atoms: C16_33  and  C17_34 
REMARK   14  A    between atoms: C17_34  and  C18_35 
REMARK   15  A    between atoms: C18_35  and  C19_36 
REMARK   16  A    between atoms: C19_36  and  O3_37 
ROOT
HETATM    1  C1  UNL     1      35.108  39.694  -6.550  1.00  0.00     0.145 A 
HETATM    2  N2  UNL     1      35.427  38.658  -7.337  1.00  0.00    -0.175 N 
ATOM      3  H2  UNL     1      36.026  37.918  -6.971  1.00  0.00     0.186 HD
HETATM    4  C2  UNL     1      34.973  38.576  -8.602  1.00  0.00     0.681 A 
HETATM    5  N3  UNL     1      35.335  37.537  -9.292  1.00  0.00    -0.223 N 
ATOM      6  H3  UNL     1      35.938  36.840  -8.855  1.00  0.00     0.178 HD
HETATM    7  N5  UNL     1      34.182  39.513  -9.146  1.00  0.00    -0.174 N 
ATOM      8  H5  UNL     1      33.857  39.417 -10.108  1.00  0.00     0.186 HD
HETATM    9  C13 UNL     1      33.817  40.598  -8.397  1.00  0.00     0.155 A 
HETATM   10  C14 UNL     1      34.288  40.679  -7.093  1.00  0.00     0.123 A 
HETATM   11  N6  UNL     1      33.806  41.808  -6.600  1.00  0.00    -0.346 N 
ATOM     12  H6  UNL     1      33.974  42.155  -5.655  1.00  0.00     0.167 HD
HETATM   13  C15 UNL     1      33.069  42.423  -7.522  1.00  0.00     0.185 A 
HETATM   14  N7  UNL     1      33.072  41.683  -8.626  1.00  0.00    -0.327 N 
ENDROOT
BRANCH   5  15
HETATM   15  C3  UNL     1      34.908  37.333 -10.671  1.00  0.00     0.165 C 
BRANCH  15  16
HETATM   16  C4  UNL     1      34.072  36.133 -10.694  1.00  0.00    -0.009 C 
HETATM   17  C5  UNL     1      32.985  36.011 -11.412  1.00  0.00    -0.002 C 
BRANCH  17  18
HETATM   18  C6  UNL     1      32.407  37.003 -12.296  1.00  0.00     0.259 C 
BRANCH  18  19
HETATM   19  N4  UNL     1      31.080  37.450 -11.848  1.00  0.00    -0.072 N 
ATOM     20  H42 UNL     1      30.471  37.683 -12.633  1.00  0.00     0.277 HD
ATOM     21  H41 UNL     1      30.532  36.684 -11.456  1.00  0.00     0.277 HD
BRANCH  19  22
HETATM   22  C7  UNL     1      31.208  38.519 -10.949  1.00  0.00     0.232 C 
BRANCH  22  23
HETATM   23  C8  UNL     1      30.705  38.356  -9.555  1.00  0.00     0.027 C 
BRANCH  23  24
HETATM   24  C9  UNL     1      29.985  37.140  -9.181  1.00  0.00     0.002 C 
BRANCH  24  25
HETATM   25  C10 UNL     1      30.317  36.410  -7.939  1.00  0.00     0.010 C 
BRANCH  25  26
HETATM   26  C11 UNL     1      31.564  35.567  -7.998  1.00  0.00     0.113 C 
BRANCH  26  27
HETATM   27  C12 UNL     1      32.625  36.230  -7.209  1.00  0.00     0.172 C 
HETATM   28  O1  UNL     1      33.783  35.755  -7.229  1.00  0.00    -0.648 OA
HETATM   29  O2  UNL     1      32.396  37.365  -6.442  1.00  0.00    -0.648 OA
ENDBRANCH  26  27
ENDBRANCH  25  26
ENDBRANCH  24  25
ENDBRANCH  23  24
ENDBRANCH  22  23
ENDBRANCH  19  22
ENDBRANCH  18  19
ENDBRANCH  17  18
ENDBRANCH  15  16
ENDBRANCH   5  15
BRANCH   1  30
HETATM   30  N1  UNL     1      35.523  39.797  -5.349  1.00  0.00    -0.383 N 
ATOM     31  H12 UNL     1      35.073  39.266  -4.604  1.00  0.00     0.157 HD
ATOM     32  H11 UNL     1      36.305  40.398  -5.089  1.00  0.00     0.157 HD
ENDBRANCH   1  30
BRANCH  14  33
HETATM   33  C16 UNL     1      32.389  41.936  -9.886  1.00  0.00     0.131 C 
BRANCH  33  34
HETATM   34  C17 UNL     1      32.336  43.383 -10.279  1.00  0.00     0.023 C 
BRANCH  34  35
HETATM   35  C18 UNL     1      33.065  43.622 -11.535  1.00  0.00     0.039 C 
BRANCH  35  36
HETATM   36  C19 UNL     1      32.258  44.369 -12.587  1.00  0.00     0.058 C 
HETATM   37  C20 UNL     1      30.797  44.192 -12.431  1.00  0.00     0.038 C 
HETATM   38  C21 UNL     1      30.129  43.274 -13.400  1.00  0.00     0.003 C 
HETATM   39  C22 UNL     1      30.675  43.412 -14.805  1.00  0.00     0.000 C 
HETATM   40  C23 UNL     1      32.165  43.225 -14.853  1.00  0.00     0.003 C 
HETATM   41  C24 UNL     1      32.837  44.167 -13.935  1.00  0.00     0.038 C 
BRANCH  36  42
HETATM   42  O3  UNL     1      32.514  45.734 -12.261  1.00  0.00    -0.390 OA
ATOM     43  H3  UNL     1      33.090  46.010 -12.964  1.00  0.00     0.210 HD
ENDBRANCH  36  42
ENDBRANCH  35  36
ENDBRANCH  34  35
ENDBRANCH  33  34
ENDBRANCH  14  33
TORSDOF 16
ENDMDL
MODEL 4
REMARK VINA RESULT: -7.495070393      2.497     10.176
REMARK  16 active torsions:
REMARK  status: ('A' for Active; 'I' for Inactive)
REMARK    1  A    between atoms: N1_1  and  C1_4 
REMARK    2  A    between atoms: N3_8  and  C3_10 
REMARK    3  A    between atoms: C3_10  and  C4_11 
REMARK    4  A    between atoms: C5_12  and  C6_13 
REMARK    5  A    between atoms: C6_13  and  N4_14 
REMARK    6  A    between atoms: N4_14  and  C7_17 
REMARK    7  A    between atoms: C7_17  and  C8_18 
REMARK    8  A    between atoms: C8_18  and  C9_19 
REMARK    9  A    between atoms: C9_19  and  C10_20 
REMARK   10  A    between atoms: C10_20  and  C11_21 
REMARK   11  A    between atoms: C11_21  and  C12_22 
REMARK   12  A    between atoms: N7_32  and  C16_33 
REMARK   13  A    between atoms: C16_33  and  C17_34 
REMARK   14  A    between atoms: C17_34  and  C18_35 
REMARK   15  A    between atoms: C18_35  and  C19_36 
REMARK   16  A    between atoms: C19_36  and  O3_37 
ROOT
HETATM    1  C1  UNL     1      33.712  38.929  -9.563  1.00  0.00     0.145 A 
HETATM    2  N2  UNL     1      33.106  39.901 -10.258  1.00  0.00    -0.175 N 
ATOM      3  H2  UNL     1      32.661  39.676 -11.149  1.00  0.00     0.186 HD
HETATM    4  C2  UNL     1      33.071  41.168  -9.804  1.00  0.00     0.681 A 
HETATM    5  N3  UNL     1      32.463  42.044 -10.545  1.00  0.00    -0.223 N 
ATOM      6  H3  UNL     1      32.045  41.741 -11.425  1.00  0.00     0.178 HD
HETATM    7  N5  UNL     1      33.634  41.533  -8.642  1.00  0.00    -0.174 N 
ATOM      8  H5  UNL     1      33.588  42.502  -8.329  1.00  0.00     0.186 HD
HETATM    9  C13 UNL     1      34.269  40.589  -7.881  1.00  0.00     0.155 A 
HETATM   10  C14 UNL     1      34.302  39.284  -8.354  1.00  0.00     0.123 A 
HETATM   11  N6  UNL     1      34.972  38.586  -7.452  1.00  0.00    -0.346 N 
ATOM     12  H6  UNL     1      35.169  37.586  -7.511  1.00  0.00     0.167 HD
HETATM   13  C15 UNL     1      35.352  39.384  -6.456  1.00  0.00     0.185 A 
HETATM   14  N7  UNL     1      34.921  40.614  -6.715  1.00  0.00    -0.327 N 
ENDROOT
BRANCH   5  15
HETATM   15  C3  UNL     1      32.357  43.446 -10.161  1.00  0.00     0.165 C 
BRANCH  15  16
HETATM   16  C4  UNL     1      31.435  44.086 -11.099  1.00  0.00    -0.009 C 
HETATM   17  C5  UNL     1      31.796  44.603 -12.244  1.00  0.00    -0.002 C 
BRANCH  17  18
HETATM   18  C6  UNL     1      33.134  44.649 -12.798  1.00  0.00     0.259 C 
BRANCH  18  19
HETATM   19  N4  UNL     1      33.133  44.789 -14.261  1.00  0.00    -0.072 N 
ATOM     20  H42 UNL     1      33.263  45.758 -14.552  1.00  0.00     0.277 HD
ATOM     21  H41 UNL     1      33.973  44.392 -14.683  1.00  0.00     0.277 HD
BRANCH  19  22
HETATM   22  C7  UNL     1      31.963  44.233 -14.799  1.00  0.00     0.232 C 
BRANCH  22  23
HETATM   23  C8  UNL     1      32.077  43.129 -15.795  1.00  0.00     0.027 C 
BRANCH  23  24
HETATM   24  C9  UNL     1      31.758  41.758 -15.397  1.00  0.00     0.002 C 
BRANCH  24  25
HETATM   25  C10 UNL     1      32.188  41.226 -14.086  1.00  0.00     0.010 C 
BRANCH  25  26
HETATM   26  C11 UNL     1      32.257  39.724 -13.988  1.00  0.00     0.113 C 
BRANCH  26  27
HETATM   27  C12 UNL     1      31.488  39.288 -12.802  1.00  0.00     0.172 C 
HETATM   28  O1  UNL     1      30.710  40.099 -12.251  1.00  0.00    -0.648 OA
HETATM   29  O2  UNL     1      31.589  38.010 -12.267  1.00  0.00    -0.648 OA
ENDBRANCH  26  27
ENDBRANCH  25  26
ENDBRANCH  24  25
ENDBRANCH  23  24
ENDBRANCH  22  23
ENDBRANCH  19  22
ENDBRANCH  18  19
ENDBRANCH  17  18
ENDBRANCH  15  16
ENDBRANCH   5  15
BRANCH   1  30
HETATM   30  N1  UNL     1      33.758  37.722  -9.969  1.00  0.00    -0.383 N 
ATOM     31  H12 UNL     1      33.500  36.960  -9.343  1.00  0.00     0.157 HD
ATOM     32  H11 UNL     1      34.048  37.473 -10.915  1.00  0.00     0.157 HD
ENDBRANCH   1  30
BRANCH  14  33
HETATM   33  C16 UNL     1      35.074  41.814  -5.906  1.00  0.00     0.131 C 
BRANCH  33  34
HETATM   34  C17 UNL     1      36.268  41.798  -4.999  1.00  0.00     0.023 C 
BRANCH  34  35
HETATM   35  C18 UNL     1      35.864  41.729  -3.586  1.00  0.00     0.039 C 
BRANCH  35  36
HETATM   36  C19 UNL     1      37.026  41.784  -2.604  1.00  0.00     0.058 C 
HETATM   37  C20 UNL     1      36.931  40.764  -1.535  1.00  0.00     0.038 C 
HETATM   38  C21 UNL     1      36.519  41.251  -0.185  1.00  0.00     0.003 C 
HETATM   39  C22 UNL     1      37.140  42.585   0.168  1.00  0.00     0.000 C 
HETATM   40  C23 UNL     1      36.857  43.632  -0.871  1.00  0.00     0.003 C 
HETATM   41  C24 UNL     1      37.309  43.180  -2.202  1.00  0.00     0.038 C 
BRANCH  36  42
HETATM   42  O3  UNL     1      38.132  41.386  -3.413  1.00  0.00    -0.390 OA
ATOM     43  H3  UNL     1      38.594  42.205  -3.548  1.00  0.00     0.210 HD
ENDBRANCH  36  42
ENDBRANCH  35  36
ENDBRANCH  34  35
ENDBRANCH  33  34
ENDBRANCH  14  33
TORSDOF 16
ENDMDL
MODEL 5
REMARK VINA RESULT: -7.390760877      3.585      5.992
REMARK  16 active torsions:
REMARK  status: ('A' for Active; 'I' for Inactive)
REMARK    1  A    between atoms: N1_1  and  C1_4 
REMARK    2  A    between atoms: N3_8  and  C3_10 
REMARK    3  A    between atoms: C3_10  and  C4_11 
REMARK    4  A    between atoms: C5_12  and  C6_13 
REMARK    5  A    between atoms: C6_13  and  N4_14 
REMARK    6  A    between atoms: N4_14  and  C7_17 
REMARK    7  A    between atoms: C7_17  and  C8_18 
REMARK    8  A    between atoms: C8_18  and  C9_19 
REMARK    9  A    between atoms: C9_19  and  C10_20 
REMARK   10  A    between atoms: C10_20  and  C11_21 
REMARK   11  A    between atoms: C11_21  and  C12_22 
REMARK   12  A    between atoms: N7_32  and  C16_33 
REMARK   13  A    between atoms: C16_33  and  C17_34 
REMARK   14  A    between atoms: C17_34  and  C18_35 
REMARK   15  A    between atoms: C18_35  and  C19_36 
REMARK   16  A    between atoms: C19_36  and  O3_37 
ROOT
HETATM    1  C1  UNL     1      34.053  41.257  -6.814  1.00  0.00     0.145 A 
HETATM    2  N2  UNL     1      34.947  40.896  -5.884  1.00  0.00    -0.175 N 
ATOM      3  H2  UNL     1      35.097  41.497  -5.074  1.00  0.00     0.186 HD
HETATM    4  C2  UNL     1      35.650  39.753  -5.997  1.00  0.00     0.681 A 
HETATM    5  N3  UNL     1      36.496  39.484  -5.048  1.00  0.00    -0.223 N 
ATOM      6  H3  UNL     1      36.590  40.138  -4.272  1.00  0.00     0.178 HD
HETATM    7  N5  UNL     1      35.501  38.915  -7.034  1.00  0.00    -0.174 N 
ATOM      8  H5  UNL     1      36.051  38.057  -7.087  1.00  0.00     0.186 HD
HETATM    9  C13 UNL     1      34.604  39.223  -8.020  1.00  0.00     0.155 A 
HETATM   10  C14 UNL     1      33.882  40.403  -7.899  1.00  0.00     0.123 A 
HETATM   11  N6  UNL     1      33.107  40.469  -8.969  1.00  0.00    -0.346 N 
ATOM     12  H6  UNL     1      32.452  41.223  -9.175  1.00  0.00     0.167 HD
HETATM   13  C15 UNL     1      33.311  39.401  -9.738  1.00  0.00     0.185 A 
HETATM   14  N7  UNL     1      34.229  38.634  -9.158  1.00  0.00    -0.327 N 
ENDROOT
BRANCH   5  15
HETATM   15  C3  UNL     1      37.313  38.277  -5.057  1.00  0.00     0.165 C 
BRANCH  15  16
HETATM   16  C4  UNL     1      38.475  38.533  -4.205  1.00  0.00    -0.009 C 
HETATM   17  C5  UNL     1      38.673  37.963  -3.045  1.00  0.00    -0.002 C 
BRANCH  17  18
HETATM   18  C6  UNL     1      37.814  36.997  -2.390  1.00  0.00     0.259 C 
BRANCH  18  19
HETATM   19  N4  UNL     1      36.925  37.618  -1.397  1.00  0.00    -0.072 N 
ATOM     20  H42 UNL     1      35.941  37.441  -1.603  1.00  0.00     0.277 HD
ATOM     21  H41 UNL     1      36.975  37.148  -0.493  1.00  0.00     0.277 HD
BRANCH  19  22
HETATM   22  C7  UNL     1      37.199  38.989  -1.293  1.00  0.00     0.232 C 
BRANCH  22  23
HETATM   23  C8  UNL     1      36.302  39.847  -0.466  1.00  0.00     0.027 C 
BRANCH  23  24
HETATM   24  C9  UNL     1      35.986  41.205  -0.909  1.00  0.00     0.002 C 
BRANCH  24  25
HETATM   25  C10 UNL     1      36.908  42.328  -0.637  1.00  0.00     0.010 C 
BRANCH  25  26
HETATM   26  C11 UNL     1      37.135  43.272  -1.789  1.00  0.00     0.113 C 
BRANCH  26  27
HETATM   27  C12 UNL     1      37.228  42.486  -3.039  1.00  0.00     0.172 C 
HETATM   28  O1  UNL     1      38.221  41.746  -3.217  1.00  0.00    -0.648 OA
HETATM   29  O2  UNL     1      36.258  42.531  -4.031  1.00  0.00    -0.648 OA
ENDBRANCH  26  27
ENDBRANCH  25  26
ENDBRANCH  24  25
ENDBRANCH  23  24
ENDBRANCH  22  23
ENDBRANCH  19  22
ENDBRANCH  18  19
ENDBRANCH  17  18
ENDBRANCH  15  16
ENDBRANCH   5  15
BRANCH   1  30
HETATM   30  N1  UNL     1      33.374  42.333  -6.731  1.00  0.00    -0.383 N 
ATOM     31  H12 UNL     1      33.189  42.753  -5.820  1.00  0.00     0.157 HD
ATOM     32  H11 UNL     1      32.997  42.807  -7.550  1.00  0.00     0.157 HD
ENDBRANCH   1  30
BRANCH  14  33
HETATM   33  C16 UNL     1      34.757  37.356  -9.613  1.00  0.00     0.131 C 
BRANCH  33  34
HETATM   34  C17 UNL     1      33.790  36.215  -9.506  1.00  0.00     0.023 C 
BRANCH  34  35
HETATM   35  C18 UNL     1      33.844  35.593  -8.173  1.00  0.00     0.039 C 
BRANCH  35  36
HETATM   36  C19 UNL     1      32.491  35.484  -7.484  1.00  0.00     0.058 C 
HETATM   37  C20 UNL     1      31.665  34.369  -8.001  1.00  0.00     0.038 C 
HETATM   38  C21 UNL     1      30.533  34.740  -8.901  1.00  0.00     0.003 C 
HETATM   39  C22 UNL     1      29.818  35.995  -8.450  1.00  0.00     0.000 C 
HETATM   40  C23 UNL     1      30.759  37.155  -8.294  1.00  0.00     0.003 C 
HETATM   41  C24 UNL     1      31.854  36.815  -7.364  1.00  0.00     0.038 C 
BRANCH  36  42
HETATM   42  O3  UNL     1      32.850  35.109  -6.156  1.00  0.00    -0.390 OA
ATOM     43  H3  UNL     1      33.326  35.871  -5.848  1.00  0.00     0.210 HD
ENDBRANCH  36  42
ENDBRANCH  35  36
ENDBRANCH  34  35
ENDBRANCH  33  34
ENDBRANCH  14  33
TORSDOF 16
ENDMDL
