MODEL 1
REMARK VINA RESULT: -8.412199491      0.000      0.000
REMARK  19 active torsions:
REMARK  status: ('A' for Active; 'I' for Inactive)
REMARK    1  A    between atoms: C2_2  and  C3_3 
REMARK    2  A    between atoms: C4_4  and  C5_5 
REMARK    3  A    between atoms: C5_5  and  C6_6 
REMARK    4  A    between atoms: C6_6  and  O1_7 
REMARK    5  A    between atoms: C6_6  and  C7_9 
REMARK    6  A    between atoms: C7_9  and  O2_10 
REMARK    7  A    between atoms: C7_9  and  C8_12 
REMARK    8  A    between atoms: C8_12  and  O3_13 
REMARK    9  A    between atoms: C8_12  and  C9_15 
REMARK   10  A    between atoms: C10_16  and  C11_17 
REMARK   11  A    between atoms: C11_17  and  C12_18 
REMARK   12  A    between atoms: C12_18  and  O4_19 
REMARK   13  A    between atoms: C12_18  and  C13_21 
REMARK   14  A    between atoms: C14_22  and  C15_23 
REMARK   15  A    between atoms: C15_23  and  C16_24 
REMARK   16  A    between atoms: C16_24  and  C17_25 
REMARK   17  A    between atoms: C17_25  and  C18_26 
REMARK   18  A    between atoms: C20_28  and  O5_29 
REMARK   19  A    between atoms: C27_38  and  O7_39 
ROOT
HETATM    1  C12 UNL     1      34.839  37.489 -10.646  1.00  0.00     0.144 C 
ENDROOT
BRANCH   1   2
HETATM    2  C11 UNL     1      34.183  37.934  -9.365  1.00  0.00     0.062 C 
BRANCH   2   3
HETATM    3  C10 UNL     1      34.978  38.993  -8.691  1.00  0.00    -0.025 C 
HETATM    4  C9  UNL     1      34.461  39.765  -7.728  1.00  0.00     0.003 C 
BRANCH   4   5
HETATM    5  C8  UNL     1      35.292  40.812  -7.083  1.00  0.00     0.172 C 
BRANCH   5   6
HETATM    6  C7  UNL     1      35.421  40.623  -5.587  1.00  0.00     0.179 C 
BRANCH   6   7
HETATM    7  C6  UNL     1      35.910  41.819  -4.858  1.00  0.00     0.153 C 
BRANCH   7   8
HETATM    8  C5  UNL     1      36.450  41.583  -3.482  1.00  0.00     0.061 C 
BRANCH   8   9
HETATM    9  C4  UNL     1      36.869  42.770  -2.744  1.00  0.00    -0.024 C 
HETATM   10  C3  UNL     1      36.730  42.944  -1.453  1.00  0.00    -0.005 C 
BRANCH  10  11
HETATM   11  C2  UNL     1      36.151  42.027  -0.517  1.00  0.00    -0.011 C 
HETATM   12  C1  UNL     1      36.796  41.672   0.574  1.00  0.00     0.011 C 
ENDBRANCH  10  11
ENDBRANCH   8   9
ENDBRANCH   7   8
BRANCH   7  13
HETATM   13  O1  UNL     1      36.971  42.362  -5.601  1.00  0.00    -0.393 OA
ATOM     14  H1  UNL     1      36.893  43.305  -5.516  1.00  0.00     0.210 HD
ENDBRANCH   7  13
ENDBRANCH   6   7
BRANCH   6  15
HETATM   15  O2  UNL     1      36.091  39.449  -5.371  1.00  0.00    -0.390 OA
ATOM     16  H2  UNL     1      37.025  39.448  -5.543  1.00  0.00     0.210 HD
ENDBRANCH   6  15
ENDBRANCH   5   6
BRANCH   5  17
HETATM   17  O3  UNL     1      34.933  42.091  -7.450  1.00  0.00    -0.389 OA
ATOM     18  H3  UNL     1      34.786  42.193  -8.383  1.00  0.00     0.210 HD
ENDBRANCH   5  17
ENDBRANCH   4   5
ENDBRANCH   2   3
ENDBRANCH   1   2
BRANCH   1  19
HETATM   19  O4  UNL     1      36.177  37.183 -10.535  1.00  0.00    -0.391 OA
ATOM     20  H4  UNL     1      36.400  36.632  -9.793  1.00  0.00     0.210 HD
ENDBRANCH   1  19
BRANCH   1  21
HETATM   21  C13 UNL     1      34.117  36.412 -11.341  1.00  0.00     0.001 C 
HETATM   22  C14 UNL     1      33.215  36.622 -12.265  1.00  0.00    -0.028 C 
BRANCH  22  23
HETATM   23  C15 UNL     1      32.793  37.938 -12.741  1.00  0.00     0.027 C 
BRANCH  23  24
HETATM   24  C16 UNL     1      31.503  38.280 -11.979  1.00  0.00     0.004 C 
BRANCH  24  25
HETATM   25  C17 UNL     1      30.857  39.421 -12.748  1.00  0.00     0.008 C 
BRANCH  25  26
HETATM   26  C18 UNL     1      30.791  40.611 -11.808  1.00  0.00     0.023 C 
HETATM   27  C19 UNL     1      31.147  40.217 -10.400  1.00  0.00     0.039 C 
HETATM   28  C20 UNL     1      32.106  41.279  -9.899  1.00  0.00     0.126 C 
HETATM   29  C21 UNL     1      32.737  41.851 -11.167  1.00  0.00     0.056 C 
HETATM   30  C22 UNL     1      33.248  43.240 -10.953  1.00  0.00     0.088 C 
HETATM   31  C27 UNL     1      31.700  41.712 -12.225  1.00  0.00     0.069 C 
HETATM   32  C23 UNL     1      33.008  44.166 -12.070  1.00  0.00     0.131 C 
HETATM   33  O6  UNL     1      33.842  44.994 -12.374  1.00  0.00    -0.298 OA
HETATM   34  C24 UNL     1      31.749  44.121 -12.858  1.00  0.00     0.054 C 
HETATM   35  C25 UNL     1      32.085  44.102 -14.328  1.00  0.00     0.018 C 
HETATM   36  C26 UNL     1      30.876  42.970 -12.431  1.00  0.00     0.050 C 
BRANCH  28  37
HETATM   37  O5  UNL     1      31.439  42.287  -9.199  1.00  0.00    -0.395 OA
ATOM     38  H5  UNL     1      31.017  42.904  -9.786  1.00  0.00     0.210 HD
ENDBRANCH  28  37
BRANCH  31  39
HETATM   39  O7  UNL     1      32.366  41.443 -13.424  1.00  0.00    -0.389 OA
ATOM     40  H7  UNL     1      33.008  42.106 -13.648  1.00  0.00     0.210 HD
ENDBRANCH  31  39
ENDBRANCH  25  26
ENDBRANCH  24  25
ENDBRANCH  23  24
ENDBRANCH  22  23
ENDBRANCH   1  21
TORSDOF 19
ENDMDL
MODEL 2
REMARK VINA RESULT: -8.237666174      1.559      2.090
REMARK  19 active torsions:
REMARK  status: ('A' for Active; 'I' for Inactive)
REMARK    1  A    between atoms: C2_2  and  C3_3 
REMARK    2  A    between atoms: C4_4  and  C5_5 
REMARK    3  A    between atoms: C5_5  and  C6_6 
REMARK    4  A    between atoms: C6_6  and  O1_7 
REMARK    5  A    between atoms: C6_6  and  C7_9 
REMARK    6  A    between atoms: C7_9  and  O2_10 
REMARK    7  A    between atoms: C7_9  and  C8_12 
REMARK    8  A    between atoms: C8_12  and  O3_13 
REMARK    9  A    between atoms: C8_12  and  C9_15 
REMARK   10  A    between atoms: C10_16  and  C11_17 
REMARK   11  A    between atoms: C11_17  and  C12_18 
REMARK   12  A    between atoms: C12_18  and  O4_19 
REMARK   13  A    between atoms: C12_18  and  C13_21 
REMARK   14  A    between atoms: C14_22  and  C15_23 
REMARK   15  A    between atoms: C15_23  and  C16_24 
REMARK   16  A    between atoms: C16_24  and  C17_25 
REMARK   17  A    between atoms: C17_25  and  C18_26 
REMARK   18  A    between atoms: C20_28  and  O5_29 
REMARK   19  A    between atoms: C27_38  and  O7_39 
ROOT
HETATM    1  C12 UNL     1      33.382  37.278  -8.185  1.00  0.00     0.144 C 
ENDROOT
BRANCH   1   2
HETATM    2  C11 UNL     1      34.129  38.553  -8.475  1.00  0.00     0.062 C 
BRANCH   2   3
HETATM    3  C10 UNL     1      34.996  38.942  -7.333  1.00  0.00    -0.025 C 
HETATM    4  C9  UNL     1      34.631  39.883  -6.453  1.00  0.00     0.003 C 
BRANCH   4   5
HETATM    5  C8  UNL     1      35.529  40.240  -5.327  1.00  0.00     0.172 C 
BRANCH   5   6
HETATM    6  C7  UNL     1      35.742  41.733  -5.193  1.00  0.00     0.179 C 
BRANCH   6   7
HETATM    7  C6  UNL     1      36.585  42.130  -4.039  1.00  0.00     0.153 C 
BRANCH   7   8
HETATM    8  C5  UNL     1      36.656  41.157  -2.903  1.00  0.00     0.061 C 
BRANCH   8   9
HETATM    9  C4  UNL     1      35.782  41.431  -1.768  1.00  0.00    -0.024 C 
HETATM   10  C3  UNL     1      36.045  42.269  -0.796  1.00  0.00    -0.005 C 
BRANCH  10  11
HETATM   11  C2  UNL     1      37.221  43.075  -0.649  1.00  0.00    -0.011 C 
HETATM   12  C1  UNL     1      37.244  44.324  -1.061  1.00  0.00     0.011 C 
ENDBRANCH  10  11
ENDBRANCH   8   9
ENDBRANCH   7   8
BRANCH   7  13
HETATM   13  O1  UNL     1      37.901  42.273  -4.507  1.00  0.00    -0.393 OA
ATOM     14  H1  UNL     1      37.828  42.542  -5.415  1.00  0.00     0.210 HD
ENDBRANCH   7  13
ENDBRANCH   6   7
BRANCH   6  15
HETATM   15  O2  UNL     1      34.521  42.340  -5.309  1.00  0.00    -0.390 OA
ATOM     16  H2  UNL     1      33.783  41.785  -5.533  1.00  0.00     0.210 HD
ENDBRANCH   6  15
ENDBRANCH   5   6
BRANCH   5  17
HETATM   17  O3  UNL     1      36.698  39.511  -5.313  1.00  0.00    -0.389 OA
ATOM     18  H3  UNL     1      36.571  38.591  -5.114  1.00  0.00     0.210 HD
ENDBRANCH   5  17
ENDBRANCH   4   5
ENDBRANCH   2   3
ENDBRANCH   1   2
BRANCH   1  19
HETATM   19  O4  UNL     1      34.021  36.416  -7.321  1.00  0.00    -0.391 OA
ATOM     20  H4  UNL     1      33.963  35.498  -7.557  1.00  0.00     0.210 HD
ENDBRANCH   1  19
BRANCH   1  21
HETATM   21  C13 UNL     1      31.986  37.488  -7.768  1.00  0.00     0.001 C 
HETATM   22  C14 UNL     1      30.969  37.440  -8.590  1.00  0.00    -0.028 C 
BRANCH  22  23
HETATM   23  C15 UNL     1      31.063  37.174 -10.024  1.00  0.00     0.027 C 
BRANCH  23  24
HETATM   24  C16 UNL     1      30.470  38.405 -10.731  1.00  0.00     0.004 C 
BRANCH  24  25
HETATM   25  C17 UNL     1      31.659  39.221 -11.211  1.00  0.00     0.008 C 
BRANCH  25  26
HETATM   26  C18 UNL     1      31.349  40.677 -10.913  1.00  0.00     0.023 C 
HETATM   27  C19 UNL     1      31.786  41.057  -9.524  1.00  0.00     0.039 C 
HETATM   28  C20 UNL     1      32.502  42.385  -9.660  1.00  0.00     0.126 C 
HETATM   29  C21 UNL     1      32.995  42.407 -11.106  1.00  0.00     0.056 C 
HETATM   30  C22 UNL     1      33.204  43.802 -11.599  1.00  0.00     0.088 C 
HETATM   31  C27 UNL     1      32.005  41.603 -11.874  1.00  0.00     0.069 C 
HETATM   32  C23 UNL     1      32.770  44.040 -12.984  1.00  0.00     0.131 C 
HETATM   33  O6  UNL     1      33.410  44.768 -13.715  1.00  0.00    -0.298 OA
HETATM   34  C24 UNL     1      31.545  43.403 -13.534  1.00  0.00     0.054 C 
HETATM   35  C25 UNL     1      31.871  42.763 -14.861  1.00  0.00     0.018 C 
HETATM   36  C26 UNL     1      30.935  42.444 -12.545  1.00  0.00     0.050 C 
BRANCH  28  37
HETATM   37  O5  UNL     1      31.642  43.462  -9.431  1.00  0.00    -0.395 OA
ATOM     38  H5  UNL     1      32.009  44.279  -9.749  1.00  0.00     0.210 HD
ENDBRANCH  28  37
BRANCH  31  39
HETATM   39  O7  UNL     1      32.708  40.934 -12.881  1.00  0.00    -0.389 OA
ATOM     40  H7  UNL     1      32.970  41.506 -13.592  1.00  0.00     0.210 HD
ENDBRANCH  31  39
ENDBRANCH  25  26
ENDBRANCH  24  25
ENDBRANCH  23  24
ENDBRANCH  22  23
ENDBRANCH   1  21
TORSDOF 19
ENDMDL
MODEL 3
REMARK VINA RESULT: -8.212313585      1.758      2.925
REMARK  19 active torsions:
REMARK  status: ('A' for Active; 'I' for Inactive)
REMARK    1  A    between atoms: C2_2  and  C3_3 
REMARK    2  A    between atoms: C4_4  and  C5_5 
REMARK    3  A    between atoms: C5_5  and  C6_6 
REMARK    4  A    between atoms: C6_6  and  O1_7 
REMARK    5  A    between atoms: C6_6  and  C7_9 
REMARK    6  A    between atoms: C7_9  and  O2_10 
REMARK    7  A    between atoms: C7_9  and  C8_12 
REMARK    8  A    between atoms: C8_12  and  O3_13 
REMARK    9  A    between atoms: C8_12  and  C9_15 
REMARK   10  A    between atoms: C10_16  and  C11_17 
REMARK   11  A    between atoms: C11_17  and  C12_18 
REMARK   12  A    between atoms: C12_18  and  O4_19 
REMARK   13  A    between atoms: C12_18  and  C13_21 
REMARK   14  A    between atoms: C14_22  and  C15_23 
REMARK   15  A    between atoms: C15_23  and  C16_24 
REMARK   16  A    between atoms: C16_24  and  C17_25 
REMARK   17  A    between atoms: C17_25  and  C18_26 
REMARK   18  A    between atoms: C20_28  and  O5_29 
REMARK   19  A    between atoms: C27_38  and  O7_39 
ROOT
HETATM    1  C12 UNL     1      31.397  39.502  -9.439  1.00  0.00     0.144 C 
ENDROOT
BRANCH   1   2
HETATM    2  C11 UNL     1      32.794  39.254  -9.944  1.00  0.00     0.062 C 
BRANCH   2   3
HETATM    3  C10 UNL     1      33.778  40.136  -9.265  1.00  0.00    -0.025 C 
HETATM    4  C9  UNL     1      34.016  40.054  -7.950  1.00  0.00     0.003 C 
BRANCH   4   5
HETATM    5  C8  UNL     1      35.007  40.956  -7.313  1.00  0.00     0.172 C 
BRANCH   5   6
HETATM    6  C7  UNL     1      35.193  40.681  -5.837  1.00  0.00     0.179 C 
BRANCH   6   7
HETATM    7  C6  UNL     1      35.745  41.821  -5.065  1.00  0.00     0.153 C 
BRANCH   7   8
HETATM    8  C5  UNL     1      36.163  41.529  -3.657  1.00  0.00     0.061 C 
BRANCH   8   9
HETATM    9  C4  UNL     1      36.850  42.606  -2.955  1.00  0.00    -0.024 C 
HETATM   10  C3  UNL     1      36.827  42.799  -1.659  1.00  0.00    -0.005 C 
BRANCH  10  11
HETATM   11  C2  UNL     1      36.136  42.009  -0.683  1.00  0.00    -0.011 C 
HETATM   12  C1  UNL     1      36.714  41.671   0.450  1.00  0.00     0.011 C 
ENDBRANCH  10  11
ENDBRANCH   8   9
ENDBRANCH   7   8
BRANCH   7  13
HETATM   13  O1  UNL     1      36.904  42.257  -5.728  1.00  0.00    -0.393 OA
ATOM     14  H1  UNL     1      36.606  42.836  -6.421  1.00  0.00     0.210 HD
ENDBRANCH   7  13
ENDBRANCH   6   7
BRANCH   6  15
HETATM   15  O2  UNL     1      35.836  39.479  -5.715  1.00  0.00    -0.390 OA
ATOM     16  H2  UNL     1      36.218  39.113  -6.504  1.00  0.00     0.210 HD
ENDBRANCH   6  15
ENDBRANCH   5   6
BRANCH   5  17
HETATM   17  O3  UNL     1      34.795  42.287  -7.605  1.00  0.00    -0.389 OA
ATOM     18  H3  UNL     1      35.387  42.632  -8.263  1.00  0.00     0.210 HD
ENDBRANCH   5  17
ENDBRANCH   4   5
ENDBRANCH   2   3
ENDBRANCH   1   2
BRANCH   1  19
HETATM   19  O4  UNL     1      30.849  40.706  -9.821  1.00  0.00    -0.391 OA
ATOM     20  H4  UNL     1      29.942  40.662 -10.101  1.00  0.00     0.210 HD
ENDBRANCH   1  19
BRANCH   1  21
HETATM   21  C13 UNL     1      30.461  38.399  -9.711  1.00  0.00     0.001 C 
HETATM   22  C14 UNL     1      29.909  38.188 -10.878  1.00  0.00    -0.028 C 
BRANCH  22  23
HETATM   23  C15 UNL     1      30.133  39.001 -12.071  1.00  0.00     0.027 C 
BRANCH  23  24
HETATM   24  C16 UNL     1      28.748  39.484 -12.532  1.00  0.00     0.004 C 
BRANCH  24  25
HETATM   25  C17 UNL     1      28.883  40.982 -12.754  1.00  0.00     0.008 C 
BRANCH  25  26
HETATM   26  C18 UNL     1      30.189  41.206 -13.496  1.00  0.00     0.023 C 
HETATM   27  C19 UNL     1      29.954  41.425 -14.966  1.00  0.00     0.039 C 
HETATM   28  C20 UNL     1      30.810  42.613 -15.353  1.00  0.00     0.126 C 
HETATM   29  C21 UNL     1      30.992  43.393 -14.052  1.00  0.00     0.056 C 
HETATM   30  C22 UNL     1      32.225  44.238 -14.081  1.00  0.00     0.088 C 
HETATM   31  C27 UNL     1      30.945  42.373 -12.969  1.00  0.00     0.069 C 
HETATM   32  C23 UNL     1      32.987  44.261 -12.823  1.00  0.00     0.131 C 
HETATM   33  O6  UNL     1      33.521  45.284 -12.445  1.00  0.00    -0.298 OA
HETATM   34  C24 UNL     1      33.130  43.046 -11.979  1.00  0.00     0.054 C 
HETATM   35  C25 UNL     1      32.789  43.393 -10.551  1.00  0.00     0.018 C 
HETATM   36  C26 UNL     1      32.318  41.901 -12.525  1.00  0.00     0.050 C 
BRANCH  28  37
HETATM   37  O5  UNL     1      32.053  42.214 -15.851  1.00  0.00    -0.395 OA
ATOM     38  H5  UNL     1      32.712  42.888 -15.731  1.00  0.00     0.210 HD
ENDBRANCH  28  37
BRANCH  31  39
HETATM   39  O7  UNL     1      30.328  42.970 -11.866  1.00  0.00    -0.389 OA
ATOM     40  H7  UNL     1      30.914  43.080 -11.128  1.00  0.00     0.210 HD
ENDBRANCH  31  39
ENDBRANCH  25  26
ENDBRANCH  24  25
ENDBRANCH  23  24
ENDBRANCH  22  23
ENDBRANCH   1  21
TORSDOF 19
ENDMDL
MODEL 4
REMARK VINA RESULT: -8.050117326      2.059      3.648
REMARK  19 active torsions:
REMARK  status: ('A' for Active; 'I' for Inactive)
REMARK    1  A    between atoms: C2_2  and  C3_3 
REMARK    2  A    between atoms: C4_4  and  C5_5 
REMARK    3  A    between atoms: C5_5  and  C6_6 
REMARK    4  A    between atoms: C6_6  and  O1_7 
REMARK    5  A    between atoms: C6_6  and  C7_9 
REMARK    6  A    between atoms: C7_9  and  O2_10 
REMARK    7  A    between atoms: C7_9  and  C8_12 
REMARK    8  A    between atoms: C8_12  and  O3_13 
REMARK    9  A    between atoms: C8_12  and  C9_15 
REMARK   10  A    between atoms: C10_16  and  C11_17 
REMARK   11  A    between atoms: C11_17  and  C12_18 
REMARK   12  A    between atoms: C12_18  and  O4_19 
REMARK   13  A    between atoms: C12_18  and  C13_21 
REMARK   14  A    between atoms: C14_22  and  C15_23 
REMARK   15  A    between atoms: C15_23  and  C16_24 
REMARK   16  A    between atoms: C16_24  and  C17_25 
REMARK   17  A    between atoms: C17_25  and  C18_26 
REMARK   18  A    between atoms: C20_28  and  O5_29 
REMARK   19  A    between atoms: C27_38  and  O7_39 
ROOT
HETATM    1  C12 UNL     1      34.544  39.259  -8.566  1.00  0.00     0.144 C 
ENDROOT
BRANCH   1   2
HETATM    2  C11 UNL     1      34.239  39.185  -7.093  1.00  0.00     0.062 C 
BRANCH   2   3
HETATM    3  C10 UNL     1      35.325  39.799  -6.286  1.00  0.00    -0.025 C 
HETATM    4  C9  UNL     1      35.206  41.017  -5.745  1.00  0.00     0.003 C 
BRANCH   4   5
HETATM    5  C8  UNL     1      36.317  41.592  -4.947  1.00  0.00     0.172 C 
BRANCH   5   6
HETATM    6  C7  UNL     1      35.850  42.216  -3.649  1.00  0.00     0.179 C 
BRANCH   6   7
HETATM    7  C6  UNL     1      36.902  42.958  -2.913  1.00  0.00     0.153 C 
BRANCH   7   8
HETATM    8  C5  UNL     1      36.511  43.514  -1.579  1.00  0.00     0.061 C 
BRANCH   8   9
HETATM    9  C4  UNL     1      37.509  43.408  -0.521  1.00  0.00    -0.024 C 
HETATM   10  C3  UNL     1      37.512  42.502   0.426  1.00  0.00    -0.005 C 
BRANCH  10  11
HETATM   11  C2  UNL     1      36.557  41.451   0.616  1.00  0.00    -0.011 C 
HETATM   12  C1  UNL     1      36.591  40.361  -0.121  1.00  0.00     0.011 C 
ENDBRANCH  10  11
ENDBRANCH   8   9
ENDBRANCH   7   8
BRANCH   7  13
HETATM   13  O1  UNL     1      37.955  42.063  -2.664  1.00  0.00    -0.393 OA
ATOM     14  H1  UNL     1      38.722  42.442  -3.077  1.00  0.00     0.210 HD
ENDBRANCH   7  13
ENDBRANCH   6   7
BRANCH   6  15
HETATM   15  O2  UNL     1      35.161  41.261  -2.952  1.00  0.00    -0.390 OA
ATOM     16  H2  UNL     1      34.849  40.510  -3.444  1.00  0.00     0.210 HD
ENDBRANCH   6  15
ENDBRANCH   5   6
BRANCH   5  17
HETATM   17  O3  UNL     1      37.149  42.407  -5.684  1.00  0.00    -0.389 OA
ATOM     18  H3  UNL     1      37.882  42.751  -5.188  1.00  0.00     0.210 HD
ENDBRANCH   5  17
ENDBRANCH   4   5
ENDBRANCH   2   3
ENDBRANCH   1   2
BRANCH   1  19
HETATM   19  O4  UNL     1      35.262  38.194  -9.063  1.00  0.00    -0.391 OA
ATOM     20  H4  UNL     1      35.439  37.504  -8.435  1.00  0.00     0.210 HD
ENDBRANCH   1  19
BRANCH   1  21
HETATM   21  C13 UNL     1      33.364  39.524  -9.405  1.00  0.00     0.001 C 
HETATM   22  C14 UNL     1      32.901  40.724  -9.647  1.00  0.00    -0.028 C 
BRANCH  22  23
HETATM   23  C15 UNL     1      33.477  41.964  -9.130  1.00  0.00     0.027 C 
BRANCH  23  24
HETATM   24  C16 UNL     1      33.350  43.001 -10.258  1.00  0.00     0.004 C 
BRANCH  24  25
HETATM   25  C17 UNL     1      31.899  43.458 -10.240  1.00  0.00     0.008 C 
BRANCH  25  26
HETATM   26  C18 UNL     1      31.590  44.008 -11.621  1.00  0.00     0.023 C 
HETATM   27  C19 UNL     1      32.823  44.568 -12.278  1.00  0.00     0.039 C 
HETATM   28  C20 UNL     1      32.818  44.039 -13.697  1.00  0.00     0.126 C 
HETATM   29  C21 UNL     1      31.992  42.755 -13.623  1.00  0.00     0.056 C 
HETATM   30  C22 UNL     1      31.396  42.403 -14.948  1.00  0.00     0.088 C 
HETATM   31  C27 UNL     1      31.013  42.977 -12.524  1.00  0.00     0.069 C 
HETATM   32  C23 UNL     1      30.017  41.896 -14.890  1.00  0.00     0.131 C 
HETATM   33  O6  UNL     1      29.657  41.004 -15.631  1.00  0.00    -0.298 OA
HETATM   34  C24 UNL     1      29.026  42.450 -13.932  1.00  0.00     0.054 C 
HETATM   35  C25 UNL     1      28.355  41.314 -13.200  1.00  0.00     0.018 C 
HETATM   36  C26 UNL     1      29.659  43.460 -13.011  1.00  0.00     0.050 C 
BRANCH  28  37
HETATM   37  O5  UNL     1      32.222  44.941 -14.582  1.00  0.00    -0.395 OA
ATOM     38  H5  UNL     1      32.233  44.616 -15.476  1.00  0.00     0.210 HD
ENDBRANCH  28  37
BRANCH  31  39
HETATM   39  O7  UNL     1      30.818  41.746 -11.891  1.00  0.00    -0.389 OA
ATOM     40  H7  UNL     1      31.624  41.257 -11.776  1.00  0.00     0.210 HD
ENDBRANCH  31  39
ENDBRANCH  25  26
ENDBRANCH  24  25
ENDBRANCH  23  24
ENDBRANCH  22  23
ENDBRANCH   1  21
TORSDOF 19
ENDMDL
MODEL 5
REMARK VINA RESULT: -7.933330520      2.011      3.819
REMARK  19 active torsions:
REMARK  status: ('A' for Active; 'I' for Inactive)
REMARK    1  A    between atoms: C2_2  and  C3_3 
REMARK    2  A    between atoms: C4_4  and  C5_5 
REMARK    3  A    between atoms: C5_5  and  C6_6 
REMARK    4  A    between atoms: C6_6  and  O1_7 
REMARK    5  A    between atoms: C6_6  and  C7_9 
REMARK    6  A    between atoms: C7_9  and  O2_10 
REMARK    7  A    between atoms: C7_9  and  C8_12 
REMARK    8  A    between atoms: C8_12  and  O3_13 
REMARK    9  A    between atoms: C8_12  and  C9_15 
REMARK   10  A    between atoms: C10_16  and  C11_17 
REMARK   11  A    between atoms: C11_17  and  C12_18 
REMARK   12  A    between atoms: C12_18  and  O4_19 
REMARK   13  A    between atoms: C12_18  and  C13_21 
REMARK   14  A    between atoms: C14_22  and  C15_23 
REMARK   15  A    between atoms: C15_23  and  C16_24 
REMARK   16  A    between atoms: C16_24  and  C17_25 
REMARK   17  A    between atoms: C17_25  and  C18_26 
REMARK   18  A    between atoms: C20_28  and  O5_29 
REMARK   19  A    between atoms: C27_38  and  O7_39 
ROOT
HETATM    1  C12 UNL     1      33.301  39.326  -9.758  1.00  0.00     0.144 C 
ENDROOT
BRANCH   1   2
HETATM    2  C11 UNL     1      33.755  38.803  -8.420  1.00  0.00     0.062 C 
BRANCH   2   3
HETATM    3  C10 UNL     1      34.701  39.743  -7.766  1.00  0.00    -0.025 C 
HETATM    4  C9  UNL     1      34.334  40.521  -6.741  1.00  0.00     0.003 C 
BRANCH   4   5
HETATM    5  C8  UNL     1      35.312  41.447  -6.118  1.00  0.00     0.172 C 
BRANCH   5   6
HETATM    6  C7  UNL     1      35.889  40.914  -4.824  1.00  0.00     0.179 C 
BRANCH   6   7
HETATM    7  C6  UNL     1      36.634  41.917  -4.025  1.00  0.00     0.153 C 
BRANCH   7   8
HETATM    8  C5  UNL     1      37.307  41.412  -2.786  1.00  0.00     0.061 C 
BRANCH   8   9
HETATM    9  C4  UNL     1      36.507  41.433  -1.567  1.00  0.00    -0.024 C 
HETATM   10  C3  UNL     1      36.632  42.304  -0.597  1.00  0.00    -0.005 C 
BRANCH  10  11
HETATM   11  C2  UNL     1      37.560  43.394  -0.531  1.00  0.00    -0.011 C 
HETATM   12  C1  UNL     1      37.211  44.606  -0.905  1.00  0.00     0.011 C 
ENDBRANCH  10  11
ENDBRANCH   8   9
ENDBRANCH   7   8
BRANCH   7  13
HETATM   13  O1  UNL     1      37.659  42.427  -4.839  1.00  0.00    -0.393 OA
ATOM     14  H1  UNL     1      37.430  42.186  -5.729  1.00  0.00     0.210 HD
ENDBRANCH   7  13
ENDBRANCH   6   7
BRANCH   6  15
HETATM   15  O2  UNL     1      36.535  39.741  -5.108  1.00  0.00    -0.390 OA
ATOM     16  H2  UNL     1      36.822  39.614  -6.005  1.00  0.00     0.210 HD
ENDBRANCH   6  15
ENDBRANCH   5   6
BRANCH   5  17
HETATM   17  O3  UNL     1      34.849  42.742  -6.024  1.00  0.00    -0.389 OA
ATOM     18  H3  UNL     1      34.707  43.157  -6.866  1.00  0.00     0.210 HD
ENDBRANCH   5  17
ENDBRANCH   4   5
ENDBRANCH   2   3
ENDBRANCH   1   2
BRANCH   1  19
HETATM   19  O4  UNL     1      33.275  38.390 -10.767  1.00  0.00    -0.391 OA
ATOM     20  H4  UNL     1      33.945  38.500 -11.433  1.00  0.00     0.210 HD
ENDBRANCH   1  19
BRANCH   1  21
HETATM   21  C13 UNL     1      32.031  40.068  -9.707  1.00  0.00     0.001 C 
HETATM   22  C14 UNL     1      31.955  41.375  -9.689  1.00  0.00    -0.028 C 
BRANCH  22  23
HETATM   23  C15 UNL     1      33.101  42.282  -9.718  1.00  0.00     0.027 C 
BRANCH  23  24
HETATM   24  C16 UNL     1      32.691  43.467 -10.607  1.00  0.00     0.004 C 
BRANCH  24  25
HETATM   25  C17 UNL     1      33.047  43.062 -12.029  1.00  0.00     0.008 C 
BRANCH  25  26
HETATM   26  C18 UNL     1      32.014  43.696 -12.943  1.00  0.00     0.023 C 
HETATM   27  C19 UNL     1      32.667  44.431 -14.082  1.00  0.00     0.039 C 
HETATM   28  C20 UNL     1      31.907  44.029 -15.330  1.00  0.00     0.126 C 
HETATM   29  C21 UNL     1      31.304  42.668 -14.987  1.00  0.00     0.056 C 
HETATM   30  C22 UNL     1      30.095  42.374 -15.816  1.00  0.00     0.088 C 
HETATM   31  C27 UNL     1      31.076  42.694 -13.517  1.00  0.00     0.069 C 
HETATM   32  C23 UNL     1      28.991  41.728 -15.090  1.00  0.00     0.131 C 
HETATM   33  O6  UNL     1      28.318  40.872 -15.627  1.00  0.00    -0.298 OA
HETATM   34  C24 UNL     1      28.664  42.095 -13.688  1.00  0.00     0.054 C 
HETATM   35  C25 UNL     1      28.543  40.839 -12.862  1.00  0.00     0.018 C 
HETATM   36  C26 UNL     1      29.659  43.081 -13.134  1.00  0.00     0.050 C 
BRANCH  28  37
HETATM   37  O5  UNL     1      30.893  44.941 -15.633  1.00  0.00    -0.395 OA
ATOM     38  H5  UNL     1      30.043  44.517 -15.680  1.00  0.00     0.210 HD
ENDBRANCH  28  37
BRANCH  31  39
HETATM   39  O7  UNL     1      31.304  41.400 -13.040  1.00  0.00    -0.389 OA
ATOM     40  H7  UNL     1      30.620  40.789 -13.287  1.00  0.00     0.210 HD
ENDBRANCH  31  39
ENDBRANCH  25  26
ENDBRANCH  24  25
ENDBRANCH  23  24
ENDBRANCH  22  23
ENDBRANCH   1  21
TORSDOF 19
ENDMDL
