MODEL 1
REMARK VINA RESULT: -7.152488204      0.000      0.000
REMARK  15 active torsions:
REMARK  status: ('A' for Active; 'I' for Inactive)
REMARK    1  A    between atoms: C2_2  and  C3_4 
REMARK    2  A    between atoms: C3_4  and  C4_5 
REMARK    3  A    between atoms: C4_5  and  C5_6 
REMARK    4  A    between atoms: C5_6  and  S1_7 
REMARK    5  A    between atoms: S1_7  and  C6_8 
REMARK    6  A    between atoms: S1_7  and  C13_21 
REMARK    7  A    between atoms: C6_8  and  C7_9 
REMARK    8  A    between atoms: C7_9  and  C8_10 
REMARK    9  A    between atoms: C8_10  and  C9_11 
REMARK   10  A    between atoms: C9_11  and  C10_12 
REMARK   11  A    between atoms: C12_15  and  N2_16 
REMARK   12  A    between atoms: C14_23  and  C15_24 
REMARK   13  A    between atoms: C15_24  and  O2_25 
REMARK   14  A    between atoms: C16_27  and  O3_28 
REMARK   15  A    between atoms: C17_30  and  O4_31 
ROOT
HETATM    1  S1  UNL     1      14.053  39.087  -9.553  1.00  0.00    -0.189 SA
ENDROOT
BRANCH   1   2
HETATM    2  C5  UNL     1      13.098  40.577  -9.616  1.00  0.00     0.066 C 
BRANCH   2   3
HETATM    3  C4  UNL     1      13.420  41.519  -8.516  1.00  0.00     0.015 C 
BRANCH   3   4
HETATM    4  C3  UNL     1      14.681  42.270  -8.799  1.00  0.00     0.054 C 
BRANCH   4   5
HETATM    5  C2  UNL     1      15.059  43.321  -7.846  1.00  0.00     0.015 C 
HETATM    6  C1  UNL     1      16.244  43.929  -8.021  1.00  0.00     0.035 C 
HETATM    7  N1  UNL     1      14.279  43.787  -6.763  1.00  0.00    -0.108 NA
ENDBRANCH   4   5
ENDBRANCH   3   4
ENDBRANCH   2   3
ENDBRANCH   1   2
BRANCH   1   8
HETATM    8  C6  UNL     1      13.462  37.974  -8.308  1.00  0.00     0.066 C 
BRANCH   8   9
HETATM    9  C7  UNL     1      12.076  38.266  -7.864  1.00  0.00     0.010 C 
BRANCH   9  10
HETATM   10  C8  UNL     1      12.003  38.280  -6.364  1.00  0.00     0.007 C 
BRANCH  10  11
HETATM   11  C9  UNL     1      10.943  39.174  -5.873  1.00  0.00     0.057 C 
BRANCH  11  12
HETATM   12  C10 UNL     1      10.523  38.829  -4.441  1.00  0.00     0.018 A 
HETATM   13  C11 UNL     1       9.241  38.405  -4.242  1.00  0.00     0.078 A 
HETATM   14  S2  UNL     1       9.192  38.136  -2.556  1.00  0.00    -0.064 SA
HETATM   15  C12 UNL     1      10.798  38.574  -2.196  1.00  0.00     0.142 A 
HETATM   16  N3  UNL     1      11.304  38.908  -3.377  1.00  0.00    -0.340 N 
ATOM     17  H3  UNL     1      12.272  39.218  -3.461  1.00  0.00     0.167 HD
BRANCH  15  18
HETATM   18  N2  UNL     1      11.427  38.592  -1.038  1.00  0.00    -0.380 N 
ATOM     19  H22 UNL     1      11.395  37.871  -0.317  1.00  0.00     0.158 HD
ATOM     20  H21 UNL     1      12.047  39.300  -0.643  1.00  0.00     0.158 HD
ENDBRANCH  15  18
ENDBRANCH  11  12
ENDBRANCH  10  11
ENDBRANCH   9  10
ENDBRANCH   8   9
ENDBRANCH   1   8
BRANCH   1  21
HETATM   21  C13 UNL     1      14.115  38.233 -11.081  1.00  0.00     0.205 C 
HETATM   22  O1  UNL     1      15.309  38.329 -11.749  1.00  0.00    -0.363 OA
HETATM   23  C14 UNL     1      15.459  37.152 -12.484  1.00  0.00     0.178 C 
HETATM   24  C16 UNL     1      15.123  36.109 -11.410  1.00  0.00     0.181 C 
HETATM   25  C17 UNL     1      13.888  36.758 -10.794  1.00  0.00     0.187 C 
BRANCH  23  26
HETATM   26  C15 UNL     1      16.873  36.979 -12.966  1.00  0.00     0.198 C 
BRANCH  26  27
HETATM   27  O2  UNL     1      16.886  35.978 -13.927  1.00  0.00    -0.398 OA
ATOM     28  H2  UNL     1      17.238  35.189 -13.530  1.00  0.00     0.209 HD
ENDBRANCH  26  27
ENDBRANCH  23  26
BRANCH  24  29
HETATM   29  O3  UNL     1      14.853  34.881 -11.960  1.00  0.00    -0.390 OA
ATOM     30  H3  UNL     1      13.970  34.591 -11.761  1.00  0.00     0.210 HD
ENDBRANCH  24  29
BRANCH  25  31
HETATM   31  O4  UNL     1      12.731  36.271 -11.350  1.00  0.00    -0.390 OA
ATOM     32  H4  UNL     1      12.236  35.718 -10.758  1.00  0.00     0.210 HD
ENDBRANCH  25  31
ENDBRANCH   1  21
TORSDOF 15
ENDMDL
MODEL 2
REMARK VINA RESULT: -7.144011502      4.254      8.223
REMARK  15 active torsions:
REMARK  status: ('A' for Active; 'I' for Inactive)
REMARK    1  A    between atoms: C2_2  and  C3_4 
REMARK    2  A    between atoms: C3_4  and  C4_5 
REMARK    3  A    between atoms: C4_5  and  C5_6 
REMARK    4  A    between atoms: C5_6  and  S1_7 
REMARK    5  A    between atoms: S1_7  and  C6_8 
REMARK    6  A    between atoms: S1_7  and  C13_21 
REMARK    7  A    between atoms: C6_8  and  C7_9 
REMARK    8  A    between atoms: C7_9  and  C8_10 
REMARK    9  A    between atoms: C8_10  and  C9_11 
REMARK   10  A    between atoms: C9_11  and  C10_12 
REMARK   11  A    between atoms: C12_15  and  N2_16 
REMARK   12  A    between atoms: C14_23  and  C15_24 
REMARK   13  A    between atoms: C15_24  and  O2_25 
REMARK   14  A    between atoms: C16_27  and  O3_28 
REMARK   15  A    between atoms: C17_30  and  O4_31 
ROOT
HETATM    1  S1  UNL     1      13.721  38.740  -8.556  1.00  0.00    -0.189 SA
ENDROOT
BRANCH   1   2
HETATM    2  C5  UNL     1      14.029  37.310  -9.554  1.00  0.00     0.066 C 
BRANCH   2   3
HETATM    3  C4  UNL     1      13.009  37.111 -10.613  1.00  0.00     0.015 C 
BRANCH   3   4
HETATM    4  C3  UNL     1      13.631  37.122 -11.971  1.00  0.00     0.054 C 
BRANCH   4   5
HETATM    5  C2  UNL     1      13.408  35.941 -12.816  1.00  0.00     0.015 C 
HETATM    6  C1  UNL     1      13.602  36.072 -14.139  1.00  0.00     0.035 C 
HETATM    7  N1  UNL     1      13.033  34.653 -12.369  1.00  0.00    -0.108 NA
ENDBRANCH   4   5
ENDBRANCH   3   4
ENDBRANCH   2   3
ENDBRANCH   1   2
BRANCH   1   8
HETATM    8  C6  UNL     1      14.075  40.242  -9.424  1.00  0.00     0.066 C 
BRANCH   8   9
HETATM    9  C7  UNL     1      15.374  40.219 -10.142  1.00  0.00     0.010 C 
BRANCH   9  10
HETATM   10  C8  UNL     1      15.979  41.592 -10.166  1.00  0.00     0.007 C 
BRANCH  10  11
HETATM   11  C9  UNL     1      15.522  42.415  -9.035  1.00  0.00     0.057 C 
BRANCH  11  12
HETATM   12  C10 UNL     1      16.521  43.525  -8.697  1.00  0.00     0.018 A 
HETATM   13  C11 UNL     1      17.583  43.699  -9.537  1.00  0.00     0.078 A 
HETATM   14  S2  UNL     1      18.424  44.999  -8.815  1.00  0.00    -0.064 SA
HETATM   15  C12 UNL     1      17.384  45.252  -7.490  1.00  0.00     0.142 A 
HETATM   16  N3  UNL     1      16.440  44.333  -7.653  1.00  0.00    -0.340 N 
ATOM     17  H3  UNL     1      15.670  44.253  -6.989  1.00  0.00     0.167 HD
BRANCH  15  18
HETATM   18  N2  UNL     1      17.462  46.134  -6.514  1.00  0.00    -0.380 N 
ATOM     19  H22 UNL     1      17.044  47.064  -6.500  1.00  0.00     0.158 HD
ATOM     20  H21 UNL     1      17.935  46.069  -5.612  1.00  0.00     0.158 HD
ENDBRANCH  15  18
ENDBRANCH  11  12
ENDBRANCH  10  11
ENDBRANCH   9  10
ENDBRANCH   8   9
ENDBRANCH   1   8
BRANCH   1  21
HETATM   21  C13 UNL     1      12.082  38.823  -7.942  1.00  0.00     0.205 C 
HETATM   22  O1  UNL     1      11.847  38.074  -6.816  1.00  0.00    -0.363 OA
HETATM   23  C14 UNL     1      10.847  38.726  -6.096  1.00  0.00     0.178 C 
HETATM   24  C16 UNL     1      11.384  40.163  -6.111  1.00  0.00     0.181 C 
HETATM   25  C17 UNL     1      11.801  40.270  -7.575  1.00  0.00     0.187 C 
BRANCH  23  26
HETATM   26  C15 UNL     1      10.756  38.210  -4.686  1.00  0.00     0.198 C 
BRANCH  26  27
HETATM   27  O2  UNL     1      11.186  39.212  -3.827  1.00  0.00    -0.398 OA
ATOM     28  H2  UNL     1      10.873  39.010  -2.953  1.00  0.00     0.209 HD
ENDBRANCH  26  27
ENDBRANCH  23  26
BRANCH  24  29
HETATM   29  O3  UNL     1      10.414  41.073  -5.773  1.00  0.00    -0.390 OA
ATOM     30  H3  UNL     1       9.590  40.890  -6.208  1.00  0.00     0.210 HD
ENDBRANCH  24  29
BRANCH  25  31
HETATM   31  O4  UNL     1      10.814  40.839  -8.340  1.00  0.00    -0.390 OA
ATOM     32  H4  UNL     1      11.022  41.722  -8.623  1.00  0.00     0.210 HD
ENDBRANCH  25  31
ENDBRANCH   1  21
TORSDOF 15
ENDMDL
MODEL 3
REMARK VINA RESULT: -7.119556023      4.919      9.017
REMARK  15 active torsions:
REMARK  status: ('A' for Active; 'I' for Inactive)
REMARK    1  A    between atoms: C2_2  and  C3_4 
REMARK    2  A    between atoms: C3_4  and  C4_5 
REMARK    3  A    between atoms: C4_5  and  C5_6 
REMARK    4  A    between atoms: C5_6  and  S1_7 
REMARK    5  A    between atoms: S1_7  and  C6_8 
REMARK    6  A    between atoms: S1_7  and  C13_21 
REMARK    7  A    between atoms: C6_8  and  C7_9 
REMARK    8  A    between atoms: C7_9  and  C8_10 
REMARK    9  A    between atoms: C8_10  and  C9_11 
REMARK   10  A    between atoms: C9_11  and  C10_12 
REMARK   11  A    between atoms: C12_15  and  N2_16 
REMARK   12  A    between atoms: C14_23  and  C15_24 
REMARK   13  A    between atoms: C15_24  and  O2_25 
REMARK   14  A    between atoms: C16_27  and  O3_28 
REMARK   15  A    between atoms: C17_30  and  O4_31 
ROOT
HETATM    1  S1  UNL     1      13.694  38.755  -8.594  1.00  0.00    -0.189 SA
ENDROOT
BRANCH   1   2
HETATM    2  C5  UNL     1      14.012  37.297  -9.548  1.00  0.00     0.066 C 
BRANCH   2   3
HETATM    3  C4  UNL     1      13.017  37.084 -10.629  1.00  0.00     0.015 C 
BRANCH   3   4
HETATM    4  C3  UNL     1      13.672  37.082 -11.972  1.00  0.00     0.054 C 
BRANCH   4   5
HETATM    5  C2  UNL     1      13.438  35.909 -12.825  1.00  0.00     0.015 C 
HETATM    6  C1  UNL     1      13.632  36.047 -14.147  1.00  0.00     0.035 C 
HETATM    7  N1  UNL     1      13.053  34.621 -12.388  1.00  0.00    -0.108 NA
ENDBRANCH   4   5
ENDBRANCH   3   4
ENDBRANCH   2   3
ENDBRANCH   1   2
BRANCH   1   8
HETATM    8  C6  UNL     1      14.014  40.233  -9.515  1.00  0.00     0.066 C 
BRANCH   8   9
HETATM    9  C7  UNL     1      15.455  40.463  -9.784  1.00  0.00     0.010 C 
BRANCH   9  10
HETATM   10  C8  UNL     1      15.710  40.489 -11.263  1.00  0.00     0.007 C 
BRANCH  10  11
HETATM   11  C9  UNL     1      17.149  40.498 -11.574  1.00  0.00     0.057 C 
BRANCH  11  12
HETATM   12  C10 UNL     1      17.521  39.412 -12.586  1.00  0.00     0.018 A 
HETATM   13  C11 UNL     1      18.341  39.764 -13.620  1.00  0.00     0.078 A 
HETATM   14  S2  UNL     1      18.500  38.301 -14.487  1.00  0.00    -0.064 SA
HETATM   15  C12 UNL     1      17.520  37.324 -13.494  1.00  0.00     0.142 A 
HETATM   16  N3  UNL     1      17.112  38.155 -12.542  1.00  0.00    -0.340 N 
ATOM     17  H3  UNL     1      16.498  37.831 -11.795  1.00  0.00     0.167 HD
BRANCH  15  18
HETATM   18  N2  UNL     1      17.214  36.047 -13.607  1.00  0.00    -0.380 N 
ATOM     19  H22 UNL     1      17.077  35.385 -12.843  1.00  0.00     0.158 HD
ATOM     20  H21 UNL     1      17.057  35.486 -14.444  1.00  0.00     0.158 HD
ENDBRANCH  15  18
ENDBRANCH  11  12
ENDBRANCH  10  11
ENDBRANCH   9  10
ENDBRANCH   8   9
ENDBRANCH   1   8
BRANCH   1  21
HETATM   21  C13 UNL     1      12.062  38.833  -7.961  1.00  0.00     0.205 C 
HETATM   22  O1  UNL     1      11.840  38.077  -6.838  1.00  0.00    -0.363 OA
HETATM   23  C14 UNL     1      10.847  38.724  -6.102  1.00  0.00     0.178 C 
HETATM   24  C16 UNL     1      11.384  40.161  -6.114  1.00  0.00     0.181 C 
HETATM   25  C17 UNL     1      11.785  40.278  -7.581  1.00  0.00     0.187 C 
BRANCH  23  26
HETATM   26  C15 UNL     1      10.772  38.199  -4.695  1.00  0.00     0.198 C 
BRANCH  26  27
HETATM   27  O2  UNL     1      11.173  39.209  -3.832  1.00  0.00    -0.398 OA
ATOM     28  H2  UNL     1      10.398  39.667  -3.528  1.00  0.00     0.209 HD
ENDBRANCH  26  27
ENDBRANCH  23  26
BRANCH  24  29
HETATM   29  O3  UNL     1      10.418  41.069  -5.759  1.00  0.00    -0.390 OA
ATOM     30  H3  UNL     1      10.747  41.960  -5.775  1.00  0.00     0.210 HD
ENDBRANCH  24  29
BRANCH  25  31
HETATM   31  O4  UNL     1      10.789  40.851  -8.332  1.00  0.00    -0.390 OA
ATOM     32  H4  UNL     1      10.885  41.792  -8.424  1.00  0.00     0.210 HD
ENDBRANCH  25  31
ENDBRANCH   1  21
TORSDOF 15
ENDMDL
MODEL 4
REMARK VINA RESULT: -6.998033924      4.534      7.727
REMARK  15 active torsions:
REMARK  status: ('A' for Active; 'I' for Inactive)
REMARK    1  A    between atoms: C2_2  and  C3_4 
REMARK    2  A    between atoms: C3_4  and  C4_5 
REMARK    3  A    between atoms: C4_5  and  C5_6 
REMARK    4  A    between atoms: C5_6  and  S1_7 
REMARK    5  A    between atoms: S1_7  and  C6_8 
REMARK    6  A    between atoms: S1_7  and  C13_21 
REMARK    7  A    between atoms: C6_8  and  C7_9 
REMARK    8  A    between atoms: C7_9  and  C8_10 
REMARK    9  A    between atoms: C8_10  and  C9_11 
REMARK   10  A    between atoms: C9_11  and  C10_12 
REMARK   11  A    between atoms: C12_15  and  N2_16 
REMARK   12  A    between atoms: C14_23  and  C15_24 
REMARK   13  A    between atoms: C15_24  and  O2_25 
REMARK   14  A    between atoms: C16_27  and  O3_28 
REMARK   15  A    between atoms: C17_30  and  O4_31 
ROOT
HETATM    1  S1  UNL     1      13.955  38.615  -8.644  1.00  0.00    -0.189 SA
ENDROOT
BRANCH   1   2
HETATM    2  C5  UNL     1      14.199  37.330  -9.838  1.00  0.00     0.066 C 
BRANCH   2   3
HETATM    3  C4  UNL     1      13.011  37.103 -10.698  1.00  0.00     0.015 C 
BRANCH   3   4
HETATM    4  C3  UNL     1      13.375  37.157 -12.146  1.00  0.00     0.054 C 
BRANCH   4   5
HETATM    5  C2  UNL     1      13.366  35.887 -12.883  1.00  0.00     0.015 C 
HETATM    6  C1  UNL     1      13.728  35.910 -14.176  1.00  0.00     0.035 C 
HETATM    7  N1  UNL     1      13.041  34.617 -12.354  1.00  0.00    -0.108 NA
ENDBRANCH   4   5
ENDBRANCH   3   4
ENDBRANCH   2   3
ENDBRANCH   1   2
BRANCH   1   8
HETATM    8  C6  UNL     1      14.486  40.192  -9.250  1.00  0.00     0.066 C 
BRANCH   8   9
HETATM    9  C7  UNL     1      14.610  40.247 -10.729  1.00  0.00     0.010 C 
BRANCH   9  10
HETATM   10  C8  UNL     1      13.426  40.952 -11.323  1.00  0.00     0.007 C 
BRANCH  10  11
HETATM   11  C9  UNL     1      13.575  42.415 -11.277  1.00  0.00     0.057 C 
BRANCH  11  12
HETATM   12  C10 UNL     1      12.360  43.093 -10.638  1.00  0.00     0.018 A 
HETATM   13  C11 UNL     1      12.585  43.937  -9.589  1.00  0.00     0.078 A 
HETATM   14  S2  UNL     1      11.010  44.463  -9.186  1.00  0.00    -0.064 SA
HETATM   15  C12 UNL     1      10.154  43.585 -10.368  1.00  0.00     0.142 A 
HETATM   16  N3  UNL     1      11.105  42.927 -11.020  1.00  0.00    -0.340 N 
ATOM     17  H3  UNL     1      10.873  42.309 -11.797  1.00  0.00     0.167 HD
BRANCH  15  18
HETATM   18  N2  UNL     1       8.859  43.540 -10.610  1.00  0.00    -0.380 N 
ATOM     19  H22 UNL     1       8.112  43.481  -9.918  1.00  0.00     0.158 HD
ATOM     20  H21 UNL     1       8.361  43.556 -11.500  1.00  0.00     0.158 HD
ENDBRANCH  15  18
ENDBRANCH  11  12
ENDBRANCH  10  11
ENDBRANCH   9  10
ENDBRANCH   8   9
ENDBRANCH   1   8
BRANCH   1  21
HETATM   21  C13 UNL     1      12.295  38.756  -8.101  1.00  0.00     0.205 C 
HETATM   22  O1  UNL     1      11.988  38.024  -6.983  1.00  0.00    -0.363 OA
HETATM   23  C14 UNL     1      10.979  38.714  -6.309  1.00  0.00     0.178 C 
HETATM   24  C16 UNL     1      11.564  40.132  -6.310  1.00  0.00     0.181 C 
HETATM   25  C17 UNL     1      12.046  40.215  -7.755  1.00  0.00     0.187 C 
BRANCH  23  26
HETATM   26  C15 UNL     1      10.812  38.212  -4.901  1.00  0.00     0.198 C 
BRANCH  26  27
HETATM   27  O2  UNL     1      11.134  39.243  -4.030  1.00  0.00    -0.398 OA
ATOM     28  H2  UNL     1      10.922  38.963  -3.147  1.00  0.00     0.209 HD
ENDBRANCH  26  27
ENDBRANCH  23  26
BRANCH  24  29
HETATM   29  O3  UNL     1      10.612  41.076  -6.019  1.00  0.00    -0.390 OA
ATOM     30  H3  UNL     1      10.973  41.955  -6.021  1.00  0.00     0.210 HD
ENDBRANCH  24  29
BRANCH  25  31
HETATM   31  O4  UNL     1      11.112  40.810  -8.565  1.00  0.00    -0.390 OA
ATOM     32  H4  UNL     1      10.398  41.208  -8.082  1.00  0.00     0.210 HD
ENDBRANCH  25  31
ENDBRANCH   1  21
TORSDOF 15
ENDMDL
MODEL 5
REMARK VINA RESULT: -6.917119710      5.007      8.393
REMARK  15 active torsions:
REMARK  status: ('A' for Active; 'I' for Inactive)
REMARK    1  A    between atoms: C2_2  and  C3_4 
REMARK    2  A    between atoms: C3_4  and  C4_5 
REMARK    3  A    between atoms: C4_5  and  C5_6 
REMARK    4  A    between atoms: C5_6  and  S1_7 
REMARK    5  A    between atoms: S1_7  and  C6_8 
REMARK    6  A    between atoms: S1_7  and  C13_21 
REMARK    7  A    between atoms: C6_8  and  C7_9 
REMARK    8  A    between atoms: C7_9  and  C8_10 
REMARK    9  A    between atoms: C8_10  and  C9_11 
REMARK   10  A    between atoms: C9_11  and  C10_12 
REMARK   11  A    between atoms: C12_15  and  N2_16 
REMARK   12  A    between atoms: C14_23  and  C15_24 
REMARK   13  A    between atoms: C15_24  and  O2_25 
REMARK   14  A    between atoms: C16_27  and  O3_28 
REMARK   15  A    between atoms: C17_30  and  O4_31 
ROOT
HETATM    1  S1  UNL     1      13.656  39.213 -10.543  1.00  0.00    -0.189 SA
ENDROOT
BRANCH   1   2
HETATM    2  C5  UNL     1      15.146  39.820 -11.283  1.00  0.00     0.066 C 
BRANCH   2   3
HETATM    3  C4  UNL     1      15.955  40.654 -10.359  1.00  0.00     0.015 C 
BRANCH   3   4
HETATM    4  C3  UNL     1      15.447  42.059 -10.314  1.00  0.00     0.054 C 
BRANCH   4   5
HETATM    5  C2  UNL     1      15.739  42.834  -9.102  1.00  0.00     0.015 C 
HETATM    6  C1  UNL     1      16.879  43.543  -9.071  1.00  0.00     0.035 C 
HETATM    7  N1  UNL     1      14.915  42.937  -7.957  1.00  0.00    -0.108 NA
ENDBRANCH   4   5
ENDBRANCH   3   4
ENDBRANCH   2   3
ENDBRANCH   1   2
BRANCH   1   8
HETATM    8  C6  UNL     1      13.293  37.556 -11.049  1.00  0.00     0.066 C 
BRANCH   8   9
HETATM    9  C7  UNL     1      14.494  36.787 -11.462  1.00  0.00     0.010 C 
BRANCH   9  10
HETATM   10  C8  UNL     1      14.098  35.648 -12.357  1.00  0.00     0.007 C 
BRANCH  10  11
HETATM   11  C9  UNL     1      13.312  36.104 -13.514  1.00  0.00     0.057 C 
BRANCH  11  12
HETATM   12  C10 UNL     1      13.961  35.702 -14.841  1.00  0.00     0.018 A 
HETATM   13  C11 UNL     1      15.243  36.111 -15.068  1.00  0.00     0.078 A 
HETATM   14  S2  UNL     1      15.574  35.467 -16.615  1.00  0.00    -0.064 SA
HETATM   15  C12 UNL     1      14.072  34.715 -16.889  1.00  0.00     0.142 A 
HETATM   16  N3  UNL     1      13.380  34.987 -15.789  1.00  0.00    -0.340 N 
ATOM     17  H3  UNL     1      12.422  34.652 -15.679  1.00  0.00     0.167 HD
BRANCH  15  18
HETATM   18  N2  UNL     1      13.653  34.021 -17.930  1.00  0.00    -0.380 N 
ATOM     19  H22 UNL     1      14.230  33.466 -18.561  1.00  0.00     0.158 HD
ATOM     20  H21 UNL     1      12.709  33.903 -18.298  1.00  0.00     0.158 HD
ENDBRANCH  15  18
ENDBRANCH  11  12
ENDBRANCH  10  11
ENDBRANCH   9  10
ENDBRANCH   8   9
ENDBRANCH   1   8
BRANCH   1  21
HETATM   21  C13 UNL     1      13.673  39.271  -8.792  1.00  0.00     0.205 C 
HETATM   22  O1  UNL     1      12.874  40.239  -8.237  1.00  0.00    -0.363 OA
HETATM   23  C14 UNL     1      12.454  39.757  -6.997  1.00  0.00     0.178 C 
HETATM   24  C16 UNL     1      12.000  38.344  -7.386  1.00  0.00     0.181 C 
HETATM   25  C17 UNL     1      13.164  37.933  -8.282  1.00  0.00     0.187 C 
BRANCH  23  26
HETATM   26  C15 UNL     1      11.299  40.554  -6.457  1.00  0.00     0.198 C 
BRANCH  26  27
HETATM   27  O2  UNL     1      11.060  40.146  -5.153  1.00  0.00    -0.398 OA
ATOM     28  H2  UNL     1      11.162  40.898  -4.581  1.00  0.00     0.209 HD
ENDBRANCH  26  27
ENDBRANCH  23  26
BRANCH  24  29
HETATM   29  O3  UNL     1      11.868  37.531  -6.289  1.00  0.00    -0.390 OA
ATOM     30  H3  UNL     1      11.830  36.613  -6.532  1.00  0.00     0.210 HD
ENDBRANCH  24  29
BRANCH  25  31
HETATM   31  O4  UNL     1      14.112  37.225  -7.585  1.00  0.00    -0.390 OA
ATOM     32  H4  UNL     1      13.769  36.817  -6.799  1.00  0.00     0.210 HD
ENDBRANCH  25  31
ENDBRANCH   1  21
TORSDOF 15
ENDMDL
