MODEL 1
REMARK VINA RESULT: -7.161454981      0.000      0.000
REMARK  14 active torsions:
REMARK  status: ('A' for Active; 'I' for Inactive)
REMARK    1  A    between atoms: N1_4  and  C4_5 
REMARK    2  A    between atoms: C4_5  and  C5_6 
REMARK    3  A    between atoms: C5_6  and  N2_7 
REMARK    4  A    between atoms: N2_7  and  C6_9 
REMARK    5  A    between atoms: C7_12  and  N4_13 
REMARK    6  A    between atoms: C8_18  and  N6_19 
REMARK    7  A    between atoms: N6_19  and  C9_21 
REMARK    8  A    between atoms: C9_21  and  C10_22 
REMARK    9  A    between atoms: C10_22  and  C11_23 
REMARK   10  A    between atoms: C11_23  and  C12_24 
REMARK   11  A    between atoms: C12_24  and  C13_25 
REMARK   12  A    between atoms: C13_25  and  C14_26 
REMARK   13  A    between atoms: C14_26  and  C15_27 
REMARK   14  A    between atoms: C15_27  and  C16_28 
ROOT
HETATM    1  C6  UNL     1      12.559  38.656  -7.140  1.00  0.00     0.711 A 
HETATM    2  N3  UNL     1      12.036  39.821  -7.542  1.00  0.00    -0.021 N 
ATOM      3  H3  UNL     1      11.371  40.315  -6.948  1.00  0.00     0.203 HD
HETATM    4  C7  UNL     1      12.390  40.336  -8.731  1.00  0.00     0.705 A 
HETATM    5  N5  UNL     1      13.271  39.671  -9.510  1.00  0.00    -0.022 N 
ATOM      6  H5  UNL     1      13.531  40.074 -10.410  1.00  0.00     0.203 HD
HETATM    7  C8  UNL     1      13.817  38.502  -9.144  1.00  0.00     0.707 A 
HETATM    8  N7  UNL     1      13.451  37.993  -7.940  1.00  0.00    -0.021 N 
ATOM      9  H7  UNL     1      13.846  37.105  -7.627  1.00  0.00     0.203 HD
ENDROOT
BRANCH   1  10
HETATM   10  N2  UNL     1      12.231  38.162  -6.014  1.00  0.00    -0.203 N 
ATOM     11  H2  UNL     1      13.023  37.864  -5.446  1.00  0.00     0.183 HD
BRANCH  10  12
HETATM   12  C5  UNL     1      10.983  37.951  -5.408  1.00  0.00     0.098 C 
BRANCH  12  13
HETATM   13  C4  UNL     1      10.589  39.034  -4.414  1.00  0.00     0.162 C 
BRANCH  13  14
HETATM   14  N1  UNL     1       9.511  38.692  -3.559  1.00  0.00    -0.404 N 
HETATM   15  C3  UNL     1       9.046  39.740  -2.713  1.00  0.00     0.149 C 
HETATM   16  C2  UNL     1       9.892  39.714  -1.443  1.00  0.00     0.199 C 
HETATM   17  C1  UNL     1       9.651  40.896  -0.562  1.00  0.00     0.041 C 
HETATM   18  N8  UNL     1       9.575  38.493  -0.769  1.00  0.00    -0.064 N 
HETATM   19  C18 UNL     1       9.897  37.327  -1.533  1.00  0.00     0.199 C 
ATOM     20  H82 UNL     1      10.020  38.461   0.148  1.00  0.00     0.278 HD
ATOM     21  H81 UNL     1       8.596  38.481  -0.483  1.00  0.00     0.278 HD
HETATM   22  C17 UNL     1       9.525  37.395  -2.983  1.00  0.00     0.149 C 
HETATM   23  C19 UNL     1       9.148  36.150  -0.891  1.00  0.00     0.041 C 
ENDBRANCH  13  14
ENDBRANCH  12  13
ENDBRANCH  10  12
ENDBRANCH   1  10
BRANCH   4  24
HETATM   24  N4  UNL     1      11.884  41.449  -9.107  1.00  0.00    -0.234 N 
ATOM     25  H42 UNL     1      12.471  42.270  -9.258  1.00  0.00     0.174 HD
ATOM     26  H41 UNL     1      10.878  41.514  -9.259  1.00  0.00     0.174 HD
ENDBRANCH   4  24
BRANCH   7  27
HETATM   27  N6  UNL     1      14.660  37.880  -9.890  1.00  0.00    -0.225 N 
ATOM     28  H6  UNL     1      15.552  38.314 -10.130  1.00  0.00     0.177 HD
BRANCH  27  29
HETATM   29  C9  UNL     1      14.334  36.564 -10.387  1.00  0.00     0.138 C 
BRANCH  29  30
HETATM   30  C10 UNL     1      13.254  36.635 -11.453  1.00  0.00     0.020 C 
BRANCH  30  31
HETATM   31  C11 UNL     1      13.395  35.484 -12.429  1.00  0.00     0.002 C 
BRANCH  31  32
HETATM   32  C12 UNL     1      13.431  35.972 -13.852  1.00  0.00     0.000 C 
BRANCH  32  33
HETATM   33  C13 UNL     1      14.634  36.846 -14.112  1.00  0.00     0.001 C 
BRANCH  33  34
HETATM   34  C14 UNL     1      14.219  38.151 -14.733  1.00  0.00     0.010 C 
BRANCH  34  35
HETATM   35  C15 UNL     1      15.163  39.282 -14.316  1.00  0.00     0.113 C 
BRANCH  35  36
HETATM   36  C16 UNL     1      15.041  39.565 -12.852  1.00  0.00     0.172 C 
HETATM   37  O1  UNL     1      13.954  39.943 -12.367  1.00  0.00    -0.648 OA
HETATM   38  O2  UNL     1      16.150  39.403 -12.027  1.00  0.00    -0.648 OA
ENDBRANCH  35  36
ENDBRANCH  34  35
ENDBRANCH  33  34
ENDBRANCH  32  33
ENDBRANCH  31  32
ENDBRANCH  30  31
ENDBRANCH  29  30
ENDBRANCH  27  29
ENDBRANCH   7  27
TORSDOF 14
ENDMDL
MODEL 2
REMARK VINA RESULT: -7.121417479      3.521     10.017
REMARK  14 active torsions:
REMARK  status: ('A' for Active; 'I' for Inactive)
REMARK    1  A    between atoms: N1_4  and  C4_5 
REMARK    2  A    between atoms: C4_5  and  C5_6 
REMARK    3  A    between atoms: C5_6  and  N2_7 
REMARK    4  A    between atoms: N2_7  and  C6_9 
REMARK    5  A    between atoms: C7_12  and  N4_13 
REMARK    6  A    between atoms: C8_18  and  N6_19 
REMARK    7  A    between atoms: N6_19  and  C9_21 
REMARK    8  A    between atoms: C9_21  and  C10_22 
REMARK    9  A    between atoms: C10_22  and  C11_23 
REMARK   10  A    between atoms: C11_23  and  C12_24 
REMARK   11  A    between atoms: C12_24  and  C13_25 
REMARK   12  A    between atoms: C13_25  and  C14_26 
REMARK   13  A    between atoms: C14_26  and  C15_27 
REMARK   14  A    between atoms: C15_27  and  C16_28 
ROOT
HETATM    1  C6  UNL     1      11.421  40.896  -6.672  1.00  0.00     0.711 A 
HETATM    2  N3  UNL     1      11.791  39.673  -6.270  1.00  0.00    -0.021 N 
ATOM      3  H3  UNL     1      12.563  39.194  -6.734  1.00  0.00     0.203 HD
HETATM    4  C7  UNL     1      11.142  39.080  -5.255  1.00  0.00     0.705 A 
HETATM    5  N5  UNL     1      10.120  39.724  -4.650  1.00  0.00    -0.022 N 
ATOM      6  H5  UNL     1       9.636  39.261  -3.880  1.00  0.00     0.203 HD
HETATM    7  C8  UNL     1       9.720  40.948  -5.022  1.00  0.00     0.707 A 
HETATM    8  N7  UNL     1      10.384  41.537  -6.049  1.00  0.00    -0.021 N 
ATOM      9  H7  UNL     1      10.107  42.469  -6.360  1.00  0.00     0.203 HD
ENDROOT
BRANCH   1  10
HETATM   10  N2  UNL     1      12.032  41.466  -7.631  1.00  0.00    -0.203 N 
ATOM     11  H2  UNL     1      12.884  41.952  -7.350  1.00  0.00     0.183 HD
BRANCH  10  12
HETATM   12  C5  UNL     1      11.754  41.552  -9.004  1.00  0.00     0.098 C 
BRANCH  12  13
HETATM   13  C4  UNL     1      12.977  41.376  -9.893  1.00  0.00     0.162 C 
BRANCH  13  14
HETATM   14  N1  UNL     1      13.781  40.251  -9.578  1.00  0.00    -0.404 N 
HETATM   15  C3  UNL     1      15.172  40.401  -9.845  1.00  0.00     0.149 C 
HETATM   16  C2  UNL     1      15.407  40.000 -11.298  1.00  0.00     0.199 C 
HETATM   17  C1  UNL     1      16.789  40.316 -11.771  1.00  0.00     0.041 C 
HETATM   18  N8  UNL     1      15.139  38.598 -11.381  1.00  0.00    -0.064 N 
HETATM   19  C18 UNL     1      13.789  38.261 -11.046  1.00  0.00     0.199 C 
ATOM     20  H82 UNL     1      15.386  38.236 -12.302  1.00  0.00     0.278 HD
ATOM     21  H81 UNL     1      15.798  38.069 -10.810  1.00  0.00     0.278 HD
HETATM   22  C17 UNL     1      13.238  38.968  -9.847  1.00  0.00     0.149 C 
HETATM   23  C19 UNL     1      13.759  36.749 -10.780  1.00  0.00     0.041 C 
ENDBRANCH  13  14
ENDBRANCH  12  13
ENDBRANCH  10  12
ENDBRANCH   1  10
BRANCH   4  24
HETATM   24  N4  UNL     1      11.502  37.911  -4.879  1.00  0.00    -0.234 N 
ATOM     25  H42 UNL     1      11.337  37.591  -3.925  1.00  0.00     0.174 HD
ATOM     26  H41 UNL     1      11.960  37.292  -5.547  1.00  0.00     0.174 HD
ENDBRANCH   4  24
BRANCH   7  27
HETATM   27  N6  UNL     1       8.749  41.555  -4.434  1.00  0.00    -0.225 N 
ATOM     28  H6  UNL     1       8.380  42.425  -4.819  1.00  0.00     0.177 HD
BRANCH  27  29
HETATM   29  C9  UNL     1       8.188  40.996  -3.227  1.00  0.00     0.138 C 
BRANCH  29  30
HETATM   30  C10 UNL     1       8.213  42.007  -2.094  1.00  0.00     0.020 C 
BRANCH  30  31
HETATM   31  C11 UNL     1       9.372  41.727  -1.158  1.00  0.00     0.002 C 
BRANCH  31  32
HETATM   32  C12 UNL     1       9.453  40.266  -0.804  1.00  0.00     0.000 C 
BRANCH  32  33
HETATM   33  C13 UNL     1      10.822  39.698  -1.085  1.00  0.00     0.001 C 
BRANCH  33  34
HETATM   34  C14 UNL     1      10.824  38.204  -0.918  1.00  0.00     0.010 C 
BRANCH  34  35
HETATM   35  C15 UNL     1       9.406  37.674  -0.696  1.00  0.00     0.113 C 
BRANCH  35  36
HETATM   36  C16 UNL     1       8.962  36.838  -1.856  1.00  0.00     0.172 C 
HETATM   37  O1  UNL     1       8.515  35.686  -1.672  1.00  0.00    -0.648 OA
HETATM   38  O2  UNL     1       9.049  37.351  -3.146  1.00  0.00    -0.648 OA
ENDBRANCH  35  36
ENDBRANCH  34  35
ENDBRANCH  33  34
ENDBRANCH  32  33
ENDBRANCH  31  32
ENDBRANCH  30  31
ENDBRANCH  29  30
ENDBRANCH  27  29
ENDBRANCH   7  27
TORSDOF 14
ENDMDL
MODEL 3
REMARK VINA RESULT: -7.120680477      3.652     10.434
REMARK  14 active torsions:
REMARK  status: ('A' for Active; 'I' for Inactive)
REMARK    1  A    between atoms: N1_4  and  C4_5 
REMARK    2  A    between atoms: C4_5  and  C5_6 
REMARK    3  A    between atoms: C5_6  and  N2_7 
REMARK    4  A    between atoms: N2_7  and  C6_9 
REMARK    5  A    between atoms: C7_12  and  N4_13 
REMARK    6  A    between atoms: C8_18  and  N6_19 
REMARK    7  A    between atoms: N6_19  and  C9_21 
REMARK    8  A    between atoms: C9_21  and  C10_22 
REMARK    9  A    between atoms: C10_22  and  C11_23 
REMARK   10  A    between atoms: C11_23  and  C12_24 
REMARK   11  A    between atoms: C12_24  and  C13_25 
REMARK   12  A    between atoms: C13_25  and  C14_26 
REMARK   13  A    between atoms: C14_26  and  C15_27 
REMARK   14  A    between atoms: C15_27  and  C16_28 
ROOT
HETATM    1  C6  UNL     1      12.974  38.204  -7.811  1.00  0.00     0.711 A 
HETATM    2  N3  UNL     1      12.536  39.294  -8.454  1.00  0.00    -0.021 N 
ATOM      3  H3  UNL     1      12.868  39.500  -9.396  1.00  0.00     0.203 HD
HETATM    4  C7  UNL     1      11.658  40.114  -7.854  1.00  0.00     0.705 A 
HETATM    5  N5  UNL     1      11.227  39.831  -6.606  1.00  0.00    -0.022 N 
ATOM      6  H5  UNL     1      10.560  40.462  -6.162  1.00  0.00     0.203 HD
HETATM    7  C8  UNL     1      11.642  38.750  -5.928  1.00  0.00     0.707 A 
HETATM    8  N7  UNL     1      12.528  37.929  -6.546  1.00  0.00    -0.021 N 
ATOM      9  H7  UNL     1      12.867  37.097  -6.061  1.00  0.00     0.203 HD
ENDROOT
BRANCH   1  10
HETATM   10  N2  UNL     1      13.805  37.420  -8.373  1.00  0.00    -0.203 N 
ATOM     11  H2  UNL     1      14.140  36.670  -7.769  1.00  0.00     0.183 HD
BRANCH  10  12
HETATM   12  C5  UNL     1      14.344  37.394  -9.669  1.00  0.00     0.098 C 
BRANCH  12  13
HETATM   13  C4  UNL     1      13.346  36.988 -10.743  1.00  0.00     0.162 C 
BRANCH  13  14
HETATM   14  N1  UNL     1      13.789  35.952 -11.605  1.00  0.00    -0.404 N 
HETATM   15  C3  UNL     1      15.202  35.809 -11.712  1.00  0.00     0.149 C 
HETATM   16  C2  UNL     1      15.677  36.753 -12.814  1.00  0.00     0.199 C 
HETATM   17  C1  UNL     1      17.165  36.861 -12.884  1.00  0.00     0.041 C 
HETATM   18  N8  UNL     1      15.136  36.251 -14.039  1.00  0.00    -0.064 N 
HETATM   19  C18 UNL     1      13.705  36.236 -14.060  1.00  0.00     0.199 C 
ATOM     20  H82 UNL     1      15.506  36.767 -14.836  1.00  0.00     0.278 HD
ATOM     21  H81 UNL     1      15.512  35.325 -14.248  1.00  0.00     0.278 HD
HETATM   22  C17 UNL     1      13.057  35.745 -12.803  1.00  0.00     0.149 C 
HETATM   23  C19 UNL     1      13.284  35.320 -15.218  1.00  0.00     0.041 C 
ENDBRANCH  13  14
ENDBRANCH  12  13
ENDBRANCH  10  12
ENDBRANCH   1  10
BRANCH   4  24
HETATM   24  N4  UNL     1      11.246  41.153  -8.476  1.00  0.00    -0.234 N 
ATOM     25  H42 UNL     1      11.345  41.235  -9.488  1.00  0.00     0.174 HD
ATOM     26  H41 UNL     1      10.810  41.909  -7.949  1.00  0.00     0.174 HD
ENDBRANCH   4  24
BRANCH   7  27
HETATM   27  N6  UNL     1      11.220  38.486  -4.742  1.00  0.00    -0.225 N 
ATOM     28  H6  UNL     1      11.884  38.317  -3.986  1.00  0.00     0.177 HD
BRANCH  27  29
HETATM   29  C9  UNL     1       9.799  38.432  -4.488  1.00  0.00     0.138 C 
BRANCH  29  30
HETATM   30  C10 UNL     1       9.280  39.774  -4.000  1.00  0.00     0.020 C 
BRANCH  30  31
HETATM   31  C11 UNL     1       8.613  39.625  -2.647  1.00  0.00     0.002 C 
BRANCH  31  32
HETATM   32  C12 UNL     1       9.530  40.049  -1.532  1.00  0.00     0.000 C 
BRANCH  32  33
HETATM   33  C13 UNL     1      10.413  38.914  -1.072  1.00  0.00     0.001 C 
BRANCH  33  34
HETATM   34  C14 UNL     1       9.942  38.373   0.248  1.00  0.00     0.010 C 
BRANCH  34  35
HETATM   35  C15 UNL     1       8.875  37.294   0.051  1.00  0.00     0.113 C 
BRANCH  35  36
HETATM   36  C16 UNL     1       9.242  36.383  -1.078  1.00  0.00     0.172 C 
HETATM   37  O1  UNL     1      10.331  35.772  -1.072  1.00  0.00    -0.648 OA
HETATM   38  O2  UNL     1       8.360  36.217  -2.141  1.00  0.00    -0.648 OA
ENDBRANCH  35  36
ENDBRANCH  34  35
ENDBRANCH  33  34
ENDBRANCH  32  33
ENDBRANCH  31  32
ENDBRANCH  30  31
ENDBRANCH  29  30
ENDBRANCH  27  29
ENDBRANCH   7  27
TORSDOF 14
ENDMDL
MODEL 4
REMARK VINA RESULT: -7.027009063      3.452      5.996
REMARK  14 active torsions:
REMARK  status: ('A' for Active; 'I' for Inactive)
REMARK    1  A    between atoms: N1_4  and  C4_5 
REMARK    2  A    between atoms: C4_5  and  C5_6 
REMARK    3  A    between atoms: C5_6  and  N2_7 
REMARK    4  A    between atoms: N2_7  and  C6_9 
REMARK    5  A    between atoms: C7_12  and  N4_13 
REMARK    6  A    between atoms: C8_18  and  N6_19 
REMARK    7  A    between atoms: N6_19  and  C9_21 
REMARK    8  A    between atoms: C9_21  and  C10_22 
REMARK    9  A    between atoms: C10_22  and  C11_23 
REMARK   10  A    between atoms: C11_23  and  C12_24 
REMARK   11  A    between atoms: C12_24  and  C13_25 
REMARK   12  A    between atoms: C13_25  and  C14_26 
REMARK   13  A    between atoms: C14_26  and  C15_27 
REMARK   14  A    between atoms: C15_27  and  C16_28 
ROOT
HETATM    1  C6  UNL     1       8.906  39.885  -3.525  1.00  0.00     0.711 A 
HETATM    2  N3  UNL     1       9.274  39.809  -2.240  1.00  0.00    -0.021 N 
ATOM      3  H3  UNL     1       8.702  40.247  -1.517  1.00  0.00     0.203 HD
HETATM    4  C7  UNL     1      10.398  39.155  -1.906  1.00  0.00     0.705 A 
HETATM    5  N5  UNL     1      11.148  38.581  -2.872  1.00  0.00    -0.022 N 
ATOM      6  H5  UNL     1      11.999  38.088  -2.604  1.00  0.00     0.203 HD
HETATM    7  C8  UNL     1      10.813  38.634  -4.170  1.00  0.00     0.707 A 
HETATM    8  N7  UNL     1       9.675  39.297  -4.494  1.00  0.00    -0.021 N 
ATOM      9  H7  UNL     1       9.388  39.359  -5.472  1.00  0.00     0.203 HD
ENDROOT
BRANCH   1  10
HETATM   10  N2  UNL     1       7.840  40.500  -3.851  1.00  0.00    -0.203 N 
ATOM     11  H2  UNL     1       7.320  40.057  -4.608  1.00  0.00     0.183 HD
BRANCH  10  12
HETATM   12  C5  UNL     1       7.247  41.675  -3.362  1.00  0.00     0.098 C 
BRANCH  12  13
HETATM   13  C4  UNL     1       7.851  42.952  -3.929  1.00  0.00     0.162 C 
BRANCH  13  14
HETATM   14  N1  UNL     1       7.359  44.149  -3.349  1.00  0.00    -0.404 N 
HETATM   15  C3  UNL     1       8.104  45.325  -3.650  1.00  0.00     0.149 C 
HETATM   16  C2  UNL     1       9.222  45.437  -2.617  1.00  0.00     0.199 C 
HETATM   17  C1  UNL     1      10.209  46.509  -2.945  1.00  0.00     0.041 C 
HETATM   18  N8  UNL     1       8.589  45.683  -1.359  1.00  0.00    -0.064 N 
HETATM   19  C18 UNL     1       7.718  44.624  -0.948  1.00  0.00     0.199 C 
ATOM     20  H82 UNL     1       9.282  45.883  -0.638  1.00  0.00     0.278 HD
ATOM     21  H81 UNL     1       8.095  46.575  -1.370  1.00  0.00     0.278 HD
HETATM   22  C17 UNL     1       6.842  44.068  -2.029  1.00  0.00     0.149 C 
HETATM   23  C19 UNL     1       6.822  45.187   0.165  1.00  0.00     0.041 C 
ENDBRANCH  13  14
ENDBRANCH  12  13
ENDBRANCH  10  12
ENDBRANCH   1  10
BRANCH   4  24
HETATM   24  N4  UNL     1      10.742  39.089  -0.676  1.00  0.00    -0.234 N 
ATOM     25  H42 UNL     1      11.590  39.548  -0.340  1.00  0.00     0.174 HD
ATOM     26  H41 UNL     1      10.158  38.569  -0.022  1.00  0.00     0.174 HD
ENDBRANCH   4  24
BRANCH   7  27
HETATM   27  N6  UNL     1      11.531  38.078  -5.081  1.00  0.00    -0.225 N 
ATOM     28  H6  UNL     1      12.082  37.247  -4.866  1.00  0.00     0.177 HD
BRANCH  27  29
HETATM   29  C9  UNL     1      11.551  38.640  -6.411  1.00  0.00     0.138 C 
BRANCH  29  30
HETATM   30  C10 UNL     1      12.821  38.254  -7.148  1.00  0.00     0.020 C 
BRANCH  30  31
HETATM   31  C11 UNL     1      12.788  38.772  -8.573  1.00  0.00     0.002 C 
BRANCH  31  32
HETATM   32  C12 UNL     1      14.092  38.518  -9.280  1.00  0.00     0.000 C 
BRANCH  32  33
HETATM   33  C13 UNL     1      14.148  37.129  -9.868  1.00  0.00     0.001 C 
BRANCH  33  34
HETATM   34  C14 UNL     1      13.060  36.938 -10.887  1.00  0.00     0.010 C 
BRANCH  34  35
HETATM   35  C15 UNL     1      13.639  36.850 -12.301  1.00  0.00     0.113 C 
BRANCH  35  36
HETATM   36  C16 UNL     1      13.185  35.599 -12.986  1.00  0.00     0.172 C 
HETATM   37  O1  UNL     1      12.973  35.592 -14.217  1.00  0.00    -0.648 OA
HETATM   38  O2  UNL     1      13.000  34.438 -12.243  1.00  0.00    -0.648 OA
ENDBRANCH  35  36
ENDBRANCH  34  35
ENDBRANCH  33  34
ENDBRANCH  32  33
ENDBRANCH  31  32
ENDBRANCH  30  31
ENDBRANCH  29  30
ENDBRANCH  27  29
ENDBRANCH   7  27
TORSDOF 14
ENDMDL
MODEL 5
REMARK VINA RESULT: -7.017243750      3.064      9.984
REMARK  14 active torsions:
REMARK  status: ('A' for Active; 'I' for Inactive)
REMARK    1  A    between atoms: N1_4  and  C4_5 
REMARK    2  A    between atoms: C4_5  and  C5_6 
REMARK    3  A    between atoms: C5_6  and  N2_7 
REMARK    4  A    between atoms: N2_7  and  C6_9 
REMARK    5  A    between atoms: C7_12  and  N4_13 
REMARK    6  A    between atoms: C8_18  and  N6_19 
REMARK    7  A    between atoms: N6_19  and  C9_21 
REMARK    8  A    between atoms: C9_21  and  C10_22 
REMARK    9  A    between atoms: C10_22  and  C11_23 
REMARK   10  A    between atoms: C11_23  and  C12_24 
REMARK   11  A    between atoms: C12_24  and  C13_25 
REMARK   12  A    between atoms: C13_25  and  C14_26 
REMARK   13  A    between atoms: C14_26  and  C15_27 
REMARK   14  A    between atoms: C15_27  and  C16_28 
ROOT
HETATM    1  C6  UNL     1      12.501  38.484  -6.924  1.00  0.00     0.711 A 
HETATM    2  N3  UNL     1      12.087  39.694  -7.322  1.00  0.00    -0.021 N 
ATOM      3  H3  UNL     1      12.354  40.050  -8.239  1.00  0.00     0.203 HD
HETATM    4  C7  UNL     1      11.320  40.436  -6.507  1.00  0.00     0.705 A 
HETATM    5  N5  UNL     1      10.974  39.955  -5.294  1.00  0.00    -0.022 N 
ATOM      6  H5  UNL     1      10.391  40.529  -4.686  1.00  0.00     0.203 HD
HETATM    7  C8  UNL     1      11.368  38.748  -4.859  1.00  0.00     0.707 A 
HETATM    8  N7  UNL     1      12.143  38.007  -5.691  1.00  0.00    -0.021 N 
ATOM      9  H7  UNL     1      12.462  37.085  -5.395  1.00  0.00     0.203 HD
ENDROOT
BRANCH   1  10
HETATM   10  N2  UNL     1      13.227  37.772  -7.690  1.00  0.00    -0.203 N 
ATOM     11  H2  UNL     1      13.313  36.800  -7.394  1.00  0.00     0.183 HD
BRANCH  10  12
HETATM   12  C5  UNL     1      13.930  38.074  -8.867  1.00  0.00     0.098 C 
BRANCH  12  13
HETATM   13  C4  UNL     1      13.458  37.294 -10.085  1.00  0.00     0.162 C 
BRANCH  13  14
HETATM   14  N1  UNL     1      14.398  37.219 -11.143  1.00  0.00    -0.404 N 
HETATM   15  C3  UNL     1      14.916  38.469 -11.590  1.00  0.00     0.149 C 
HETATM   16  C2  UNL     1      13.960  39.008 -12.651  1.00  0.00     0.199 C 
HETATM   17  C1  UNL     1      14.270  40.415 -13.049  1.00  0.00     0.041 C 
HETATM   18  N8  UNL     1      14.051  38.122 -13.769  1.00  0.00    -0.064 N 
HETATM   19  C18 UNL     1      13.653  36.782 -13.461  1.00  0.00     0.199 C 
ATOM     20  H82 UNL     1      13.523  38.484 -14.562  1.00  0.00     0.278 HD
ATOM     21  H81 UNL     1      14.990  38.139 -14.168  1.00  0.00     0.278 HD
HETATM   22  C17 UNL     1      14.163  36.253 -12.156  1.00  0.00     0.149 C 
HETATM   23  C19 UNL     1      14.180  35.887 -14.591  1.00  0.00     0.041 C 
ENDBRANCH  13  14
ENDBRANCH  12  13
ENDBRANCH  10  12
ENDBRANCH   1  10
BRANCH   4  24
HETATM   24  N4  UNL     1      10.930  41.591  -6.896  1.00  0.00    -0.234 N 
ATOM     25  H42 UNL     1      11.150  41.935  -7.830  1.00  0.00     0.174 HD
ATOM     26  H41 UNL     1      10.389  42.175  -6.258  1.00  0.00     0.174 HD
ENDBRANCH   4  24
BRANCH   7  27
HETATM   27  N6  UNL     1      11.027  38.296  -3.704  1.00  0.00    -0.225 N 
ATOM     28  H6  UNL     1      11.724  38.200  -2.964  1.00  0.00     0.177 HD
BRANCH  27  29
HETATM   29  C9  UNL     1       9.653  37.926  -3.462  1.00  0.00     0.138 C 
BRANCH  29  30
HETATM   30  C10 UNL     1       9.448  37.499  -2.019  1.00  0.00     0.020 C 
BRANCH  30  31
HETATM   31  C11 UNL     1      10.330  38.314  -1.094  1.00  0.00     0.002 C 
BRANCH  31  32
HETATM   32  C12 UNL     1       9.554  39.416  -0.424  1.00  0.00     0.000 C 
BRANCH  32  33
HETATM   33  C13 UNL     1      10.049  40.780  -0.838  1.00  0.00     0.001 C 
BRANCH  33  34
HETATM   34  C14 UNL     1       8.911  41.640  -1.310  1.00  0.00     0.010 C 
BRANCH  34  35
HETATM   35  C15 UNL     1       8.311  41.094  -2.607  1.00  0.00     0.113 C 
BRANCH  35  36
HETATM   36  C16 UNL     1       8.448  42.088  -3.718  1.00  0.00     0.172 C 
HETATM   37  O1  UNL     1       8.497  41.708  -4.907  1.00  0.00    -0.648 OA
HETATM   38  O2  UNL     1       8.520  43.445  -3.420  1.00  0.00    -0.648 OA
ENDBRANCH  35  36
ENDBRANCH  34  35
ENDBRANCH  33  34
ENDBRANCH  32  33
ENDBRANCH  31  32
ENDBRANCH  30  31
ENDBRANCH  29  30
ENDBRANCH  27  29
ENDBRANCH   7  27
TORSDOF 14
ENDMDL
