MODEL 1
REMARK VINA RESULT: -8.154388178      0.000      0.000
REMARK  15 active torsions:
REMARK  status: ('A' for Active; 'I' for Inactive)
REMARK    1  A    between atoms: C2_2  and  N3_14 
REMARK    2  A    between atoms: N1_3  and  C3_5 
REMARK    3  A    between atoms: C3_5  and  C4_6 
REMARK    4  A    between atoms: C4_6  and  C5_7 
REMARK    5  A    between atoms: C5_7  and  N2_8 
REMARK    6  A    between atoms: N3_14  and  C11_16 
REMARK    7  A    between atoms: C11_16  and  C12_17 
REMARK    8  A    between atoms: C12_17  and  C13_18 
REMARK    9  A    between atoms: C14_19  and  C15_20 
REMARK   10  A    between atoms: C15_20  and  C16_21 
REMARK   11  A    between atoms: C17_24  and  C18_25 
REMARK   12  A    between atoms: C18_25  and  O1_26 
REMARK   13  A    between atoms: C19_28  and  O2_29 
REMARK   14  A    between atoms: C20_31  and  O3_32 
REMARK   15  A    between atoms: C21_34  and  O4_35 
ROOT
HETATM    1  C13 UNL     1      13.352  38.327 -10.137  1.00  0.00    -0.029 C 
HETATM    2  C14 UNL     1      14.058  38.571 -11.215  1.00  0.00    -0.028 C 
ENDROOT
BRANCH   1   3
HETATM    3  C12 UNL     1      13.533  38.858  -8.781  1.00  0.00     0.046 C 
BRANCH   3   4
HETATM    4  C11 UNL     1      12.674  38.185  -7.764  1.00  0.00     0.124 C 
BRANCH   4   5
HETATM    5  N3  UNL     1      11.477  38.925  -7.541  1.00  0.00    -0.380 N 
ATOM      6  H3  UNL     1      10.695  38.799  -8.185  1.00  0.00     0.160 HD
BRANCH   5   7
HETATM    7  C2  UNL     1      11.332  39.824  -6.466  1.00  0.00     0.072 C 
HETATM    8  C1  UNL     1      11.575  41.278  -6.810  1.00  0.00     0.088 C 
HETATM    9  N1  UNL     1      11.039  39.597  -5.271  1.00  0.00    -0.360 N 
ATOM     10  H1  UNL     1      11.008  40.442  -4.700  1.00  0.00     0.166 HD
BRANCH   9  11
HETATM   11  C3  UNL     1      10.744  38.431  -4.547  1.00  0.00     0.064 C 
BRANCH  11  12
HETATM   12  C4  UNL     1       9.270  38.356  -4.165  1.00  0.00     0.074 C 
BRANCH  12  13
HETATM   13  C5  UNL     1       9.027  38.402  -2.698  1.00  0.00     0.277 C 
BRANCH  13  14
HETATM   14  N2  UNL     1      10.043  37.851  -1.866  1.00  0.00     0.088 N 
HETATM   15  C6  UNL     1      10.640  38.933  -1.105  1.00  0.00     0.272 C 
HETATM   16  C7  UNL     1       9.731  39.450  -0.026  1.00  0.00     0.030 C 
HETATM   17  C8  UNL     1       9.322  38.311   0.913  1.00  0.00     0.003 C 
HETATM   18  C9  UNL     1       8.609  37.286   0.043  1.00  0.00     0.030 C 
HETATM   19  C10 UNL     1       9.633  36.807  -0.982  1.00  0.00     0.272 C 
ENDBRANCH  13  14
ENDBRANCH  12  13
ENDBRANCH  11  12
ENDBRANCH   9  11
ENDBRANCH   5   7
ENDBRANCH   4   5
ENDBRANCH   3   4
ENDBRANCH   1   3
BRANCH   2  20
HETATM   20  C15 UNL     1      13.725  37.930 -12.539  1.00  0.00     0.054 C 
BRANCH  20  21
HETATM   21  C16 UNL     1      14.593  36.731 -12.806  1.00  0.00     0.111 C 
HETATM   22  N4  UNL     1      15.709  37.002 -13.641  1.00  0.00    -0.406 N 
HETATM   23  C17 UNL     1      15.521  36.876 -15.042  1.00  0.00     0.132 C 
ATOM     24  H4  UNL     1      16.611  37.276 -13.249  1.00  0.00     0.154 HD
HETATM   25  C19 UNL     1      14.142  36.646 -15.527  1.00  0.00     0.173 C 
HETATM   26  C20 UNL     1      13.289  35.784 -14.658  1.00  0.00     0.179 C 
HETATM   27  C21 UNL     1      13.837  35.547 -13.294  1.00  0.00     0.172 C 
BRANCH  23  28
HETATM   28  C18 UNL     1      16.508  35.831 -15.552  1.00  0.00     0.191 C 
BRANCH  28  29
HETATM   29  O1  UNL     1      17.499  35.723 -14.563  1.00  0.00    -0.399 OA
ATOM     30  H1  UNL     1      17.315  34.916 -14.097  1.00  0.00     0.209 HD
ENDBRANCH  28  29
ENDBRANCH  23  28
BRANCH  25  31
HETATM   31  O2  UNL     1      14.239  35.993 -16.777  1.00  0.00    -0.391 OA
ATOM     32  H2  UNL     1      13.907  36.593 -17.435  1.00  0.00     0.210 HD
ENDBRANCH  25  31
BRANCH  26  33
HETATM   33  O3  UNL     1      13.011  34.541 -15.228  1.00  0.00    -0.390 OA
ATOM     34  H3  UNL     1      13.055  34.550 -16.177  1.00  0.00     0.210 HD
ENDBRANCH  26  33
BRANCH  27  35
HETATM   35  O4  UNL     1      12.753  35.265 -12.430  1.00  0.00    -0.391 OA
ATOM     36  H4  UNL     1      11.997  35.790 -12.666  1.00  0.00     0.210 HD
ENDBRANCH  27  35
ENDBRANCH  20  21
ENDBRANCH   2  20
TORSDOF 15
ENDMDL
MODEL 2
REMARK VINA RESULT: -8.103874769      1.192      1.892
REMARK  15 active torsions:
REMARK  status: ('A' for Active; 'I' for Inactive)
REMARK    1  A    between atoms: C2_2  and  N3_14 
REMARK    2  A    between atoms: N1_3  and  C3_5 
REMARK    3  A    between atoms: C3_5  and  C4_6 
REMARK    4  A    between atoms: C4_6  and  C5_7 
REMARK    5  A    between atoms: C5_7  and  N2_8 
REMARK    6  A    between atoms: N3_14  and  C11_16 
REMARK    7  A    between atoms: C11_16  and  C12_17 
REMARK    8  A    between atoms: C12_17  and  C13_18 
REMARK    9  A    between atoms: C14_19  and  C15_20 
REMARK   10  A    between atoms: C15_20  and  C16_21 
REMARK   11  A    between atoms: C17_24  and  C18_25 
REMARK   12  A    between atoms: C18_25  and  O1_26 
REMARK   13  A    between atoms: C19_28  and  O2_29 
REMARK   14  A    between atoms: C20_31  and  O3_32 
REMARK   15  A    between atoms: C21_34  and  O4_35 
ROOT
HETATM    1  C13 UNL     1      13.176  40.320  -9.759  1.00  0.00    -0.029 C 
HETATM    2  C14 UNL     1      14.059  39.579 -10.385  1.00  0.00    -0.028 C 
ENDROOT
BRANCH   1   3
HETATM    3  C12 UNL     1      13.387  41.262  -8.653  1.00  0.00     0.046 C 
BRANCH   3   4
HETATM    4  C11 UNL     1      12.341  41.172  -7.593  1.00  0.00     0.124 C 
BRANCH   4   5
HETATM    5  N3  UNL     1      11.659  39.922  -7.659  1.00  0.00    -0.380 N 
ATOM      6  H3  UNL     1      10.970  39.778  -8.398  1.00  0.00     0.160 HD
BRANCH   5   7
HETATM    7  C2  UNL     1      11.901  38.878  -6.745  1.00  0.00     0.072 C 
HETATM    8  C1  UNL     1      12.975  37.898  -7.162  1.00  0.00     0.088 C 
HETATM    9  N1  UNL     1      11.354  38.640  -5.644  1.00  0.00    -0.360 N 
ATOM     10  H1  UNL     1      11.722  37.805  -5.188  1.00  0.00     0.166 HD
BRANCH   9  11
HETATM   11  C3  UNL     1      10.344  39.274  -4.903  1.00  0.00     0.064 C 
BRANCH  11  12
HETATM   12  C4  UNL     1       9.328  38.277  -4.356  1.00  0.00     0.074 C 
BRANCH  12  13
HETATM   13  C5  UNL     1       9.115  38.384  -2.887  1.00  0.00     0.277 C 
BRANCH  13  14
HETATM   14  N2  UNL     1      10.087  37.758  -2.055  1.00  0.00     0.088 N 
HETATM   15  C6  UNL     1      10.777  38.796  -1.310  1.00  0.00     0.272 C 
HETATM   16  C7  UNL     1       9.922  39.399  -0.232  1.00  0.00     0.030 C 
HETATM   17  C8  UNL     1       9.426  38.310   0.723  1.00  0.00     0.003 C 
HETATM   18  C9  UNL     1       8.623  37.339  -0.131  1.00  0.00     0.030 C 
HETATM   19  C10 UNL     1       9.596  36.764  -1.156  1.00  0.00     0.272 C 
ENDBRANCH  13  14
ENDBRANCH  12  13
ENDBRANCH  11  12
ENDBRANCH   9  11
ENDBRANCH   5   7
ENDBRANCH   4   5
ENDBRANCH   3   4
ENDBRANCH   1   3
BRANCH   2  20
HETATM   20  C15 UNL     1      13.660  38.657 -11.510  1.00  0.00     0.054 C 
BRANCH  20  21
HETATM   21  C16 UNL     1      14.832  37.861 -12.014  1.00  0.00     0.111 C 
HETATM   22  N4  UNL     1      15.016  37.934 -13.420  1.00  0.00    -0.406 N 
HETATM   23  C17 UNL     1      14.333  36.978 -14.217  1.00  0.00     0.132 C 
ATOM     24  H4  UNL     1      15.615  38.644 -13.841  1.00  0.00     0.154 HD
HETATM   25  C19 UNL     1      13.354  36.100 -13.539  1.00  0.00     0.173 C 
HETATM   26  C20 UNL     1      13.716  35.680 -12.154  1.00  0.00     0.179 C 
HETATM   27  C21 UNL     1      14.836  36.449 -11.547  1.00  0.00     0.172 C 
BRANCH  23  28
HETATM   28  C18 UNL     1      15.379  36.197 -15.005  1.00  0.00     0.191 C 
BRANCH  28  29
HETATM   29  O1  UNL     1      14.902  36.138 -16.324  1.00  0.00    -0.399 OA
ATOM     30  H1  UNL     1      15.549  35.644 -16.814  1.00  0.00     0.209 HD
ENDBRANCH  28  29
ENDBRANCH  23  28
BRANCH  25  31
HETATM   31  O2  UNL     1      13.245  34.918 -14.307  1.00  0.00    -0.391 OA
ATOM     32  H2  UNL     1      13.557  34.201 -13.768  1.00  0.00     0.210 HD
ENDBRANCH  25  31
BRANCH  26  33
HETATM   33  O3  UNL     1      14.030  34.323 -12.061  1.00  0.00    -0.390 OA
ATOM     34  H3  UNL     1      13.980  33.991 -11.172  1.00  0.00     0.210 HD
ENDBRANCH  26  33
BRANCH  27  35
HETATM   35  O4  UNL     1      14.693  36.396 -10.141  1.00  0.00    -0.391 OA
ATOM     36  H4  UNL     1      13.787  36.541  -9.895  1.00  0.00     0.210 HD
ENDBRANCH  27  35
ENDBRANCH  20  21
ENDBRANCH   2  20
TORSDOF 15
ENDMDL
MODEL 3
REMARK VINA RESULT: -8.051693074      1.290      1.589
REMARK  15 active torsions:
REMARK  status: ('A' for Active; 'I' for Inactive)
REMARK    1  A    between atoms: C2_2  and  N3_14 
REMARK    2  A    between atoms: N1_3  and  C3_5 
REMARK    3  A    between atoms: C3_5  and  C4_6 
REMARK    4  A    between atoms: C4_6  and  C5_7 
REMARK    5  A    between atoms: C5_7  and  N2_8 
REMARK    6  A    between atoms: N3_14  and  C11_16 
REMARK    7  A    between atoms: C11_16  and  C12_17 
REMARK    8  A    between atoms: C12_17  and  C13_18 
REMARK    9  A    between atoms: C14_19  and  C15_20 
REMARK   10  A    between atoms: C15_20  and  C16_21 
REMARK   11  A    between atoms: C17_24  and  C18_25 
REMARK   12  A    between atoms: C18_25  and  O1_26 
REMARK   13  A    between atoms: C19_28  and  O2_29 
REMARK   14  A    between atoms: C20_31  and  O3_32 
REMARK   15  A    between atoms: C21_34  and  O4_35 
ROOT
HETATM    1  C13 UNL     1      13.272  38.066 -10.200  1.00  0.00    -0.029 C 
HETATM    2  C14 UNL     1      13.607  36.846 -10.545  1.00  0.00    -0.028 C 
ENDROOT
BRANCH   1   3
HETATM    3  C12 UNL     1      13.579  38.787  -8.959  1.00  0.00     0.046 C 
BRANCH   3   4
HETATM    4  C11 UNL     1      12.875  38.235  -7.766  1.00  0.00     0.124 C 
BRANCH   4   5
HETATM    5  N3  UNL     1      11.623  38.887  -7.569  1.00  0.00    -0.380 N 
ATOM      6  H3  UNL     1      10.856  38.680  -8.210  1.00  0.00     0.160 HD
BRANCH   5   7
HETATM    7  C2  UNL     1      11.403  39.806  -6.525  1.00  0.00     0.072 C 
HETATM    8  C1  UNL     1      11.642  41.256  -6.887  1.00  0.00     0.088 C 
HETATM    9  N1  UNL     1      11.049  39.600  -5.342  1.00  0.00    -0.360 N 
ATOM     10  H1  UNL     1      10.972  40.456  -4.793  1.00  0.00     0.166 HD
BRANCH   9  11
HETATM   11  C3  UNL     1      10.732  38.444  -4.610  1.00  0.00     0.064 C 
BRANCH  11  12
HETATM   12  C4  UNL     1       9.261  38.406  -4.213  1.00  0.00     0.074 C 
BRANCH  12  13
HETATM   13  C5  UNL     1       9.036  38.427  -2.742  1.00  0.00     0.277 C 
BRANCH  13  14
HETATM   14  N2  UNL     1      10.084  37.907  -1.930  1.00  0.00     0.088 N 
HETATM   15  C6  UNL     1      10.642  39.003  -1.158  1.00  0.00     0.272 C 
HETATM   16  C7  UNL     1       9.723  39.462  -0.061  1.00  0.00     0.030 C 
HETATM   17  C8  UNL     1       9.374  38.293   0.864  1.00  0.00     0.003 C 
HETATM   18  C9  UNL     1       8.696  37.252  -0.016  1.00  0.00     0.030 C 
HETATM   19  C10 UNL     1       9.729  36.833  -1.059  1.00  0.00     0.272 C 
ENDBRANCH  13  14
ENDBRANCH  12  13
ENDBRANCH  11  12
ENDBRANCH   9  11
ENDBRANCH   5   7
ENDBRANCH   4   5
ENDBRANCH   3   4
ENDBRANCH   1   3
BRANCH   2  20
HETATM   20  C15 UNL     1      13.200  36.261 -11.873  1.00  0.00     0.054 C 
BRANCH  20  21
HETATM   21  C16 UNL     1      14.386  35.728 -12.631  1.00  0.00     0.111 C 
HETATM   22  N4  UNL     1      15.629  36.265 -12.205  1.00  0.00    -0.406 N 
HETATM   23  C17 UNL     1      16.071  37.460 -12.832  1.00  0.00     0.132 C 
ATOM     24  H4  UNL     1      16.183  35.811 -11.479  1.00  0.00     0.154 HD
HETATM   25  C19 UNL     1      15.127  38.140 -13.745  1.00  0.00     0.173 C 
HETATM   26  C20 UNL     1      14.256  37.243 -14.558  1.00  0.00     0.179 C 
HETATM   27  C21 UNL     1      14.240  35.824 -14.107  1.00  0.00     0.172 C 
BRANCH  23  28
HETATM   28  C18 UNL     1      17.420  37.171 -13.484  1.00  0.00     0.191 C 
BRANCH  28  29
HETATM   29  O1  UNL     1      18.253  38.245 -13.135  1.00  0.00    -0.399 OA
ATOM     30  H1  UNL     1      19.133  37.890 -13.095  1.00  0.00     0.209 HD
ENDBRANCH  28  29
ENDBRANCH  23  28
BRANCH  25  31
HETATM   31  O2  UNL     1      15.897  38.897 -14.659  1.00  0.00    -0.391 OA
ATOM     32  H2  UNL     1      15.621  39.803 -14.579  1.00  0.00     0.210 HD
ENDBRANCH  25  31
BRANCH  26  33
HETATM   33  O3  UNL     1      14.577  37.255 -15.916  1.00  0.00    -0.390 OA
ATOM     34  H3  UNL     1      15.035  36.471 -16.196  1.00  0.00     0.210 HD
ENDBRANCH  26  33
BRANCH  27  35
HETATM   35  O4  UNL     1      13.015  35.248 -14.518  1.00  0.00    -0.391 OA
ATOM     36  H4  UNL     1      13.174  34.457 -15.020  1.00  0.00     0.210 HD
ENDBRANCH  27  35
ENDBRANCH  20  21
ENDBRANCH   2  20
TORSDOF 15
ENDMDL
MODEL 4
REMARK VINA RESULT: -7.933703621      1.705      2.909
REMARK  15 active torsions:
REMARK  status: ('A' for Active; 'I' for Inactive)
REMARK    1  A    between atoms: C2_2  and  N3_14 
REMARK    2  A    between atoms: N1_3  and  C3_5 
REMARK    3  A    between atoms: C3_5  and  C4_6 
REMARK    4  A    between atoms: C4_6  and  C5_7 
REMARK    5  A    between atoms: C5_7  and  N2_8 
REMARK    6  A    between atoms: N3_14  and  C11_16 
REMARK    7  A    between atoms: C11_16  and  C12_17 
REMARK    8  A    between atoms: C12_17  and  C13_18 
REMARK    9  A    between atoms: C14_19  and  C15_20 
REMARK   10  A    between atoms: C15_20  and  C16_21 
REMARK   11  A    between atoms: C17_24  and  C18_25 
REMARK   12  A    between atoms: C18_25  and  O1_26 
REMARK   13  A    between atoms: C19_28  and  O2_29 
REMARK   14  A    between atoms: C20_31  and  O3_32 
REMARK   15  A    between atoms: C21_34  and  O4_35 
ROOT
HETATM    1  C13 UNL     1      13.375  41.089 -10.165  1.00  0.00    -0.029 C 
HETATM    2  C14 UNL     1      13.628  39.874 -10.587  1.00  0.00    -0.028 C 
ENDROOT
BRANCH   1   3
HETATM    3  C12 UNL     1      12.225  41.572  -9.391  1.00  0.00     0.046 C 
BRANCH   3   4
HETATM    4  C11 UNL     1      12.269  41.169  -7.955  1.00  0.00     0.124 C 
BRANCH   4   5
HETATM    5  N3  UNL     1      11.447  40.028  -7.724  1.00  0.00    -0.380 N 
ATOM      6  H3  UNL     1      10.553  39.960  -8.211  1.00  0.00     0.160 HD
BRANCH   5   7
HETATM    7  C2  UNL     1      11.822  38.990  -6.848  1.00  0.00     0.072 C 
HETATM    8  C1  UNL     1      12.917  38.082  -7.363  1.00  0.00     0.088 C 
HETATM    9  N1  UNL     1      11.379  38.705  -5.713  1.00  0.00    -0.360 N 
ATOM     10  H1  UNL     1      11.831  37.890  -5.300  1.00  0.00     0.166 HD
BRANCH   9  11
HETATM   11  C3  UNL     1      10.394  39.267  -4.885  1.00  0.00     0.064 C 
BRANCH  11  12
HETATM   12  C4  UNL     1       9.438  38.212  -4.339  1.00  0.00     0.074 C 
BRANCH  12  13
HETATM   13  C5  UNL     1       9.180  38.334  -2.879  1.00  0.00     0.277 C 
BRANCH  13  14
HETATM   14  N2  UNL     1      10.170  37.794  -2.009  1.00  0.00     0.088 N 
HETATM   15  C6  UNL     1      10.765  38.892  -1.268  1.00  0.00     0.272 C 
HETATM   16  C7  UNL     1       9.841  39.452  -0.224  1.00  0.00     0.030 C 
HETATM   17  C8  UNL     1       9.396  38.347   0.739  1.00  0.00     0.003 C 
HETATM   18  C9  UNL     1       8.687  37.307  -0.116  1.00  0.00     0.030 C 
HETATM   19  C10 UNL     1       9.727  36.784  -1.104  1.00  0.00     0.272 C 
ENDBRANCH  13  14
ENDBRANCH  12  13
ENDBRANCH  11  12
ENDBRANCH   9  11
ENDBRANCH   5   7
ENDBRANCH   4   5
ENDBRANCH   3   4
ENDBRANCH   1   3
BRANCH   2  20
HETATM   20  C15 UNL     1      14.872  39.556 -11.379  1.00  0.00     0.054 C 
BRANCH  20  21
HETATM   21  C16 UNL     1      14.552  38.761 -12.615  1.00  0.00     0.111 C 
HETATM   22  N4  UNL     1      13.459  37.868 -12.460  1.00  0.00    -0.406 N 
HETATM   23  C17 UNL     1      13.748  36.561 -11.986  1.00  0.00     0.132 C 
ATOM     24  H4  UNL     1      12.505  38.154 -12.679  1.00  0.00     0.154 HD
HETATM   25  C19 UNL     1      15.129  36.291 -11.530  1.00  0.00     0.173 C 
HETATM   26  C20 UNL     1      16.208  36.977 -12.298  1.00  0.00     0.179 C 
HETATM   27  C21 UNL     1      15.732  38.066 -13.195  1.00  0.00     0.172 C 
BRANCH  23  28
HETATM   28  C18 UNL     1      13.270  35.568 -13.041  1.00  0.00     0.191 C 
BRANCH  28  29
HETATM   29  O1  UNL     1      12.778  34.461 -12.332  1.00  0.00    -0.399 OA
ATOM     30  H1  UNL     1      11.837  34.581 -12.283  1.00  0.00     0.209 HD
ENDBRANCH  28  29
ENDBRANCH  23  28
BRANCH  25  31
HETATM   31  O2  UNL     1      15.353  34.902 -11.665  1.00  0.00    -0.391 OA
ATOM     32  H2  UNL     1      14.770  34.461 -11.058  1.00  0.00     0.210 HD
ENDBRANCH  25  31
BRANCH  26  33
HETATM   33  O3  UNL     1      16.974  36.097 -13.065  1.00  0.00    -0.390 OA
ATOM     34  H3  UNL     1      16.458  35.407 -13.465  1.00  0.00     0.210 HD
ENDBRANCH  26  33
BRANCH  27  35
HETATM   35  O4  UNL     1      16.797  38.977 -13.382  1.00  0.00    -0.391 OA
ATOM     36  H4  UNL     1      17.519  38.553 -13.832  1.00  0.00     0.210 HD
ENDBRANCH  27  35
ENDBRANCH  20  21
ENDBRANCH   2  20
TORSDOF 15
ENDMDL
MODEL 5
REMARK VINA RESULT: -7.606907705      0.848      1.247
REMARK  15 active torsions:
REMARK  status: ('A' for Active; 'I' for Inactive)
REMARK    1  A    between atoms: C2_2  and  N3_14 
REMARK    2  A    between atoms: N1_3  and  C3_5 
REMARK    3  A    between atoms: C3_5  and  C4_6 
REMARK    4  A    between atoms: C4_6  and  C5_7 
REMARK    5  A    between atoms: C5_7  and  N2_8 
REMARK    6  A    between atoms: N3_14  and  C11_16 
REMARK    7  A    between atoms: C11_16  and  C12_17 
REMARK    8  A    between atoms: C12_17  and  C13_18 
REMARK    9  A    between atoms: C14_19  and  C15_20 
REMARK   10  A    between atoms: C15_20  and  C16_21 
REMARK   11  A    between atoms: C17_24  and  C18_25 
REMARK   12  A    between atoms: C18_25  and  O1_26 
REMARK   13  A    between atoms: C19_28  and  O2_29 
REMARK   14  A    between atoms: C20_31  and  O3_32 
REMARK   15  A    between atoms: C21_34  and  O4_35 
ROOT
HETATM    1  C13 UNL     1      13.428  37.728 -10.811  1.00  0.00    -0.029 C 
HETATM    2  C14 UNL     1      13.340  36.820 -11.753  1.00  0.00    -0.028 C 
ENDROOT
BRANCH   1   3
HETATM    3  C12 UNL     1      13.152  37.592  -9.376  1.00  0.00     0.046 C 
BRANCH   3   4
HETATM    4  C11 UNL     1      12.950  38.900  -8.688  1.00  0.00     0.124 C 
BRANCH   4   5
HETATM    5  N3  UNL     1      11.801  38.858  -7.847  1.00  0.00    -0.380 N 
ATOM      6  H3  UNL     1      11.061  38.188  -8.059  1.00  0.00     0.160 HD
BRANCH   5   7
HETATM    7  C2  UNL     1      11.647  39.707  -6.733  1.00  0.00     0.072 C 
HETATM    8  C1  UNL     1      12.034  41.150  -6.969  1.00  0.00     0.088 C 
HETATM    9  N1  UNL     1      11.245  39.441  -5.578  1.00  0.00    -0.360 N 
ATOM     10  H1  UNL     1      11.239  40.253  -4.960  1.00  0.00     0.166 HD
BRANCH   9  11
HETATM   11  C3  UNL     1      10.799  38.267  -4.949  1.00  0.00     0.064 C 
BRANCH  11  12
HETATM   12  C4  UNL     1       9.343  38.372  -4.512  1.00  0.00     0.074 C 
BRANCH  12  13
HETATM   13  C5  UNL     1       9.165  38.483  -3.039  1.00  0.00     0.277 C 
BRANCH  13  14
HETATM   14  N2  UNL     1      10.236  38.004  -2.230  1.00  0.00     0.088 N 
HETATM   15  C6  UNL     1      10.756  39.121  -1.463  1.00  0.00     0.272 C 
HETATM   16  C7  UNL     1       9.826  39.549  -0.363  1.00  0.00     0.030 C 
HETATM   17  C8  UNL     1       9.524  38.369   0.566  1.00  0.00     0.003 C 
HETATM   18  C9  UNL     1       8.881  37.302  -0.308  1.00  0.00     0.030 C 
HETATM   19  C10 UNL     1       9.924  36.920  -1.355  1.00  0.00     0.272 C 
ENDBRANCH  13  14
ENDBRANCH  12  13
ENDBRANCH  11  12
ENDBRANCH   9  11
ENDBRANCH   5   7
ENDBRANCH   4   5
ENDBRANCH   3   4
ENDBRANCH   1   3
BRANCH   2  20
HETATM   20  C15 UNL     1      13.666  37.140 -13.191  1.00  0.00     0.054 C 
BRANCH  20  21
HETATM   21  C16 UNL     1      14.484  36.050 -13.828  1.00  0.00     0.111 C 
HETATM   22  N4  UNL     1      15.868  36.351 -13.927  1.00  0.00    -0.406 N 
HETATM   23  C17 UNL     1      16.305  37.029 -15.095  1.00  0.00     0.132 C 
ATOM     24  H4  UNL     1      16.522  36.090 -13.189  1.00  0.00     0.154 HD
HETATM   25  C19 UNL     1      15.266  37.520 -16.028  1.00  0.00     0.173 C 
HETATM   26  C20 UNL     1      14.065  36.648 -16.171  1.00  0.00     0.179 C 
HETATM   27  C21 UNL     1      13.943  35.587 -15.134  1.00  0.00     0.172 C 
BRANCH  23  28
HETATM   28  C18 UNL     1      17.346  36.150 -15.781  1.00  0.00     0.191 C 
BRANCH  28  29
HETATM   29  O1  UNL     1      17.798  35.253 -14.800  1.00  0.00    -0.399 OA
ATOM     30  H1  UNL     1      17.134  35.255 -14.121  1.00  0.00     0.209 HD
ENDBRANCH  28  29
ENDBRANCH  23  28
BRANCH  25  31
HETATM   31  O2  UNL     1      15.859  37.611 -17.308  1.00  0.00    -0.391 OA
ATOM     32  H2  UNL     1      16.770  37.358 -17.216  1.00  0.00     0.210 HD
ENDBRANCH  25  31
BRANCH  26  33
HETATM   33  O3  UNL     1      13.985  36.032 -17.422  1.00  0.00    -0.390 OA
ATOM     34  H3  UNL     1      13.493  36.542 -18.055  1.00  0.00     0.210 HD
ENDBRANCH  26  33
BRANCH  27  35
HETATM   35  O4  UNL     1      12.575  35.252 -15.008  1.00  0.00    -0.391 OA
ATOM     36  H4  UNL     1      12.056  36.034 -14.855  1.00  0.00     0.210 HD
ENDBRANCH  27  35
ENDBRANCH  20  21
ENDBRANCH   2  20
TORSDOF 15
ENDMDL
