MODEL 1
REMARK VINA RESULT: -8.041717867      0.000      0.000
REMARK  14 active torsions:
REMARK  status: ('A' for Active; 'I' for Inactive)
REMARK    1  A    between atoms: C2_2  and  C3_3 
REMARK    2  A    between atoms: C4_6  and  N2_7 
REMARK    3  A    between atoms: N2_7  and  C5_9 
REMARK    4  A    between atoms: C5_9  and  C6_10 
REMARK    5  A    between atoms: C6_10  and  C7_11 
REMARK    6  A    between atoms: C7_11  and  C8_12 
REMARK    7  A    between atoms: C8_12  and  N3_13 
REMARK    8  A    between atoms: C11_16  and  C12_17 
REMARK    9  A    between atoms: C12_17  and  O1_18 
REMARK   10  A    between atoms: C15_25  and  C16_26 
REMARK   11  A    between atoms: C16_26  and  C17_27 
REMARK   12  A    between atoms: C17_27  and  C18_28 
REMARK   13  A    between atoms: C18_28  and  N5_29 
REMARK       I    between atoms: N5_29  and  C19_31 
REMARK   14  A    between atoms: N7_33  and  O3_35 
ROOT
HETATM    1  C3  UNL     1      14.042  39.816  -9.731  1.00  0.00     0.038 A 
HETATM    2  N1  UNL     1      14.745  38.774 -10.194  1.00  0.00    -0.195 N 
ATOM      3  H1  UNL     1      15.578  38.971 -10.748  1.00  0.00     0.184 HD
HETATM    4  C4  UNL     1      14.421  37.466  -9.975  1.00  0.00     0.681 A 
HETATM    5  N4  UNL     1      13.315  37.277  -9.241  1.00  0.00    -0.156 N 
ATOM      6  H4  UNL     1      13.035  36.315  -9.051  1.00  0.00     0.187 HD
HETATM    7  C14 UNL     1      12.551  38.254  -8.738  1.00  0.00     0.267 A 
HETATM    8  O2  UNL     1      11.533  37.961  -8.063  1.00  0.00    -0.267 OA
HETATM    9  C15 UNL     1      12.920  39.585  -8.989  1.00  0.00     0.034 A 
ENDROOT
BRANCH   4  10
HETATM   10  N2  UNL     1      15.143  36.533 -10.456  1.00  0.00    -0.226 N 
ATOM     11  H2  UNL     1      15.834  36.113  -9.837  1.00  0.00     0.177 HD
BRANCH  10  12
HETATM   12  C5  UNL     1      15.066  36.029 -11.780  1.00  0.00     0.138 C 
BRANCH  12  13
HETATM   13  C6  UNL     1      13.620  35.758 -12.153  1.00  0.00     0.022 C 
BRANCH  13  14
HETATM   14  C7  UNL     1      13.382  36.117 -13.594  1.00  0.00     0.032 C 
BRANCH  14  15
HETATM   15  C8  UNL     1      14.685  36.158 -14.322  1.00  0.00     0.272 C 
BRANCH  15  16
HETATM   16  N3  UNL     1      14.938  37.399 -15.027  1.00  0.00     0.088 N 
HETATM   17  C9  UNL     1      14.261  38.490 -14.402  1.00  0.00     0.273 C 
HETATM   18  C10 UNL     1      15.275  39.276 -13.640  1.00  0.00     0.038 C 
HETATM   19  C11 UNL     1      16.585  38.950 -14.290  1.00  0.00     0.039 C 
HETATM   20  C13 UNL     1      16.324  37.725 -15.152  1.00  0.00     0.279 C 
BRANCH  19  21
HETATM   21  C12 UNL     1      17.642  38.599 -13.236  1.00  0.00     0.170 C 
BRANCH  21  22
HETATM   22  O1  UNL     1      17.063  38.833 -11.991  1.00  0.00    -0.400 OA
ATOM     23  H1  UNL     1      17.776  38.918 -11.368  1.00  0.00     0.209 HD
ENDBRANCH  21  22
ENDBRANCH  19  21
ENDBRANCH  15  16
ENDBRANCH  14  15
ENDBRANCH  13  14
ENDBRANCH  12  13
ENDBRANCH  10  12
ENDBRANCH   4  10
BRANCH   1  24
HETATM   24  C2  UNL     1      14.537  41.178  -9.999  1.00  0.00     0.054 C 
HETATM   25  C1  UNL     1      15.986  41.427  -9.868  1.00  0.00     0.011 C 
ENDBRANCH   1  24
BRANCH   9  26
HETATM   26  C16 UNL     1      11.995  40.585  -8.443  1.00  0.00     0.048 C 
BRANCH  26  27
HETATM   27  C17 UNL     1      12.283  40.868  -7.015  1.00  0.00     0.025 C 
BRANCH  27  28
HETATM   28  C18 UNL     1      11.117  40.521  -6.100  1.00  0.00     0.122 C 
BRANCH  28  29
HETATM   29  N5  UNL     1      11.554  39.425  -5.258  1.00  0.00    -0.363 N 
HETATM   30  C19 UNL     1      10.570  38.664  -4.592  1.00  0.00     0.208 C 
HETATM   31  N6  UNL     1       9.516  38.097  -5.335  1.00  0.00    -0.062 NA
HETATM   32  N7  UNL     1      10.631  38.490  -3.333  1.00  0.00    -0.241 N 
ATOM     33  H7  UNL     1       9.913  37.938  -2.864  1.00  0.00     0.197 HD
ATOM     34  H5  UNL     1      12.545  39.210  -5.149  1.00  0.00     0.162 HD
BRANCH  32  35
HETATM   35  O3  UNL     1      11.645  39.034  -2.609  1.00  0.00    -0.287 OA
ATOM     36  H3  UNL     1      11.930  38.630  -1.798  1.00  0.00     0.244 HD
ENDBRANCH  32  35
ENDBRANCH  28  29
ENDBRANCH  27  28
ENDBRANCH  26  27
ENDBRANCH   9  26
TORSDOF 14
ENDMDL
MODEL 2
REMARK VINA RESULT: -7.872849379      2.065      2.691
REMARK  14 active torsions:
REMARK  status: ('A' for Active; 'I' for Inactive)
REMARK    1  A    between atoms: C2_2  and  C3_3 
REMARK    2  A    between atoms: C4_6  and  N2_7 
REMARK    3  A    between atoms: N2_7  and  C5_9 
REMARK    4  A    between atoms: C5_9  and  C6_10 
REMARK    5  A    between atoms: C6_10  and  C7_11 
REMARK    6  A    between atoms: C7_11  and  C8_12 
REMARK    7  A    between atoms: C8_12  and  N3_13 
REMARK    8  A    between atoms: C11_16  and  C12_17 
REMARK    9  A    between atoms: C12_17  and  O1_18 
REMARK   10  A    between atoms: C15_25  and  C16_26 
REMARK   11  A    between atoms: C16_26  and  C17_27 
REMARK   12  A    between atoms: C17_27  and  C18_28 
REMARK   13  A    between atoms: C18_28  and  N5_29 
REMARK       I    between atoms: N5_29  and  C19_31 
REMARK   14  A    between atoms: N7_33  and  O3_35 
ROOT
HETATM    1  C3  UNL     1      13.927  39.881  -9.872  1.00  0.00     0.038 A 
HETATM    2  N1  UNL     1      14.620  38.856 -10.386  1.00  0.00    -0.195 N 
ATOM      3  H1  UNL     1      15.407  39.073 -10.997  1.00  0.00     0.184 HD
HETATM    4  C4  UNL     1      14.344  37.541 -10.145  1.00  0.00     0.681 A 
HETATM    5  N4  UNL     1      13.299  37.325  -9.334  1.00  0.00    -0.156 N 
ATOM      6  H4  UNL     1      13.056  36.357  -9.126  1.00  0.00     0.187 HD
HETATM    7  C14 UNL     1      12.549  38.283  -8.777  1.00  0.00     0.267 A 
HETATM    8  O2  UNL     1      11.589  37.967  -8.032  1.00  0.00    -0.267 OA
HETATM    9  C15 UNL     1      12.866  39.623  -9.053  1.00  0.00     0.034 A 
ENDROOT
BRANCH   4  10
HETATM   10  N2  UNL     1      15.053  36.625 -10.678  1.00  0.00    -0.226 N 
ATOM     11  H2  UNL     1      15.710  36.134 -10.073  1.00  0.00     0.177 HD
BRANCH  10  12
HETATM   12  C5  UNL     1      15.005  36.232 -12.039  1.00  0.00     0.138 C 
BRANCH  12  13
HETATM   13  C6  UNL     1      13.642  35.652 -12.369  1.00  0.00     0.022 C 
BRANCH  13  14
HETATM   14  C7  UNL     1      13.346  35.826 -13.834  1.00  0.00     0.032 C 
BRANCH  14  15
HETATM   15  C8  UNL     1      14.621  36.043 -14.579  1.00  0.00     0.272 C 
BRANCH  15  16
HETATM   16  N3  UNL     1      14.447  36.487 -15.947  1.00  0.00     0.088 N 
HETATM   17  C9  UNL     1      15.708  36.739 -16.569  1.00  0.00     0.273 C 
HETATM   18  C10 UNL     1      15.998  35.597 -17.485  1.00  0.00     0.038 C 
HETATM   19  C11 UNL     1      14.659  34.998 -17.790  1.00  0.00     0.039 C 
HETATM   20  C13 UNL     1      13.702  35.582 -16.764  1.00  0.00     0.279 C 
BRANCH  19  21
HETATM   21  C12 UNL     1      14.696  33.474 -17.625  1.00  0.00     0.170 C 
BRANCH  21  22
HETATM   22  O1  UNL     1      13.588  33.125 -16.857  1.00  0.00    -0.400 OA
ATOM     23  H1  UNL     1      13.878  32.461 -16.242  1.00  0.00     0.209 HD
ENDBRANCH  21  22
ENDBRANCH  19  21
ENDBRANCH  15  16
ENDBRANCH  14  15
ENDBRANCH  13  14
ENDBRANCH  12  13
ENDBRANCH  10  12
ENDBRANCH   4  10
BRANCH   1  24
HETATM   24  C2  UNL     1      14.368  41.254 -10.174  1.00  0.00     0.054 C 
HETATM   25  C1  UNL     1      15.552  41.774  -9.463  1.00  0.00     0.011 C 
ENDBRANCH   1  24
BRANCH   9  26
HETATM   26  C16 UNL     1      11.959  40.601  -8.441  1.00  0.00     0.048 C 
BRANCH  26  27
HETATM   27  C17 UNL     1      12.283  40.822  -7.009  1.00  0.00     0.025 C 
BRANCH  27  28
HETATM   28  C18 UNL     1      11.120  40.489  -6.085  1.00  0.00     0.122 C 
BRANCH  28  29
HETATM   29  N5  UNL     1      11.558  39.402  -5.231  1.00  0.00    -0.363 N 
HETATM   30  C19 UNL     1      10.575  38.642  -4.564  1.00  0.00     0.208 C 
HETATM   31  N6  UNL     1       9.528  38.063  -5.307  1.00  0.00    -0.062 NA
HETATM   32  N7  UNL     1      10.630  38.480  -3.303  1.00  0.00    -0.241 N 
ATOM     33  H7  UNL     1       9.912  37.929  -2.833  1.00  0.00     0.197 HD
ATOM     34  H5  UNL     1      12.550  39.193  -5.116  1.00  0.00     0.162 HD
BRANCH  32  35
HETATM   35  O3  UNL     1      11.637  39.036  -2.579  1.00  0.00    -0.287 OA
ATOM     36  H3  UNL     1      11.744  38.824  -1.659  1.00  0.00     0.244 HD
ENDBRANCH  32  35
ENDBRANCH  28  29
ENDBRANCH  27  28
ENDBRANCH  26  27
ENDBRANCH   9  26
TORSDOF 14
ENDMDL
MODEL 3
REMARK VINA RESULT: -7.650935145      2.000      2.477
REMARK  14 active torsions:
REMARK  status: ('A' for Active; 'I' for Inactive)
REMARK    1  A    between atoms: C2_2  and  C3_3 
REMARK    2  A    between atoms: C4_6  and  N2_7 
REMARK    3  A    between atoms: N2_7  and  C5_9 
REMARK    4  A    between atoms: C5_9  and  C6_10 
REMARK    5  A    between atoms: C6_10  and  C7_11 
REMARK    6  A    between atoms: C7_11  and  C8_12 
REMARK    7  A    between atoms: C8_12  and  N3_13 
REMARK    8  A    between atoms: C11_16  and  C12_17 
REMARK    9  A    between atoms: C12_17  and  O1_18 
REMARK   10  A    between atoms: C15_25  and  C16_26 
REMARK   11  A    between atoms: C16_26  and  C17_27 
REMARK   12  A    between atoms: C17_27  and  C18_28 
REMARK   13  A    between atoms: C18_28  and  N5_29 
REMARK       I    between atoms: N5_29  and  C19_31 
REMARK   14  A    between atoms: N7_33  and  O3_35 
ROOT
HETATM    1  C3  UNL     1      13.996  39.801  -9.750  1.00  0.00     0.038 A 
HETATM    2  N1  UNL     1      14.692  38.755 -10.215  1.00  0.00    -0.195 N 
ATOM      3  H1  UNL     1      15.514  38.947 -10.787  1.00  0.00     0.184 HD
HETATM    4  C4  UNL     1      14.376  37.449  -9.974  1.00  0.00     0.681 A 
HETATM    5  N4  UNL     1      13.285  37.266  -9.216  1.00  0.00    -0.156 N 
ATOM      6  H4  UNL     1      13.011  36.306  -9.010  1.00  0.00     0.187 HD
HETATM    7  C14 UNL     1      12.529  38.247  -8.710  1.00  0.00     0.267 A 
HETATM    8  O2  UNL     1      11.524  37.960  -8.012  1.00  0.00    -0.267 OA
HETATM    9  C15 UNL     1      12.889  39.576  -8.984  1.00  0.00     0.034 A 
ENDROOT
BRANCH   4  10
HETATM   10  N2  UNL     1      15.091  36.512 -10.458  1.00  0.00    -0.226 N 
ATOM     11  H2  UNL     1      15.563  35.897  -9.796  1.00  0.00     0.177 HD
BRANCH  10  12
HETATM   12  C5  UNL     1      15.287  36.252 -11.838  1.00  0.00     0.138 C 
BRANCH  12  13
HETATM   13  C6  UNL     1      14.005  35.727 -12.458  1.00  0.00     0.022 C 
BRANCH  13  14
HETATM   14  C7  UNL     1      13.639  36.549 -13.664  1.00  0.00     0.032 C 
BRANCH  14  15
HETATM   15  C8  UNL     1      13.354  35.646 -14.818  1.00  0.00     0.272 C 
BRANCH  15  16
HETATM   16  N3  UNL     1      14.416  35.578 -15.801  1.00  0.00     0.088 N 
HETATM   17  C9  UNL     1      13.976  34.908 -16.984  1.00  0.00     0.273 C 
HETATM   18  C10 UNL     1      13.730  35.945 -18.028  1.00  0.00     0.038 C 
HETATM   19  C11 UNL     1      14.558  37.120 -17.607  1.00  0.00     0.039 C 
HETATM   20  C13 UNL     1      14.956  36.850 -16.165  1.00  0.00     0.279 C 
BRANCH  19  21
HETATM   21  C12 UNL     1      13.733  38.412 -17.661  1.00  0.00     0.170 C 
BRANCH  21  22
HETATM   22  O1  UNL     1      12.579  38.124 -18.385  1.00  0.00    -0.400 OA
ATOM     23  H1  UNL     1      12.070  38.925 -18.422  1.00  0.00     0.209 HD
ENDBRANCH  21  22
ENDBRANCH  19  21
ENDBRANCH  15  16
ENDBRANCH  14  15
ENDBRANCH  13  14
ENDBRANCH  12  13
ENDBRANCH  10  12
ENDBRANCH   4  10
BRANCH   1  24
HETATM   24  C2  UNL     1      14.482  41.161 -10.044  1.00  0.00     0.054 C 
HETATM   25  C1  UNL     1      15.897  41.468  -9.758  1.00  0.00     0.011 C 
ENDBRANCH   1  24
BRANCH   9  26
HETATM   26  C16 UNL     1      11.973  40.581  -8.432  1.00  0.00     0.048 C 
BRANCH  26  27
HETATM   27  C17 UNL     1      12.263  40.854  -7.002  1.00  0.00     0.025 C 
BRANCH  27  28
HETATM   28  C18 UNL     1      11.096  40.506  -6.089  1.00  0.00     0.122 C 
BRANCH  28  29
HETATM   29  N5  UNL     1      11.540  39.423  -5.232  1.00  0.00    -0.363 N 
HETATM   30  C19 UNL     1      10.560  38.665  -4.557  1.00  0.00     0.208 C 
HETATM   31  N6  UNL     1       9.511  38.082  -5.293  1.00  0.00    -0.062 NA
HETATM   32  N7  UNL     1      10.622  38.507  -3.296  1.00  0.00    -0.241 N 
ATOM     33  H7  UNL     1       9.907  37.957  -2.820  1.00  0.00     0.197 HD
ATOM     34  H5  UNL     1      12.532  39.216  -5.121  1.00  0.00     0.162 HD
BRANCH  32  35
HETATM   35  O3  UNL     1      11.632  39.067  -2.579  1.00  0.00    -0.287 OA
ATOM     36  H3  UNL     1      12.519  38.736  -2.656  1.00  0.00     0.244 HD
ENDBRANCH  32  35
ENDBRANCH  28  29
ENDBRANCH  27  28
ENDBRANCH  26  27
ENDBRANCH   9  26
TORSDOF 14
ENDMDL
MODEL 4
REMARK VINA RESULT: -7.601355612      1.161      1.529
REMARK  14 active torsions:
REMARK  status: ('A' for Active; 'I' for Inactive)
REMARK    1  A    between atoms: C2_2  and  C3_3 
REMARK    2  A    between atoms: C4_6  and  N2_7 
REMARK    3  A    between atoms: N2_7  and  C5_9 
REMARK    4  A    between atoms: C5_9  and  C6_10 
REMARK    5  A    between atoms: C6_10  and  C7_11 
REMARK    6  A    between atoms: C7_11  and  C8_12 
REMARK    7  A    between atoms: C8_12  and  N3_13 
REMARK    8  A    between atoms: C11_16  and  C12_17 
REMARK    9  A    between atoms: C12_17  and  O1_18 
REMARK   10  A    between atoms: C15_25  and  C16_26 
REMARK   11  A    between atoms: C16_26  and  C17_27 
REMARK   12  A    between atoms: C17_27  and  C18_28 
REMARK   13  A    between atoms: C18_28  and  N5_29 
REMARK       I    between atoms: N5_29  and  C19_31 
REMARK   14  A    between atoms: N7_33  and  O3_35 
ROOT
HETATM    1  C3  UNL     1      13.557  40.395  -9.178  1.00  0.00     0.038 A 
HETATM    2  N1  UNL     1      13.736  39.679 -10.297  1.00  0.00    -0.195 N 
ATOM      3  H1  UNL     1      14.220  40.127 -11.076  1.00  0.00     0.184 HD
HETATM    4  C4  UNL     1      13.316  38.392 -10.465  1.00  0.00     0.681 A 
HETATM    5  N4  UNL     1      12.687  37.864  -9.405  1.00  0.00    -0.156 N 
ATOM      6  H4  UNL     1      12.356  36.902  -9.485  1.00  0.00     0.187 HD
HETATM    7  C14 UNL     1      12.462  38.501  -8.250  1.00  0.00     0.267 A 
HETATM    8  O2  UNL     1      11.861  37.908  -7.320  1.00  0.00    -0.267 OA
HETATM    9  C15 UNL     1      12.910  39.825  -8.121  1.00  0.00     0.034 A 
ENDROOT
BRANCH   4  10
HETATM   10  N2  UNL     1      13.524  37.783 -11.565  1.00  0.00    -0.226 N 
ATOM     11  H2  UNL     1      13.910  38.330 -12.334  1.00  0.00     0.177 HD
BRANCH  10  12
HETATM   12  C5  UNL     1      13.264  36.411 -11.811  1.00  0.00     0.138 C 
BRANCH  12  13
HETATM   13  C6  UNL     1      13.394  36.112 -13.293  1.00  0.00     0.022 C 
BRANCH  13  14
HETATM   14  C7  UNL     1      14.290  37.127 -13.949  1.00  0.00     0.032 C 
BRANCH  14  15
HETATM   15  C8  UNL     1      15.276  36.431 -14.827  1.00  0.00     0.272 C 
BRANCH  15  16
HETATM   16  N3  UNL     1      16.607  36.320 -14.264  1.00  0.00     0.088 N 
HETATM   17  C9  UNL     1      17.594  36.782 -15.187  1.00  0.00     0.273 C 
HETATM   18  C10 UNL     1      18.038  38.133 -14.737  1.00  0.00     0.038 C 
HETATM   19  C11 UNL     1      17.713  38.180 -13.276  1.00  0.00     0.039 C 
HETATM   20  C13 UNL     1      16.774  37.011 -13.025  1.00  0.00     0.279 C 
BRANCH  19  21
HETATM   21  C12 UNL     1      16.987  39.484 -12.923  1.00  0.00     0.170 C 
BRANCH  21  22
HETATM   22  O1  UNL     1      16.377  39.285 -11.687  1.00  0.00    -0.400 OA
ATOM     23  H1  UNL     1      15.698  38.634 -11.818  1.00  0.00     0.209 HD
ENDBRANCH  21  22
ENDBRANCH  19  21
ENDBRANCH  15  16
ENDBRANCH  14  15
ENDBRANCH  13  14
ENDBRANCH  12  13
ENDBRANCH  10  12
ENDBRANCH   4  10
BRANCH   1  24
HETATM   24  C2  UNL     1      14.111  41.759  -9.116  1.00  0.00     0.054 C 
HETATM   25  C1  UNL     1      15.537  41.944  -9.445  1.00  0.00     0.011 C 
ENDBRANCH   1  24
BRANCH   9  26
HETATM   26  C16 UNL     1      12.573  40.458  -6.840  1.00  0.00     0.048 C 
BRANCH  26  27
HETATM   27  C17 UNL     1      11.207  41.036  -6.862  1.00  0.00     0.025 C 
BRANCH  27  28
HETATM   28  C18 UNL     1      10.390  40.661  -5.634  1.00  0.00     0.122 C 
BRANCH  28  29
HETATM   29  N5  UNL     1      11.119  39.612  -4.948  1.00  0.00    -0.363 N 
HETATM   30  C19 UNL     1      10.379  38.646  -4.233  1.00  0.00     0.208 C 
HETATM   31  N6  UNL     1       9.347  37.944  -4.886  1.00  0.00    -0.062 NA
HETATM   32  N7  UNL     1      10.639  38.408  -3.011  1.00  0.00    -0.241 N 
ATOM     33  H7  UNL     1      10.097  37.708  -2.505  1.00  0.00     0.197 HD
ATOM     34  H5  UNL     1      12.137  39.573  -4.980  1.00  0.00     0.162 HD
BRANCH  32  35
HETATM   35  O3  UNL     1      11.633  39.081  -2.373  1.00  0.00    -0.287 OA
ATOM     36  H3  UNL     1      12.299  38.611  -1.886  1.00  0.00     0.244 HD
ENDBRANCH  32  35
ENDBRANCH  28  29
ENDBRANCH  27  28
ENDBRANCH  26  27
ENDBRANCH   9  26
TORSDOF 14
ENDMDL
MODEL 5
REMARK VINA RESULT: -7.486763949      1.883      3.362
REMARK  14 active torsions:
REMARK  status: ('A' for Active; 'I' for Inactive)
REMARK    1  A    between atoms: C2_2  and  C3_3 
REMARK    2  A    between atoms: C4_6  and  N2_7 
REMARK    3  A    between atoms: N2_7  and  C5_9 
REMARK    4  A    between atoms: C5_9  and  C6_10 
REMARK    5  A    between atoms: C6_10  and  C7_11 
REMARK    6  A    between atoms: C7_11  and  C8_12 
REMARK    7  A    between atoms: C8_12  and  N3_13 
REMARK    8  A    between atoms: C11_16  and  C12_17 
REMARK    9  A    between atoms: C12_17  and  O1_18 
REMARK   10  A    between atoms: C15_25  and  C16_26 
REMARK   11  A    between atoms: C16_26  and  C17_27 
REMARK   12  A    between atoms: C17_27  and  C18_28 
REMARK   13  A    between atoms: C18_28  and  N5_29 
REMARK       I    between atoms: N5_29  and  C19_31 
REMARK   14  A    between atoms: N7_33  and  O3_35 
ROOT
HETATM    1  C3  UNL     1      12.950  40.466  -8.906  1.00  0.00     0.038 A 
HETATM    2  N1  UNL     1      13.947  41.079  -9.559  1.00  0.00    -0.195 N 
ATOM      3  H1  UNL     1      13.849  42.076  -9.749  1.00  0.00     0.184 HD
HETATM    4  C4  UNL     1      15.086  40.459  -9.986  1.00  0.00     0.681 A 
HETATM    5  N4  UNL     1      15.152  39.150  -9.704  1.00  0.00    -0.156 N 
ATOM      6  H4  UNL     1      15.986  38.646 -10.004  1.00  0.00     0.187 HD
HETATM    7  C14 UNL     1      14.208  38.455  -9.059  1.00  0.00     0.267 A 
HETATM    8  O2  UNL     1      14.374  37.227  -8.849  1.00  0.00    -0.267 OA
HETATM    9  C15 UNL     1      13.052  39.132  -8.639  1.00  0.00     0.034 A 
ENDROOT
BRANCH   4  10
HETATM   10  N2  UNL     1      15.985  41.116 -10.605  1.00  0.00    -0.226 N 
ATOM     11  H2  UNL     1      16.703  41.569 -10.040  1.00  0.00     0.177 HD
BRANCH  10  12
HETATM   12  C5  UNL     1      16.072  41.272 -12.012  1.00  0.00     0.138 C 
BRANCH  12  13
HETATM   13  C6  UNL     1      17.225  40.450 -12.558  1.00  0.00     0.022 C 
BRANCH  13  14
HETATM   14  C7  UNL     1      16.740  39.546 -13.658  1.00  0.00     0.032 C 
BRANCH  14  15
HETATM   15  C8  UNL     1      15.997  38.393 -13.068  1.00  0.00     0.272 C 
BRANCH  15  16
HETATM   16  N3  UNL     1      14.644  38.236 -13.563  1.00  0.00     0.088 N 
HETATM   17  C9  UNL     1      14.626  37.468 -14.768  1.00  0.00     0.273 C 
HETATM   18  C10 UNL     1      14.146  36.097 -14.423  1.00  0.00     0.038 C 
HETATM   19  C11 UNL     1      13.375  36.267 -13.151  1.00  0.00     0.039 C 
HETATM   20  C13 UNL     1      13.745  37.644 -12.624  1.00  0.00     0.279 C 
BRANCH  19  21
HETATM   21  C12 UNL     1      13.792  35.213 -12.119  1.00  0.00     0.170 C 
BRANCH  21  22
HETATM   22  O1  UNL     1      13.047  34.067 -12.387  1.00  0.00    -0.400 OA
ATOM     23  H1  UNL     1      12.163  34.236 -12.081  1.00  0.00     0.209 HD
ENDBRANCH  21  22
ENDBRANCH  19  21
ENDBRANCH  15  16
ENDBRANCH  14  15
ENDBRANCH  13  14
ENDBRANCH  12  13
ENDBRANCH  10  12
ENDBRANCH   4  10
BRANCH   1  24
HETATM   24  C2  UNL     1      11.801  41.271  -8.455  1.00  0.00     0.054 C 
HETATM   25  C1  UNL     1      11.223  42.245  -9.401  1.00  0.00     0.011 C 
ENDBRANCH   1  24
BRANCH   9  26
HETATM   26  C16 UNL     1      12.051  38.278  -7.987  1.00  0.00     0.048 C 
BRANCH  26  27
HETATM   27  C17 UNL     1      12.255  38.226  -6.518  1.00  0.00     0.025 C 
BRANCH  27  28
HETATM   28  C18 UNL     1      11.011  38.623  -5.737  1.00  0.00     0.122 C 
BRANCH  28  29
HETATM   29  N5  UNL     1      11.210  38.177  -4.372  1.00  0.00    -0.363 N 
HETATM   30  C19 UNL     1      10.163  38.377  -3.447  1.00  0.00     0.208 C 
HETATM   31  N6  UNL     1       8.873  37.904  -3.753  1.00  0.00    -0.062 NA
HETATM   32  N7  UNL     1      10.380  38.978  -2.347  1.00  0.00    -0.241 N 
ATOM     33  H7  UNL     1       9.614  39.116  -1.687  1.00  0.00     0.197 HD
ATOM     34  H5  UNL     1      12.083  37.733  -4.087  1.00  0.00     0.162 HD
BRANCH  32  35
HETATM   35  O3  UNL     1      11.623  39.438  -2.044  1.00  0.00    -0.287 OA
ATOM     36  H3  UNL     1      11.808  39.798  -1.185  1.00  0.00     0.244 HD
ENDBRANCH  32  35
ENDBRANCH  28  29
ENDBRANCH  27  28
ENDBRANCH  26  27
ENDBRANCH   9  26
TORSDOF 14
ENDMDL
