MODEL 1
REMARK VINA RESULT: -8.237881595      0.000      0.000
REMARK  11 active torsions:
REMARK  status: ('A' for Active; 'I' for Inactive)
REMARK    1  A    between atoms: N1_1  and  C1_4 
REMARK    2  A    between atoms: C4_13  and  C5_14 
REMARK       I    between atoms: C5_14  and  N5_16 
REMARK    3  A    between atoms: N5_16  and  C6_18 
REMARK    4  A    between atoms: C6_18  and  C7_19 
REMARK    5  A    between atoms: C6_18  and  C11_27 
REMARK    6  A    between atoms: C7_19  and  C8_20 
REMARK    7  A    between atoms: C8_20  and  C9_21 
REMARK    8  A    between atoms: C9_21  and  N6_22 
REMARK    9  A    between atoms: C11_27  and  C12_28 
REMARK   10  A    between atoms: C12_28  and  C13_29 
REMARK   11  A    between atoms: C13_29  and  N9_30 
ROOT
HETATM    1  C5  UNL     1      10.560  38.924  -5.139  1.00  0.00     0.286 C 
HETATM    2  O1  UNL     1       9.987  38.164  -5.953  1.00  0.00    -0.264 OA
HETATM    3  N5  UNL     1      11.477  39.926  -5.577  1.00  0.00    -0.350 N 
ATOM      4  H5  UNL     1      11.933  40.533  -4.897  1.00  0.00     0.163 HD
ENDROOT
BRANCH   1   5
HETATM    5  C4  UNL     1      10.266  38.756  -3.724  1.00  0.00     0.176 A 
HETATM    6  N4  UNL     1      10.283  39.682  -2.746  1.00  0.00    -0.322 N 
HETATM    7  C3  UNL     1       9.952  39.126  -1.573  1.00  0.00     0.139 A 
ATOM      8  H4  UNL     1      10.515  40.667  -2.879  1.00  0.00     0.169 HD
HETATM    9  N3  UNL     1       9.808  39.536  -0.304  1.00  0.00    -0.337 N 
HETATM   10  C17 UNL     1       9.710  37.773  -1.806  1.00  0.00     0.122 A 
HETATM   11  C2  UNL     1       9.455  38.740   0.715  1.00  0.00     0.183 A 
ATOM     12  H3  UNL     1       9.978  40.521  -0.101  1.00  0.00     0.168 HD
HETATM   13  N2  UNL     1       9.216  37.415   0.494  1.00  0.00    -0.337 N 
HETATM   14  C1  UNL     1       9.346  36.947  -0.758  1.00  0.00     0.131 A 
ATOM     15  H2  UNL     1       8.946  36.798   1.259  1.00  0.00     0.168 HD
HETATM   16  N10 UNL     1       9.915  37.610  -3.120  1.00  0.00    -0.332 N 
ATOM     17  H10 UNL     1       9.816  36.718  -3.605  1.00  0.00     0.168 HD
BRANCH  14  18
HETATM   18  N1  UNL     1       9.122  35.700  -0.969  1.00  0.00    -0.383 N 
ATOM     19  H12 UNL     1       9.106  35.045  -0.188  1.00  0.00     0.157 HD
ATOM     20  H11 UNL     1       8.964  35.392  -1.928  1.00  0.00     0.157 HD
ENDBRANCH  14  18
ENDBRANCH   1   5
BRANCH   3  21
HETATM   21  C6  UNL     1      11.756  40.077  -6.992  1.00  0.00     0.085 C 
BRANCH  21  22
HETATM   22  C7  UNL     1      12.034  41.531  -7.263  1.00  0.00     0.027 C 
BRANCH  22  23
HETATM   23  C8  UNL     1      13.387  41.968  -6.777  1.00  0.00     0.022 C 
BRANCH  23  24
HETATM   24  C9  UNL     1      14.089  42.674  -7.919  1.00  0.00     0.122 C 
BRANCH  24  25
HETATM   25  N6  UNL     1      14.970  43.659  -7.353  1.00  0.00    -0.367 N 
HETATM   26  C10 UNL     1      16.111  43.993  -7.882  1.00  0.00     0.196 C 
HETATM   27  N7  UNL     1      16.532  43.365  -9.083  1.00  0.00    -0.067 NA
HETATM   28  N8  UNL     1      16.888  44.977  -7.228  1.00  0.00    -0.067 NA
ATOM     29  H6  UNL     1      14.685  44.121  -6.489  1.00  0.00     0.161 HD
ENDBRANCH  24  25
ENDBRANCH  23  24
ENDBRANCH  22  23
ENDBRANCH  21  22
BRANCH  21  30
HETATM   30  C11 UNL     1      12.882  39.182  -7.422  1.00  0.00     0.027 C 
BRANCH  30  31
HETATM   31  C12 UNL     1      12.960  39.047  -8.928  1.00  0.00     0.032 C 
BRANCH  31  32
HETATM   32  C13 UNL     1      13.977  37.982  -9.221  1.00  0.00     0.272 C 
BRANCH  32  33
HETATM   33  N9  UNL     1      13.648  37.063 -10.222  1.00  0.00     0.088 N 
HETATM   34  C14 UNL     1      14.707  36.268 -10.811  1.00  0.00     0.274 C 
HETATM   35  C15 UNL     1      13.779  36.120 -12.026  1.00  0.00     0.060 C 
HETATM   36  C16 UNL     1      13.292  37.492 -11.526  1.00  0.00     0.274 C 
ENDBRANCH  32  33
ENDBRANCH  31  32
ENDBRANCH  30  31
ENDBRANCH  21  30
ENDBRANCH   3  21
TORSDOF 11
ENDMDL
MODEL 2
REMARK VINA RESULT: -8.202350854      1.651      2.097
REMARK  11 active torsions:
REMARK  status: ('A' for Active; 'I' for Inactive)
REMARK    1  A    between atoms: N1_1  and  C1_4 
REMARK    2  A    between atoms: C4_13  and  C5_14 
REMARK       I    between atoms: C5_14  and  N5_16 
REMARK    3  A    between atoms: N5_16  and  C6_18 
REMARK    4  A    between atoms: C6_18  and  C7_19 
REMARK    5  A    between atoms: C6_18  and  C11_27 
REMARK    6  A    between atoms: C7_19  and  C8_20 
REMARK    7  A    between atoms: C8_20  and  C9_21 
REMARK    8  A    between atoms: C9_21  and  N6_22 
REMARK    9  A    between atoms: C11_27  and  C12_28 
REMARK   10  A    between atoms: C12_28  and  C13_29 
REMARK   11  A    between atoms: C13_29  and  N9_30 
ROOT
HETATM    1  C5  UNL     1      10.587  38.694  -5.152  1.00  0.00     0.286 C 
HETATM    2  O1  UNL     1       9.791  38.172  -5.966  1.00  0.00    -0.264 OA
HETATM    3  N5  UNL     1      11.763  39.371  -5.593  1.00  0.00    -0.350 N 
ATOM      4  H5  UNL     1      12.398  39.788  -4.913  1.00  0.00     0.163 HD
ENDROOT
BRANCH   1   5
HETATM    5  C4  UNL     1      10.279  38.590  -3.733  1.00  0.00     0.176 A 
HETATM    6  N4  UNL     1      10.296  39.558  -2.796  1.00  0.00    -0.322 N 
HETATM    7  C3  UNL     1       9.950  39.056  -1.603  1.00  0.00     0.139 A 
ATOM      8  H4  UNL     1      10.538  40.534  -2.970  1.00  0.00     0.169 HD
HETATM    9  N3  UNL     1       9.799  39.522  -0.355  1.00  0.00    -0.337 N 
HETATM   10  C17 UNL     1       9.698  37.696  -1.779  1.00  0.00     0.122 A 
HETATM   11  C2  UNL     1       9.431  38.774   0.695  1.00  0.00     0.183 A 
ATOM     12  H3  UNL     1       9.977  40.513  -0.193  1.00  0.00     0.168 HD
HETATM   13  N2  UNL     1       9.182  37.443   0.530  1.00  0.00    -0.337 N 
HETATM   14  C1  UNL     1       9.318  36.920  -0.699  1.00  0.00     0.131 A 
ATOM     15  H2  UNL     1       8.900  36.862   1.319  1.00  0.00     0.168 HD
HETATM   16  N10 UNL     1       9.913  37.474  -3.083  1.00  0.00    -0.332 N 
ATOM     17  H10 UNL     1       9.809  36.563  -3.530  1.00  0.00     0.168 HD
BRANCH  14  18
HETATM   18  N1  UNL     1       9.085  35.667  -0.859  1.00  0.00    -0.383 N 
ATOM     19  H12 UNL     1       8.795  35.097  -0.064  1.00  0.00     0.157 HD
ATOM     20  H11 UNL     1       9.197  35.268  -1.790  1.00  0.00     0.157 HD
ENDBRANCH  14  18
ENDBRANCH   1   5
BRANCH   3  21
HETATM   21  C6  UNL     1      12.051  39.464  -7.011  1.00  0.00     0.085 C 
BRANCH  21  22
HETATM   22  C7  UNL     1      12.604  40.835  -7.290  1.00  0.00     0.027 C 
BRANCH  22  23
HETATM   23  C8  UNL     1      11.854  41.558  -8.374  1.00  0.00     0.022 C 
BRANCH  23  24
HETATM   24  C9  UNL     1      12.862  42.323  -9.208  1.00  0.00     0.122 C 
BRANCH  24  25
HETATM   25  N6  UNL     1      12.988  41.649 -10.472  1.00  0.00    -0.367 N 
HETATM   26  C10 UNL     1      14.047  40.982 -10.829  1.00  0.00     0.196 C 
HETATM   27  N7  UNL     1      15.151  40.900  -9.942  1.00  0.00    -0.067 NA
HETATM   28  N8  UNL     1      14.049  40.362 -12.101  1.00  0.00    -0.067 NA
ATOM     29  H6  UNL     1      12.205  41.697 -11.124  1.00  0.00     0.161 HD
ENDBRANCH  24  25
ENDBRANCH  23  24
ENDBRANCH  22  23
ENDBRANCH  21  22
BRANCH  21  30
HETATM   30  C11 UNL     1      12.976  38.365  -7.450  1.00  0.00     0.027 C 
BRANCH  30  31
HETATM   31  C12 UNL     1      12.892  38.111  -8.941  1.00  0.00     0.032 C 
BRANCH  31  32
HETATM   32  C13 UNL     1      14.155  37.402  -9.335  1.00  0.00     0.272 C 
BRANCH  32  33
HETATM   33  N9  UNL     1      14.337  37.167 -10.702  1.00  0.00     0.088 N 
HETATM   34  C14 UNL     1      13.188  36.794 -11.502  1.00  0.00     0.274 C 
HETATM   35  C15 UNL     1      14.199  36.164 -12.473  1.00  0.00     0.060 C 
HETATM   36  C16 UNL     1      14.995  36.000 -11.166  1.00  0.00     0.274 C 
ENDBRANCH  32  33
ENDBRANCH  31  32
ENDBRANCH  30  31
ENDBRANCH  21  30
ENDBRANCH   3  21
TORSDOF 11
ENDMDL
MODEL 3
REMARK VINA RESULT: -8.156625552      2.145      2.592
REMARK  11 active torsions:
REMARK  status: ('A' for Active; 'I' for Inactive)
REMARK    1  A    between atoms: N1_1  and  C1_4 
REMARK    2  A    between atoms: C4_13  and  C5_14 
REMARK       I    between atoms: C5_14  and  N5_16 
REMARK    3  A    between atoms: N5_16  and  C6_18 
REMARK    4  A    between atoms: C6_18  and  C7_19 
REMARK    5  A    between atoms: C6_18  and  C11_27 
REMARK    6  A    between atoms: C7_19  and  C8_20 
REMARK    7  A    between atoms: C8_20  and  C9_21 
REMARK    8  A    between atoms: C9_21  and  N6_22 
REMARK    9  A    between atoms: C11_27  and  C12_28 
REMARK   10  A    between atoms: C12_28  and  C13_29 
REMARK   11  A    between atoms: C13_29  and  N9_30 
ROOT
HETATM    1  C5  UNL     1      10.730  38.844  -5.238  1.00  0.00     0.286 C 
HETATM    2  O1  UNL     1      10.028  38.240  -6.080  1.00  0.00    -0.264 OA
HETATM    3  N5  UNL     1      11.840  39.648  -5.635  1.00  0.00    -0.350 N 
ATOM      4  H5  UNL     1      12.398  40.132  -4.932  1.00  0.00     0.163 HD
ENDROOT
BRANCH   1   5
HETATM    5  C4  UNL     1      10.381  38.705  -3.832  1.00  0.00     0.176 A 
HETATM    6  N4  UNL     1      10.366  39.650  -2.871  1.00  0.00    -0.322 N 
HETATM    7  C3  UNL     1       9.987  39.118  -1.702  1.00  0.00     0.139 A 
ATOM      8  H4  UNL     1      10.608  40.631  -3.014  1.00  0.00     0.169 HD
HETATM    9  N3  UNL     1       9.797  39.553  -0.447  1.00  0.00    -0.337 N 
HETATM   10  C17 UNL     1       9.747  37.762  -1.918  1.00  0.00     0.122 A 
HETATM   11  C2  UNL     1       9.402  38.779   0.572  1.00  0.00     0.183 A 
ATOM     12  H3  UNL     1       9.965  40.541  -0.256  1.00  0.00     0.168 HD
HETATM   13  N2  UNL     1       9.164  37.451   0.368  1.00  0.00    -0.337 N 
HETATM   14  C1  UNL     1       9.339  36.958  -0.869  1.00  0.00     0.131 A 
ATOM     15  H2  UNL     1       8.862  36.849   1.134  1.00  0.00     0.168 HD
HETATM   16  N10 UNL     1      10.001  37.573  -3.220  1.00  0.00    -0.332 N 
ATOM     17  H10 UNL     1       9.915  36.672  -3.691  1.00  0.00     0.168 HD
BRANCH  14  18
HETATM   18  N1  UNL     1       9.117  35.709  -1.065  1.00  0.00    -0.383 N 
ATOM     19  H12 UNL     1       8.392  35.417  -1.721  1.00  0.00     0.157 HD
ATOM     20  H11 UNL     1       9.679  35.030  -0.553  1.00  0.00     0.157 HD
ENDBRANCH  14  18
ENDBRANCH   1   5
BRANCH   3  21
HETATM   21  C6  UNL     1      12.170  39.774  -7.041  1.00  0.00     0.085 C 
BRANCH  21  22
HETATM   22  C7  UNL     1      12.908  41.071  -7.236  1.00  0.00     0.027 C 
BRANCH  22  23
HETATM   23  C8  UNL     1      12.464  41.818  -8.463  1.00  0.00     0.022 C 
BRANCH  23  24
HETATM   24  C9  UNL     1      10.950  41.857  -8.462  1.00  0.00     0.122 C 
BRANCH  24  25
HETATM   25  N6  UNL     1      10.543  43.142  -7.963  1.00  0.00    -0.367 N 
HETATM   26  C10 UNL     1       9.990  43.319  -6.797  1.00  0.00     0.196 C 
HETATM   27  N7  UNL     1       9.766  42.200  -5.955  1.00  0.00    -0.067 NA
HETATM   28  N8  UNL     1       9.634  44.635  -6.420  1.00  0.00    -0.067 NA
ATOM     29  H6  UNL     1      10.694  43.960  -8.554  1.00  0.00     0.161 HD
ENDBRANCH  24  25
ENDBRANCH  23  24
ENDBRANCH  22  23
ENDBRANCH  21  22
BRANCH  21  30
HETATM   30  C11 UNL     1      12.950  38.585  -7.525  1.00  0.00     0.027 C 
BRANCH  30  31
HETATM   31  C12 UNL     1      12.672  38.274  -8.980  1.00  0.00     0.032 C 
BRANCH  31  32
HETATM   32  C13 UNL     1      13.918  37.654  -9.542  1.00  0.00     0.272 C 
BRANCH  32  33
HETATM   33  N9  UNL     1      13.742  36.712 -10.560  1.00  0.00     0.088 N 
HETATM   34  C14 UNL     1      14.912  36.054 -11.107  1.00  0.00     0.274 C 
HETATM   35  C15 UNL     1      14.059  35.808 -12.361  1.00  0.00     0.060 C 
HETATM   36  C16 UNL     1      13.393  37.109 -11.876  1.00  0.00     0.274 C 
ENDBRANCH  32  33
ENDBRANCH  31  32
ENDBRANCH  30  31
ENDBRANCH  21  30
ENDBRANCH   3  21
TORSDOF 11
ENDMDL
MODEL 4
REMARK VINA RESULT: -8.073066420      2.413      6.412
REMARK  11 active torsions:
REMARK  status: ('A' for Active; 'I' for Inactive)
REMARK    1  A    between atoms: N1_1  and  C1_4 
REMARK    2  A    between atoms: C4_13  and  C5_14 
REMARK       I    between atoms: C5_14  and  N5_16 
REMARK    3  A    between atoms: N5_16  and  C6_18 
REMARK    4  A    between atoms: C6_18  and  C7_19 
REMARK    5  A    between atoms: C6_18  and  C11_27 
REMARK    6  A    between atoms: C7_19  and  C8_20 
REMARK    7  A    between atoms: C8_20  and  C9_21 
REMARK    8  A    between atoms: C9_21  and  N6_22 
REMARK    9  A    between atoms: C11_27  and  C12_28 
REMARK   10  A    between atoms: C12_28  and  C13_29 
REMARK   11  A    between atoms: C13_29  and  N9_30 
ROOT
HETATM    1  C5  UNL     1      13.059  38.246  -7.882  1.00  0.00     0.286 C 
HETATM    2  O1  UNL     1      14.039  37.489  -7.693  1.00  0.00    -0.264 OA
HETATM    3  N5  UNL     1      12.799  38.819  -9.163  1.00  0.00    -0.350 N 
ATOM      4  H5  UNL     1      11.996  39.433  -9.295  1.00  0.00     0.163 HD
ENDROOT
BRANCH   1   5
HETATM    5  C4  UNL     1      12.185  38.528  -6.754  1.00  0.00     0.176 A 
HETATM    6  N4  UNL     1      11.926  37.760  -5.678  1.00  0.00    -0.322 N 
HETATM    7  C3  UNL     1      11.064  38.379  -4.861  1.00  0.00     0.139 A 
ATOM      8  H4  UNL     1      12.330  36.838  -5.509  1.00  0.00     0.169 HD
HETATM    9  N3  UNL     1      10.465  38.113  -3.690  1.00  0.00    -0.337 N 
HETATM   10  C17 UNL     1      10.749  39.608  -5.439  1.00  0.00     0.122 A 
HETATM   11  C2  UNL     1       9.612  38.939  -3.070  1.00  0.00     0.183 A 
ATOM     12  H3  UNL     1      10.674  37.221  -3.241  1.00  0.00     0.168 HD
HETATM   13  N2  UNL     1       9.300  40.143  -3.630  1.00  0.00    -0.337 N 
HETATM   14  C1  UNL     1       9.869  40.464  -4.803  1.00  0.00     0.131 A 
ATOM     15  H2  UNL     1       8.653  40.783  -3.169  1.00  0.00     0.168 HD
HETATM   16  N10 UNL     1      11.456  39.641  -6.577  1.00  0.00    -0.332 N 
ATOM     17  H10 UNL     1      11.441  40.421  -7.234  1.00  0.00     0.168 HD
BRANCH  14  18
HETATM   18  N1  UNL     1       9.578  41.596  -5.333  1.00  0.00    -0.383 N 
ATOM     19  H12 UNL     1      10.291  42.321  -5.412  1.00  0.00     0.157 HD
ATOM     20  H11 UNL     1       8.626  41.745  -5.668  1.00  0.00     0.157 HD
ENDBRANCH  14  18
ENDBRANCH   1   5
BRANCH   3  21
HETATM   21  C6  UNL     1      13.683  38.525 -10.275  1.00  0.00     0.085 C 
BRANCH  21  22
HETATM   22  C7  UNL     1      13.139  37.324 -11.002  1.00  0.00     0.027 C 
BRANCH  22  23
HETATM   23  C8  UNL     1      14.175  36.259 -11.227  1.00  0.00     0.022 C 
BRANCH  23  24
HETATM   24  C9  UNL     1      13.752  35.442 -12.430  1.00  0.00     0.122 C 
BRANCH  24  25
HETATM   25  N6  UNL     1      14.620  35.786 -13.523  1.00  0.00    -0.367 N 
HETATM   26  C10 UNL     1      14.237  35.811 -14.767  1.00  0.00     0.196 C 
HETATM   27  N7  UNL     1      12.894  35.485 -15.089  1.00  0.00    -0.067 NA
HETATM   28  N8  UNL     1      15.188  36.165 -15.752  1.00  0.00    -0.067 NA
ATOM     29  H6  UNL     1      15.590  36.023 -13.313  1.00  0.00     0.161 HD
ENDBRANCH  24  25
ENDBRANCH  23  24
ENDBRANCH  22  23
ENDBRANCH  21  22
BRANCH  21  30
HETATM   30  C11 UNL     1      13.845  39.720 -11.171  1.00  0.00     0.027 C 
BRANCH  30  31
HETATM   31  C12 UNL     1      15.083  40.523 -10.831  1.00  0.00     0.032 C 
BRANCH  31  32
HETATM   32  C13 UNL     1      14.616  41.854 -10.322  1.00  0.00     0.272 C 
BRANCH  32  33
HETATM   33  N9  UNL     1      14.622  42.029  -8.934  1.00  0.00     0.088 N 
HETATM   34  C14 UNL     1      13.367  42.300  -8.262  1.00  0.00     0.274 C 
HETATM   35  C15 UNL     1      14.218  42.932  -7.150  1.00  0.00     0.060 C 
HETATM   36  C16 UNL     1      15.152  43.203  -8.343  1.00  0.00     0.274 C 
ENDBRANCH  32  33
ENDBRANCH  31  32
ENDBRANCH  30  31
ENDBRANCH  21  30
ENDBRANCH   3  21
TORSDOF 11
ENDMDL
MODEL 5
REMARK VINA RESULT: -7.967100824      2.100      2.591
REMARK  11 active torsions:
REMARK  status: ('A' for Active; 'I' for Inactive)
REMARK    1  A    between atoms: N1_1  and  C1_4 
REMARK    2  A    between atoms: C4_13  and  C5_14 
REMARK       I    between atoms: C5_14  and  N5_16 
REMARK    3  A    between atoms: N5_16  and  C6_18 
REMARK    4  A    between atoms: C6_18  and  C7_19 
REMARK    5  A    between atoms: C6_18  and  C11_27 
REMARK    6  A    between atoms: C7_19  and  C8_20 
REMARK    7  A    between atoms: C8_20  and  C9_21 
REMARK    8  A    between atoms: C9_21  and  N6_22 
REMARK    9  A    between atoms: C11_27  and  C12_28 
REMARK   10  A    between atoms: C12_28  and  C13_29 
REMARK   11  A    between atoms: C13_29  and  N9_30 
ROOT
HETATM    1  C5  UNL     1      10.549  38.845  -5.094  1.00  0.00     0.286 C 
HETATM    2  O1  UNL     1       9.906  38.154  -5.917  1.00  0.00    -0.264 OA
HETATM    3  N5  UNL     1      11.550  39.767  -5.521  1.00  0.00    -0.350 N 
ATOM      4  H5  UNL     1      12.063  40.320  -4.834  1.00  0.00     0.163 HD
ENDROOT
BRANCH   1   5
HETATM    5  C4  UNL     1      10.247  38.682  -3.680  1.00  0.00     0.176 A 
HETATM    6  N4  UNL     1      10.278  39.606  -2.701  1.00  0.00    -0.322 N 
HETATM    7  C3  UNL     1       9.932  39.056  -1.530  1.00  0.00     0.139 A 
ATOM      8  H4  UNL     1      10.529  40.587  -2.833  1.00  0.00     0.169 HD
HETATM    9  N3  UNL     1       9.791  39.467  -0.261  1.00  0.00    -0.337 N 
HETATM   10  C17 UNL     1       9.665  37.708  -1.765  1.00  0.00     0.122 A 
HETATM   11  C2  UNL     1       9.420  38.678   0.756  1.00  0.00     0.183 A 
ATOM     12  H3  UNL     1       9.980  40.449  -0.056  1.00  0.00     0.168 HD
HETATM   13  N2  UNL     1       9.157  37.358   0.533  1.00  0.00    -0.337 N 
HETATM   14  C1  UNL     1       9.282  36.888  -0.718  1.00  0.00     0.131 A 
ATOM     15  H2  UNL     1       8.872  36.745   1.297  1.00  0.00     0.168 HD
HETATM   16  N10 UNL     1       9.872  37.542  -3.078  1.00  0.00    -0.332 N 
ATOM     17  H10 UNL     1       9.757  36.653  -3.564  1.00  0.00     0.168 HD
BRANCH  14  18
HETATM   18  N1  UNL     1       9.035  35.646  -0.932  1.00  0.00    -0.383 N 
ATOM     19  H12 UNL     1       9.294  35.221  -1.822  1.00  0.00     0.157 HD
ATOM     20  H11 UNL     1       8.581  35.108  -0.195  1.00  0.00     0.157 HD
ENDBRANCH  14  18
ENDBRANCH   1   5
BRANCH   3  21
HETATM   21  C6  UNL     1      11.836  39.915  -6.935  1.00  0.00     0.085 C 
BRANCH  21  22
HETATM   22  C7  UNL     1      12.428  41.282  -7.154  1.00  0.00     0.027 C 
BRANCH  22  23
HETATM   23  C8  UNL     1      11.415  42.290  -7.619  1.00  0.00     0.022 C 
BRANCH  23  24
HETATM   24  C9  UNL     1      11.197  42.084  -9.103  1.00  0.00     0.122 C 
BRANCH  24  25
HETATM   25  N6  UNL     1      10.073  42.888  -9.499  1.00  0.00    -0.367 N 
HETATM   26  C10 UNL     1      10.178  43.966 -10.221  1.00  0.00     0.196 C 
HETATM   27  N7  UNL     1      11.460  44.392 -10.655  1.00  0.00    -0.067 NA
HETATM   28  N8  UNL     1       8.995  44.672 -10.544  1.00  0.00    -0.067 NA
ATOM     29  H6  UNL     1       9.142  42.599  -9.197  1.00  0.00     0.161 HD
ENDBRANCH  24  25
ENDBRANCH  23  24
ENDBRANCH  22  23
ENDBRANCH  21  22
BRANCH  21  30
HETATM   30  C11 UNL     1      12.728  38.812  -7.428  1.00  0.00     0.027 C 
BRANCH  30  31
HETATM   31  C12 UNL     1      13.204  39.053  -8.844  1.00  0.00     0.032 C 
BRANCH  31  32
HETATM   32  C13 UNL     1      14.151  37.939  -9.184  1.00  0.00     0.272 C 
BRANCH  32  33
HETATM   33  N9  UNL     1      13.733  37.045 -10.175  1.00  0.00     0.088 N 
HETATM   34  C14 UNL     1      14.731  36.238 -10.848  1.00  0.00     0.274 C 
HETATM   35  C15 UNL     1      13.719  36.132 -11.999  1.00  0.00     0.060 C 
HETATM   36  C16 UNL     1      13.300  37.505 -11.444  1.00  0.00     0.274 C 
ENDBRANCH  32  33
ENDBRANCH  31  32
ENDBRANCH  30  31
ENDBRANCH  21  30
ENDBRANCH   3  21
TORSDOF 11
ENDMDL
