MODEL 1
REMARK VINA RESULT: -7.520505090      0.000      0.000
REMARK  11 active torsions:
REMARK  status: ('A' for Active; 'I' for Inactive)
REMARK    1  A    between atoms: C2_2  and  S1_3 
REMARK    2  A    between atoms: S1_3  and  C3_4 
REMARK    3  A    between atoms: C3_4  and  C4_5 
REMARK    4  A    between atoms: C4_5  and  N1_6 
REMARK    5  A    between atoms: N1_6  and  C5_9 
REMARK    6  A    between atoms: C5_9  and  C6_10 
REMARK    7  A    between atoms: C6_10  and  N2_11 
REMARK    8  A    between atoms: N2_11  and  S2_13 
REMARK    9  A    between atoms: S2_13  and  N3_16 
REMARK   10  A    between atoms: N3_16  and  C7_18 
REMARK   11  A    between atoms: C13_26  and  N5_27 
ROOT
HETATM    1  N3  UNL     1      10.671  37.807  -3.606  1.00  0.00    -0.292 N 
ATOM      2  H3  UNL     1      11.446  37.442  -3.052  1.00  0.00     0.174 HD
ENDROOT
BRANCH   1   3
HETATM    3  S2  UNL     1      10.875  38.402  -5.212  1.00  0.00     0.315 S 
HETATM    4  O1  UNL     1      11.886  37.472  -5.870  1.00  0.00    -0.183 OA
HETATM    5  O2  UNL     1       9.624  38.289  -6.023  1.00  0.00    -0.183 OA
BRANCH   3   6
HETATM    6  N2  UNL     1      11.540  39.974  -5.285  1.00  0.00    -0.301 N 
ATOM      7  H2  UNL     1      12.154  40.351  -4.564  1.00  0.00     0.173 HD
BRANCH   6   8
HETATM    8  C6  UNL     1      11.156  40.714  -6.451  1.00  0.00     0.161 C 
BRANCH   8   9
HETATM    9  C5  UNL     1      12.177  40.583  -7.559  1.00  0.00     0.252 C 
BRANCH   9  10
HETATM   10  N1  UNL     1      11.914  39.365  -8.294  1.00  0.00    -0.073 N 
ATOM     11  H12 UNL     1      11.023  39.417  -8.788  1.00  0.00     0.277 HD
ATOM     12  H11 UNL     1      11.705  38.591  -7.663  1.00  0.00     0.277 HD
BRANCH  10  13
HETATM   13  C4  UNL     1      12.994  39.025  -9.198  1.00  0.00     0.242 C 
BRANCH  13  14
HETATM   14  C3  UNL     1      13.769  37.831  -8.766  1.00  0.00     0.101 C 
BRANCH  14  15
HETATM   15  S1  UNL     1      14.385  36.941 -10.208  1.00  0.00    -0.168 SA
BRANCH  15  16
HETATM   16  C2  UNL     1      13.296  36.999 -11.630  1.00  0.00     0.069 C 
HETATM   17  C1  UNL     1      13.266  35.760 -12.462  1.00  0.00     0.016 C 
ENDBRANCH  15  16
ENDBRANCH  14  15
ENDBRANCH  13  14
ENDBRANCH  10  13
ENDBRANCH   9  10
ENDBRANCH   8   9
ENDBRANCH   6   8
ENDBRANCH   3   6
ENDBRANCH   1   3
BRANCH   1  18
HETATM   18  C7  UNL     1       9.332  37.867  -3.114  1.00  0.00     0.145 C 
HETATM   19  C8  UNL     1       9.166  37.162  -1.757  1.00  0.00     0.032 C 
HETATM   20  C9  UNL     1      10.000  37.728  -0.675  1.00  0.00     0.007 C 
HETATM   21  C10 UNL     1      10.592  39.082  -0.960  1.00  0.00     0.046 C 
HETATM   22  C11 UNL     1       9.641  39.864  -1.759  1.00  0.00     0.036 A 
HETATM   23  C12 UNL     1       9.007  39.286  -2.830  1.00  0.00     0.061 A 
HETATM   24  C14 UNL     1       9.357  41.177  -1.469  1.00  0.00     0.267 A 
HETATM   25  N4  UNL     1       8.121  39.977  -3.591  1.00  0.00    -0.193 N 
HETATM   26  C13 UNL     1       7.871  41.273  -3.268  1.00  0.00     0.679 A 
ATOM     27  H4  UNL     1       7.655  39.536  -4.384  1.00  0.00     0.184 HD
HETATM   28  N6  UNL     1       8.468  41.884  -2.228  1.00  0.00    -0.156 N 
ATOM     29  H6  UNL     1       8.261  42.859  -2.009  1.00  0.00     0.187 HD
HETATM   30  O3  UNL     1       9.951  41.692  -0.479  1.00  0.00    -0.267 OA
BRANCH  26  31
HETATM   31  N5  UNL     1       7.027  41.964  -3.979  1.00  0.00    -0.234 N 
ATOM     32  H52 UNL     1       6.035  41.890  -3.750  1.00  0.00     0.174 HD
ATOM     33  H51 UNL     1       7.369  42.555  -4.736  1.00  0.00     0.174 HD
ENDBRANCH  26  31
ENDBRANCH   1  18
TORSDOF 11
ENDMDL
MODEL 2
REMARK VINA RESULT: -7.366037508      1.156      1.457
REMARK  11 active torsions:
REMARK  status: ('A' for Active; 'I' for Inactive)
REMARK    1  A    between atoms: C2_2  and  S1_3 
REMARK    2  A    between atoms: S1_3  and  C3_4 
REMARK    3  A    between atoms: C3_4  and  C4_5 
REMARK    4  A    between atoms: C4_5  and  N1_6 
REMARK    5  A    between atoms: N1_6  and  C5_9 
REMARK    6  A    between atoms: C5_9  and  C6_10 
REMARK    7  A    between atoms: C6_10  and  N2_11 
REMARK    8  A    between atoms: N2_11  and  S2_13 
REMARK    9  A    between atoms: S2_13  and  N3_16 
REMARK   10  A    between atoms: N3_16  and  C7_18 
REMARK   11  A    between atoms: C13_26  and  N5_27 
ROOT
HETATM    1  N3  UNL     1      10.715  37.923  -3.544  1.00  0.00    -0.292 N 
ATOM      2  H3  UNL     1      11.488  37.555  -2.989  1.00  0.00     0.174 HD
ENDROOT
BRANCH   1   3
HETATM    3  S2  UNL     1      10.932  38.579  -5.124  1.00  0.00     0.315 S 
HETATM    4  O1  UNL     1       9.721  38.122  -5.928  1.00  0.00    -0.183 OA
HETATM    5  O2  UNL     1      10.890  40.073  -5.130  1.00  0.00    -0.183 OA
BRANCH   3   6
HETATM    6  N2  UNL     1      12.310  37.979  -5.935  1.00  0.00    -0.301 N 
ATOM      7  H2  UNL     1      12.796  37.128  -5.650  1.00  0.00     0.173 HD
BRANCH   6   8
HETATM    8  C6  UNL     1      12.722  38.778  -7.051  1.00  0.00     0.161 C 
BRANCH   8   9
HETATM    9  C5  UNL     1      13.390  37.943  -8.122  1.00  0.00     0.252 C 
BRANCH   9  10
HETATM   10  N1  UNL     1      12.596  38.010  -9.329  1.00  0.00    -0.073 N 
ATOM     11  H12 UNL     1      12.123  38.910  -9.410  1.00  0.00     0.277 HD
ATOM     12  H11 UNL     1      11.779  37.402  -9.267  1.00  0.00     0.277 HD
BRANCH  10  13
HETATM   13  C4  UNL     1      13.376  37.719 -10.516  1.00  0.00     0.242 C 
BRANCH  13  14
HETATM   14  C3  UNL     1      14.469  36.740 -10.275  1.00  0.00     0.101 C 
BRANCH  14  15
HETATM   15  S1  UNL     1      14.731  35.735 -11.749  1.00  0.00    -0.168 SA
BRANCH  15  16
HETATM   16  C2  UNL     1      13.287  35.575 -12.798  1.00  0.00     0.069 C 
HETATM   17  C1  UNL     1      13.499  35.924 -14.234  1.00  0.00     0.016 C 
ENDBRANCH  15  16
ENDBRANCH  14  15
ENDBRANCH  13  14
ENDBRANCH  10  13
ENDBRANCH   9  10
ENDBRANCH   8   9
ENDBRANCH   6   8
ENDBRANCH   3   6
ENDBRANCH   1   3
BRANCH   1  18
HETATM   18  C7  UNL     1       9.367  37.936  -3.073  1.00  0.00     0.145 C 
HETATM   19  C8  UNL     1       9.215  37.286  -1.688  1.00  0.00     0.032 C 
HETATM   20  C9  UNL     1      10.002  37.941  -0.621  1.00  0.00     0.007 C 
HETATM   21  C10 UNL     1      10.529  39.310  -0.960  1.00  0.00     0.046 C 
HETATM   22  C11 UNL     1       9.552  40.006  -1.807  1.00  0.00     0.036 A 
HETATM   23  C12 UNL     1       8.966  39.348  -2.859  1.00  0.00     0.061 A 
HETATM   24  C14 UNL     1       9.198  41.314  -1.582  1.00  0.00     0.267 A 
HETATM   25  N4  UNL     1       8.058  39.958  -3.663  1.00  0.00    -0.193 N 
HETATM   26  C13 UNL     1       7.738  41.253  -3.403  1.00  0.00     0.679 A 
ATOM     27  H4  UNL     1       7.628  39.457  -4.441  1.00  0.00     0.184 HD
HETATM   28  N6  UNL     1       8.286  41.939  -2.384  1.00  0.00    -0.156 N 
ATOM     29  H6  UNL     1       8.026  42.911  -2.213  1.00  0.00     0.187 HD
HETATM   30  O3  UNL     1       9.749  41.903  -0.608  1.00  0.00    -0.267 OA
BRANCH  26  31
HETATM   31  N5  UNL     1       6.871  41.867  -4.157  1.00  0.00    -0.234 N 
ATOM     32  H52 UNL     1       7.171  42.714  -4.639  1.00  0.00     0.174 HD
ATOM     33  H51 UNL     1       5.926  41.493  -4.247  1.00  0.00     0.174 HD
ENDBRANCH  26  31
ENDBRANCH   1  18
TORSDOF 11
ENDMDL
MODEL 3
REMARK VINA RESULT: -6.942662921      1.728      2.689
REMARK  11 active torsions:
REMARK  status: ('A' for Active; 'I' for Inactive)
REMARK    1  A    between atoms: C2_2  and  S1_3 
REMARK    2  A    between atoms: S1_3  and  C3_4 
REMARK    3  A    between atoms: C3_4  and  C4_5 
REMARK    4  A    between atoms: C4_5  and  N1_6 
REMARK    5  A    between atoms: N1_6  and  C5_9 
REMARK    6  A    between atoms: C5_9  and  C6_10 
REMARK    7  A    between atoms: C6_10  and  N2_11 
REMARK    8  A    between atoms: N2_11  and  S2_13 
REMARK    9  A    between atoms: S2_13  and  N3_16 
REMARK   10  A    between atoms: N3_16  and  C7_18 
REMARK   11  A    between atoms: C13_26  and  N5_27 
ROOT
HETATM    1  N3  UNL     1      10.744  37.893  -3.659  1.00  0.00    -0.292 N 
ATOM      2  H3  UNL     1      11.530  37.597  -3.079  1.00  0.00     0.174 HD
ENDROOT
BRANCH   1   3
HETATM    3  S2  UNL     1      10.935  38.413  -5.292  1.00  0.00     0.315 S 
HETATM    4  O1  UNL     1      11.895  37.417  -5.931  1.00  0.00    -0.183 OA
HETATM    5  O2  UNL     1       9.663  38.317  -6.072  1.00  0.00    -0.183 OA
BRANCH   3   6
HETATM    6  N2  UNL     1      11.659  39.953  -5.444  1.00  0.00    -0.301 N 
ATOM      7  H2  UNL     1      12.564  40.183  -5.036  1.00  0.00     0.173 HD
BRANCH   6   8
HETATM    8  C6  UNL     1      10.879  40.890  -6.197  1.00  0.00     0.161 C 
BRANCH   8   9
HETATM    9  C5  UNL     1      11.429  41.085  -7.592  1.00  0.00     0.252 C 
BRANCH   9  10
HETATM   10  N1  UNL     1      11.750  39.790  -8.152  1.00  0.00    -0.073 N 
ATOM     11  H12 UNL     1      10.947  39.387  -8.633  1.00  0.00     0.277 HD
ATOM     12  H11 UNL     1      11.868  39.090  -7.419  1.00  0.00     0.277 HD
BRANCH  10  13
HETATM   13  C4  UNL     1      12.910  39.839  -9.020  1.00  0.00     0.242 C 
BRANCH  13  14
HETATM   14  C3  UNL     1      13.073  41.147  -9.708  1.00  0.00     0.101 C 
BRANCH  14  15
HETATM   15  S1  UNL     1      14.743  41.776  -9.447  1.00  0.00    -0.168 SA
BRANCH  15  16
HETATM   16  C2  UNL     1      14.862  43.056  -8.198  1.00  0.00     0.069 C 
HETATM   17  C1  UNL     1      16.168  43.775  -8.144  1.00  0.00     0.016 C 
ENDBRANCH  15  16
ENDBRANCH  14  15
ENDBRANCH  13  14
ENDBRANCH  10  13
ENDBRANCH   9  10
ENDBRANCH   8   9
ENDBRANCH   6   8
ENDBRANCH   3   6
ENDBRANCH   1   3
BRANCH   1  18
HETATM   18  C7  UNL     1       9.398  37.909  -3.181  1.00  0.00     0.145 C 
HETATM   19  C8  UNL     1       9.239  37.195  -1.829  1.00  0.00     0.032 C 
HETATM   20  C9  UNL     1      10.043  37.781  -0.736  1.00  0.00     0.007 C 
HETATM   21  C10 UNL     1      10.596  39.154  -1.009  1.00  0.00     0.046 C 
HETATM   22  C11 UNL     1       9.629  39.910  -1.816  1.00  0.00     0.036 A 
HETATM   23  C12 UNL     1       9.026  39.317  -2.897  1.00  0.00     0.061 A 
HETATM   24  C14 UNL     1       9.302  41.212  -1.525  1.00  0.00     0.267 A 
HETATM   25  N4  UNL     1       8.128  39.984  -3.665  1.00  0.00    -0.193 N 
HETATM   26  C13 UNL     1       7.835  41.270  -3.340  1.00  0.00     0.679 A 
ATOM     27  H4  UNL     1       7.685  39.531  -4.465  1.00  0.00     0.184 HD
HETATM   28  N6  UNL     1       8.401  41.895  -2.291  1.00  0.00    -0.156 N 
ATOM     29  H6  UNL     1       8.161  42.861  -2.071  1.00  0.00     0.187 HD
HETATM   30  O3  UNL     1       9.869  41.742  -0.526  1.00  0.00    -0.267 OA
BRANCH  26  31
HETATM   31  N5  UNL     1       6.977  41.937  -4.058  1.00  0.00    -0.234 N 
ATOM     32  H52 UNL     1       7.120  42.942  -4.163  1.00  0.00     0.174 HD
ATOM     33  H51 UNL     1       6.195  41.449  -4.494  1.00  0.00     0.174 HD
ENDBRANCH  26  31
ENDBRANCH   1  18
TORSDOF 11
ENDMDL
MODEL 4
REMARK VINA RESULT: -6.931816708      3.576      9.852
REMARK  11 active torsions:
REMARK  status: ('A' for Active; 'I' for Inactive)
REMARK    1  A    between atoms: C2_2  and  S1_3 
REMARK    2  A    between atoms: S1_3  and  C3_4 
REMARK    3  A    between atoms: C3_4  and  C4_5 
REMARK    4  A    between atoms: C4_5  and  N1_6 
REMARK    5  A    between atoms: N1_6  and  C5_9 
REMARK    6  A    between atoms: C5_9  and  C6_10 
REMARK    7  A    between atoms: C6_10  and  N2_11 
REMARK    8  A    between atoms: N2_11  and  S2_13 
REMARK    9  A    between atoms: S2_13  and  N3_16 
REMARK   10  A    between atoms: N3_16  and  C7_18 
REMARK   11  A    between atoms: C13_26  and  N5_27 
ROOT
HETATM    1  N3  UNL     1      14.146  39.474  -9.811  1.00  0.00    -0.292 N 
ATOM      2  H3  UNL     1      14.854  40.183  -9.619  1.00  0.00     0.174 HD
ENDROOT
BRANCH   1   3
HETATM    3  S2  UNL     1      13.511  38.437  -8.588  1.00  0.00     0.315 S 
HETATM    4  O1  UNL     1      12.280  37.782  -9.203  1.00  0.00    -0.183 OA
HETATM    5  O2  UNL     1      14.445  37.320  -8.248  1.00  0.00    -0.183 OA
BRANCH   3   6
HETATM    6  N2  UNL     1      12.975  39.265  -7.193  1.00  0.00    -0.301 N 
ATOM      7  H2  UNL     1      13.613  39.709  -6.532  1.00  0.00     0.173 HD
BRANCH   6   8
HETATM    8  C6  UNL     1      11.551  39.280  -7.036  1.00  0.00     0.161 C 
BRANCH   8   9
HETATM    9  C5  UNL     1      11.108  40.325  -6.036  1.00  0.00     0.252 C 
BRANCH   9  10
HETATM   10  N1  UNL     1      11.096  39.732  -4.716  1.00  0.00    -0.073 N 
ATOM     11  H12 UNL     1      10.738  40.388  -4.021  1.00  0.00     0.277 HD
ATOM     12  H11 UNL     1      12.043  39.615  -4.355  1.00  0.00     0.277 HD
BRANCH  10  13
HETATM   13  C4  UNL     1      10.364  38.482  -4.682  1.00  0.00     0.242 C 
BRANCH  13  14
HETATM   14  C3  UNL     1       9.276  38.466  -3.668  1.00  0.00     0.101 C 
BRANCH  14  15
HETATM   15  S1  UNL     1       9.948  38.835  -2.036  1.00  0.00    -0.168 SA
BRANCH  15  16
HETATM   16  C2  UNL     1       9.527  37.631  -0.777  1.00  0.00     0.069 C 
HETATM   17  C1  UNL     1       9.636  36.203  -1.199  1.00  0.00     0.016 C 
ENDBRANCH  15  16
ENDBRANCH  14  15
ENDBRANCH  13  14
ENDBRANCH  10  13
ENDBRANCH   9  10
ENDBRANCH   8   9
ENDBRANCH   6   8
ENDBRANCH   3   6
ENDBRANCH   1   3
BRANCH   1  18
HETATM   18  C7  UNL     1      13.603  39.260 -11.115  1.00  0.00     0.145 C 
HETATM   19  C8  UNL     1      13.924  40.408 -12.087  1.00  0.00     0.032 C 
HETATM   20  C9  UNL     1      15.369  40.632 -12.303  1.00  0.00     0.007 C 
HETATM   21  C10 UNL     1      16.269  39.517 -11.842  1.00  0.00     0.046 C 
HETATM   22  C11 UNL     1      15.594  38.232 -12.062  1.00  0.00     0.036 A 
HETATM   23  C12 UNL     1      14.277  38.079 -11.708  1.00  0.00     0.061 A 
HETATM   24  C14 UNL     1      16.244  37.157 -12.618  1.00  0.00     0.267 A 
HETATM   25  N4  UNL     1      13.620  36.907 -11.897  1.00  0.00    -0.193 N 
HETATM   26  C13 UNL     1      14.303  35.871 -12.450  1.00  0.00     0.679 A 
ATOM     27  H4  UNL     1      12.640  36.808 -11.631  1.00  0.00     0.184 HD
HETATM   28  N6  UNL     1      15.595  35.971 -12.812  1.00  0.00    -0.156 N 
ATOM     29  H6  UNL     1      16.081  35.175 -13.225  1.00  0.00     0.187 HD
HETATM   30  O3  UNL     1      17.457  37.316 -12.937  1.00  0.00    -0.267 OA
BRANCH  26  31
HETATM   31  N5  UNL     1      13.701  34.732 -12.643  1.00  0.00    -0.234 N 
ATOM     32  H52 UNL     1      12.688  34.741 -12.767  1.00  0.00     0.174 HD
ATOM     33  H51 UNL     1      14.246  33.870 -12.667  1.00  0.00     0.174 HD
ENDBRANCH  26  31
ENDBRANCH   1  18
TORSDOF 11
ENDMDL
MODEL 5
REMARK VINA RESULT: -6.929725325      2.165      3.241
REMARK  11 active torsions:
REMARK  status: ('A' for Active; 'I' for Inactive)
REMARK    1  A    between atoms: C2_2  and  S1_3 
REMARK    2  A    between atoms: S1_3  and  C3_4 
REMARK    3  A    between atoms: C3_4  and  C4_5 
REMARK    4  A    between atoms: C4_5  and  N1_6 
REMARK    5  A    between atoms: N1_6  and  C5_9 
REMARK    6  A    between atoms: C5_9  and  C6_10 
REMARK    7  A    between atoms: C6_10  and  N2_11 
REMARK    8  A    between atoms: N2_11  and  S2_13 
REMARK    9  A    between atoms: S2_13  and  N3_16 
REMARK   10  A    between atoms: N3_16  and  C7_18 
REMARK   11  A    between atoms: C13_26  and  N5_27 
ROOT
HETATM    1  N3  UNL     1      10.820  37.994  -3.757  1.00  0.00    -0.292 N 
ATOM      2  H3  UNL     1      11.601  37.633  -3.209  1.00  0.00     0.174 HD
ENDROOT
BRANCH   1   3
HETATM    3  S2  UNL     1      11.022  38.676  -5.328  1.00  0.00     0.315 S 
HETATM    4  O1  UNL     1       9.875  38.124  -6.166  1.00  0.00    -0.183 OA
HETATM    5  O2  UNL     1      10.854  40.162  -5.330  1.00  0.00    -0.183 OA
BRANCH   3   6
HETATM    6  N2  UNL     1      12.466  38.198  -6.106  1.00  0.00    -0.301 N 
ATOM      7  H2  UNL     1      13.308  37.930  -5.597  1.00  0.00     0.173 HD
BRANCH   6   8
HETATM    8  C6  UNL     1      12.387  38.209  -7.537  1.00  0.00     0.161 C 
BRANCH   8   9
HETATM    9  C5  UNL     1      12.901  39.508  -8.116  1.00  0.00     0.252 C 
BRANCH   9  10
HETATM   10  N1  UNL     1      11.775  40.365  -8.415  1.00  0.00    -0.073 N 
ATOM     11  H12 UNL     1      10.951  40.091  -7.879  1.00  0.00     0.277 HD
ATOM     12  H11 UNL     1      11.420  40.194  -9.356  1.00  0.00     0.277 HD
BRANCH  10  13
HETATM   13  C4  UNL     1      12.084  41.767  -8.219  1.00  0.00     0.242 C 
BRANCH  13  14
HETATM   14  C3  UNL     1      13.156  41.998  -7.215  1.00  0.00     0.101 C 
BRANCH  14  15
HETATM   15  S1  UNL     1      14.067  43.500  -7.620  1.00  0.00    -0.168 SA
BRANCH  15  16
HETATM   16  C2  UNL     1      15.634  43.212  -8.440  1.00  0.00     0.069 C 
HETATM   17  C1  UNL     1      16.718  44.182  -8.103  1.00  0.00     0.016 C 
ENDBRANCH  15  16
ENDBRANCH  14  15
ENDBRANCH  13  14
ENDBRANCH  10  13
ENDBRANCH   9  10
ENDBRANCH   8   9
ENDBRANCH   6   8
ENDBRANCH   3   6
ENDBRANCH   1   3
BRANCH   1  18
HETATM   18  C7  UNL     1       9.472  37.976  -3.284  1.00  0.00     0.145 C 
HETATM   19  C8  UNL     1       9.313  37.182  -1.976  1.00  0.00     0.032 C 
HETATM   20  C9  UNL     1      10.111  37.707  -0.848  1.00  0.00     0.007 C 
HETATM   21  C10 UNL     1      10.658  39.096  -1.038  1.00  0.00     0.046 C 
HETATM   22  C11 UNL     1       9.690  39.894  -1.802  1.00  0.00     0.036 A 
HETATM   23  C12 UNL     1       9.093  39.363  -2.917  1.00  0.00     0.061 A 
HETATM   24  C14 UNL     1       9.356  41.175  -1.435  1.00  0.00     0.267 A 
HETATM   25  N4  UNL     1       8.194  40.069  -3.648  1.00  0.00    -0.193 N 
HETATM   26  C13 UNL     1       7.893  41.333  -3.248  1.00  0.00     0.679 A 
ATOM     27  H4  UNL     1       7.755  39.662  -4.474  1.00  0.00     0.184 HD
HETATM   28  N6  UNL     1       8.454  41.897  -2.163  1.00  0.00    -0.156 N 
ATOM     29  H6  UNL     1       8.208  42.848  -1.887  1.00  0.00     0.187 HD
HETATM   30  O3  UNL     1       9.918  41.647  -0.406  1.00  0.00    -0.267 OA
BRANCH  26  31
HETATM   31  N5  UNL     1       7.035  42.037  -3.929  1.00  0.00    -0.234 N 
ATOM     32  H52 UNL     1       6.261  41.546  -4.377  1.00  0.00     0.174 HD
ATOM     33  H51 UNL     1       7.152  43.048  -3.997  1.00  0.00     0.174 HD
ENDBRANCH  26  31
ENDBRANCH   1  18
TORSDOF 11
ENDMDL
