MODEL 1
REMARK VINA RESULT: -7.670902222      0.000      0.000
REMARK  11 active torsions:
REMARK  status: ('A' for Active; 'I' for Inactive)
REMARK    1  A    between atoms: N1_2  and  C2_3 
REMARK    2  A    between atoms: C2_3  and  C3_4 
REMARK    3  A    between atoms: C3_4  and  C4_5 
REMARK    4  A    between atoms: C4_5  and  C5_6 
REMARK    5  A    between atoms: C5_6  and  C6_7 
REMARK    6  A    between atoms: C6_7  and  O1_8 
REMARK    7  A    between atoms: O1_8  and  S1_9 
REMARK    8  A    between atoms: S1_9  and  N2_10 
REMARK    9  A    between atoms: C7_17  and  C8_18 
REMARK   10  A    between atoms: C8_18  and  C9_19 
REMARK   11  A    between atoms: C10_24  and  C11_25 
ROOT
HETATM    1  C1  UNL     1      12.964  36.713 -11.475  1.00  0.00     0.313 C 
HETATM    2  N1  UNL     1      14.256  37.323 -11.821  1.00  0.00     0.070 N 
HETATM    3  N3  UNL     1      14.041  38.174 -12.863  1.00  0.00    -0.215 N 
ATOM      4  H3  UNL     1      13.372  38.920 -12.678  1.00  0.00     0.194 HD
HETATM    5  C7  UNL     1      14.538  38.183 -14.015  1.00  0.00     0.045 C 
HETATM    6  C10 UNL     1      15.538  37.150 -14.420  1.00  0.00     0.168 C 
HETATM    7  N8  UNL     1      16.101  36.522 -13.216  1.00  0.00    -0.340 N 
ATOM      8  H8  UNL     1      17.073  36.212 -13.188  1.00  0.00     0.163 HD
HETATM    9  C14 UNL     1      15.245  36.363 -12.092  1.00  0.00     0.299 C 
HETATM   10  N9  UNL     1      15.425  35.315 -11.354  1.00  0.00    -0.363 N 
ATOM     11  H91 UNL     1      16.142  34.618 -11.550  1.00  0.00     0.159 HD
ATOM     12  H92 UNL     1      14.810  35.201 -10.547  1.00  0.00     0.159 HD
ENDROOT
BRANCH   2  13
HETATM   13  C2  UNL     1      14.597  38.146 -10.664  1.00  0.00     0.275 C 
BRANCH  13  14
HETATM   14  C3  UNL     1      13.575  39.206 -10.409  1.00  0.00     0.031 C 
BRANCH  14  15
HETATM   15  C4  UNL     1      13.357  39.346  -8.922  1.00  0.00     0.004 C 
BRANCH  15  16
HETATM   16  C5  UNL     1      12.432  38.328  -8.335  1.00  0.00     0.028 C 
BRANCH  16  17
HETATM   17  C6  UNL     1      12.670  38.319  -6.834  1.00  0.00     0.192 C 
BRANCH  17  18
HETATM   18  O1  UNL     1      11.604  37.649  -6.226  1.00  0.00    -0.260 OA
BRANCH  18  19
HETATM   19  S1  UNL     1      10.703  38.657  -5.261  1.00  0.00     0.355 S 
HETATM   20  O2  UNL     1      10.530  40.004  -5.874  1.00  0.00    -0.176 OA
HETATM   21  O3  UNL     1       9.327  38.044  -5.124  1.00  0.00    -0.176 OA
BRANCH  19  22
HETATM   22  N2  UNL     1      11.347  38.808  -3.677  1.00  0.00    -0.306 N 
ATOM     23  H22 UNL     1      11.564  39.709  -3.252  1.00  0.00     0.171 HD
ATOM     24  H21 UNL     1      11.484  37.906  -3.220  1.00  0.00     0.171 HD
ENDBRANCH  19  22
ENDBRANCH  18  19
ENDBRANCH  17  18
ENDBRANCH  16  17
ENDBRANCH  15  16
ENDBRANCH  14  15
ENDBRANCH  13  14
ENDBRANCH   2  13
BRANCH   5  25
HETATM   25  C8  UNL     1      14.159  39.219 -15.016  1.00  0.00     0.129 C 
BRANCH  25  26
HETATM   26  C9  UNL     1      14.113  40.588 -14.483  1.00  0.00     0.092 C 
HETATM   27  N4  UNL     1      13.295  41.449 -14.945  1.00  0.00    -0.391 N 
ATOM     28  H42 UNL     1      12.641  41.182 -15.681  1.00  0.00     0.157 HD
ATOM     29  H41 UNL     1      13.262  42.399 -14.575  1.00  0.00     0.157 HD
HETATM   30  N5  UNL     1      15.016  40.956 -13.466  1.00  0.00    -0.088 NA
ENDBRANCH  25  26
ENDBRANCH   5  25
BRANCH   6  31
HETATM   31  C11 UNL     1      14.903  36.100 -15.271  1.00  0.00     0.004 A 
HETATM   32  C12 UNL     1      13.601  35.665 -15.204  1.00  0.00     0.118 A 
HETATM   33  N6  UNL     1      13.424  34.722 -16.130  1.00  0.00    -0.312 N 
HETATM   34  N7  UNL     1      14.548  34.536 -16.783  1.00  0.00    -0.312 N 
ATOM     35  H6  UNL     1      12.552  34.223 -16.305  1.00  0.00     0.186 HD
HETATM   36  C13 UNL     1      15.493  35.377 -16.278  1.00  0.00     0.118 A 
ATOM     37  H7  UNL     1      14.689  33.872 -17.544  1.00  0.00     0.186 HD
ENDBRANCH   6  31
TORSDOF 11
ENDMDL
MODEL 2
REMARK VINA RESULT: -7.551688668      1.998      3.567
REMARK  11 active torsions:
REMARK  status: ('A' for Active; 'I' for Inactive)
REMARK    1  A    between atoms: N1_2  and  C2_3 
REMARK    2  A    between atoms: C2_3  and  C3_4 
REMARK    3  A    between atoms: C3_4  and  C4_5 
REMARK    4  A    between atoms: C4_5  and  C5_6 
REMARK    5  A    between atoms: C5_6  and  C6_7 
REMARK    6  A    between atoms: C6_7  and  O1_8 
REMARK    7  A    between atoms: O1_8  and  S1_9 
REMARK    8  A    between atoms: S1_9  and  N2_10 
REMARK    9  A    between atoms: C7_17  and  C8_18 
REMARK   10  A    between atoms: C8_18  and  C9_19 
REMARK   11  A    between atoms: C10_24  and  C11_25 
ROOT
HETATM    1  C1  UNL     1      17.433  39.924 -12.397  1.00  0.00     0.313 C 
HETATM    2  N1  UNL     1      15.969  39.985 -12.266  1.00  0.00     0.070 N 
HETATM    3  N3  UNL     1      15.577  38.894 -11.551  1.00  0.00    -0.215 N 
ATOM      4  H3  UNL     1      15.981  38.823 -10.617  1.00  0.00     0.194 HD
HETATM    5  C7  UNL     1      14.795  37.962 -11.860  1.00  0.00     0.045 C 
HETATM    6  C10 UNL     1      14.127  37.943 -13.196  1.00  0.00     0.168 C 
HETATM    7  N8  UNL     1      14.179  39.289 -13.783  1.00  0.00    -0.340 N 
ATOM      8  H8  UNL     1      13.419  39.640 -14.367  1.00  0.00     0.163 HD
HETATM    9  C14 UNL     1      15.325  40.085 -13.510  1.00  0.00     0.299 C 
HETATM   10  N9  UNL     1      15.727  40.885 -14.444  1.00  0.00    -0.363 N 
ATOM     11  H91 UNL     1      15.259  40.959 -15.347  1.00  0.00     0.159 HD
ATOM     12  H92 UNL     1      16.549  41.457 -14.248  1.00  0.00     0.159 HD
ENDROOT
BRANCH   2  13
HETATM   13  C2  UNL     1      15.722  41.155 -11.428  1.00  0.00     0.275 C 
BRANCH  13  14
HETATM   14  C3  UNL     1      15.599  40.793  -9.983  1.00  0.00     0.031 C 
BRANCH  14  15
HETATM   15  C4  UNL     1      14.487  41.598  -9.357  1.00  0.00     0.004 C 
BRANCH  15  16
HETATM   16  C5  UNL     1      13.147  40.936  -9.397  1.00  0.00     0.028 C 
BRANCH  16  17
HETATM   17  C6  UNL     1      12.566  41.015  -7.994  1.00  0.00     0.192 C 
BRANCH  17  18
HETATM   18  O1  UNL     1      12.864  39.822  -7.329  1.00  0.00    -0.260 OA
BRANCH  18  19
HETATM   19  S1  UNL     1      11.545  39.208  -6.527  1.00  0.00     0.355 S 
HETATM   20  O2  UNL     1      10.623  40.285  -6.068  1.00  0.00    -0.176 OA
HETATM   21  O3  UNL     1      10.779  38.347  -7.505  1.00  0.00    -0.176 OA
BRANCH  19  22
HETATM   22  N2  UNL     1      11.983  38.202  -5.206  1.00  0.00    -0.306 N 
ATOM     23  H22 UNL     1      12.877  37.714  -5.155  1.00  0.00     0.171 HD
ATOM     24  H21 UNL     1      11.256  38.153  -4.492  1.00  0.00     0.171 HD
ENDBRANCH  19  22
ENDBRANCH  18  19
ENDBRANCH  17  18
ENDBRANCH  16  17
ENDBRANCH  15  16
ENDBRANCH  14  15
ENDBRANCH  13  14
ENDBRANCH   2  13
BRANCH   5  25
HETATM   25  C8  UNL     1      14.500  36.850 -10.914  1.00  0.00     0.129 C 
BRANCH  25  26
HETATM   26  C9  UNL     1      13.811  37.267  -9.684  1.00  0.00     0.092 C 
HETATM   27  N4  UNL     1      12.607  37.682  -9.712  1.00  0.00    -0.391 N 
ATOM     28  H42 UNL     1      12.098  37.705 -10.596  1.00  0.00     0.157 HD
ATOM     29  H41 UNL     1      12.128  37.972  -8.859  1.00  0.00     0.157 HD
HETATM   30  N5  UNL     1      14.514  37.236  -8.463  1.00  0.00    -0.088 NA
ENDBRANCH  25  26
ENDBRANCH   5  25
BRANCH   6  31
HETATM   31  C11 UNL     1      14.802  36.978 -14.114  1.00  0.00     0.004 A 
HETATM   32  C12 UNL     1      14.192  36.111 -14.989  1.00  0.00     0.118 A 
HETATM   33  N6  UNL     1      15.140  35.423 -15.627  1.00  0.00    -0.312 N 
HETATM   34  N7  UNL     1      16.321  35.809 -15.204  1.00  0.00    -0.312 N 
ATOM     35  H6  UNL     1      14.972  34.708 -16.335  1.00  0.00     0.186 HD
HETATM   36  C13 UNL     1      16.153  36.777 -14.261  1.00  0.00     0.118 A 
ATOM     37  H7  UNL     1      17.216  35.444 -15.528  1.00  0.00     0.186 HD
ENDBRANCH   6  31
TORSDOF 11
ENDMDL
MODEL 3
REMARK VINA RESULT: -7.329581903      2.023      3.854
REMARK  11 active torsions:
REMARK  status: ('A' for Active; 'I' for Inactive)
REMARK    1  A    between atoms: N1_2  and  C2_3 
REMARK    2  A    between atoms: C2_3  and  C3_4 
REMARK    3  A    between atoms: C3_4  and  C4_5 
REMARK    4  A    between atoms: C4_5  and  C5_6 
REMARK    5  A    between atoms: C5_6  and  C6_7 
REMARK    6  A    between atoms: C6_7  and  O1_8 
REMARK    7  A    between atoms: O1_8  and  S1_9 
REMARK    8  A    between atoms: S1_9  and  N2_10 
REMARK    9  A    between atoms: C7_17  and  C8_18 
REMARK   10  A    between atoms: C8_18  and  C9_19 
REMARK   11  A    between atoms: C10_24  and  C11_25 
ROOT
HETATM    1  C1  UNL     1      16.133  40.673 -10.618  1.00  0.00     0.313 C 
HETATM    2  N1  UNL     1      15.069  40.109 -11.462  1.00  0.00     0.070 N 
HETATM    3  N3  UNL     1      15.173  38.752 -11.400  1.00  0.00    -0.215 N 
ATOM      4  H3  UNL     1      15.086  38.356 -10.464  1.00  0.00     0.194 HD
HETATM    5  C7  UNL     1      15.359  37.913 -12.314  1.00  0.00     0.045 C 
HETATM    6  C10 UNL     1      15.498  38.354 -13.734  1.00  0.00     0.168 C 
HETATM    7  N8  UNL     1      14.957  39.713 -13.875  1.00  0.00    -0.340 N 
ATOM      8  H8  UNL     1      14.487  40.009 -14.731  1.00  0.00     0.163 HD
HETATM    9  C14 UNL     1      15.111  40.603 -12.776  1.00  0.00     0.299 C 
HETATM   10  N9  UNL     1      15.286  41.856 -13.048  1.00  0.00    -0.363 N 
ATOM     11  H91 UNL     1      15.316  42.215 -14.002  1.00  0.00     0.159 HD
ATOM     12  H92 UNL     1      15.396  42.494 -12.259  1.00  0.00     0.159 HD
ENDROOT
BRANCH   2  13
HETATM   13  C2  UNL     1      13.828  40.472 -10.783  1.00  0.00     0.275 C 
BRANCH  13  14
HETATM   14  C3  UNL     1      13.941  40.335  -9.298  1.00  0.00     0.031 C 
BRANCH  14  15
HETATM   15  C4  UNL     1      12.628  39.845  -8.739  1.00  0.00     0.004 C 
BRANCH  15  16
HETATM   16  C5  UNL     1      12.632  38.408  -8.323  1.00  0.00     0.028 C 
BRANCH  16  17
HETATM   17  C6  UNL     1      12.702  38.381  -6.804  1.00  0.00     0.192 C 
BRANCH  17  18
HETATM   18  O1  UNL     1      11.567  37.718  -6.326  1.00  0.00    -0.260 OA
BRANCH  18  19
HETATM   19  S1  UNL     1      10.677  38.671  -5.298  1.00  0.00     0.355 S 
HETATM   20  O2  UNL     1      10.478  40.044  -5.844  1.00  0.00    -0.176 OA
HETATM   21  O3  UNL     1       9.311  38.039  -5.161  1.00  0.00    -0.176 OA
BRANCH  19  22
HETATM   22  N2  UNL     1      11.353  38.756  -3.721  1.00  0.00    -0.306 N 
ATOM     23  H22 UNL     1      12.006  38.060  -3.362  1.00  0.00     0.171 HD
ATOM     24  H21 UNL     1      11.031  39.571  -3.199  1.00  0.00     0.171 HD
ENDBRANCH  19  22
ENDBRANCH  18  19
ENDBRANCH  17  18
ENDBRANCH  16  17
ENDBRANCH  15  16
ENDBRANCH  14  15
ENDBRANCH  13  14
ENDBRANCH   2  13
BRANCH   5  25
HETATM   25  C8  UNL     1      15.443  36.455 -12.023  1.00  0.00     0.129 C 
BRANCH  25  26
HETATM   26  C9  UNL     1      14.139  35.788 -11.889  1.00  0.00     0.092 C 
HETATM   27  N4  UNL     1      13.946  34.617 -12.353  1.00  0.00    -0.391 N 
ATOM     28  H42 UNL     1      14.713  34.119 -12.806  1.00  0.00     0.157 HD
ATOM     29  H41 UNL     1      13.042  34.154 -12.260  1.00  0.00     0.157 HD
HETATM   30  N5  UNL     1      13.081  36.477 -11.263  1.00  0.00    -0.088 NA
ENDBRANCH  25  26
ENDBRANCH   5  25
BRANCH   6  31
HETATM   31  C11 UNL     1      16.931  38.349 -14.154  1.00  0.00     0.004 A 
HETATM   32  C12 UNL     1      17.458  37.749 -15.273  1.00  0.00     0.118 A 
HETATM   33  N6  UNL     1      18.772  37.974 -15.292  1.00  0.00    -0.312 N 
HETATM   34  N7  UNL     1      19.108  38.687 -14.242  1.00  0.00    -0.312 N 
ATOM     35  H6  UNL     1      19.416  37.644 -16.010  1.00  0.00     0.186 HD
HETATM   36  C13 UNL     1      17.989  38.941 -13.508  1.00  0.00     0.118 A 
ATOM     37  H7  UNL     1      20.052  38.999 -14.013  1.00  0.00     0.186 HD
ENDBRANCH   6  31
TORSDOF 11
ENDMDL
MODEL 4
REMARK VINA RESULT: -7.304958309      1.386      1.722
REMARK  11 active torsions:
REMARK  status: ('A' for Active; 'I' for Inactive)
REMARK    1  A    between atoms: N1_2  and  C2_3 
REMARK    2  A    between atoms: C2_3  and  C3_4 
REMARK    3  A    between atoms: C3_4  and  C4_5 
REMARK    4  A    between atoms: C4_5  and  C5_6 
REMARK    5  A    between atoms: C5_6  and  C6_7 
REMARK    6  A    between atoms: C6_7  and  O1_8 
REMARK    7  A    between atoms: O1_8  and  S1_9 
REMARK    8  A    between atoms: S1_9  and  N2_10 
REMARK    9  A    between atoms: C7_17  and  C8_18 
REMARK   10  A    between atoms: C8_18  and  C9_19 
REMARK   11  A    between atoms: C10_24  and  C11_25 
ROOT
HETATM    1  C1  UNL     1      13.032  36.876 -11.453  1.00  0.00     0.313 C 
HETATM    2  N1  UNL     1      14.321  37.450 -11.869  1.00  0.00     0.070 N 
HETATM    3  N3  UNL     1      14.081  38.265 -12.934  1.00  0.00    -0.215 N 
ATOM      4  H3  UNL     1      13.432  39.030 -12.752  1.00  0.00     0.194 HD
HETATM    5  C7  UNL     1      14.534  38.223 -14.103  1.00  0.00     0.045 C 
HETATM    6  C10 UNL     1      15.501  37.157 -14.505  1.00  0.00     0.168 C 
HETATM    7  N8  UNL     1      16.098  36.564 -13.300  1.00  0.00    -0.340 N 
ATOM      8  H8  UNL     1      17.065  36.237 -13.296  1.00  0.00     0.163 HD
HETATM    9  C14 UNL     1      15.282  36.463 -12.140  1.00  0.00     0.299 C 
HETATM   10  N9  UNL     1      15.471  35.439 -11.370  1.00  0.00    -0.363 N 
ATOM     11  H91 UNL     1      16.170  34.722 -11.567  1.00  0.00     0.159 HD
ATOM     12  H92 UNL     1      14.886  35.366 -10.538  1.00  0.00     0.159 HD
ENDROOT
BRANCH   2  13
HETATM   13  C2  UNL     1      14.719  38.308 -10.757  1.00  0.00     0.275 C 
BRANCH  13  14
HETATM   14  C3  UNL     1      13.816  39.490 -10.609  1.00  0.00     0.031 C 
BRANCH  14  15
HETATM   15  C4  UNL     1      14.558  40.604  -9.911  1.00  0.00     0.004 C 
BRANCH  15  16
HETATM   16  C5  UNL     1      13.720  41.411  -8.973  1.00  0.00     0.028 C 
BRANCH  16  17
HETATM   17  C6  UNL     1      12.531  40.549  -8.578  1.00  0.00     0.192 C 
BRANCH  17  18
HETATM   18  O1  UNL     1      12.748  40.072  -7.282  1.00  0.00    -0.260 OA
BRANCH  18  19
HETATM   19  S1  UNL     1      12.487  38.435  -7.168  1.00  0.00     0.355 S 
HETATM   20  O2  UNL     1      11.452  37.969  -8.135  1.00  0.00    -0.176 OA
HETATM   21  O3  UNL     1      13.782  37.742  -7.526  1.00  0.00    -0.176 OA
BRANCH  19  22
HETATM   22  N2  UNL     1      12.073  37.940  -5.577  1.00  0.00    -0.306 N 
ATOM     23  H22 UNL     1      11.110  37.904  -5.242  1.00  0.00     0.171 HD
ATOM     24  H21 UNL     1      12.888  37.690  -5.018  1.00  0.00     0.171 HD
ENDBRANCH  19  22
ENDBRANCH  18  19
ENDBRANCH  17  18
ENDBRANCH  16  17
ENDBRANCH  15  16
ENDBRANCH  14  15
ENDBRANCH  13  14
ENDBRANCH   2  13
BRANCH   5  25
HETATM   25  C8  UNL     1      14.136  39.228 -15.127  1.00  0.00     0.129 C 
BRANCH  25  26
HETATM   26  C9  UNL     1      14.070  40.609 -14.627  1.00  0.00     0.092 C 
HETATM   27  N4  UNL     1      13.180  41.420 -15.045  1.00  0.00    -0.391 N 
ATOM     28  H42 UNL     1      12.484  41.104 -15.721  1.00  0.00     0.157 HD
ATOM     29  H41 UNL     1      13.134  42.378 -14.699  1.00  0.00     0.157 HD
HETATM   30  N5  UNL     1      15.031  41.044 -13.694  1.00  0.00    -0.088 NA
ENDBRANCH  25  26
ENDBRANCH   5  25
BRANCH   6  31
HETATM   31  C11 UNL     1      14.816  36.089 -15.292  1.00  0.00     0.004 A 
HETATM   32  C12 UNL     1      13.516  35.665 -15.146  1.00  0.00     0.118 A 
HETATM   33  N6  UNL     1      13.287  34.698 -16.035  1.00  0.00    -0.312 N 
HETATM   34  N7  UNL     1      14.374  34.485 -16.739  1.00  0.00    -0.312 N 
ATOM     35  H6  UNL     1      12.404  34.201 -16.150  1.00  0.00     0.186 HD
HETATM   36  C13 UNL     1      15.350  35.332 -16.307  1.00  0.00     0.118 A 
ATOM     37  H7  UNL     1      14.472  33.798 -17.487  1.00  0.00     0.186 HD
ENDBRANCH   6  31
TORSDOF 11
ENDMDL
MODEL 5
REMARK VINA RESULT: -7.284643153      1.168      1.411
REMARK  11 active torsions:
REMARK  status: ('A' for Active; 'I' for Inactive)
REMARK    1  A    between atoms: N1_2  and  C2_3 
REMARK    2  A    between atoms: C2_3  and  C3_4 
REMARK    3  A    between atoms: C3_4  and  C4_5 
REMARK    4  A    between atoms: C4_5  and  C5_6 
REMARK    5  A    between atoms: C5_6  and  C6_7 
REMARK    6  A    between atoms: C6_7  and  O1_8 
REMARK    7  A    between atoms: O1_8  and  S1_9 
REMARK    8  A    between atoms: S1_9  and  N2_10 
REMARK    9  A    between atoms: C7_17  and  C8_18 
REMARK   10  A    between atoms: C8_18  and  C9_19 
REMARK   11  A    between atoms: C10_24  and  C11_25 
ROOT
HETATM    1  C1  UNL     1      12.967  35.499 -12.703  1.00  0.00     0.313 C 
HETATM    2  N1  UNL     1      13.833  36.584 -12.219  1.00  0.00     0.070 N 
HETATM    3  N3  UNL     1      13.822  37.568 -13.161  1.00  0.00    -0.215 N 
ATOM      4  H3  UNL     1      12.901  37.957 -13.365  1.00  0.00     0.194 HD
HETATM    5  C7  UNL     1      14.765  38.072 -13.816  1.00  0.00     0.045 C 
HETATM    6  C10 UNL     1      16.169  37.600 -13.612  1.00  0.00     0.168 C 
HETATM    7  N8  UNL     1      16.259  36.889 -12.329  1.00  0.00    -0.340 N 
ATOM      8  H8  UNL     1      17.105  36.934 -11.759  1.00  0.00     0.163 HD
HETATM    9  C14 UNL     1      15.128  36.137 -11.909  1.00  0.00     0.299 C 
HETATM   10  N9  UNL     1      15.353  35.050 -11.244  1.00  0.00    -0.363 N 
ATOM     11  H91 UNL     1      16.293  34.725 -11.019  1.00  0.00     0.159 HD
ATOM     12  H92 UNL     1      14.541  34.510 -10.943  1.00  0.00     0.159 HD
ENDROOT
BRANCH   2  13
HETATM   13  C2  UNL     1      13.143  37.110 -11.044  1.00  0.00     0.275 C 
BRANCH  13  14
HETATM   14  C3  UNL     1      13.979  38.100 -10.299  1.00  0.00     0.031 C 
BRANCH  14  15
HETATM   15  C4  UNL     1      13.829  37.867  -8.815  1.00  0.00     0.004 C 
BRANCH  15  16
HETATM   16  C5  UNL     1      12.546  38.371  -8.237  1.00  0.00     0.028 C 
BRANCH  16  17
HETATM   17  C6  UNL     1      12.685  38.320  -6.724  1.00  0.00     0.192 C 
BRANCH  17  18
HETATM   18  O1  UNL     1      11.567  37.661  -6.204  1.00  0.00    -0.260 OA
BRANCH  18  19
HETATM   19  S1  UNL     1      10.648  38.656  -5.242  1.00  0.00     0.355 S 
HETATM   20  O2  UNL     1      10.460  40.002  -5.855  1.00  0.00    -0.176 OA
HETATM   21  O3  UNL     1       9.280  38.025  -5.113  1.00  0.00    -0.176 OA
BRANCH  19  22
HETATM   22  N2  UNL     1      11.283  38.813  -3.654  1.00  0.00    -0.306 N 
ATOM     23  H22 UNL     1      12.130  38.336  -3.348  1.00  0.00     0.171 HD
ATOM     24  H21 UNL     1      10.722  39.430  -3.066  1.00  0.00     0.171 HD
ENDBRANCH  19  22
ENDBRANCH  18  19
ENDBRANCH  17  18
ENDBRANCH  16  17
ENDBRANCH  15  16
ENDBRANCH  14  15
ENDBRANCH  13  14
ENDBRANCH   2  13
BRANCH   5  25
HETATM   25  C8  UNL     1      14.529  39.154 -14.811  1.00  0.00     0.129 C 
BRANCH  25  26
HETATM   26  C9  UNL     1      13.987  40.395 -14.239  1.00  0.00     0.092 C 
HETATM   27  N4  UNL     1      13.404  41.260 -14.972  1.00  0.00    -0.391 N 
ATOM     28  H42 UNL     1      13.287  41.083 -15.970  1.00  0.00     0.157 HD
ATOM     29  H41 UNL     1      13.028  42.121 -14.575  1.00  0.00     0.157 HD
HETATM   30  N5  UNL     1      14.148  40.640 -12.860  1.00  0.00    -0.088 NA
ENDBRANCH  25  26
ENDBRANCH   5  25
BRANCH   6  31
HETATM   31  C11 UNL     1      16.586  36.683 -14.714  1.00  0.00     0.004 A 
HETATM   32  C12 UNL     1      15.758  35.999 -15.572  1.00  0.00     0.118 A 
HETATM   33  N6  UNL     1      16.515  35.292 -16.412  1.00  0.00    -0.312 N 
HETATM   34  N7  UNL     1      17.782  35.491 -16.132  1.00  0.00    -0.312 N 
ATOM     35  H6  UNL     1      16.164  34.689 -17.156  1.00  0.00     0.186 HD
HETATM   36  C13 UNL     1      17.868  36.353 -15.080  1.00  0.00     0.118 A 
ATOM     37  H7  UNL     1      18.571  35.070 -16.621  1.00  0.00     0.186 HD
ENDBRANCH   6  31
TORSDOF 11
ENDMDL
