MODEL 1
REMARK VINA RESULT: -8.339930301      0.000      0.000
REMARK  13 active torsions:
REMARK  status: ('A' for Active; 'I' for Inactive)
REMARK    1  A    between atoms: C2_2  and  C3_3 
REMARK    2  A    between atoms: C3_3  and  C4_4 
REMARK    3  A    between atoms: C4_4  and  C5_5 
REMARK    4  A    between atoms: C5_5  and  C6_6 
REMARK    5  A    between atoms: C6_6  and  C7_7 
REMARK    6  A    between atoms: C7_7  and  C8_8 
REMARK    7  A    between atoms: C8_8  and  C9_9 
REMARK    8  A    between atoms: C9_9  and  N1_10 
REMARK    9  A    between atoms: N1_10  and  C10_12 
REMARK   10  A    between atoms: C11_15  and  N3_16 
REMARK   11  A    between atoms: C12_21  and  N5_22 
REMARK   12  A    between atoms: N5_22  and  O1_24 
REMARK   13  A    between atoms: O1_24  and  C13_25 
ROOT
HETATM    1  C10 UNL     1      12.073  38.502  -6.467  1.00  0.00     0.707 A 
HETATM    2  N2  UNL     1      11.459  39.589  -6.950  1.00  0.00    -0.022 N 
ATOM      3  H2  UNL     1      10.708  40.026  -6.415  1.00  0.00     0.203 HD
HETATM    4  C11 UNL     1      11.823  40.108  -8.133  1.00  0.00     0.705 A 
HETATM    5  N4  UNL     1      12.809  39.562  -8.869  1.00  0.00    -0.020 N 
ATOM      6  H4  UNL     1      13.082  39.961  -9.767  1.00  0.00     0.203 HD
HETATM    7  C12 UNL     1      13.421  38.470  -8.376  1.00  0.00     0.731 A 
HETATM    8  N8  UNL     1      13.051  37.941  -7.174  1.00  0.00    -0.020 N 
ATOM      9  H8  UNL     1      13.525  37.112  -6.815  1.00  0.00     0.203 HD
ENDROOT
BRANCH   7  10
HETATM   10  N5  UNL     1      14.361  37.914  -9.038  1.00  0.00    -0.094 N 
ATOM     11  H5  UNL     1      15.312  38.272  -8.953  1.00  0.00     0.213 HD
BRANCH  10  12
HETATM   12  O1  UNL     1      14.118  36.858  -9.851  1.00  0.00    -0.241 OA
BRANCH  12  13
HETATM   13  C13 UNL     1      13.635  37.051 -11.154  1.00  0.00     0.336 C 
HETATM   14  C14 UNL     1      14.375  38.198 -11.736  1.00  0.00     0.266 C 
HETATM   15  O2  UNL     1      13.777  39.297 -11.831  1.00  0.00    -0.270 OA
HETATM   16  N6  UNL     1      15.718  37.994 -12.154  1.00  0.00    -0.276 N 
HETATM   17  C15 UNL     1      16.205  36.699 -12.514  1.00  0.00     0.329 C 
ATOM     18  H6  UNL     1      16.351  38.792 -12.199  1.00  0.00     0.173 HD
HETATM   19  O3  UNL     1      17.397  36.549 -12.880  1.00  0.00    -0.247 OA
HETATM   20  N7  UNL     1      15.258  35.639 -12.423  1.00  0.00    -0.276 N 
HETATM   21  C16 UNL     1      13.917  35.854 -12.004  1.00  0.00     0.266 C 
ATOM     22  H7  UNL     1      15.552  34.693 -12.668  1.00  0.00     0.173 HD
HETATM   23  O4  UNL     1      12.972  35.088 -12.315  1.00  0.00    -0.270 OA
ENDBRANCH  12  13
ENDBRANCH  10  12
ENDBRANCH   7  10
BRANCH   4  24
HETATM   24  N3  UNL     1      11.237  41.150  -8.598  1.00  0.00    -0.234 N 
ATOM     25  H32 UNL     1      10.517  41.586  -8.023  1.00  0.00     0.174 HD
ATOM     26  H31 UNL     1      11.488  41.522  -9.514  1.00  0.00     0.174 HD
ENDBRANCH   4  24
BRANCH   1  27
HETATM   27  N1  UNL     1      11.676  38.052  -5.323  1.00  0.00    -0.225 N 
ATOM     28  H1  UNL     1      12.286  37.411  -4.817  1.00  0.00     0.177 HD
BRANCH  27  29
HETATM   29  C9  UNL     1      10.408  38.412  -4.724  1.00  0.00     0.138 C 
BRANCH  29  30
HETATM   30  C8  UNL     1      10.524  38.255  -3.242  1.00  0.00     0.020 C 
BRANCH  30  31
HETATM   31  C7  UNL     1       9.334  37.515  -2.632  1.00  0.00     0.002 C 
BRANCH  31  32
HETATM   32  C6  UNL     1       9.729  37.150  -1.241  1.00  0.00     0.000 C 
BRANCH  32  33
HETATM   33  C5  UNL     1      10.571  38.234  -0.553  1.00  0.00     0.000 C 
BRANCH  33  34
HETATM   34  C4  UNL     1       9.713  39.282   0.058  1.00  0.00     0.000 C 
BRANCH  34  35
HETATM   35  C3  UNL     1       9.882  40.636  -0.489  1.00  0.00    -0.000 C 
BRANCH  35  36
HETATM   36  C2  UNL     1       8.934  41.146  -1.508  1.00  0.00    -0.005 C 
HETATM   37  C1  UNL     1       8.551  42.575  -1.462  1.00  0.00     0.005 C 
ENDBRANCH  35  36
ENDBRANCH  34  35
ENDBRANCH  33  34
ENDBRANCH  32  33
ENDBRANCH  31  32
ENDBRANCH  30  31
ENDBRANCH  29  30
ENDBRANCH  27  29
ENDBRANCH   1  27
TORSDOF 13
ENDMDL
MODEL 2
REMARK VINA RESULT: -8.307985627      4.215      9.980
REMARK  13 active torsions:
REMARK  status: ('A' for Active; 'I' for Inactive)
REMARK    1  A    between atoms: C2_2  and  C3_3 
REMARK    2  A    between atoms: C3_3  and  C4_4 
REMARK    3  A    between atoms: C4_4  and  C5_5 
REMARK    4  A    between atoms: C5_5  and  C6_6 
REMARK    5  A    between atoms: C6_6  and  C7_7 
REMARK    6  A    between atoms: C7_7  and  C8_8 
REMARK    7  A    between atoms: C8_8  and  C9_9 
REMARK    8  A    between atoms: C9_9  and  N1_10 
REMARK    9  A    between atoms: N1_10  and  C10_12 
REMARK   10  A    between atoms: C11_15  and  N3_16 
REMARK   11  A    between atoms: C12_21  and  N5_22 
REMARK   12  A    between atoms: N5_22  and  O1_24 
REMARK   13  A    between atoms: O1_24  and  C13_25 
ROOT
HETATM    1  C10 UNL     1      12.608  38.633  -7.276  1.00  0.00     0.707 A 
HETATM    2  N2  UNL     1      12.212  39.882  -7.546  1.00  0.00    -0.022 N 
ATOM      3  H2  UNL     1      12.491  40.325  -8.422  1.00  0.00     0.203 HD
HETATM    4  C11 UNL     1      11.447  40.559  -6.673  1.00  0.00     0.705 A 
HETATM    5  N4  UNL     1      11.057  40.012  -5.508  1.00  0.00    -0.020 N 
ATOM      6  H4  UNL     1      10.476  40.530  -4.848  1.00  0.00     0.203 HD
HETATM    7  C12 UNL     1      11.460  38.755  -5.243  1.00  0.00     0.731 A 
HETATM    8  N8  UNL     1      12.236  38.068  -6.130  1.00  0.00    -0.020 N 
ATOM      9  H8  UNL     1      12.533  37.116  -5.914  1.00  0.00     0.203 HD
ENDROOT
BRANCH   7  10
HETATM   10  N5  UNL     1      11.116  38.193  -4.150  1.00  0.00    -0.094 N 
ATOM     11  H5  UNL     1      10.877  37.202  -4.151  1.00  0.00     0.213 HD
BRANCH  10  12
HETATM   12  O1  UNL     1      11.063  38.889  -2.990  1.00  0.00    -0.241 OA
BRANCH  12  13
HETATM   13  C13 UNL     1       9.830  39.220  -2.406  1.00  0.00     0.336 C 
HETATM   14  C14 UNL     1       8.821  38.269  -2.932  1.00  0.00     0.266 C 
HETATM   15  O2  UNL     1       8.015  38.685  -3.799  1.00  0.00    -0.270 OA
HETATM   16  N6  UNL     1       8.818  36.939  -2.429  1.00  0.00    -0.276 N 
HETATM   17  C15 UNL     1       9.354  36.620  -1.144  1.00  0.00     0.329 C 
ATOM     18  H6  UNL     1       8.422  36.193  -3.001  1.00  0.00     0.173 HD
HETATM   19  O3  UNL     1       9.338  35.437  -0.725  1.00  0.00    -0.247 OA
HETATM   20  N7  UNL     1       9.887  37.719  -0.410  1.00  0.00    -0.276 N 
HETATM   21  C16 UNL     1       9.886  39.045  -0.922  1.00  0.00     0.266 C 
ATOM     22  H7  UNL     1      10.284  37.549   0.514  1.00  0.00     0.173 HD
HETATM   23  O4  UNL     1       9.927  40.061  -0.187  1.00  0.00    -0.270 OA
ENDBRANCH  12  13
ENDBRANCH  10  12
ENDBRANCH   7  10
BRANCH   4  24
HETATM   24  N3  UNL     1      11.066  41.756  -6.930  1.00  0.00    -0.234 N 
ATOM     25  H32 UNL     1      10.261  41.877  -7.544  1.00  0.00     0.174 HD
ATOM     26  H31 UNL     1      11.557  42.555  -6.529  1.00  0.00     0.174 HD
ENDBRANCH   4  24
BRANCH   1  27
HETATM   27  N1  UNL     1      13.341  38.037  -8.157  1.00  0.00    -0.225 N 
ATOM     28  H1  UNL     1      13.887  37.226  -7.864  1.00  0.00     0.177 HD
BRANCH  27  29
HETATM   29  C9  UNL     1      13.425  38.460  -9.539  1.00  0.00     0.138 C 
BRANCH  29  30
HETATM   30  C8  UNL     1      13.311  37.251 -10.410  1.00  0.00     0.020 C 
BRANCH  30  31
HETATM   31  C7  UNL     1      14.630  36.491 -10.540  1.00  0.00     0.002 C 
BRANCH  31  32
HETATM   32  C6  UNL     1      14.482  35.582 -11.714  1.00  0.00     0.000 C 
BRANCH  32  33
HETATM   33  C5  UNL     1      13.166  35.795 -12.475  1.00  0.00     0.000 C 
BRANCH  33  34
HETATM   34  C4  UNL     1      13.405  35.989 -13.928  1.00  0.00     0.000 C 
BRANCH  34  35
HETATM   35  C3  UNL     1      14.464  36.949 -14.272  1.00  0.00    -0.000 C 
BRANCH  35  36
HETATM   36  C2  UNL     1      14.151  38.395 -14.360  1.00  0.00    -0.005 C 
HETATM   37  C1  UNL     1      14.477  39.259 -13.203  1.00  0.00     0.005 C 
ENDBRANCH  35  36
ENDBRANCH  34  35
ENDBRANCH  33  34
ENDBRANCH  32  33
ENDBRANCH  31  32
ENDBRANCH  30  31
ENDBRANCH  29  30
ENDBRANCH  27  29
ENDBRANCH   1  27
TORSDOF 13
ENDMDL
MODEL 3
REMARK VINA RESULT: -8.215727556      3.849      9.824
REMARK  13 active torsions:
REMARK  status: ('A' for Active; 'I' for Inactive)
REMARK    1  A    between atoms: C2_2  and  C3_3 
REMARK    2  A    between atoms: C3_3  and  C4_4 
REMARK    3  A    between atoms: C4_4  and  C5_5 
REMARK    4  A    between atoms: C5_5  and  C6_6 
REMARK    5  A    between atoms: C6_6  and  C7_7 
REMARK    6  A    between atoms: C7_7  and  C8_8 
REMARK    7  A    between atoms: C8_8  and  C9_9 
REMARK    8  A    between atoms: C9_9  and  N1_10 
REMARK    9  A    between atoms: N1_10  and  C10_12 
REMARK   10  A    between atoms: C11_15  and  N3_16 
REMARK   11  A    between atoms: C12_21  and  N5_22 
REMARK   12  A    between atoms: N5_22  and  O1_24 
REMARK   13  A    between atoms: O1_24  and  C13_25 
ROOT
HETATM    1  C10 UNL     1      12.547  38.672  -8.306  1.00  0.00     0.707 A 
HETATM    2  N2  UNL     1      12.143  39.937  -8.469  1.00  0.00    -0.022 N 
ATOM      3  H2  UNL     1      12.237  40.386  -9.380  1.00  0.00     0.203 HD
HETATM    4  C11 UNL     1      11.615  40.621  -7.441  1.00  0.00     0.705 A 
HETATM    5  N4  UNL     1      11.473  40.066  -6.224  1.00  0.00    -0.020 N 
ATOM      6  H4  UNL     1      11.071  40.590  -5.447  1.00  0.00     0.203 HD
HETATM    7  C12 UNL     1      11.881  38.794  -6.068  1.00  0.00     0.731 A 
HETATM    8  N8  UNL     1      12.418  38.098  -7.112  1.00  0.00    -0.020 N 
ATOM      9  H8  UNL     1      12.723  37.134  -6.977  1.00  0.00     0.203 HD
ENDROOT
BRANCH   7  10
HETATM   10  N5  UNL     1      11.768  38.223  -4.932  1.00  0.00    -0.094 N 
ATOM     11  H5  UNL     1      12.608  37.919  -4.439  1.00  0.00     0.213 HD
BRANCH  10  12
HETATM   12  O1  UNL     1      10.554  38.013  -4.369  1.00  0.00    -0.241 OA
BRANCH  12  13
HETATM   13  C13 UNL     1      10.112  38.804  -3.298  1.00  0.00     0.336 C 
HETATM   14  C14 UNL     1       8.712  38.409  -3.004  1.00  0.00     0.266 C 
HETATM   15  O2  UNL     1       7.793  39.180  -3.370  1.00  0.00    -0.270 OA
HETATM   16  N6  UNL     1       8.485  37.181  -2.324  1.00  0.00    -0.276 N 
HETATM   17  C15 UNL     1       9.482  36.588  -1.489  1.00  0.00     0.329 C 
ATOM     18  H6  UNL     1       7.587  36.711  -2.435  1.00  0.00     0.173 HD
HETATM   19  O3  UNL     1       9.254  35.503  -0.901  1.00  0.00    -0.247 OA
HETATM   20  N7  UNL     1      10.708  37.308  -1.388  1.00  0.00    -0.276 N 
HETATM   21  C16 UNL     1      10.924  38.535  -2.073  1.00  0.00     0.266 C 
ATOM     22  H7  UNL     1      11.455  36.930  -0.806  1.00  0.00     0.173 HD
HETATM   23  O4  UNL     1      11.760  39.391  -1.693  1.00  0.00    -0.270 OA
ENDBRANCH  12  13
ENDBRANCH  10  12
ENDBRANCH   7  10
BRANCH   4  24
HETATM   24  N3  UNL     1      11.227  41.835  -7.594  1.00  0.00    -0.234 N 
ATOM     25  H32 UNL     1      11.660  42.382  -8.337  1.00  0.00     0.174 HD
ATOM     26  H31 UNL     1      10.509  42.231  -6.988  1.00  0.00     0.174 HD
ENDBRANCH   4  24
BRANCH   1  27
HETATM   27  N1  UNL     1      13.046  38.068  -9.333  1.00  0.00    -0.225 N 
ATOM     28  H1  UNL     1      12.533  38.106 -10.213  1.00  0.00     0.177 HD
BRANCH  27  29
HETATM   29  C9  UNL     1      14.299  37.342  -9.297  1.00  0.00     0.138 C 
BRANCH  29  30
HETATM   30  C8  UNL     1      14.455  36.607 -10.589  1.00  0.00     0.020 C 
BRANCH  30  31
HETATM   31  C7  UNL     1      13.180  36.617 -11.431  1.00  0.00     0.002 C 
BRANCH  31  32
HETATM   32  C6  UNL     1      13.352  35.565 -12.475  1.00  0.00     0.000 C 
BRANCH  32  33
HETATM   33  C5  UNL     1      13.400  36.137 -13.899  1.00  0.00     0.000 C 
BRANCH  33  34
HETATM   34  C4  UNL     1      14.799  36.358 -14.347  1.00  0.00     0.000 C 
BRANCH  34  35
HETATM   35  C3  UNL     1      15.250  37.757 -14.345  1.00  0.00    -0.000 C 
BRANCH  35  36
HETATM   36  C2  UNL     1      14.258  38.854 -14.252  1.00  0.00    -0.005 C 
HETATM   37  C1  UNL     1      14.299  39.744 -13.070  1.00  0.00     0.005 C 
ENDBRANCH  35  36
ENDBRANCH  34  35
ENDBRANCH  33  34
ENDBRANCH  32  33
ENDBRANCH  31  32
ENDBRANCH  30  31
ENDBRANCH  29  30
ENDBRANCH  27  29
ENDBRANCH   1  27
TORSDOF 13
ENDMDL
MODEL 4
REMARK VINA RESULT: -8.145761185      3.940      9.846
REMARK  13 active torsions:
REMARK  status: ('A' for Active; 'I' for Inactive)
REMARK    1  A    between atoms: C2_2  and  C3_3 
REMARK    2  A    between atoms: C3_3  and  C4_4 
REMARK    3  A    between atoms: C4_4  and  C5_5 
REMARK    4  A    between atoms: C5_5  and  C6_6 
REMARK    5  A    between atoms: C6_6  and  C7_7 
REMARK    6  A    between atoms: C7_7  and  C8_8 
REMARK    7  A    between atoms: C8_8  and  C9_9 
REMARK    8  A    between atoms: C9_9  and  N1_10 
REMARK    9  A    between atoms: N1_10  and  C10_12 
REMARK   10  A    between atoms: C11_15  and  N3_16 
REMARK   11  A    between atoms: C12_21  and  N5_22 
REMARK   12  A    between atoms: N5_22  and  O1_24 
REMARK   13  A    between atoms: O1_24  and  C13_25 
ROOT
HETATM    1  C10 UNL     1      12.640  38.697  -7.507  1.00  0.00     0.707 A 
HETATM    2  N2  UNL     1      12.303  39.954  -7.820  1.00  0.00    -0.022 N 
ATOM      3  H2  UNL     1      12.592  40.349  -8.715  1.00  0.00     0.203 HD
HETATM    4  C11 UNL     1      11.585  40.699  -6.964  1.00  0.00     0.705 A 
HETATM    5  N4  UNL     1      11.183  40.216  -5.774  1.00  0.00    -0.020 N 
ATOM      6  H4  UNL     1      10.638  40.787  -5.128  1.00  0.00     0.203 HD
HETATM    7  C12 UNL     1      11.526  38.952  -5.468  1.00  0.00     0.731 A 
HETATM    8  N8  UNL     1      12.256  38.193  -6.336  1.00  0.00    -0.020 N 
ATOM      9  H8  UNL     1      12.508  37.237  -6.088  1.00  0.00     0.203 HD
ENDROOT
BRANCH   7  10
HETATM   10  N5  UNL     1      11.169  38.448  -4.350  1.00  0.00    -0.094 N 
ATOM     11  H5  UNL     1      11.745  38.606  -3.523  1.00  0.00     0.213 HD
BRANCH  10  12
HETATM   12  O1  UNL     1      10.041  37.707  -4.243  1.00  0.00    -0.241 OA
BRANCH  12  13
HETATM   13  C13 UNL     1       9.077  38.003  -3.266  1.00  0.00     0.336 C 
HETATM   14  C14 UNL     1       9.341  37.123  -2.102  1.00  0.00     0.266 C 
HETATM   15  O2  UNL     1       8.578  36.145  -1.918  1.00  0.00    -0.270 OA
HETATM   16  N6  UNL     1      10.440  37.433  -1.256  1.00  0.00    -0.276 N 
HETATM   17  C15 UNL     1      10.964  38.759  -1.158  1.00  0.00     0.329 C 
ATOM     18  H6  UNL     1      10.868  36.689  -0.704  1.00  0.00     0.173 HD
HETATM   19  O3  UNL     1      11.936  39.004  -0.402  1.00  0.00    -0.247 OA
HETATM   20  N7  UNL     1      10.311  39.739  -1.961  1.00  0.00    -0.276 N 
HETATM   21  C16 UNL     1       9.212  39.418  -2.803  1.00  0.00     0.266 C 
ATOM     22  H7  UNL     1      10.644  40.702  -1.930  1.00  0.00     0.173 HD
HETATM   23  O4  UNL     1       8.362  40.265  -3.169  1.00  0.00    -0.270 OA
ENDBRANCH  12  13
ENDBRANCH  10  12
ENDBRANCH   7  10
BRANCH   4  24
HETATM   24  N3  UNL     1      11.260  41.904  -7.261  1.00  0.00    -0.234 N 
ATOM     25  H32 UNL     1      10.277  42.164  -7.182  1.00  0.00     0.174 HD
ATOM     26  H31 UNL     1      11.967  42.573  -7.566  1.00  0.00     0.174 HD
ENDBRANCH   4  24
BRANCH   1  27
HETATM   27  N1  UNL     1      13.331  38.032  -8.373  1.00  0.00    -0.225 N 
ATOM     28  H1  UNL     1      13.832  37.201  -8.058  1.00  0.00     0.177 HD
BRANCH  27  29
HETATM   29  C9  UNL     1      13.428  38.407  -9.768  1.00  0.00     0.138 C 
BRANCH  29  30
HETATM   30  C8  UNL     1      13.316  37.169 -10.598  1.00  0.00     0.020 C 
BRANCH  30  31
HETATM   31  C7  UNL     1      14.634  36.401 -10.691  1.00  0.00     0.002 C 
BRANCH  31  32
HETATM   32  C6  UNL     1      14.507  35.478 -11.856  1.00  0.00     0.000 C 
BRANCH  32  33
HETATM   33  C5  UNL     1      13.164  35.619 -12.589  1.00  0.00     0.000 C 
BRANCH  33  34
HETATM   34  C4  UNL     1      13.362  35.918 -14.031  1.00  0.00     0.000 C 
BRANCH  34  35
HETATM   35  C3  UNL     1      14.586  36.663 -14.360  1.00  0.00    -0.000 C 
BRANCH  35  36
HETATM   36  C2  UNL     1      14.508  38.106 -14.690  1.00  0.00    -0.005 C 
HETATM   37  C1  UNL     1      14.235  39.066 -13.597  1.00  0.00     0.005 C 
ENDBRANCH  35  36
ENDBRANCH  34  35
ENDBRANCH  33  34
ENDBRANCH  32  33
ENDBRANCH  31  32
ENDBRANCH  30  31
ENDBRANCH  29  30
ENDBRANCH  27  29
ENDBRANCH   1  27
TORSDOF 13
ENDMDL
MODEL 5
REMARK VINA RESULT: -8.012752483      4.026     10.390
REMARK  13 active torsions:
REMARK  status: ('A' for Active; 'I' for Inactive)
REMARK    1  A    between atoms: C2_2  and  C3_3 
REMARK    2  A    between atoms: C3_3  and  C4_4 
REMARK    3  A    between atoms: C4_4  and  C5_5 
REMARK    4  A    between atoms: C5_5  and  C6_6 
REMARK    5  A    between atoms: C6_6  and  C7_7 
REMARK    6  A    between atoms: C7_7  and  C8_8 
REMARK    7  A    between atoms: C8_8  and  C9_9 
REMARK    8  A    between atoms: C9_9  and  N1_10 
REMARK    9  A    between atoms: N1_10  and  C10_12 
REMARK   10  A    between atoms: C11_15  and  N3_16 
REMARK   11  A    between atoms: C12_21  and  N5_22 
REMARK   12  A    between atoms: N5_22  and  O1_24 
REMARK   13  A    between atoms: O1_24  and  C13_25 
ROOT
HETATM    1  C10 UNL     1      12.555  38.640  -8.266  1.00  0.00     0.707 A 
HETATM    2  N2  UNL     1      12.152  39.903  -8.450  1.00  0.00    -0.022 N 
ATOM      3  H2  UNL     1      12.244  40.336  -9.369  1.00  0.00     0.203 HD
HETATM    4  C11 UNL     1      11.628  40.605  -7.432  1.00  0.00     0.705 A 
HETATM    5  N4  UNL     1      11.489  40.071  -6.205  1.00  0.00    -0.020 N 
ATOM      6  H4  UNL     1      11.090  40.609  -5.436  1.00  0.00     0.203 HD
HETATM    7  C12 UNL     1      11.896  38.801  -6.029  1.00  0.00     0.731 A 
HETATM    8  N8  UNL     1      12.429  38.087  -7.062  1.00  0.00    -0.020 N 
ATOM      9  H8  UNL     1      12.733  37.125  -6.911  1.00  0.00     0.203 HD
ENDROOT
BRANCH   7  10
HETATM   10  N5  UNL     1      11.787  38.250  -4.883  1.00  0.00    -0.094 N 
ATOM     11  H5  UNL     1      12.628  37.973  -4.378  1.00  0.00     0.213 HD
BRANCH  10  12
HETATM   12  O1  UNL     1      10.573  38.027  -4.324  1.00  0.00    -0.241 OA
BRANCH  12  13
HETATM   13  C13 UNL     1      10.122  38.807  -3.248  1.00  0.00     0.336 C 
HETATM   14  C14 UNL     1       8.718  38.415  -2.974  1.00  0.00     0.266 C 
HETATM   15  O2  UNL     1       7.807  39.195  -3.341  1.00  0.00    -0.270 OA
HETATM   16  N6  UNL     1       8.477  37.180  -2.312  1.00  0.00    -0.276 N 
HETATM   17  C15 UNL     1       9.462  36.572  -1.475  1.00  0.00     0.329 C 
ATOM     18  H6  UNL     1       7.578  36.715  -2.439  1.00  0.00     0.173 HD
HETATM   19  O3  UNL     1       9.222  35.480  -0.903  1.00  0.00    -0.247 OA
HETATM   20  N7  UNL     1      10.690  37.284  -1.351  1.00  0.00    -0.276 N 
HETATM   21  C16 UNL     1      10.920  38.518  -2.017  1.00  0.00     0.266 C 
ATOM     22  H7  UNL     1      11.429  36.895  -0.765  1.00  0.00     0.173 HD
HETATM   23  O4  UNL     1      11.756  39.365  -1.617  1.00  0.00    -0.270 OA
ENDBRANCH  12  13
ENDBRANCH  10  12
ENDBRANCH   7  10
BRANCH   4  24
HETATM   24  N3  UNL     1      11.241  41.816  -7.605  1.00  0.00    -0.234 N 
ATOM     25  H32 UNL     1      11.756  42.389  -8.273  1.00  0.00     0.174 HD
ATOM     26  H31 UNL     1      10.444  42.186  -7.087  1.00  0.00     0.174 HD
ENDBRANCH   4  24
BRANCH   1  27
HETATM   27  N1  UNL     1      13.050  38.018  -9.284  1.00  0.00    -0.225 N 
ATOM     28  H1  UNL     1      12.540  38.052 -10.167  1.00  0.00     0.177 HD
BRANCH  27  29
HETATM   29  C9  UNL     1      14.292  37.275  -9.235  1.00  0.00     0.138 C 
BRANCH  29  30
HETATM   30  C8  UNL     1      14.477  36.578 -10.544  1.00  0.00     0.020 C 
BRANCH  30  31
HETATM   31  C7  UNL     1      13.292  36.773 -11.489  1.00  0.00     0.002 C 
BRANCH  31  32
HETATM   32  C6  UNL     1      13.304  35.616 -12.430  1.00  0.00     0.000 C 
BRANCH  32  33
HETATM   33  C5  UNL     1      13.322  36.043 -13.905  1.00  0.00     0.000 C 
BRANCH  33  34
HETATM   34  C4  UNL     1      14.712  36.199 -14.407  1.00  0.00     0.000 C 
BRANCH  34  35
HETATM   35  C3  UNL     1      14.904  35.916 -15.836  1.00  0.00    -0.000 C 
BRANCH  35  36
HETATM   36  C2  UNL     1      13.746  35.526 -16.675  1.00  0.00    -0.005 C 
HETATM   37  C1  UNL     1      13.696  36.002 -18.075  1.00  0.00     0.005 C 
ENDBRANCH  35  36
ENDBRANCH  34  35
ENDBRANCH  33  34
ENDBRANCH  32  33
ENDBRANCH  31  32
ENDBRANCH  30  31
ENDBRANCH  29  30
ENDBRANCH  27  29
ENDBRANCH   1  27
TORSDOF 13
ENDMDL
