MODEL 1
REMARK VINA RESULT: -7.427983090      0.000      0.000
REMARK  16 active torsions:
REMARK  status: ('A' for Active; 'I' for Inactive)
REMARK       I    between atoms: C1_2  and  N3_23 
REMARK       I    between atoms: N2_3  and  C2_5 
REMARK    1  A    between atoms: C2_5  and  C3_7 
REMARK    2  A    between atoms: C3_7  and  C4_8 
REMARK    3  A    between atoms: C5_10  and  C6_11 
REMARK    4  A    between atoms: C6_11  and  O3_12 
REMARK    5  A    between atoms: C7_14  and  O4_15 
REMARK    6  A    between atoms: C8_17  and  O5_18 
REMARK    7  A    between atoms: C9_20  and  O6_21 
REMARK    8  A    between atoms: N3_23  and  C10_25 
REMARK    9  A    between atoms: C10_25  and  C11_26 
REMARK   10  A    between atoms: C11_26  and  C12_27 
REMARK   11  A    between atoms: C12_27  and  C13_28 
REMARK   12  A    between atoms: C13_28  and  C14_29 
REMARK   13  A    between atoms: C14_29  and  C15_30 
REMARK   14  A    between atoms: C15_30  and  C16_31 
REMARK   15  A    between atoms: C16_31  and  N4_32 
REMARK   16  A    between atoms: N4_32  and  C17_34 
ROOT
HETATM    1  N1  UNL     1      12.924  35.956 -11.769  1.00  0.00    -0.063 NA
HETATM    2  C1  UNL     1      14.313  36.223 -11.828  1.00  0.00     0.190 C 
HETATM    3  N2  UNL     1      14.957  36.896 -10.926  1.00  0.00    -0.301 N 
ATOM      4  H2  UNL     1      15.958  37.039 -11.052  1.00  0.00     0.171 HD
HETATM    5  C2  UNL     1      14.331  37.446  -9.765  1.00  0.00     0.226 C 
HETATM    6  O1  UNL     1      14.557  36.846  -8.688  1.00  0.00    -0.273 OA
HETATM    7  N3  UNL     1      15.016  35.705 -12.978  1.00  0.00    -0.364 N 
ATOM      8  H3  UNL     1      15.183  34.703 -13.079  1.00  0.00     0.162 HD
ENDROOT
BRANCH   5   9
HETATM    9  C3  UNL     1      13.506  38.632  -9.946  1.00  0.00     0.137 C 
BRANCH   9  10
HETATM   10  C4  UNL     1      12.907  39.228  -8.714  1.00  0.00     0.162 C 
HETATM   11  O2  UNL     1      11.731  38.637  -8.330  1.00  0.00    -0.373 OA
HETATM   12  C5  UNL     1      11.446  38.922  -7.012  1.00  0.00     0.176 C 
HETATM   13  C7  UNL     1      11.779  40.344  -6.604  1.00  0.00     0.180 C 
HETATM   14  C8  UNL     1      11.827  41.261  -7.811  1.00  0.00     0.180 C 
HETATM   15  C9  UNL     1      12.924  40.715  -8.716  1.00  0.00     0.178 C 
BRANCH  12  16
HETATM   16  C6  UNL     1      12.120  37.957  -6.065  1.00  0.00     0.198 C 
BRANCH  16  17
HETATM   17  O3  UNL     1      11.456  37.959  -4.818  1.00  0.00    -0.398 OA
ATOM     18  H3  UNL     1      12.056  37.697  -4.129  1.00  0.00     0.209 HD
ENDBRANCH  16  17
ENDBRANCH  12  16
BRANCH  13  19
HETATM   19  O4  UNL     1      10.864  40.841  -5.683  1.00  0.00    -0.390 OA
ATOM     20  H4  UNL     1      11.281  41.061  -4.859  1.00  0.00     0.210 HD
ENDBRANCH  13  19
BRANCH  14  21
HETATM   21  O5  UNL     1      10.615  41.374  -8.453  1.00  0.00    -0.390 OA
ATOM     22  H5  UNL     1      10.698  41.437  -9.397  1.00  0.00     0.210 HD
ENDBRANCH  14  21
BRANCH  15  23
HETATM   23  O6  UNL     1      12.800  41.251  -9.976  1.00  0.00    -0.390 OA
ATOM     24  H6  UNL     1      13.630  41.319 -10.432  1.00  0.00     0.210 HD
ENDBRANCH  15  23
ENDBRANCH   9  10
ENDBRANCH   5   9
BRANCH   7  25
HETATM   25  C10 UNL     1      15.480  36.637 -13.984  1.00  0.00     0.122 C 
BRANCH  25  26
HETATM   26  C11 UNL     1      14.379  37.313 -14.734  1.00  0.00     0.020 C 
BRANCH  26  27
HETATM   27  C12 UNL     1      14.616  38.845 -14.837  1.00  0.00     0.002 C 
BRANCH  27  28
HETATM   28  C13 UNL     1      14.016  39.403 -13.593  1.00  0.00     0.000 C 
BRANCH  28  29
HETATM   29  C14 UNL     1      14.743  40.432 -12.876  1.00  0.00     0.005 C 
BRANCH  29  30
HETATM   30  C15 UNL     1      16.001  40.143 -12.190  1.00  0.00     0.044 C 
BRANCH  30  31
HETATM   31  C16 UNL     1      16.322  40.872 -10.954  1.00  0.00     0.056 C 
BRANCH  31  32
HETATM   32  N4  UNL     1      15.693  42.074 -10.712  1.00  0.00    -0.398 N 
ATOM     33  H4  UNL     1      14.792  42.190 -11.175  1.00  0.00     0.159 HD
BRANCH  32  34
HETATM   34  C17 UNL     1      16.089  43.134  -9.948  1.00  0.00     0.080 C 
HETATM   35  C18 UNL     1      17.569  43.362  -9.804  1.00  0.00     0.025 C 
HETATM   36  C19 UNL     1      17.620  44.491  -8.747  1.00  0.00     0.002 C 
HETATM   37  C20 UNL     1      16.375  44.323  -7.927  1.00  0.00     0.002 C 
HETATM   38  C21 UNL     1      15.649  43.128  -8.477  1.00  0.00     0.025 C 
ENDBRANCH  32  34
ENDBRANCH  31  32
ENDBRANCH  30  31
ENDBRANCH  29  30
ENDBRANCH  28  29
ENDBRANCH  27  28
ENDBRANCH  26  27
ENDBRANCH  25  26
ENDBRANCH   7  25
TORSDOF 16
ENDMDL
MODEL 2
REMARK VINA RESULT: -7.122274033      0.664      1.150
REMARK  16 active torsions:
REMARK  status: ('A' for Active; 'I' for Inactive)
REMARK       I    between atoms: C1_2  and  N3_23 
REMARK       I    between atoms: N2_3  and  C2_5 
REMARK    1  A    between atoms: C2_5  and  C3_7 
REMARK    2  A    between atoms: C3_7  and  C4_8 
REMARK    3  A    between atoms: C5_10  and  C6_11 
REMARK    4  A    between atoms: C6_11  and  O3_12 
REMARK    5  A    between atoms: C7_14  and  O4_15 
REMARK    6  A    between atoms: C8_17  and  O5_18 
REMARK    7  A    between atoms: C9_20  and  O6_21 
REMARK    8  A    between atoms: N3_23  and  C10_25 
REMARK    9  A    between atoms: C10_25  and  C11_26 
REMARK   10  A    between atoms: C11_26  and  C12_27 
REMARK   11  A    between atoms: C12_27  and  C13_28 
REMARK   12  A    between atoms: C13_28  and  C14_29 
REMARK   13  A    between atoms: C14_29  and  C15_30 
REMARK   14  A    between atoms: C15_30  and  C16_31 
REMARK   15  A    between atoms: C16_31  and  N4_32 
REMARK   16  A    between atoms: N4_32  and  C17_34 
ROOT
HETATM    1  N1  UNL     1      12.881  36.050 -11.760  1.00  0.00    -0.063 NA
HETATM    2  C1  UNL     1      14.277  36.280 -11.814  1.00  0.00     0.190 C 
HETATM    3  N2  UNL     1      14.936  36.929 -10.907  1.00  0.00    -0.301 N 
ATOM      4  H2  UNL     1      15.942  37.047 -11.029  1.00  0.00     0.171 HD
HETATM    5  C2  UNL     1      14.324  37.490  -9.743  1.00  0.00     0.226 C 
HETATM    6  O1  UNL     1      14.531  36.878  -8.670  1.00  0.00    -0.273 OA
HETATM    7  N3  UNL     1      14.969  35.750 -12.965  1.00  0.00    -0.364 N 
ATOM      8  H3  UNL     1      15.108  34.744 -13.072  1.00  0.00     0.162 HD
ENDROOT
BRANCH   5   9
HETATM    9  C3  UNL     1      13.531  38.699  -9.920  1.00  0.00     0.137 C 
BRANCH   9  10
HETATM   10  C4  UNL     1      12.909  39.279  -8.691  1.00  0.00     0.162 C 
HETATM   11  O2  UNL     1      11.743  38.664  -8.319  1.00  0.00    -0.373 OA
HETATM   12  C5  UNL     1      11.441  38.940  -7.002  1.00  0.00     0.176 C 
HETATM   13  C7  UNL     1      11.742  40.367  -6.588  1.00  0.00     0.180 C 
HETATM   14  C8  UNL     1      11.782  41.288  -7.793  1.00  0.00     0.180 C 
HETATM   15  C9  UNL     1      12.897  40.767  -8.690  1.00  0.00     0.178 C 
BRANCH  12  16
HETATM   16  C6  UNL     1      12.127  37.987  -6.052  1.00  0.00     0.198 C 
BRANCH  16  17
HETATM   17  O3  UNL     1      11.415  37.921  -4.834  1.00  0.00    -0.398 OA
ATOM     18  H3  UNL     1      11.092  37.039  -4.692  1.00  0.00     0.209 HD
ENDBRANCH  16  17
ENDBRANCH  12  16
BRANCH  13  19
HETATM   19  O4  UNL     1      10.810  40.844  -5.674  1.00  0.00    -0.390 OA
ATOM     20  H4  UNL     1       9.975  41.029  -6.088  1.00  0.00     0.210 HD
ENDBRANCH  13  19
BRANCH  14  21
HETATM   21  O5  UNL     1      10.573  41.378  -8.444  1.00  0.00    -0.390 OA
ATOM     22  H5  UNL     1       9.994  40.649  -8.258  1.00  0.00     0.210 HD
ENDBRANCH  14  21
BRANCH  15  23
HETATM   23  O6  UNL     1      12.772  41.303  -9.949  1.00  0.00    -0.390 OA
ATOM     24  H6  UNL     1      11.874  41.318 -10.258  1.00  0.00     0.210 HD
ENDBRANCH  15  23
ENDBRANCH   9  10
ENDBRANCH   5   9
BRANCH   7  25
HETATM   25  C10 UNL     1      15.460  36.675 -13.965  1.00  0.00     0.122 C 
BRANCH  25  26
HETATM   26  C11 UNL     1      14.380  37.349 -14.746  1.00  0.00     0.020 C 
BRANCH  26  27
HETATM   27  C12 UNL     1      14.888  38.657 -15.411  1.00  0.00     0.002 C 
BRANCH  27  28
HETATM   28  C13 UNL     1      14.041  39.732 -14.821  1.00  0.00     0.000 C 
BRANCH  28  29
HETATM   29  C14 UNL     1      14.026  39.887 -13.379  1.00  0.00     0.005 C 
BRANCH  29  30
HETATM   30  C15 UNL     1      14.995  40.739 -12.691  1.00  0.00     0.044 C 
BRANCH  30  31
HETATM   31  C16 UNL     1      16.235  40.135 -12.179  1.00  0.00     0.056 C 
BRANCH  31  32
HETATM   32  N4  UNL     1      16.562  40.320 -10.853  1.00  0.00    -0.398 N 
ATOM     33  H4  UNL     1      16.387  39.516 -10.251  1.00  0.00     0.159 HD
BRANCH  32  34
HETATM   34  C17 UNL     1      17.084  41.411 -10.222  1.00  0.00     0.080 C 
HETATM   35  C18 UNL     1      16.110  42.408  -9.655  1.00  0.00     0.025 C 
HETATM   36  C19 UNL     1      17.047  43.556  -9.209  1.00  0.00     0.002 C 
HETATM   37  C20 UNL     1      18.241  43.468 -10.114  1.00  0.00     0.002 C 
HETATM   38  C21 UNL     1      17.988  42.328 -11.059  1.00  0.00     0.025 C 
ENDBRANCH  32  34
ENDBRANCH  31  32
ENDBRANCH  30  31
ENDBRANCH  29  30
ENDBRANCH  28  29
ENDBRANCH  27  28
ENDBRANCH  26  27
ENDBRANCH  25  26
ENDBRANCH   7  25
TORSDOF 16
ENDMDL
MODEL 3
REMARK VINA RESULT: -6.974999183      4.188      8.324
REMARK  16 active torsions:
REMARK  status: ('A' for Active; 'I' for Inactive)
REMARK       I    between atoms: C1_2  and  N3_23 
REMARK       I    between atoms: N2_3  and  C2_5 
REMARK    1  A    between atoms: C2_5  and  C3_7 
REMARK    2  A    between atoms: C3_7  and  C4_8 
REMARK    3  A    between atoms: C5_10  and  C6_11 
REMARK    4  A    between atoms: C6_11  and  O3_12 
REMARK    5  A    between atoms: C7_14  and  O4_15 
REMARK    6  A    between atoms: C8_17  and  O5_18 
REMARK    7  A    between atoms: C9_20  and  O6_21 
REMARK    8  A    between atoms: N3_23  and  C10_25 
REMARK    9  A    between atoms: C10_25  and  C11_26 
REMARK   10  A    between atoms: C11_26  and  C12_27 
REMARK   11  A    between atoms: C12_27  and  C13_28 
REMARK   12  A    between atoms: C13_28  and  C14_29 
REMARK   13  A    between atoms: C14_29  and  C15_30 
REMARK   14  A    between atoms: C15_30  and  C16_31 
REMARK   15  A    between atoms: C16_31  and  N4_32 
REMARK   16  A    between atoms: N4_32  and  C17_34 
ROOT
HETATM    1  N1  UNL     1      14.728  40.802 -11.413  1.00  0.00    -0.063 NA
HETATM    2  C1  UNL     1      15.160  39.479 -11.149  1.00  0.00     0.190 C 
HETATM    3  N2  UNL     1      15.845  38.764 -11.984  1.00  0.00    -0.301 N 
ATOM      4  H2  UNL     1      16.112  37.820 -11.708  1.00  0.00     0.171 HD
HETATM    5  C2  UNL     1      16.244  39.233 -13.274  1.00  0.00     0.226 C 
HETATM    6  O1  UNL     1      17.454  39.536 -13.393  1.00  0.00    -0.273 OA
HETATM    7  N3  UNL     1      14.789  38.930  -9.866  1.00  0.00    -0.364 N 
ATOM      8  H3  UNL     1      15.227  39.267  -9.009  1.00  0.00     0.162 HD
ENDROOT
BRANCH   5   9
HETATM    9  C3  UNL     1      15.219  39.312 -14.306  1.00  0.00     0.137 C 
BRANCH   9  10
HETATM   10  C4  UNL     1      14.515  38.041 -14.651  1.00  0.00     0.162 C 
HETATM   11  O2  UNL     1      15.053  36.931 -14.052  1.00  0.00    -0.373 OA
HETATM   12  C5  UNL     1      14.154  35.886 -14.060  1.00  0.00     0.176 C 
HETATM   13  C7  UNL     1      13.352  35.773 -15.341  1.00  0.00     0.180 C 
HETATM   14  C8  UNL     1      14.065  36.454 -16.493  1.00  0.00     0.180 C 
HETATM   15  C9  UNL     1      14.205  37.919 -16.101  1.00  0.00     0.178 C 
BRANCH  12  16
HETATM   16  C6  UNL     1      13.212  35.939 -12.880  1.00  0.00     0.198 C 
BRANCH  16  17
HETATM   17  O3  UNL     1      12.847  34.631 -12.492  1.00  0.00    -0.398 OA
ATOM     18  H3  UNL     1      12.734  34.590 -11.550  1.00  0.00     0.209 HD
ENDBRANCH  16  17
ENDBRANCH  12  16
BRANCH  13  19
HETATM   19  O4  UNL     1      13.098  34.448 -15.674  1.00  0.00    -0.390 OA
ATOM     20  H4  UNL     1      12.666  33.985 -14.966  1.00  0.00     0.210 HD
ENDBRANCH  13  19
BRANCH  14  21
HETATM   21  O5  UNL     1      15.271  35.868 -16.804  1.00  0.00    -0.390 OA
ATOM     22  H5  UNL     1      15.287  34.935 -16.630  1.00  0.00     0.210 HD
ENDBRANCH  14  21
BRANCH  15  23
HETATM   23  O6  UNL     1      15.141  38.530 -16.901  1.00  0.00    -0.390 OA
ATOM     24  H6  UNL     1      14.797  38.776 -17.752  1.00  0.00     0.210 HD
ENDBRANCH  15  23
ENDBRANCH   9  10
ENDBRANCH   5   9
BRANCH   7  25
HETATM   25  C10 UNL     1      13.781  37.890  -9.823  1.00  0.00     0.122 C 
BRANCH  25  26
HETATM   26  C11 UNL     1      12.651  38.183  -8.892  1.00  0.00     0.020 C 
BRANCH  26  27
HETATM   27  C12 UNL     1      12.676  39.659  -8.411  1.00  0.00     0.002 C 
BRANCH  27  28
HETATM   28  C13 UNL     1      12.445  39.580  -6.942  1.00  0.00     0.000 C 
BRANCH  28  29
HETATM   29  C14 UNL     1      11.473  40.476  -6.345  1.00  0.00     0.005 C 
BRANCH  29  30
HETATM   30  C15 UNL     1      10.448  39.987  -5.425  1.00  0.00     0.044 C 
BRANCH  30  31
HETATM   31  C16 UNL     1      10.662  38.706  -4.734  1.00  0.00     0.056 C 
BRANCH  31  32
HETATM   32  N4  UNL     1      11.064  38.724  -3.416  1.00  0.00    -0.398 N 
ATOM     33  H4  UNL     1      12.069  38.823  -3.274  1.00  0.00     0.159 HD
BRANCH  32  34
HETATM   34  C17 UNL     1      10.326  38.630  -2.272  1.00  0.00     0.080 C 
HETATM   35  C18 UNL     1      11.028  38.928  -0.975  1.00  0.00     0.025 C 
HETATM   36  C19 UNL     1       9.956  38.538   0.069  1.00  0.00     0.002 C 
HETATM   37  C20 UNL     1       9.120  37.483  -0.595  1.00  0.00     0.002 C 
HETATM   38  C21 UNL     1       9.706  37.260  -1.961  1.00  0.00     0.025 C 
ENDBRANCH  32  34
ENDBRANCH  31  32
ENDBRANCH  30  31
ENDBRANCH  29  30
ENDBRANCH  28  29
ENDBRANCH  27  28
ENDBRANCH  26  27
ENDBRANCH  25  26
ENDBRANCH   7  25
TORSDOF 16
ENDMDL
MODEL 4
REMARK VINA RESULT: -6.937719315      0.918      1.273
REMARK  16 active torsions:
REMARK  status: ('A' for Active; 'I' for Inactive)
REMARK       I    between atoms: C1_2  and  N3_23 
REMARK       I    between atoms: N2_3  and  C2_5 
REMARK    1  A    between atoms: C2_5  and  C3_7 
REMARK    2  A    between atoms: C3_7  and  C4_8 
REMARK    3  A    between atoms: C5_10  and  C6_11 
REMARK    4  A    between atoms: C6_11  and  O3_12 
REMARK    5  A    between atoms: C7_14  and  O4_15 
REMARK    6  A    between atoms: C8_17  and  O5_18 
REMARK    7  A    between atoms: C9_20  and  O6_21 
REMARK    8  A    between atoms: N3_23  and  C10_25 
REMARK    9  A    between atoms: C10_25  and  C11_26 
REMARK   10  A    between atoms: C11_26  and  C12_27 
REMARK   11  A    between atoms: C12_27  and  C13_28 
REMARK   12  A    between atoms: C13_28  and  C14_29 
REMARK   13  A    between atoms: C14_29  and  C15_30 
REMARK   14  A    between atoms: C15_30  and  C16_31 
REMARK   15  A    between atoms: C16_31  and  N4_32 
REMARK   16  A    between atoms: N4_32  and  C17_34 
ROOT
HETATM    1  N1  UNL     1      13.017  36.431 -11.322  1.00  0.00    -0.063 NA
HETATM    2  C1  UNL     1      14.408  36.491 -11.065  1.00  0.00     0.190 C 
HETATM    3  N2  UNL     1      14.924  37.057 -10.021  1.00  0.00    -0.301 N 
ATOM      4  H2  UNL     1      15.939  37.053  -9.919  1.00  0.00     0.171 HD
HETATM    5  C2  UNL     1      14.142  37.688  -9.004  1.00  0.00     0.226 C 
HETATM    6  O1  UNL     1      14.036  37.056  -7.927  1.00  0.00    -0.273 OA
HETATM    7  N3  UNL     1      15.267  35.881 -12.052  1.00  0.00    -0.364 N 
ATOM      8  H3  UNL     1      15.308  34.866 -12.152  1.00  0.00     0.162 HD
ENDROOT
BRANCH   5   9
HETATM    9  C3  UNL     1      13.554  38.983  -9.317  1.00  0.00     0.137 C 
BRANCH   9  10
HETATM   10  C4  UNL     1      12.744  39.630  -8.241  1.00  0.00     0.162 C 
HETATM   11  O2  UNL     1      11.562  38.987  -7.977  1.00  0.00    -0.373 OA
HETATM   12  C5  UNL     1      11.069  39.355  -6.744  1.00  0.00     0.176 C 
HETATM   13  C7  UNL     1      11.250  40.826  -6.423  1.00  0.00     0.180 C 
HETATM   14  C8  UNL     1      11.420  41.644  -7.688  1.00  0.00     0.180 C 
HETATM   15  C9  UNL     1      12.670  41.110  -8.375  1.00  0.00     0.178 C 
BRANCH  12  16
HETATM   16  C6  UNL     1      11.653  38.522  -5.627  1.00  0.00     0.198 C 
BRANCH  16  17
HETATM   17  O3  UNL     1      11.810  37.183  -6.053  1.00  0.00    -0.398 OA
ATOM     18  H3  UNL     1      11.677  36.591  -5.322  1.00  0.00     0.209 HD
ENDBRANCH  16  17
ENDBRANCH  12  16
BRANCH  13  19
HETATM   19  O4  UNL     1      10.180  41.327  -5.689  1.00  0.00    -0.390 OA
ATOM     20  H4  UNL     1      10.406  41.442  -4.774  1.00  0.00     0.210 HD
ENDBRANCH  13  19
BRANCH  14  21
HETATM   21  O5  UNL     1      10.312  41.616  -8.503  1.00  0.00    -0.390 OA
ATOM     22  H5  UNL     1      10.262  42.361  -9.090  1.00  0.00     0.210 HD
ENDBRANCH  14  21
BRANCH  15  23
HETATM   23  O6  UNL     1      12.701  41.532  -9.683  1.00  0.00    -0.390 OA
ATOM     24  H6  UNL     1      12.338  42.401  -9.799  1.00  0.00     0.210 HD
ENDBRANCH  15  23
ENDBRANCH   9  10
ENDBRANCH   5   9
BRANCH   7  25
HETATM   25  C10 UNL     1      16.069  36.741 -12.898  1.00  0.00     0.122 C 
BRANCH  25  26
HETATM   26  C11 UNL     1      15.703  36.677 -14.344  1.00  0.00     0.020 C 
BRANCH  26  27
HETATM   27  C12 UNL     1      14.318  37.327 -14.612  1.00  0.00     0.002 C 
BRANCH  27  28
HETATM   28  C13 UNL     1      14.633  38.628 -15.267  1.00  0.00     0.000 C 
BRANCH  28  29
HETATM   29  C14 UNL     1      14.230  39.852 -14.602  1.00  0.00     0.005 C 
BRANCH  29  30
HETATM   30  C15 UNL     1      14.176  39.949 -13.145  1.00  0.00     0.044 C 
BRANCH  30  31
HETATM   31  C16 UNL     1      14.505  41.231 -12.504  1.00  0.00     0.056 C 
BRANCH  31  32
HETATM   32  N4  UNL     1      15.335  41.227 -11.403  1.00  0.00    -0.398 N 
ATOM     33  H4  UNL     1      15.321  40.366 -10.857  1.00  0.00     0.159 HD
BRANCH  32  34
HETATM   34  C17 UNL     1      16.172  42.196 -10.931  1.00  0.00     0.080 C 
HETATM   35  C18 UNL     1      17.645  41.891 -10.933  1.00  0.00     0.025 C 
HETATM   36  C19 UNL     1      18.227  43.107 -10.172  1.00  0.00     0.002 C 
HETATM   37  C20 UNL     1      17.127  43.568  -9.262  1.00  0.00     0.002 C 
HETATM   38  C21 UNL     1      15.966  42.637  -9.474  1.00  0.00     0.025 C 
ENDBRANCH  32  34
ENDBRANCH  31  32
ENDBRANCH  30  31
ENDBRANCH  29  30
ENDBRANCH  28  29
ENDBRANCH  27  28
ENDBRANCH  26  27
ENDBRANCH  25  26
ENDBRANCH   7  25
TORSDOF 16
ENDMDL
MODEL 5
REMARK VINA RESULT: -6.874052369      1.956      6.365
REMARK  16 active torsions:
REMARK  status: ('A' for Active; 'I' for Inactive)
REMARK       I    between atoms: C1_2  and  N3_23 
REMARK       I    between atoms: N2_3  and  C2_5 
REMARK    1  A    between atoms: C2_5  and  C3_7 
REMARK    2  A    between atoms: C3_7  and  C4_8 
REMARK    3  A    between atoms: C5_10  and  C6_11 
REMARK    4  A    between atoms: C6_11  and  O3_12 
REMARK    5  A    between atoms: C7_14  and  O4_15 
REMARK    6  A    between atoms: C8_17  and  O5_18 
REMARK    7  A    between atoms: C9_20  and  O6_21 
REMARK    8  A    between atoms: N3_23  and  C10_25 
REMARK    9  A    between atoms: C10_25  and  C11_26 
REMARK   10  A    between atoms: C11_26  and  C12_27 
REMARK   11  A    between atoms: C12_27  and  C13_28 
REMARK   12  A    between atoms: C13_28  and  C14_29 
REMARK   13  A    between atoms: C14_29  and  C15_30 
REMARK   14  A    between atoms: C15_30  and  C16_31 
REMARK   15  A    between atoms: C16_31  and  N4_32 
REMARK   16  A    between atoms: N4_32  and  C17_34 
ROOT
HETATM    1  N1  UNL     1      13.185  45.027  -6.940  1.00  0.00    -0.063 NA
HETATM    2  C1  UNL     1      13.640  44.414  -8.132  1.00  0.00     0.190 C 
HETATM    3  N2  UNL     1      12.883  43.717  -8.919  1.00  0.00    -0.301 N 
ATOM      4  H2  UNL     1      13.298  43.311  -9.757  1.00  0.00     0.171 HD
HETATM    5  C2  UNL     1      11.494  43.488  -8.669  1.00  0.00     0.226 C 
HETATM    6  O1  UNL     1      10.697  44.139  -9.384  1.00  0.00    -0.273 OA
HETATM    7  N3  UNL     1      15.037  44.593  -8.451  1.00  0.00    -0.364 N 
ATOM      8  H3  UNL     1      15.389  45.501  -8.758  1.00  0.00     0.162 HD
ENDROOT
BRANCH   5   9
HETATM    9  C3  UNL     1      11.149  42.535  -7.623  1.00  0.00     0.137 C 
BRANCH   9  10
HETATM   10  C4  UNL     1      11.851  41.216  -7.658  1.00  0.00     0.162 C 
HETATM   11  O2  UNL     1      11.769  40.579  -8.869  1.00  0.00    -0.373 OA
HETATM   12  C5  UNL     1      12.743  39.611  -8.980  1.00  0.00     0.176 C 
HETATM   13  C7  UNL     1      12.989  38.835  -7.701  1.00  0.00     0.180 C 
HETATM   14  C8  UNL     1      11.787  38.906  -6.780  1.00  0.00     0.180 C 
HETATM   15  C9  UNL     1      11.585  40.381  -6.456  1.00  0.00     0.178 C 
BRANCH  12  16
HETATM   16  C6  UNL     1      14.051  40.177  -9.483  1.00  0.00     0.198 C 
BRANCH  16  17
HETATM   17  O3  UNL     1      15.030  39.160  -9.539  1.00  0.00    -0.398 OA
ATOM     18  H3  UNL     1      14.917  38.559  -8.813  1.00  0.00     0.209 HD
ENDBRANCH  16  17
ENDBRANCH  12  16
BRANCH  13  19
HETATM   19  O4  UNL     1      13.295  37.504  -7.959  1.00  0.00    -0.390 OA
ATOM     20  H4  UNL     1      13.335  36.992  -7.159  1.00  0.00     0.210 HD
ENDBRANCH  13  19
BRANCH  14  21
HETATM   21  O5  UNL     1      10.662  38.319  -7.314  1.00  0.00    -0.390 OA
ATOM     22  H5  UNL     1       9.863  38.569  -6.865  1.00  0.00     0.210 HD
ENDBRANCH  14  21
BRANCH  15  23
HETATM   23  O6  UNL     1      10.328  40.577  -5.935  1.00  0.00    -0.390 OA
ATOM     24  H6  UNL     1      10.310  40.532  -4.987  1.00  0.00     0.210 HD
ENDBRANCH  15  23
ENDBRANCH   9  10
ENDBRANCH   5   9
BRANCH   7  25
HETATM   25  C10 UNL     1      15.928  43.458  -8.325  1.00  0.00     0.122 C 
BRANCH  25  26
HETATM   26  C11 UNL     1      16.426  42.934  -9.631  1.00  0.00     0.020 C 
BRANCH  26  27
HETATM   27  C12 UNL     1      17.909  43.326  -9.876  1.00  0.00     0.002 C 
BRANCH  27  28
HETATM   28  C13 UNL     1      18.472  42.194 -10.664  1.00  0.00     0.000 C 
BRANCH  28  29
HETATM   29  C14 UNL     1      17.646  41.022 -10.880  1.00  0.00     0.005 C 
BRANCH  29  30
HETATM   30  C15 UNL     1      17.644  40.313 -12.158  1.00  0.00     0.044 C 
BRANCH  30  31
HETATM   31  C16 UNL     1      16.449  39.546 -12.544  1.00  0.00     0.056 C 
BRANCH  31  32
HETATM   32  N4  UNL     1      16.351  38.230 -12.148  1.00  0.00    -0.398 N 
ATOM     33  H4  UNL     1      17.059  37.927 -11.479  1.00  0.00     0.159 HD
BRANCH  32  34
HETATM   34  C17 UNL     1      15.453  37.269 -12.510  1.00  0.00     0.080 C 
HETATM   35  C18 UNL     1      14.069  37.727 -12.883  1.00  0.00     0.025 C 
HETATM   36  C19 UNL     1      13.315  36.385 -13.038  1.00  0.00     0.002 C 
HETATM   37  C20 UNL     1      14.026  35.424 -12.131  1.00  0.00     0.002 C 
HETATM   38  C21 UNL     1      15.132  36.192 -11.463  1.00  0.00     0.025 C 
ENDBRANCH  32  34
ENDBRANCH  31  32
ENDBRANCH  30  31
ENDBRANCH  29  30
ENDBRANCH  28  29
ENDBRANCH  27  28
ENDBRANCH  26  27
ENDBRANCH  25  26
ENDBRANCH   7  25
TORSDOF 16
ENDMDL
