MODEL 1
REMARK VINA RESULT: -8.086837905      0.000      0.000
REMARK  16 active torsions:
REMARK  status: ('A' for Active; 'I' for Inactive)
REMARK    1  A    between atoms: C2_2  and  N1_3 
REMARK       I    between atoms: N1_3  and  C3_5 
REMARK       I    between atoms: C3_5  and  N2_7 
REMARK    2  A    between atoms: N2_7  and  C4_9 
REMARK    3  A    between atoms: C4_9  and  C5_10 
REMARK    4  A    between atoms: C5_10  and  C6_11 
REMARK    5  A    between atoms: C6_11  and  C7_12 
REMARK    6  A    between atoms: C7_12  and  N3_13 
REMARK    7  A    between atoms: C9_18  and  N5_19 
REMARK    8  A    between atoms: N5_19  and  C10_21 
REMARK    9  A    between atoms: C10_21  and  C11_22 
REMARK   10  A    between atoms: C11_22  and  C12_23 
REMARK   11  A    between atoms: C12_23  and  N6_24 
REMARK   12  A    between atoms: C13_30  and  N8_31 
REMARK   13  A    between atoms: N8_31  and  N9_33 
REMARK   14  A    between atoms: N9_33  and  C14_35 
REMARK   15  A    between atoms: C14_35  and  C15_36 
REMARK   16  A    between atoms: C15_36  and  N10_37 
ROOT
HETATM    1  N3  UNL     1      12.036  41.528  -8.708  1.00  0.00    -0.225 N 
ATOM      2  H3  UNL     1      12.364  41.932  -9.586  1.00  0.00     0.177 HD
HETATM    3  C8  UNL     1      12.462  40.374  -8.396  1.00  0.00     0.707 A 
HETATM    4  N4  UNL     1      13.334  39.747  -9.257  1.00  0.00    -0.022 N 
ATOM      5  H4  UNL     1      13.607  40.226 -10.115  1.00  0.00     0.203 HD
HETATM    6  C9  UNL     1      13.833  38.536  -9.010  1.00  0.00     0.707 A 
HETATM    7  N7  UNL     1      13.470  37.902  -7.872  1.00  0.00    -0.020 N 
ATOM      8  H7  UNL     1      13.849  36.975  -7.677  1.00  0.00     0.203 HD
HETATM    9  C13 UNL     1      12.629  38.459  -7.000  1.00  0.00     0.725 A 
HETATM   10  N11 UNL     1      12.134  39.700  -7.284  1.00  0.00    -0.020 N 
ATOM     11  H11 UNL     1      11.488  40.133  -6.623  1.00  0.00     0.203 HD
ENDROOT
BRANCH   1  12
HETATM   12  C7  UNL     1      11.139  42.292  -7.927  1.00  0.00     0.138 C 
BRANCH  12  13
HETATM   13  C6  UNL     1      11.317  43.750  -8.321  1.00  0.00     0.022 C 
BRANCH  13  14
HETATM   14  C5  UNL     1      10.383  44.622  -7.489  1.00  0.00     0.021 C 
BRANCH  14  15
HETATM   15  C4  UNL     1       9.071  43.883  -7.431  1.00  0.00     0.124 C 
BRANCH  15  16
HETATM   16  N2  UNL     1       8.471  44.062  -6.143  1.00  0.00    -0.343 N 
HETATM   17  C3  UNL     1       8.559  43.065  -5.151  1.00  0.00     0.316 C 
HETATM   18  N1  UNL     1       7.955  43.315  -3.897  1.00  0.00    -0.344 N 
HETATM   19  O1  UNL     1       9.140  41.970  -5.309  1.00  0.00    -0.247 OA
ATOM     20  H1  UNL     1       7.474  44.199  -3.732  1.00  0.00     0.164 HD
ATOM     21  H2  UNL     1       7.971  44.928  -5.941  1.00  0.00     0.164 HD
BRANCH  18  22
HETATM   22  C2  UNL     1       8.019  42.331  -2.855  1.00  0.00     0.120 C 
HETATM   23  C1  UNL     1       8.617  42.911  -1.590  1.00  0.00     0.026 C 
ENDBRANCH  18  22
ENDBRANCH  15  16
ENDBRANCH  14  15
ENDBRANCH  13  14
ENDBRANCH  12  13
ENDBRANCH   1  12
BRANCH   6  24
HETATM   24  N5  UNL     1      14.646  37.938  -9.800  1.00  0.00    -0.225 N 
ATOM     25  H5  UNL     1      15.592  38.289  -9.946  1.00  0.00     0.177 HD
BRANCH  24  26
HETATM   26  C10 UNL     1      14.182  36.757 -10.475  1.00  0.00     0.139 C 
BRANCH  26  27
HETATM   27  C11 UNL     1      13.257  37.008 -11.615  1.00  0.00     0.047 C 
BRANCH  27  28
HETATM   28  C12 UNL     1      13.197  35.790 -12.501  1.00  0.00     0.231 C 
BRANCH  28  29
HETATM   29  N6  UNL     1      14.305  34.926 -12.169  1.00  0.00    -0.079 N 
ATOM     30  H63 UNL     1      15.017  34.903 -12.900  1.00  0.00     0.274 HD
ATOM     31  H62 UNL     1      14.886  35.304 -11.421  1.00  0.00     0.274 HD
ATOM     32  H61 UNL     1      13.939  34.000 -11.951  1.00  0.00     0.274 HD
ENDBRANCH  28  29
ENDBRANCH  27  28
ENDBRANCH  26  27
ENDBRANCH  24  26
ENDBRANCH   6  24
BRANCH   9  33
HETATM   33  N8  UNL     1      12.254  37.897  -5.895  1.00  0.00    -0.135 N 
ATOM     34  H8  UNL     1      12.456  36.919  -5.690  1.00  0.00     0.205 HD
BRANCH  33  35
HETATM   35  N9  UNL     1      11.555  38.710  -5.000  1.00  0.00    -0.321 N 
ATOM     36  H9  UNL     1      11.988  39.544  -4.604  1.00  0.00     0.180 HD
BRANCH  35  37
HETATM   37  C14 UNL     1      10.201  38.339  -4.648  1.00  0.00     0.170 C 
BRANCH  37  38
HETATM   38  C15 UNL     1       9.761  39.163  -3.485  1.00  0.00     0.293 C 
BRANCH  38  39
HETATM   39  N10 UNL     1       9.939  38.472  -2.231  1.00  0.00     0.090 N 
HETATM   40  C16 UNL     1       9.347  37.175  -2.241  1.00  0.00     0.272 C 
HETATM   41  C17 UNL     1       9.241  36.500  -0.924  1.00  0.00     0.030 C 
HETATM   42  C18 UNL     1       8.785  37.426   0.185  1.00  0.00     0.003 C 
HETATM   43  C19 UNL     1       9.799  38.564   0.217  1.00  0.00     0.030 C 
HETATM   44  C20 UNL     1       9.709  39.277  -1.088  1.00  0.00     0.272 C 
ENDBRANCH  38  39
ENDBRANCH  37  38
ENDBRANCH  35  37
ENDBRANCH  33  35
ENDBRANCH   9  33
TORSDOF 16
ENDMDL
MODEL 2
REMARK VINA RESULT: -8.035872699      3.279      8.412
REMARK  16 active torsions:
REMARK  status: ('A' for Active; 'I' for Inactive)
REMARK    1  A    between atoms: C2_2  and  N1_3 
REMARK       I    between atoms: N1_3  and  C3_5 
REMARK       I    between atoms: C3_5  and  N2_7 
REMARK    2  A    between atoms: N2_7  and  C4_9 
REMARK    3  A    between atoms: C4_9  and  C5_10 
REMARK    4  A    between atoms: C5_10  and  C6_11 
REMARK    5  A    between atoms: C6_11  and  C7_12 
REMARK    6  A    between atoms: C7_12  and  N3_13 
REMARK    7  A    between atoms: C9_18  and  N5_19 
REMARK    8  A    between atoms: N5_19  and  C10_21 
REMARK    9  A    between atoms: C10_21  and  C11_22 
REMARK   10  A    between atoms: C11_22  and  C12_23 
REMARK   11  A    between atoms: C12_23  and  N6_24 
REMARK   12  A    between atoms: C13_30  and  N8_31 
REMARK   13  A    between atoms: N8_31  and  N9_33 
REMARK   14  A    between atoms: N9_33  and  C14_35 
REMARK   15  A    between atoms: C14_35  and  C15_36 
REMARK   16  A    between atoms: C15_36  and  N10_37 
ROOT
HETATM    1  N3  UNL     1      13.841  38.505 -10.047  1.00  0.00    -0.225 N 
ATOM      2  H3  UNL     1      14.075  39.182 -10.774  1.00  0.00     0.177 HD
HETATM    3  C8  UNL     1      13.345  38.949  -8.966  1.00  0.00     0.707 A 
HETATM    4  N4  UNL     1      13.156  40.307  -8.846  1.00  0.00    -0.022 N 
ATOM      5  H4  UNL     1      13.421  40.910  -9.625  1.00  0.00     0.203 HD
HETATM    6  C9  UNL     1      12.640  40.862  -7.750  1.00  0.00     0.707 A 
HETATM    7  N7  UNL     1      12.290  40.061  -6.718  1.00  0.00    -0.020 N 
ATOM      8  H7  UNL     1      11.894  40.479  -5.876  1.00  0.00     0.203 HD
HETATM    9  C13 UNL     1      12.450  38.738  -6.776  1.00  0.00     0.725 A 
HETATM   10  N11 UNL     1      12.982  38.201  -7.914  1.00  0.00    -0.020 N 
ATOM     11  H11 UNL     1      13.109  37.190  -7.966  1.00  0.00     0.203 HD
ENDROOT
BRANCH   1  12
HETATM   12  C7  UNL     1      14.092  37.140 -10.314  1.00  0.00     0.138 C 
BRANCH  12  13
HETATM   13  C6  UNL     1      13.143  36.708 -11.420  1.00  0.00     0.022 C 
BRANCH  13  14
HETATM   14  C5  UNL     1      13.886  35.823 -12.415  1.00  0.00     0.021 C 
BRANCH  14  15
HETATM   15  C4  UNL     1      13.703  36.474 -13.762  1.00  0.00     0.124 C 
BRANCH  15  16
HETATM   16  N2  UNL     1      13.348  35.484 -14.734  1.00  0.00    -0.343 N 
HETATM   17  C3  UNL     1      14.133  35.278 -15.887  1.00  0.00     0.316 C 
HETATM   18  N1  UNL     1      13.731  34.273 -16.798  1.00  0.00    -0.344 N 
HETATM   19  O1  UNL     1      15.165  35.929 -16.156  1.00  0.00    -0.247 OA
ATOM     20  H1  UNL     1      12.893  33.722 -16.609  1.00  0.00     0.164 HD
ATOM     21  H2  UNL     1      12.512  34.918 -14.589  1.00  0.00     0.164 HD
BRANCH  18  22
HETATM   22  C2  UNL     1      14.497  34.026 -17.985  1.00  0.00     0.120 C 
HETATM   23  C1  UNL     1      15.316  32.759 -17.853  1.00  0.00     0.026 C 
ENDBRANCH  18  22
ENDBRANCH  15  16
ENDBRANCH  14  15
ENDBRANCH  13  14
ENDBRANCH  12  13
ENDBRANCH   1  12
BRANCH   6  24
HETATM   24  N5  UNL     1      12.457  42.124  -7.621  1.00  0.00    -0.225 N 
ATOM     25  H5  UNL     1      12.620  42.591  -6.730  1.00  0.00     0.177 HD
BRANCH  24  26
HETATM   26  C10 UNL     1      12.016  42.861  -8.774  1.00  0.00     0.139 C 
BRANCH  26  27
HETATM   27  C11 UNL     1      10.677  42.468  -9.295  1.00  0.00     0.047 C 
BRANCH  27  28
HETATM   28  C12 UNL     1      10.093  43.596 -10.106  1.00  0.00     0.231 C 
BRANCH  28  29
HETATM   29  N6  UNL     1       8.820  43.169 -10.638  1.00  0.00    -0.079 N 
ATOM     30  H63 UNL     1       8.461  42.336 -10.171  1.00  0.00     0.274 HD
ATOM     31  H62 UNL     1       8.061  43.804 -10.394  1.00  0.00     0.274 HD
ATOM     32  H61 UNL     1       8.916  43.042 -11.645  1.00  0.00     0.274 HD
ENDBRANCH  28  29
ENDBRANCH  27  28
ENDBRANCH  26  27
ENDBRANCH  24  26
ENDBRANCH   6  24
BRANCH   9  33
HETATM   33  N8  UNL     1      12.125  37.926  -5.819  1.00  0.00    -0.135 N 
ATOM     34  H8  UNL     1      12.323  36.927  -5.868  1.00  0.00     0.205 HD
BRANCH  33  35
HETATM   35  N9  UNL     1      11.488  38.502  -4.717  1.00  0.00    -0.321 N 
ATOM     36  H9  UNL     1      12.029  38.920  -3.960  1.00  0.00     0.180 HD
BRANCH  35  37
HETATM   37  C14 UNL     1      10.042  38.489  -4.676  1.00  0.00     0.170 C 
BRANCH  37  38
HETATM   38  C15 UNL     1       9.587  39.240  -3.471  1.00  0.00     0.293 C 
BRANCH  38  39
HETATM   39  N10 UNL     1       9.836  38.512  -2.250  1.00  0.00     0.090 N 
HETATM   40  C16 UNL     1       9.198  37.237  -2.242  1.00  0.00     0.272 C 
HETATM   41  C17 UNL     1       9.172  36.533  -0.936  1.00  0.00     0.030 C 
HETATM   42  C18 UNL     1       8.837  37.446   0.226  1.00  0.00     0.003 C 
HETATM   43  C19 UNL     1       9.892  38.547   0.203  1.00  0.00     0.030 C 
HETATM   44  C20 UNL     1       9.726  39.296  -1.075  1.00  0.00     0.272 C 
ENDBRANCH  38  39
ENDBRANCH  37  38
ENDBRANCH  35  37
ENDBRANCH  33  35
ENDBRANCH   9  33
TORSDOF 16
ENDMDL
MODEL 3
REMARK VINA RESULT: -7.964719858      3.217      7.938
REMARK  16 active torsions:
REMARK  status: ('A' for Active; 'I' for Inactive)
REMARK    1  A    between atoms: C2_2  and  N1_3 
REMARK       I    between atoms: N1_3  and  C3_5 
REMARK       I    between atoms: C3_5  and  N2_7 
REMARK    2  A    between atoms: N2_7  and  C4_9 
REMARK    3  A    between atoms: C4_9  and  C5_10 
REMARK    4  A    between atoms: C5_10  and  C6_11 
REMARK    5  A    between atoms: C6_11  and  C7_12 
REMARK    6  A    between atoms: C7_12  and  N3_13 
REMARK    7  A    between atoms: C9_18  and  N5_19 
REMARK    8  A    between atoms: N5_19  and  C10_21 
REMARK    9  A    between atoms: C10_21  and  C11_22 
REMARK   10  A    between atoms: C11_22  and  C12_23 
REMARK   11  A    between atoms: C12_23  and  N6_24 
REMARK   12  A    between atoms: C13_30  and  N8_31 
REMARK   13  A    between atoms: N8_31  and  N9_33 
REMARK   14  A    between atoms: N9_33  and  C14_35 
REMARK   15  A    between atoms: C14_35  and  C15_36 
REMARK   16  A    between atoms: C15_36  and  N10_37 
ROOT
HETATM    1  N3  UNL     1      13.283  37.096 -10.542  1.00  0.00    -0.225 N 
ATOM      2  H3  UNL     1      12.284  36.897 -10.591  1.00  0.00     0.177 HD
HETATM    3  C8  UNL     1      13.981  36.868 -11.578  1.00  0.00     0.707 A 
HETATM    4  N4  UNL     1      13.346  36.370 -12.693  1.00  0.00    -0.022 N 
ATOM      5  H4  UNL     1      12.342  36.199 -12.652  1.00  0.00     0.203 HD
HETATM    6  C9  UNL     1      13.998  36.103 -13.825  1.00  0.00     0.707 A 
HETATM    7  N7  UNL     1      15.329  36.331 -13.879  1.00  0.00    -0.020 N 
ATOM      8  H7  UNL     1      15.835  36.129 -14.742  1.00  0.00     0.203 HD
HETATM    9  C13 UNL     1      15.999  36.812 -12.830  1.00  0.00     0.725 A 
HETATM   10  N11 UNL     1      15.302  37.073 -11.685  1.00  0.00    -0.020 N 
ATOM     11  H11 UNL     1      15.806  37.440 -10.878  1.00  0.00     0.203 HD
ENDROOT
BRANCH   1  12
HETATM   12  C7  UNL     1      13.794  37.605  -9.326  1.00  0.00     0.138 C 
BRANCH  12  13
HETATM   13  C6  UNL     1      12.694  38.434  -8.681  1.00  0.00     0.022 C 
BRANCH  13  14
HETATM   14  C5  UNL     1      12.773  38.295  -7.164  1.00  0.00     0.021 C 
BRANCH  14  15
HETATM   15  C4  UNL     1      11.501  38.898  -6.628  1.00  0.00     0.124 C 
BRANCH  15  16
HETATM   16  N2  UNL     1      11.486  38.804  -5.199  1.00  0.00    -0.343 N 
HETATM   17  C3  UNL     1      10.343  38.350  -4.508  1.00  0.00     0.316 C 
HETATM   18  N1  UNL     1      10.404  38.269  -3.098  1.00  0.00    -0.344 N 
HETATM   19  O1  UNL     1       9.277  38.012  -5.066  1.00  0.00    -0.247 OA
ATOM     20  H1  UNL     1      11.259  38.536  -2.610  1.00  0.00     0.164 HD
ATOM     21  H2  UNL     1      12.317  39.071  -4.671  1.00  0.00     0.164 HD
BRANCH  18  22
HETATM   22  C2  UNL     1       9.267  37.812  -2.351  1.00  0.00     0.120 C 
HETATM   23  C1  UNL     1       9.608  36.586  -1.531  1.00  0.00     0.026 C 
ENDBRANCH  18  22
ENDBRANCH  15  16
ENDBRANCH  14  15
ENDBRANCH  13  14
ENDBRANCH  12  13
ENDBRANCH   1  12
BRANCH   6  24
HETATM   24  N5  UNL     1      13.423  35.640 -14.873  1.00  0.00    -0.225 N 
ATOM     25  H5  UNL     1      12.812  34.825 -14.821  1.00  0.00     0.177 HD
BRANCH  24  26
HETATM   26  C10 UNL     1      13.667  36.304 -16.124  1.00  0.00     0.139 C 
BRANCH  26  27
HETATM   27  C11 UNL     1      13.412  35.474 -17.335  1.00  0.00     0.047 C 
BRANCH  27  28
HETATM   28  C12 UNL     1      14.495  34.435 -17.478  1.00  0.00     0.231 C 
BRANCH  28  29
HETATM   29  N6  UNL     1      13.932  33.140 -17.174  1.00  0.00    -0.079 N 
ATOM     30  H63 UNL     1      14.494  32.615 -16.505  1.00  0.00     0.274 HD
ATOM     31  H62 UNL     1      13.079  33.204 -16.619  1.00  0.00     0.274 HD
ATOM     32  H61 UNL     1      13.792  32.635 -18.049  1.00  0.00     0.274 HD
ENDBRANCH  28  29
ENDBRANCH  27  28
ENDBRANCH  26  27
ENDBRANCH  24  26
ENDBRANCH   6  24
BRANCH   9  33
HETATM   33  N8  UNL     1      17.272  37.052 -12.831  1.00  0.00    -0.135 N 
ATOM     34  H8  UNL     1      17.958  36.330 -13.051  1.00  0.00     0.205 HD
BRANCH  33  35
HETATM   35  N9  UNL     1      17.649  38.359 -12.513  1.00  0.00    -0.321 N 
ATOM     36  H9  UNL     1      17.947  38.601 -11.568  1.00  0.00     0.180 HD
BRANCH  35  37
HETATM   37  C14 UNL     1      17.607  39.359 -13.558  1.00  0.00     0.170 C 
BRANCH  37  38
HETATM   38  C15 UNL     1      17.168  40.656 -12.966  1.00  0.00     0.293 C 
BRANCH  38  39
HETATM   39  N10 UNL     1      16.145  40.478 -11.965  1.00  0.00     0.090 N 
HETATM   40  C16 UNL     1      14.832  40.565 -12.514  1.00  0.00     0.272 C 
HETATM   41  C17 UNL     1      13.723  40.664 -11.532  1.00  0.00     0.030 C 
HETATM   42  C18 UNL     1      14.024  41.610 -10.387  1.00  0.00     0.003 C 
HETATM   43  C19 UNL     1      15.301  41.083  -9.741  1.00  0.00     0.030 C 
HETATM   44  C20 UNL     1      16.387  41.180 -10.757  1.00  0.00     0.272 C 
ENDBRANCH  38  39
ENDBRANCH  37  38
ENDBRANCH  35  37
ENDBRANCH  33  35
ENDBRANCH   9  33
TORSDOF 16
ENDMDL
MODEL 4
REMARK VINA RESULT: -7.939688939      3.450      8.594
REMARK  16 active torsions:
REMARK  status: ('A' for Active; 'I' for Inactive)
REMARK    1  A    between atoms: C2_2  and  N1_3 
REMARK       I    between atoms: N1_3  and  C3_5 
REMARK       I    between atoms: C3_5  and  N2_7 
REMARK    2  A    between atoms: N2_7  and  C4_9 
REMARK    3  A    between atoms: C4_9  and  C5_10 
REMARK    4  A    between atoms: C5_10  and  C6_11 
REMARK    5  A    between atoms: C6_11  and  C7_12 
REMARK    6  A    between atoms: C7_12  and  N3_13 
REMARK    7  A    between atoms: C9_18  and  N5_19 
REMARK    8  A    between atoms: N5_19  and  C10_21 
REMARK    9  A    between atoms: C10_21  and  C11_22 
REMARK   10  A    between atoms: C11_22  and  C12_23 
REMARK   11  A    between atoms: C12_23  and  N6_24 
REMARK   12  A    between atoms: C13_30  and  N8_31 
REMARK   13  A    between atoms: N8_31  and  N9_33 
REMARK   14  A    between atoms: N9_33  and  C14_35 
REMARK   15  A    between atoms: C14_35  and  C15_36 
REMARK   16  A    between atoms: C15_36  and  N10_37 
ROOT
HETATM    1  N3  UNL     1      13.943  38.454 -10.082  1.00  0.00    -0.225 N 
ATOM      2  H3  UNL     1      14.253  39.122 -10.787  1.00  0.00     0.177 HD
HETATM    3  C8  UNL     1      13.476  38.916  -8.996  1.00  0.00     0.707 A 
HETATM    4  N4  UNL     1      13.420  40.283  -8.842  1.00  0.00    -0.022 N 
ATOM      5  H4  UNL     1      13.755  40.877  -9.600  1.00  0.00     0.203 HD
HETATM    6  C9  UNL     1      12.944  40.857  -7.737  1.00  0.00     0.707 A 
HETATM    7  N7  UNL     1      12.500  40.068  -6.733  1.00  0.00    -0.020 N 
ATOM      8  H7  UNL     1      12.134  40.501  -5.884  1.00  0.00     0.203 HD
HETATM    9  C13 UNL     1      12.530  38.738  -6.825  1.00  0.00     0.725 A 
HETATM   10  N11 UNL     1      13.025  38.181  -7.970  1.00  0.00    -0.020 N 
ATOM     11  H11 UNL     1      13.052  37.164  -8.048  1.00  0.00     0.203 HD
ENDROOT
BRANCH   1  12
HETATM   12  C7  UNL     1      14.062  37.077 -10.384  1.00  0.00     0.138 C 
BRANCH  12  13
HETATM   13  C6  UNL     1      13.055  36.760 -11.478  1.00  0.00     0.022 C 
BRANCH  13  14
HETATM   14  C5  UNL     1      13.642  35.719 -12.426  1.00  0.00     0.021 C 
BRANCH  14  15
HETATM   15  C4  UNL     1      13.685  36.374 -13.782  1.00  0.00     0.124 C 
BRANCH  15  16
HETATM   16  N2  UNL     1      13.331  35.422 -14.791  1.00  0.00    -0.343 N 
HETATM   17  C3  UNL     1      14.127  35.244 -15.941  1.00  0.00     0.316 C 
HETATM   18  N1  UNL     1      13.725  34.276 -16.889  1.00  0.00    -0.344 N 
HETATM   19  O1  UNL     1      15.171  35.891 -16.175  1.00  0.00    -0.247 OA
ATOM     20  H1  UNL     1      12.878  33.730 -16.730  1.00  0.00     0.164 HD
ATOM     21  H2  UNL     1      12.486  34.862 -14.676  1.00  0.00     0.164 HD
BRANCH  18  22
HETATM   22  C2  UNL     1      14.503  34.059 -18.075  1.00  0.00     0.120 C 
HETATM   23  C1  UNL     1      15.342  32.804 -17.956  1.00  0.00     0.026 C 
ENDBRANCH  18  22
ENDBRANCH  15  16
ENDBRANCH  14  15
ENDBRANCH  13  14
ENDBRANCH  12  13
ENDBRANCH   1  12
BRANCH   6  24
HETATM   24  N5  UNL     1      12.885  42.127  -7.576  1.00  0.00    -0.225 N 
ATOM     25  H5  UNL     1      12.076  42.661  -7.894  1.00  0.00     0.177 HD
BRANCH  24  26
HETATM   26  C10 UNL     1      13.995  42.777  -6.934  1.00  0.00     0.139 C 
BRANCH  26  27
HETATM   27  C11 UNL     1      14.946  43.454  -7.859  1.00  0.00     0.047 C 
BRANCH  27  28
HETATM   28  C12 UNL     1      14.496  44.872  -8.103  1.00  0.00     0.231 C 
BRANCH  28  29
HETATM   29  N6  UNL     1      14.125  45.461  -6.837  1.00  0.00    -0.079 N 
ATOM     30  H63 UNL     1      14.057  46.478  -6.883  1.00  0.00     0.274 HD
ATOM     31  H62 UNL     1      13.155  45.268  -6.586  1.00  0.00     0.274 HD
ATOM     32  H61 UNL     1      14.784  45.144  -6.127  1.00  0.00     0.274 HD
ENDBRANCH  28  29
ENDBRANCH  27  28
ENDBRANCH  26  27
ENDBRANCH  24  26
ENDBRANCH   6  24
BRANCH   9  33
HETATM   33  N8  UNL     1      12.112  37.938  -5.895  1.00  0.00    -0.135 N 
ATOM     34  H8  UNL     1      12.223  36.926  -5.962  1.00  0.00     0.205 HD
BRANCH  33  35
HETATM   35  N9  UNL     1      11.498  38.543  -4.796  1.00  0.00    -0.321 N 
ATOM     36  H9  UNL     1      12.054  39.003  -4.075  1.00  0.00     0.180 HD
BRANCH  35  37
HETATM   37  C14 UNL     1      10.055  38.500  -4.705  1.00  0.00     0.170 C 
BRANCH  37  38
HETATM   38  C15 UNL     1       9.624  39.252  -3.491  1.00  0.00     0.293 C 
BRANCH  38  39
HETATM   39  N10 UNL     1       9.878  38.515  -2.276  1.00  0.00     0.090 N 
HETATM   40  C16 UNL     1       9.254  37.234  -2.282  1.00  0.00     0.272 C 
HETATM   41  C17 UNL     1       9.230  36.517  -0.982  1.00  0.00     0.030 C 
HETATM   42  C18 UNL     1       8.883  37.416   0.187  1.00  0.00     0.003 C 
HETATM   43  C19 UNL     1       9.927  38.528   0.177  1.00  0.00     0.030 C 
HETATM   44  C20 UNL     1       9.756  39.287  -1.094  1.00  0.00     0.272 C 
ENDBRANCH  38  39
ENDBRANCH  37  38
ENDBRANCH  35  37
ENDBRANCH  33  35
ENDBRANCH   9  33
TORSDOF 16
ENDMDL
MODEL 5
REMARK VINA RESULT: -7.841427576      3.130      9.776
REMARK  16 active torsions:
REMARK  status: ('A' for Active; 'I' for Inactive)
REMARK    1  A    between atoms: C2_2  and  N1_3 
REMARK       I    between atoms: N1_3  and  C3_5 
REMARK       I    between atoms: C3_5  and  N2_7 
REMARK    2  A    between atoms: N2_7  and  C4_9 
REMARK    3  A    between atoms: C4_9  and  C5_10 
REMARK    4  A    between atoms: C5_10  and  C6_11 
REMARK    5  A    between atoms: C6_11  and  C7_12 
REMARK    6  A    between atoms: C7_12  and  N3_13 
REMARK    7  A    between atoms: C9_18  and  N5_19 
REMARK    8  A    between atoms: N5_19  and  C10_21 
REMARK    9  A    between atoms: C10_21  and  C11_22 
REMARK   10  A    between atoms: C11_22  and  C12_23 
REMARK   11  A    between atoms: C12_23  and  N6_24 
REMARK   12  A    between atoms: C13_30  and  N8_31 
REMARK   13  A    between atoms: N8_31  and  N9_33 
REMARK   14  A    between atoms: N9_33  and  C14_35 
REMARK   15  A    between atoms: C14_35  and  C15_36 
REMARK   16  A    between atoms: C15_36  and  N10_37 
ROOT
HETATM    1  N3  UNL     1      13.527  37.710  -7.957  1.00  0.00    -0.225 N 
ATOM      2  H3  UNL     1      13.780  36.813  -7.542  1.00  0.00     0.177 HD
HETATM    3  C8  UNL     1      12.769  38.476  -7.287  1.00  0.00     0.707 A 
HETATM    4  N4  UNL     1      12.341  38.049  -6.050  1.00  0.00    -0.022 N 
ATOM      5  H4  UNL     1      12.643  37.135  -5.714  1.00  0.00     0.203 HD
HETATM    6  C9  UNL     1      11.546  38.787  -5.276  1.00  0.00     0.707 A 
HETATM    7  N7  UNL     1      11.146  39.999  -5.723  1.00  0.00    -0.020 N 
ATOM      8  H7  UNL     1      10.537  40.570  -5.135  1.00  0.00     0.203 HD
HETATM    9  C13 UNL     1      11.528  40.467  -6.912  1.00  0.00     0.725 A 
HETATM   10  N11 UNL     1      12.342  39.684  -7.681  1.00  0.00    -0.020 N 
ATOM     11  H11 UNL     1      12.638  40.034  -8.593  1.00  0.00     0.203 HD
ENDROOT
BRANCH   1  12
HETATM   12  C7  UNL     1      14.045  38.011  -9.237  1.00  0.00     0.138 C 
BRANCH  12  13
HETATM   13  C6  UNL     1      13.108  37.398 -10.266  1.00  0.00     0.022 C 
BRANCH  13  14
HETATM   14  C5  UNL     1      13.783  37.392 -11.633  1.00  0.00     0.021 C 
BRANCH  14  15
HETATM   15  C4  UNL     1      14.102  35.949 -11.929  1.00  0.00     0.124 C 
BRANCH  15  16
HETATM   16  N2  UNL     1      14.687  35.841 -13.231  1.00  0.00    -0.343 N 
HETATM   17  C3  UNL     1      13.889  35.665 -14.380  1.00  0.00     0.316 C 
HETATM   18  N1  UNL     1      14.533  35.580 -15.636  1.00  0.00    -0.344 N 
HETATM   19  O1  UNL     1      12.642  35.581 -14.358  1.00  0.00    -0.247 OA
ATOM     20  H1  UNL     1      15.550  35.645 -15.690  1.00  0.00     0.164 HD
ATOM     21  H2  UNL     1      15.702  35.891 -13.330  1.00  0.00     0.164 HD
BRANCH  18  22
HETATM   22  C2  UNL     1      13.763  35.402 -16.833  1.00  0.00     0.120 C 
HETATM   23  C1  UNL     1      13.614  36.707 -17.586  1.00  0.00     0.026 C 
ENDBRANCH  18  22
ENDBRANCH  15  16
ENDBRANCH  14  15
ENDBRANCH  13  14
ENDBRANCH  12  13
ENDBRANCH   1  12
BRANCH   6  24
HETATM   24  N5  UNL     1      11.137  38.405  -4.123  1.00  0.00    -0.225 N 
ATOM     25  H5  UNL     1      11.790  38.050  -3.425  1.00  0.00     0.177 HD
BRANCH  24  26
HETATM   26  C10 UNL     1       9.730  38.494  -3.844  1.00  0.00     0.139 C 
BRANCH  26  27
HETATM   27  C11 UNL     1       9.367  38.364  -2.405  1.00  0.00     0.047 C 
BRANCH  27  28
HETATM   28  C12 UNL     1       9.122  36.915  -2.070  1.00  0.00     0.231 C 
BRANCH  28  29
HETATM   29  N6  UNL     1      10.297  36.390  -1.414  1.00  0.00    -0.079 N 
ATOM     30  H63 UNL     1      10.790  37.098  -0.868  1.00  0.00     0.274 HD
ATOM     31  H62 UNL     1      10.068  35.758  -0.648  1.00  0.00     0.274 HD
ATOM     32  H61 UNL     1      10.892  35.954  -2.117  1.00  0.00     0.274 HD
ENDBRANCH  28  29
ENDBRANCH  27  28
ENDBRANCH  26  27
ENDBRANCH  24  26
ENDBRANCH   6  24
BRANCH   9  33
HETATM   33  N8  UNL     1      11.178  41.622  -7.383  1.00  0.00    -0.135 N 
ATOM     34  H8  UNL     1      11.081  42.442  -6.785  1.00  0.00     0.205 HD
BRANCH  33  35
HETATM   35  N9  UNL     1      10.942  41.677  -8.759  1.00  0.00    -0.321 N 
ATOM     36  H9  UNL     1      10.427  40.934  -9.231  1.00  0.00     0.180 HD
BRANCH  35  37
HETATM   37  C14 UNL     1      11.446  42.815  -9.497  1.00  0.00     0.170 C 
BRANCH  37  38
HETATM   38  C15 UNL     1      12.479  42.343 -10.465  1.00  0.00     0.293 C 
BRANCH  38  39
HETATM   39  N10 UNL     1      13.750  42.097  -9.827  1.00  0.00     0.090 N 
HETATM   40  C16 UNL     1      14.219  43.233  -9.104  1.00  0.00     0.272 C 
HETATM   41  C17 UNL     1      15.629  43.171  -8.642  1.00  0.00     0.030 C 
HETATM   42  C18 UNL     1      16.574  42.618  -9.689  1.00  0.00     0.003 C 
HETATM   43  C19 UNL     1      16.037  41.234 -10.041  1.00  0.00     0.030 C 
HETATM   44  C20 UNL     1      14.688  41.421 -10.646  1.00  0.00     0.272 C 
ENDBRANCH  38  39
ENDBRANCH  37  38
ENDBRANCH  35  37
ENDBRANCH  33  35
ENDBRANCH   9  33
TORSDOF 16
ENDMDL
