MODEL 1
REMARK VINA RESULT: -7.435606052      0.000      0.000
REMARK  14 active torsions:
REMARK  status: ('A' for Active; 'I' for Inactive)
REMARK    1  A    between atoms: C2_2  and  C3_3 
REMARK    2  A    between atoms: C3_3  and  C4_4 
REMARK    3  A    between atoms: C4_4  and  C5_5 
REMARK    4  A    between atoms: C5_5  and  C6_6 
REMARK    5  A    between atoms: C6_6  and  C7_7 
REMARK    6  A    between atoms: C7_7  and  C8_8 
REMARK    7  A    between atoms: C8_8  and  C9_9 
REMARK    8  A    between atoms: C9_9  and  C10_10 
REMARK    9  A    between atoms: C10_10  and  C11_11 
REMARK   10  A    between atoms: C11_11  and  C12_12 
REMARK   11  A    between atoms: C14_17  and  C15_18 
REMARK   12  A    between atoms: C15_18  and  O2_19 
REMARK   13  A    between atoms: C16_24  and  O3_25 
REMARK   14  A    between atoms: C19_32  and  C20_33 
ROOT
HETATM    1  C12 UNL     1      14.021  39.265  -9.718  1.00  0.00     0.177 C 
HETATM    2  N1  UNL     1      13.598  40.110 -10.799  1.00  0.00    -0.346 N 
ATOM      3  H1  UNL     1      12.610  40.051 -11.044  1.00  0.00     0.163 HD
HETATM    4  C13 UNL     1      14.361  41.006 -11.562  1.00  0.00     0.251 C 
HETATM    5  O1  UNL     1      13.756  42.048 -12.011  1.00  0.00    -0.271 OA
HETATM    6  C14 UNL     1      15.781  40.920 -11.931  1.00  0.00     0.305 C 
HETATM    7  N2  UNL     1      16.433  39.686 -11.668  1.00  0.00    -0.008 N 
ATOM      8  H21 UNL     1      15.759  38.943 -11.479  1.00  0.00     0.283 HD
ATOM      9  H22 UNL     1      16.910  39.702 -10.766  1.00  0.00     0.283 HD
HETATM   10  C16 UNL     1      17.352  39.313 -12.756  1.00  0.00     0.522 C 
HETATM   11  N3  UNL     1      17.501  37.885 -12.687  1.00  0.00    -0.023 N 
ATOM     12  H31 UNL     1      17.681  37.588 -11.729  1.00  0.00     0.282 HD
ATOM     13  H32 UNL     1      18.376  37.594 -13.123  1.00  0.00     0.282 HD
HETATM   14  C17 UNL     1      16.399  37.164 -13.239  1.00  0.00     0.240 C 
HETATM   15  C18 UNL     1      15.639  36.495 -12.121  1.00  0.00     0.062 C 
HETATM   16  C19 UNL     1      14.211  36.988 -12.013  1.00  0.00     0.175 C 
HETATM   17  N5  UNL     1      13.824  36.876 -10.624  1.00  0.00    -0.346 N 
ATOM     18  H5  UNL     1      13.906  35.955 -10.195  1.00  0.00     0.163 HD
HETATM   19  C21 UNL     1      13.344  37.922  -9.804  1.00  0.00     0.241 C 
HETATM   20  O5  UNL     1      12.288  37.682  -9.125  1.00  0.00    -0.271 OA
ENDROOT
BRANCH   1  21
HETATM   21  C11 UNL     1      13.453  39.910  -8.422  1.00  0.00     0.039 C 
BRANCH  21  22
HETATM   22  C10 UNL     1      12.391  40.875  -8.717  1.00  0.00     0.029 C 
BRANCH  22  23
HETATM   23  C9  UNL     1      11.299  40.962  -7.722  1.00  0.00    -0.027 C 
BRANCH  23  24
HETATM   24  C8  UNL     1      11.419  40.387  -6.389  1.00  0.00    -0.008 C 
BRANCH  24  25
HETATM   25  C7  UNL     1      10.987  39.045  -6.038  1.00  0.00    -0.027 C 
BRANCH  25  26
HETATM   26  C6  UNL     1      10.669  38.627  -4.670  1.00  0.00     0.027 C 
BRANCH  26  27
HETATM   27  C5  UNL     1       9.270  38.575  -4.183  1.00  0.00     0.004 C 
BRANCH  27  28
HETATM   28  C4  UNL     1       8.965  38.900  -2.779  1.00  0.00     0.000 C 
BRANCH  28  29
HETATM   29  C3  UNL     1      10.213  38.597  -1.938  1.00  0.00    -0.000 C 
BRANCH  29  30
HETATM   30  C2  UNL     1       9.824  37.720  -0.761  1.00  0.00    -0.005 C 
HETATM   31  C1  UNL     1       9.607  36.286  -1.201  1.00  0.00     0.005 C 
ENDBRANCH  29  30
ENDBRANCH  28  29
ENDBRANCH  27  28
ENDBRANCH  26  27
ENDBRANCH  25  26
ENDBRANCH  24  25
ENDBRANCH  23  24
ENDBRANCH  22  23
ENDBRANCH  21  22
ENDBRANCH   1  21
BRANCH   6  32
HETATM   32  C15 UNL     1      16.524  42.007 -11.153  1.00  0.00     0.207 C 
BRANCH  32  33
HETATM   33  O2  UNL     1      15.892  42.242  -9.926  1.00  0.00    -0.398 OA
ATOM     34  H2  UNL     1      15.563  43.132  -9.892  1.00  0.00     0.209 HD
ENDBRANCH  32  33
ENDBRANCH   6  32
BRANCH  16  35
HETATM   35  C20 UNL     1      13.347  36.046 -12.815  1.00  0.00     0.254 C 
HETATM   36  N4  UNL     1      13.322  36.206 -14.216  1.00  0.00    -0.060 NA
HETATM   37  O4  UNL     1      12.672  35.145 -12.234  1.00  0.00    -0.275 OA
ENDBRANCH  16  35
BRANCH  10  38
HETATM   38  O3  UNL     1      16.939  39.778 -13.979  1.00  0.00    -0.349 OA
ATOM     39  H3  UNL     1      17.359  39.328 -14.702  1.00  0.00     0.213 HD
ENDBRANCH  10  38
TORSDOF 14
ENDMDL
MODEL 2
REMARK VINA RESULT: -7.220442898      1.783      2.580
REMARK  14 active torsions:
REMARK  status: ('A' for Active; 'I' for Inactive)
REMARK    1  A    between atoms: C2_2  and  C3_3 
REMARK    2  A    between atoms: C3_3  and  C4_4 
REMARK    3  A    between atoms: C4_4  and  C5_5 
REMARK    4  A    between atoms: C5_5  and  C6_6 
REMARK    5  A    between atoms: C6_6  and  C7_7 
REMARK    6  A    between atoms: C7_7  and  C8_8 
REMARK    7  A    between atoms: C8_8  and  C9_9 
REMARK    8  A    between atoms: C9_9  and  C10_10 
REMARK    9  A    between atoms: C10_10  and  C11_11 
REMARK   10  A    between atoms: C11_11  and  C12_12 
REMARK   11  A    between atoms: C14_17  and  C15_18 
REMARK   12  A    between atoms: C15_18  and  O2_19 
REMARK   13  A    between atoms: C16_24  and  O3_25 
REMARK   14  A    between atoms: C19_32  and  C20_33 
ROOT
HETATM    1  C12 UNL     1      14.114  37.302 -11.881  1.00  0.00     0.177 C 
HETATM    2  N1  UNL     1      13.709  38.544 -12.477  1.00  0.00    -0.346 N 
ATOM      3  H1  UNL     1      12.777  38.551 -12.892  1.00  0.00     0.163 HD
HETATM    4  C13 UNL     1      14.421  39.748 -12.565  1.00  0.00     0.251 C 
HETATM    5  O1  UNL     1      13.731  40.834 -12.556  1.00  0.00    -0.271 OA
HETATM    6  C14 UNL     1      15.873  39.951 -12.669  1.00  0.00     0.305 C 
HETATM    7  N2  UNL     1      16.659  38.796 -12.922  1.00  0.00    -0.008 N 
ATOM      8  H21 UNL     1      16.083  38.015 -13.237  1.00  0.00     0.283 HD
ATOM      9  H22 UNL     1      17.015  38.391 -12.055  1.00  0.00     0.283 HD
HETATM   10  C16 UNL     1      17.750  39.076 -13.871  1.00  0.00     0.522 C 
HETATM   11  N3  UNL     1      18.094  37.817 -14.473  1.00  0.00    -0.023 N 
ATOM     12  H31 UNL     1      18.196  37.094 -13.761  1.00  0.00     0.282 HD
ATOM     13  H32 UNL     1      19.049  37.839 -14.831  1.00  0.00     0.282 HD
HETATM   14  C17 UNL     1      17.185  37.397 -15.490  1.00  0.00     0.240 C 
HETATM   15  C18 UNL     1      16.398  36.211 -14.988  1.00  0.00     0.062 C 
HETATM   16  C19 UNL     1      14.911  36.490 -14.912  1.00  0.00     0.175 C 
HETATM   17  N5  UNL     1      14.378  35.676 -13.843  1.00  0.00    -0.346 N 
ATOM     18  H5  UNL     1      14.539  34.671 -13.904  1.00  0.00     0.163 HD
HETATM   19  C21 UNL     1      13.654  36.140 -12.722  1.00  0.00     0.241 C 
HETATM   20  O5  UNL     1      12.569  35.525 -12.442  1.00  0.00    -0.271 OA
ENDROOT
BRANCH   1  21
HETATM   21  C11 UNL     1      13.303  37.177 -10.560  1.00  0.00     0.039 C 
BRANCH  21  22
HETATM   22  C10 UNL     1      14.177  37.176  -9.385  1.00  0.00     0.029 C 
BRANCH  22  23
HETATM   23  C9  UNL     1      13.678  37.918  -8.206  1.00  0.00    -0.027 C 
BRANCH  23  24
HETATM   24  C8  UNL     1      12.515  38.794  -8.276  1.00  0.00    -0.008 C 
BRANCH  24  25
HETATM   25  C7  UNL     1      11.747  39.223  -7.121  1.00  0.00    -0.027 C 
BRANCH  25  26
HETATM   26  C6  UNL     1      11.451  38.359  -5.977  1.00  0.00     0.027 C 
BRANCH  26  27
HETATM   27  C5  UNL     1      10.355  38.676  -5.031  1.00  0.00     0.004 C 
BRANCH  27  28
HETATM   28  C4  UNL     1      10.608  38.676  -3.579  1.00  0.00     0.000 C 
BRANCH  28  29
HETATM   29  C3  UNL     1       9.456  37.926  -2.896  1.00  0.00    -0.000 C 
BRANCH  29  30
HETATM   30  C2  UNL     1       9.900  37.476  -1.516  1.00  0.00    -0.005 C 
HETATM   31  C1  UNL     1       9.356  36.099  -1.192  1.00  0.00     0.005 C 
ENDBRANCH  29  30
ENDBRANCH  28  29
ENDBRANCH  27  28
ENDBRANCH  26  27
ENDBRANCH  25  26
ENDBRANCH  24  25
ENDBRANCH  23  24
ENDBRANCH  22  23
ENDBRANCH  21  22
ENDBRANCH   1  21
BRANCH   6  32
HETATM   32  C15 UNL     1      16.350  40.551 -11.346  1.00  0.00     0.207 C 
BRANCH  32  33
HETATM   33  O2  UNL     1      15.551  40.094 -10.292  1.00  0.00    -0.398 OA
ATOM     34  H2  UNL     1      15.303  40.819  -9.730  1.00  0.00     0.209 HD
ENDBRANCH  32  33
ENDBRANCH   6  32
BRANCH  16  35
HETATM   35  C20 UNL     1      14.299  36.020 -16.209  1.00  0.00     0.254 C 
HETATM   36  N4  UNL     1      13.303  36.825 -16.799  1.00  0.00    -0.060 NA
HETATM   37  O4  UNL     1      14.678  34.932 -16.738  1.00  0.00    -0.275 OA
ENDBRANCH  16  35
BRANCH  10  38
HETATM   38  O3  UNL     1      17.427  40.060 -14.770  1.00  0.00    -0.349 OA
ATOM     39  H3  UNL     1      18.107  40.718 -14.852  1.00  0.00     0.213 HD
ENDBRANCH  10  38
TORSDOF 14
ENDMDL
MODEL 3
REMARK VINA RESULT: -7.118571049      2.917      4.803
REMARK  14 active torsions:
REMARK  status: ('A' for Active; 'I' for Inactive)
REMARK    1  A    between atoms: C2_2  and  C3_3 
REMARK    2  A    between atoms: C3_3  and  C4_4 
REMARK    3  A    between atoms: C4_4  and  C5_5 
REMARK    4  A    between atoms: C5_5  and  C6_6 
REMARK    5  A    between atoms: C6_6  and  C7_7 
REMARK    6  A    between atoms: C7_7  and  C8_8 
REMARK    7  A    between atoms: C8_8  and  C9_9 
REMARK    8  A    between atoms: C9_9  and  C10_10 
REMARK    9  A    between atoms: C10_10  and  C11_11 
REMARK   10  A    between atoms: C11_11  and  C12_12 
REMARK   11  A    between atoms: C14_17  and  C15_18 
REMARK   12  A    between atoms: C15_18  and  O2_19 
REMARK   13  A    between atoms: C16_24  and  O3_25 
REMARK   14  A    between atoms: C19_32  and  C20_33 
ROOT
HETATM    1  C12 UNL     1      14.136  37.297 -11.886  1.00  0.00     0.177 C 
HETATM    2  N1  UNL     1      13.734  38.529 -12.505  1.00  0.00    -0.346 N 
ATOM      3  H1  UNL     1      12.804  38.530 -12.923  1.00  0.00     0.163 HD
HETATM    4  C13 UNL     1      14.448  39.731 -12.611  1.00  0.00     0.251 C 
HETATM    5  O1  UNL     1      13.759  40.817 -12.623  1.00  0.00    -0.271 OA
HETATM    6  C14 UNL     1      15.901  39.930 -12.714  1.00  0.00     0.305 C 
HETATM    7  N2  UNL     1      16.687  38.770 -12.944  1.00  0.00    -0.008 N 
ATOM      8  H21 UNL     1      16.110  37.985 -13.248  1.00  0.00     0.283 HD
ATOM      9  H22 UNL     1      17.039  38.380 -12.070  1.00  0.00     0.283 HD
HETATM   10  C16 UNL     1      17.781  39.033 -13.895  1.00  0.00     0.522 C 
HETATM   11  N3  UNL     1      18.126  37.764 -14.473  1.00  0.00    -0.023 N 
ATOM     12  H31 UNL     1      18.225  37.052 -13.749  1.00  0.00     0.282 HD
ATOM     13  H32 UNL     1      19.082  37.779 -14.829  1.00  0.00     0.282 HD
HETATM   14  C17 UNL     1      17.219  37.327 -15.486  1.00  0.00     0.240 C 
HETATM   15  C18 UNL     1      16.429  36.151 -14.967  1.00  0.00     0.062 C 
HETATM   16  C19 UNL     1      14.943  36.432 -14.901  1.00  0.00     0.175 C 
HETATM   17  N5  UNL     1      14.405  35.637 -13.819  1.00  0.00    -0.346 N 
ATOM     18  H5  UNL     1      14.565  34.631 -13.862  1.00  0.00     0.163 HD
HETATM   19  C21 UNL     1      13.678  36.122 -12.709  1.00  0.00     0.241 C 
HETATM   20  O5  UNL     1      12.591  35.512 -12.422  1.00  0.00    -0.271 OA
ENDROOT
BRANCH   1  21
HETATM   21  C11 UNL     1      13.321  37.195 -10.566  1.00  0.00     0.039 C 
BRANCH  21  22
HETATM   22  C10 UNL     1      14.192  37.202  -9.388  1.00  0.00     0.029 C 
BRANCH  22  23
HETATM   23  C9  UNL     1      13.701  37.972  -8.224  1.00  0.00    -0.027 C 
BRANCH  23  24
HETATM   24  C8  UNL     1      12.599  38.920  -8.331  1.00  0.00    -0.008 C 
BRANCH  24  25
HETATM   25  C7  UNL     1      12.040  39.650  -7.206  1.00  0.00    -0.027 C 
BRANCH  25  26
HETATM   26  C6  UNL     1      12.426  41.017  -6.853  1.00  0.00     0.027 C 
BRANCH  26  27
HETATM   27  C5  UNL     1      13.112  41.902  -7.825  1.00  0.00     0.004 C 
BRANCH  27  28
HETATM   28  C4  UNL     1      14.142  42.849  -7.363  1.00  0.00     0.000 C 
BRANCH  28  29
HETATM   29  C3  UNL     1      15.104  43.112  -8.531  1.00  0.00    -0.000 C 
BRANCH  29  30
HETATM   30  C2  UNL     1      16.272  43.948  -8.039  1.00  0.00    -0.005 C 
HETATM   31  C1  UNL     1      17.410  43.932  -9.040  1.00  0.00     0.005 C 
ENDBRANCH  29  30
ENDBRANCH  28  29
ENDBRANCH  27  28
ENDBRANCH  26  27
ENDBRANCH  25  26
ENDBRANCH  24  25
ENDBRANCH  23  24
ENDBRANCH  22  23
ENDBRANCH  21  22
ENDBRANCH   1  21
BRANCH   6  32
HETATM   32  C15 UNL     1      16.374  40.553 -11.400  1.00  0.00     0.207 C 
BRANCH  32  33
HETATM   33  O2  UNL     1      15.577  40.107 -10.339  1.00  0.00    -0.398 OA
ATOM     34  H2  UNL     1      15.996  40.303  -9.509  1.00  0.00     0.209 HD
ENDBRANCH  32  33
ENDBRANCH   6  32
BRANCH  16  35
HETATM   35  C20 UNL     1      14.334  35.940 -16.191  1.00  0.00     0.254 C 
HETATM   36  N4  UNL     1      13.325  36.726 -16.786  1.00  0.00    -0.060 NA
HETATM   37  O4  UNL     1      14.728  34.853 -16.710  1.00  0.00    -0.275 OA
ENDBRANCH  16  35
BRANCH  10  38
HETATM   38  O3  UNL     1      17.461  40.002 -14.811  1.00  0.00    -0.349 OA
ATOM     39  H3  UNL     1      18.109  40.080 -15.502  1.00  0.00     0.213 HD
ENDBRANCH  10  38
TORSDOF 14
ENDMDL
MODEL 4
REMARK VINA RESULT: -7.058720695      4.012      9.584
REMARK  14 active torsions:
REMARK  status: ('A' for Active; 'I' for Inactive)
REMARK    1  A    between atoms: C2_2  and  C3_3 
REMARK    2  A    between atoms: C3_3  and  C4_4 
REMARK    3  A    between atoms: C4_4  and  C5_5 
REMARK    4  A    between atoms: C5_5  and  C6_6 
REMARK    5  A    between atoms: C6_6  and  C7_7 
REMARK    6  A    between atoms: C7_7  and  C8_8 
REMARK    7  A    between atoms: C8_8  and  C9_9 
REMARK    8  A    between atoms: C9_9  and  C10_10 
REMARK    9  A    between atoms: C10_10  and  C11_11 
REMARK   10  A    between atoms: C11_11  and  C12_12 
REMARK   11  A    between atoms: C14_17  and  C15_18 
REMARK   12  A    between atoms: C15_18  and  O2_19 
REMARK   13  A    between atoms: C16_24  and  O3_25 
REMARK   14  A    between atoms: C19_32  and  C20_33 
ROOT
HETATM    1  C12 UNL     1      14.356  36.808 -13.420  1.00  0.00     0.177 C 
HETATM    2  N1  UNL     1      15.644  36.418 -12.918  1.00  0.00    -0.346 N 
ATOM      3  H1  UNL     1      15.661  35.560 -12.368  1.00  0.00     0.163 HD
HETATM    4  C13 UNL     1      16.880  37.058 -13.083  1.00  0.00     0.251 C 
HETATM    5  O1  UNL     1      17.924  36.307 -13.113  1.00  0.00    -0.271 OA
HETATM    6  C14 UNL     1      17.159  38.494 -13.229  1.00  0.00     0.305 C 
HETATM    7  N2  UNL     1      16.081  39.380 -12.967  1.00  0.00    -0.008 N 
ATOM      8  H21 UNL     1      15.321  38.907 -12.477  1.00  0.00     0.283 HD
ATOM      9  H22 UNL     1      15.587  39.629 -13.825  1.00  0.00     0.283 HD
HETATM   10  C16 UNL     1      16.526  40.579 -12.237  1.00  0.00     0.522 C 
HETATM   11  N3  UNL     1      15.370  41.088 -11.552  1.00  0.00    -0.023 N 
ATOM     12  H31 UNL     1      14.568  41.129 -12.182  1.00  0.00     0.282 HD
ATOM     13  H32 UNL     1      15.479  42.082 -11.351  1.00  0.00     0.282 HD
HETATM   14  C17 UNL     1      15.040  40.367 -10.365  1.00  0.00     0.240 C 
HETATM   15  C18 UNL     1      13.767  39.591 -10.597  1.00  0.00     0.062 C 
HETATM   16  C19 UNL     1      13.967  38.095 -10.474  1.00  0.00     0.175 C 
HETATM   17  N5  UNL     1      13.003  37.461 -11.345  1.00  0.00    -0.346 N 
ATOM     18  H5  UNL     1      12.022  37.693 -11.193  1.00  0.00     0.163 HD
HETATM   19  C21 UNL     1      13.290  36.552 -12.388  1.00  0.00     0.241 C 
HETATM   20  O5  UNL     1      12.597  35.479 -12.423  1.00  0.00    -0.271 OA
ENDROOT
BRANCH   1  21
HETATM   21  C11 UNL     1      14.031  35.820 -14.576  1.00  0.00     0.039 C 
BRANCH  21  22
HETATM   22  C10 UNL     1      14.635  36.246 -15.841  1.00  0.00     0.029 C 
BRANCH  22  23
HETATM   23  C9  UNL     1      13.755  36.196 -17.029  1.00  0.00    -0.027 C 
BRANCH  23  24
HETATM   24  C8  UNL     1      13.717  35.040 -17.916  1.00  0.00    -0.008 C 
BRANCH  24  25
HETATM   25  C7  UNL     1      14.427  33.797 -17.668  1.00  0.00    -0.027 C 
BRANCH  25  26
HETATM   26  C6  UNL     1      15.632  33.393 -18.395  1.00  0.00     0.027 C 
BRANCH  26  27
HETATM   27  C5  UNL     1      16.847  32.932 -17.681  1.00  0.00     0.004 C 
BRANCH  27  28
HETATM   28  C4  UNL     1      17.717  33.905 -16.999  1.00  0.00     0.000 C 
BRANCH  28  29
HETATM   29  C3  UNL     1      18.958  33.158 -16.489  1.00  0.00    -0.000 C 
BRANCH  29  30
HETATM   30  C2  UNL     1      19.129  31.872 -17.278  1.00  0.00    -0.005 C 
HETATM   31  C1  UNL     1      19.715  30.777 -16.411  1.00  0.00     0.005 C 
ENDBRANCH  29  30
ENDBRANCH  28  29
ENDBRANCH  27  28
ENDBRANCH  26  27
ENDBRANCH  25  26
ENDBRANCH  24  25
ENDBRANCH  23  24
ENDBRANCH  22  23
ENDBRANCH  21  22
ENDBRANCH   1  21
BRANCH   6  32
HETATM   32  C15 UNL     1      17.610  38.731 -14.670  1.00  0.00     0.207 C 
BRANCH  32  33
HETATM   33  O2  UNL     1      18.991  38.536 -14.784  1.00  0.00    -0.398 OA
ATOM     34  H2  UNL     1      19.218  38.315 -15.680  1.00  0.00     0.209 HD
ENDBRANCH  32  33
ENDBRANCH   6  32
BRANCH  16  35
HETATM   35  C20 UNL     1      13.636  37.711  -9.053  1.00  0.00     0.254 C 
HETATM   36  N4  UNL     1      12.333  37.978  -8.584  1.00  0.00    -0.060 NA
HETATM   37  O4  UNL     1      14.513  37.167  -8.317  1.00  0.00    -0.275 OA
ENDBRANCH  16  35
BRANCH  10  38
HETATM   38  O3  UNL     1      17.600  40.331 -11.420  1.00  0.00    -0.349 OA
ATOM     39  H3  UNL     1      18.116  39.588 -11.710  1.00  0.00     0.213 HD
ENDBRANCH  10  38
TORSDOF 14
ENDMDL
MODEL 5
REMARK VINA RESULT: -7.036730623      2.604      4.328
REMARK  14 active torsions:
REMARK  status: ('A' for Active; 'I' for Inactive)
REMARK    1  A    between atoms: C2_2  and  C3_3 
REMARK    2  A    between atoms: C3_3  and  C4_4 
REMARK    3  A    between atoms: C4_4  and  C5_5 
REMARK    4  A    between atoms: C5_5  and  C6_6 
REMARK    5  A    between atoms: C6_6  and  C7_7 
REMARK    6  A    between atoms: C7_7  and  C8_8 
REMARK    7  A    between atoms: C8_8  and  C9_9 
REMARK    8  A    between atoms: C9_9  and  C10_10 
REMARK    9  A    between atoms: C10_10  and  C11_11 
REMARK   10  A    between atoms: C11_11  and  C12_12 
REMARK   11  A    between atoms: C14_17  and  C15_18 
REMARK   12  A    between atoms: C15_18  and  O2_19 
REMARK   13  A    between atoms: C16_24  and  O3_25 
REMARK   14  A    between atoms: C19_32  and  C20_33 
ROOT
HETATM    1  C12 UNL     1      14.133  37.245 -11.985  1.00  0.00     0.177 C 
HETATM    2  N1  UNL     1      13.738  38.482 -12.600  1.00  0.00    -0.346 N 
ATOM      3  H1  UNL     1      12.799  38.496 -12.999  1.00  0.00     0.163 HD
HETATM    4  C13 UNL     1      14.469  39.671 -12.726  1.00  0.00     0.251 C 
HETATM    5  O1  UNL     1      13.797  40.768 -12.727  1.00  0.00    -0.271 OA
HETATM    6  C14 UNL     1      15.922  39.847 -12.860  1.00  0.00     0.305 C 
HETATM    7  N2  UNL     1      16.684  38.674 -13.102  1.00  0.00    -0.008 N 
ATOM      8  H21 UNL     1      16.089  37.897 -13.391  1.00  0.00     0.283 HD
ATOM      9  H22 UNL     1      17.049  38.281 -12.234  1.00  0.00     0.283 HD
HETATM   10  C16 UNL     1      17.762  38.916 -14.076  1.00  0.00     0.522 C 
HETATM   11  N3  UNL     1      18.074  37.639 -14.658  1.00  0.00    -0.023 N 
ATOM     12  H31 UNL     1      18.177  36.929 -13.933  1.00  0.00     0.282 HD
ATOM     13  H32 UNL     1      19.023  37.638 -15.033  1.00  0.00     0.282 HD
HETATM   14  C17 UNL     1      17.140  37.214 -15.650  1.00  0.00     0.240 C 
HETATM   15  C18 UNL     1      16.342  36.053 -15.109  1.00  0.00     0.062 C 
HETATM   16  C19 UNL     1      14.862  36.358 -15.013  1.00  0.00     0.175 C 
HETATM   17  N5  UNL     1      14.334  35.575 -13.918  1.00  0.00    -0.346 N 
ATOM     18  H5  UNL     1      14.478  34.567 -13.960  1.00  0.00     0.163 HD
HETATM   19  C21 UNL     1      13.639  36.075 -12.794  1.00  0.00     0.241 C 
HETATM   20  O5  UNL     1      12.549  35.484 -12.482  1.00  0.00    -0.271 OA
ENDROOT
BRANCH   1  21
HETATM   21  C11 UNL     1      13.344  37.161 -10.648  1.00  0.00     0.039 C 
BRANCH  21  22
HETATM   22  C10 UNL     1      14.237  37.198  -9.488  1.00  0.00     0.029 C 
BRANCH  22  23
HETATM   23  C9  UNL     1      13.794  38.042  -8.356  1.00  0.00    -0.027 C 
BRANCH  23  24
HETATM   24  C8  UNL     1      12.385  38.277  -8.069  1.00  0.00    -0.008 C 
BRANCH  24  25
HETATM   25  C7  UNL     1      11.863  38.594  -6.752  1.00  0.00    -0.027 C 
BRANCH  25  26
HETATM   26  C6  UNL     1      11.433  39.936  -6.351  1.00  0.00     0.027 C 
BRANCH  26  27
HETATM   27  C5  UNL     1      11.717  41.122  -7.192  1.00  0.00     0.004 C 
BRANCH  27  28
HETATM   28  C4  UNL     1      13.040  41.770  -7.134  1.00  0.00     0.000 C 
BRANCH  28  29
HETATM   29  C3  UNL     1      13.500  42.041  -8.573  1.00  0.00    -0.000 C 
BRANCH  29  30
HETATM   30  C2  UNL     1      12.400  41.634  -9.537  1.00  0.00    -0.005 C 
HETATM   31  C1  UNL     1      12.080  42.757 -10.502  1.00  0.00     0.005 C 
ENDBRANCH  29  30
ENDBRANCH  28  29
ENDBRANCH  27  28
ENDBRANCH  26  27
ENDBRANCH  25  26
ENDBRANCH  24  25
ENDBRANCH  23  24
ENDBRANCH  22  23
ENDBRANCH  21  22
ENDBRANCH   1  21
BRANCH   6  32
HETATM   32  C15 UNL     1      16.432  40.466 -11.558  1.00  0.00     0.207 C 
BRANCH  32  33
HETATM   33  O2  UNL     1      15.667  40.017 -10.476  1.00  0.00    -0.398 OA
ATOM     34  H2  UNL     1      15.596  40.699  -9.818  1.00  0.00     0.209 HD
ENDBRANCH  32  33
ENDBRANCH   6  32
BRANCH  16  35
HETATM   35  C20 UNL     1      14.218  35.872 -16.288  1.00  0.00     0.254 C 
HETATM   36  N4  UNL     1      14.812  34.778 -16.951  1.00  0.00    -0.060 NA
HETATM   37  O4  UNL     1      13.177  36.439 -16.736  1.00  0.00    -0.275 OA
ENDBRANCH  16  35
BRANCH  10  38
HETATM   38  O3  UNL     1      17.439  39.887 -14.990  1.00  0.00    -0.349 OA
ATOM     39  H3  UNL     1      16.794  39.594 -15.623  1.00  0.00     0.213 HD
ENDBRANCH  10  38
TORSDOF 14
ENDMDL
