MODEL 1
REMARK VINA RESULT: -6.862127179      0.000      0.000
REMARK  4 active torsions:
REMARK  status: ('A' for Active; 'I' for Inactive)
REMARK    1  A    between atoms: O1_2  and  C2_3 
REMARK    2  A    between atoms: C2_3  and  C3_5 
REMARK    3  A    between atoms: C11_14  and  O3_15 
REMARK    4  A    between atoms: O3_15  and  C12_16 
ROOT
HETATM    1  C3  UNL     1     -29.662  -1.308  27.263  1.00  0.00     0.065 C 
HETATM    2  C4  UNL     1     -30.976  -1.620  27.988  1.00  0.00     0.023 C 
HETATM    3  C5  UNL     1     -31.785  -2.661  27.285  1.00  0.00     0.031 C 
HETATM    4  C6  UNL     1     -31.641  -4.046  27.881  1.00  0.00     0.273 C 
HETATM    5  N1  UNL     1     -30.288  -4.178  28.390  1.00  0.00     0.094 N 
HETATM    6  C7  UNL     1     -30.095  -5.443  28.988  1.00  0.00     0.273 C 
HETATM    7  C8  UNL     1     -29.433  -6.496  28.205  1.00  0.00     0.031 C 
HETATM    8  C9  UNL     1     -28.625  -6.041  27.026  1.00  0.00     0.011 C 
HETATM    9  C10 UNL     1     -28.125  -4.681  27.347  1.00  0.00     0.049 C 
HETATM   10  C11 UNL     1     -27.399  -3.982  26.244  1.00  0.00     0.139 C 
HETATM   11  C14 UNL     1     -27.486  -2.537  26.766  1.00  0.00     0.046 C 
HETATM   12  C15 UNL     1     -28.753  -2.453  27.522  1.00  0.00     0.011 C 
HETATM   13  C16 UNL     1     -28.381  -2.292  29.000  1.00  0.00     0.018 C 
HETATM   14  C17 UNL     1     -28.571  -0.864  29.343  1.00  0.00    -0.009 C 
HETATM   15  C18 UNL     1     -27.243  -0.275  29.839  1.00  0.00     0.011 C 
HETATM   16  C19 UNL     1     -29.019  -0.207  28.056  1.00  0.00    -0.027 C 
HETATM   17  C20 UNL     1     -29.958   0.899  28.463  1.00  0.00     0.016 C 
HETATM   18  C21 UNL     1     -27.803   0.379  27.412  1.00  0.00     0.016 C 
HETATM   19  C22 UNL     1     -29.381  -3.794  27.374  1.00  0.00     0.239 C 
ENDROOT
BRANCH   1  20
HETATM   20  C2  UNL     1     -29.871  -0.937  25.875  1.00  0.00     0.268 C 
HETATM   21  O2  UNL     1     -29.558  -1.626  24.849  1.00  0.00    -0.264 OA
BRANCH  20  22
HETATM   22  O1  UNL     1     -30.469   0.280  25.545  1.00  0.00    -0.326 OA
HETATM   23  C1  UNL     1     -31.733   0.396  24.976  1.00  0.00     0.213 C 
ENDBRANCH  20  22
ENDBRANCH   1  20
BRANCH  10  24
HETATM   24  O3  UNL     1     -26.122  -4.399  25.992  1.00  0.00    -0.316 OA
BRANCH  24  25
HETATM   25  C12 UNL     1     -25.334  -4.051  24.907  1.00  0.00     0.255 C 
HETATM   26  C13 UNL     1     -25.985  -3.867  23.599  1.00  0.00     0.126 C 
HETATM   27  O4  UNL     1     -24.115  -3.915  25.117  1.00  0.00    -0.266 OA
ENDBRANCH  24  25
ENDBRANCH  10  24
TORSDOF 4
ENDMDL
MODEL 2
REMARK VINA RESULT: -6.223170176      4.989      8.777
REMARK  4 active torsions:
REMARK  status: ('A' for Active; 'I' for Inactive)
REMARK    1  A    between atoms: O1_2  and  C2_3 
REMARK    2  A    between atoms: C2_3  and  C3_5 
REMARK    3  A    between atoms: C11_14  and  O3_15 
REMARK    4  A    between atoms: O3_15  and  C12_16 
ROOT
HETATM    1  C3  UNL     1     -26.547 -10.539  27.342  1.00  0.00     0.065 C 
HETATM    2  C4  UNL     1     -25.414 -10.898  26.375  1.00  0.00     0.023 C 
HETATM    3  C5  UNL     1     -25.726 -10.525  24.963  1.00  0.00     0.031 C 
HETATM    4  C6  UNL     1     -25.091  -9.222  24.525  1.00  0.00     0.273 C 
HETATM    5  N1  UNL     1     -25.035  -8.340  25.676  1.00  0.00     0.094 N 
HETATM    6  C7  UNL     1     -24.423  -7.111  25.341  1.00  0.00     0.273 C 
HETATM    7  C8  UNL     1     -25.283  -5.956  25.049  1.00  0.00     0.031 C 
HETATM    8  C9  UNL     1     -26.694  -6.031  25.553  1.00  0.00     0.011 C 
HETATM    9  C10 UNL     1     -26.670  -6.877  26.772  1.00  0.00     0.049 C 
HETATM   10  C11 UNL     1     -28.005  -7.194  27.366  1.00  0.00     0.139 C 
HETATM   11  C14 UNL     1     -27.610  -8.401  28.235  1.00  0.00     0.046 C 
HETATM   12  C15 UNL     1     -26.497  -9.066  27.525  1.00  0.00     0.011 C 
HETATM   13  C16 UNL     1     -25.237  -8.850  28.371  1.00  0.00     0.018 C 
HETATM   14  C17 UNL     1     -24.976 -10.116  29.093  1.00  0.00    -0.009 C 
HETATM   15  C18 UNL     1     -24.986  -9.855  30.606  1.00  0.00     0.011 C 
HETATM   16  C19 UNL     1     -26.102 -11.041  28.685  1.00  0.00    -0.027 C 
HETATM   17  C20 UNL     1     -25.512 -12.426  28.669  1.00  0.00     0.016 C 
HETATM   18  C21 UNL     1     -27.151 -10.954  29.747  1.00  0.00     0.016 C 
HETATM   19  C22 UNL     1     -26.317  -8.287  26.270  1.00  0.00     0.239 C 
ENDROOT
BRANCH   1  20
HETATM   20  C2  UNL     1     -27.821 -11.106  26.938  1.00  0.00     0.268 C 
HETATM   21  O2  UNL     1     -28.890 -10.462  26.675  1.00  0.00    -0.264 OA
BRANCH  20  22
HETATM   22  O1  UNL     1     -27.975 -12.485  26.798  1.00  0.00    -0.326 OA
HETATM   23  C1  UNL     1     -28.351 -13.109  25.612  1.00  0.00     0.213 C 
ENDBRANCH  20  22
ENDBRANCH   1  20
BRANCH  10  24
HETATM   24  O3  UNL     1     -28.617  -6.191  28.064  1.00  0.00    -0.316 OA
BRANCH  24  25
HETATM   25  C12 UNL     1     -29.975  -5.920  28.109  1.00  0.00     0.255 C 
HETATM   26  C13 UNL     1     -30.482  -4.756  27.363  1.00  0.00     0.126 C 
HETATM   27  O4  UNL     1     -30.681  -6.691  28.784  1.00  0.00    -0.266 OA
ENDBRANCH  24  25
ENDBRANCH  10  24
TORSDOF 4
ENDMDL
MODEL 3
REMARK VINA RESULT: -5.851539451      4.043      7.983
REMARK  4 active torsions:
REMARK  status: ('A' for Active; 'I' for Inactive)
REMARK    1  A    between atoms: O1_2  and  C2_3 
REMARK    2  A    between atoms: C2_3  and  C3_5 
REMARK    3  A    between atoms: C11_14  and  O3_15 
REMARK    4  A    between atoms: O3_15  and  C12_16 
ROOT
HETATM    1  C3  UNL     1     -26.916  -9.766  28.409  1.00  0.00     0.065 C 
HETATM    2  C4  UNL     1     -28.031  -9.600  29.448  1.00  0.00     0.023 C 
HETATM    3  C5  UNL     1     -27.881  -8.354  30.257  1.00  0.00     0.031 C 
HETATM    4  C6  UNL     1     -28.758  -7.214  29.783  1.00  0.00     0.273 C 
HETATM    5  N1  UNL     1     -28.890  -7.317  28.342  1.00  0.00     0.094 N 
HETATM    6  C7  UNL     1     -29.724  -6.295  27.837  1.00  0.00     0.273 C 
HETATM    7  C8  UNL     1     -29.097  -5.101  27.254  1.00  0.00     0.031 C 
HETATM    8  C9  UNL     1     -27.665  -5.239  26.832  1.00  0.00     0.011 C 
HETATM    9  C10 UNL     1     -27.463  -6.661  26.458  1.00  0.00     0.049 C 
HETATM   10  C11 UNL     1     -26.058  -7.050  26.129  1.00  0.00     0.139 C 
HETATM   11  C14 UNL     1     -26.181  -8.577  26.278  1.00  0.00     0.046 C 
HETATM   12  C15 UNL     1     -27.207  -8.802  27.318  1.00  0.00     0.011 C 
HETATM   13  C16 UNL     1     -28.427  -9.408  26.616  1.00  0.00     0.018 C 
HETATM   14  C17 UNL     1     -28.419 -10.860  26.907  1.00  0.00    -0.009 C 
HETATM   15  C18 UNL     1     -28.354 -11.646  25.590  1.00  0.00     0.011 C 
HETATM   16  C19 UNL     1     -27.179 -11.086  27.745  1.00  0.00    -0.027 C 
HETATM   17  C20 UNL     1     -27.521 -12.204  28.694  1.00  0.00     0.016 C 
HETATM   18  C21 UNL     1     -26.093 -11.529  26.817  1.00  0.00     0.016 C 
HETATM   19  C22 UNL     1     -27.600  -7.441  27.776  1.00  0.00     0.239 C 
ENDROOT
BRANCH   1  20
HETATM   20  C2  UNL     1     -25.593  -9.703  29.003  1.00  0.00     0.268 C 
HETATM   21  O2  UNL     1     -24.602  -9.019  28.582  1.00  0.00    -0.264 OA
BRANCH  20  22
HETATM   22  O1  UNL     1     -25.293 -10.434  30.153  1.00  0.00    -0.326 OA
HETATM   23  C1  UNL     1     -24.228 -11.325  30.253  1.00  0.00     0.213 C 
ENDBRANCH  20  22
ENDBRANCH   1  20
BRANCH  10  24
HETATM   24  O3  UNL     1     -25.583  -6.654  24.909  1.00  0.00    -0.316 OA
BRANCH  24  25
HETATM   25  C12 UNL     1     -24.608  -5.699  24.669  1.00  0.00     0.255 C 
HETATM   26  C13 UNL     1     -25.035  -4.350  24.262  1.00  0.00     0.126 C 
HETATM   27  O4  UNL     1     -23.425  -6.053  24.817  1.00  0.00    -0.266 OA
ENDBRANCH  24  25
ENDBRANCH  10  24
TORSDOF 4
ENDMDL
MODEL 4
REMARK VINA RESULT: -5.732430475      5.437      7.925
REMARK  4 active torsions:
REMARK  status: ('A' for Active; 'I' for Inactive)
REMARK    1  A    between atoms: O1_2  and  C2_3 
REMARK    2  A    between atoms: C2_3  and  C3_5 
REMARK    3  A    between atoms: C11_14  and  O3_15 
REMARK    4  A    between atoms: O3_15  and  C12_16 
ROOT
HETATM    1  C3  UNL     1     -27.483  -9.474  29.624  1.00  0.00     0.065 C 
HETATM    2  C4  UNL     1     -28.554 -10.565  29.745  1.00  0.00     0.023 C 
HETATM    3  C5  UNL     1     -29.571 -10.493  28.654  1.00  0.00     0.031 C 
HETATM    4  C6  UNL     1     -29.326 -11.478  27.530  1.00  0.00     0.273 C 
HETATM    5  N1  UNL     1     -27.892 -11.648  27.387  1.00  0.00     0.094 N 
HETATM    6  C7  UNL     1     -27.594 -12.582  26.369  1.00  0.00     0.273 C 
HETATM    7  C8  UNL     1     -27.224 -12.077  25.040  1.00  0.00     0.031 C 
HETATM    8  C9  UNL     1     -26.759 -10.653  24.974  1.00  0.00     0.011 C 
HETATM    9  C10 UNL     1     -26.131 -10.345  26.284  1.00  0.00     0.049 C 
HETATM   10  C11 UNL     1     -25.713  -8.924  26.482  1.00  0.00     0.139 C 
HETATM   11  C14 UNL     1     -25.588  -8.913  28.016  1.00  0.00     0.046 C 
HETATM   12  C15 UNL     1     -26.589  -9.882  28.512  1.00  0.00     0.011 C 
HETATM   13  C16 UNL     1     -25.811 -11.070  29.089  1.00  0.00     0.018 C 
HETATM   14  C17 UNL     1     -25.836 -10.929  30.564  1.00  0.00    -0.009 C 
HETATM   15  C18 UNL     1     -24.398 -10.843  31.094  1.00  0.00     0.011 C 
HETATM   16  C19 UNL     1     -26.597  -9.648  30.824  1.00  0.00    -0.027 C 
HETATM   17  C20 UNL     1     -27.336  -9.863  32.119  1.00  0.00     0.016 C 
HETATM   18  C21 UNL     1     -25.586  -8.560  30.998  1.00  0.00     0.016 C 
HETATM   19  C22 UNL     1     -27.290 -10.372  27.294  1.00  0.00     0.239 C 
ENDROOT
BRANCH   1  20
HETATM   20  C2  UNL     1     -28.056  -8.143  29.551  1.00  0.00     0.268 C 
HETATM   21  O2  UNL     1     -28.765  -7.571  30.443  1.00  0.00    -0.264 OA
BRANCH  20  22
HETATM   22  O1  UNL     1     -27.855  -7.341  28.427  1.00  0.00    -0.326 OA
HETATM   23  C1  UNL     1     -28.873  -6.942  27.565  1.00  0.00     0.213 C 
ENDBRANCH  20  22
ENDBRANCH   1  20
BRANCH  10  24
HETATM   24  O3  UNL     1     -24.577  -8.525  25.835  1.00  0.00    -0.316 OA
BRANCH  24  25
HETATM   25  C12 UNL     1     -24.310  -7.264  25.327  1.00  0.00     0.255 C 
HETATM   26  C13 UNL     1     -25.416  -6.294  25.245  1.00  0.00     0.126 C 
HETATM   27  O4  UNL     1     -23.140  -7.036  24.972  1.00  0.00    -0.266 OA
ENDBRANCH  24  25
ENDBRANCH  10  24
TORSDOF 4
ENDMDL
MODEL 5
REMARK VINA RESULT: -5.686461869      5.048      8.812
REMARK  4 active torsions:
REMARK  status: ('A' for Active; 'I' for Inactive)
REMARK    1  A    between atoms: O1_2  and  C2_3 
REMARK    2  A    between atoms: C2_3  and  C3_5 
REMARK    3  A    between atoms: C11_14  and  O3_15 
REMARK    4  A    between atoms: O3_15  and  C12_16 
ROOT
HETATM    1  C3  UNL     1     -26.640 -10.819  27.592  1.00  0.00     0.065 C 
HETATM    2  C4  UNL     1     -25.609 -11.095  26.491  1.00  0.00     0.023 C 
HETATM    3  C5  UNL     1     -26.106 -10.720  25.134  1.00  0.00     0.031 C 
HETATM    4  C6  UNL     1     -25.603  -9.374  24.655  1.00  0.00     0.273 C 
HETATM    5  N1  UNL     1     -25.463  -8.508  25.811  1.00  0.00     0.094 N 
HETATM    6  C7  UNL     1     -24.967  -7.240  25.434  1.00  0.00     0.273 C 
HETATM    7  C8  UNL     1     -25.921  -6.134  25.271  1.00  0.00     0.031 C 
HETATM    8  C9  UNL     1     -27.255  -6.302  25.933  1.00  0.00     0.011 C 
HETATM    9  C10 UNL     1     -27.039  -7.163  27.123  1.00  0.00     0.049 C 
HETATM   10  C11 UNL     1     -28.275  -7.569  27.860  1.00  0.00     0.139 C 
HETATM   11  C14 UNL     1     -27.712  -8.763  28.650  1.00  0.00     0.046 C 
HETATM   12  C15 UNL     1     -26.653  -9.349  27.801  1.00  0.00     0.011 C 
HETATM   13  C16 UNL     1     -25.317  -9.071  28.499  1.00  0.00     0.018 C 
HETATM   14  C17 UNL     1     -24.900 -10.331  29.157  1.00  0.00    -0.009 C 
HETATM   15  C18 UNL     1     -24.748 -10.094  30.666  1.00  0.00     0.011 C 
HETATM   16  C19 UNL     1     -26.011 -11.315  28.863  1.00  0.00    -0.027 C 
HETATM   17  C20 UNL     1     -25.349 -12.662  28.747  1.00  0.00     0.016 C 
HETATM   18  C21 UNL     1     -26.932 -11.307  30.041  1.00  0.00     0.016 C 
HETATM   19  C22 UNL     1     -26.667  -8.541  26.551  1.00  0.00     0.239 C 
ENDROOT
BRANCH   1  20
HETATM   20  C2  UNL     1     -27.917 -11.455  27.326  1.00  0.00     0.268 C 
HETATM   21  O2  UNL     1     -28.099 -12.620  26.840  1.00  0.00    -0.264 OA
BRANCH  20  22
HETATM   22  O1  UNL     1     -29.114 -10.793  27.601  1.00  0.00    -0.326 OA
HETATM   23  C1  UNL     1     -30.208 -11.391  28.220  1.00  0.00     0.213 C 
ENDBRANCH  20  22
ENDBRANCH   1  20
BRANCH  10  24
HETATM   24  O3  UNL     1     -28.858  -6.615  28.647  1.00  0.00    -0.316 OA
BRANCH  24  25
HETATM   25  C12 UNL     1     -30.128  -6.081  28.500  1.00  0.00     0.255 C 
HETATM   26  C13 UNL     1     -30.316  -4.974  27.548  1.00  0.00     0.126 C 
HETATM   27  O4  UNL     1     -31.032  -6.581  29.193  1.00  0.00    -0.266 OA
ENDBRANCH  24  25
ENDBRANCH  10  24
TORSDOF 4
ENDMDL
