MODEL 1
REMARK VINA RESULT: -7.321548262      0.000      0.000
REMARK  1 active torsions:
REMARK  status: ('A' for Active; 'I' for Inactive)
REMARK    1  A    between atoms: C2_2  and  C3_3 
ROOT
HETATM    1  C3  UNL     1     -26.030  -4.388  25.273  1.00  0.00    -0.013 C 
HETATM    2  C4  UNL     1     -24.687  -5.039  25.375  1.00  0.00     0.005 C 
HETATM    3  C5  UNL     1     -24.688  -6.464  24.892  1.00  0.00     0.000 C 
HETATM    4  C6  UNL     1     -25.597  -7.356  25.673  1.00  0.00     0.000 C 
HETATM    5  C7  UNL     1     -24.804  -8.473  26.358  1.00  0.00     0.000 C 
HETATM    6  C8  UNL     1     -25.671  -9.211  27.345  1.00  0.00     0.002 C 
HETATM    7  C9  UNL     1     -24.782  -9.939  28.305  1.00  0.00     0.026 C 
HETATM    8  C10 UNL     1     -25.497 -10.309  29.598  1.00  0.00     0.167 C 
HETATM    9  O1  UNL     1     -26.021  -9.204  30.236  1.00  0.00    -0.389 OA
HETATM   10  C11 UNL     1     -25.981  -9.282  31.613  1.00  0.00     0.193 C 
HETATM   11  C12 UNL     1     -27.234  -8.643  32.210  1.00  0.00     0.193 C 
HETATM   12  O2  UNL     1     -27.341  -7.319  31.807  1.00  0.00    -0.387 OA
HETATM   13  C13 UNL     1     -28.325  -6.682  32.528  1.00  0.00     0.193 C 
HETATM   14  C14 UNL     1     -28.047  -5.215  32.762  1.00  0.00     0.193 C 
HETATM   15  O3  UNL     1     -28.301  -4.436  31.635  1.00  0.00    -0.387 OA
HETATM   16  C15 UNL     1     -29.209  -3.468  31.980  1.00  0.00     0.193 C 
HETATM   17  C16 UNL     1     -29.169  -2.238  31.136  1.00  0.00     0.193 C 
HETATM   18  O4  UNL     1     -28.666  -2.430  29.870  1.00  0.00    -0.387 OA
HETATM   19  C17 UNL     1     -28.939  -1.247  29.152  1.00  0.00     0.198 C 
HETATM   20  C18 UNL     1     -28.102  -1.156  27.906  1.00  0.00     0.299 C 
HETATM   21  N1  UNL     1     -27.994  -2.456  27.330  1.00  0.00     0.099 N 
HETATM   22  C19 UNL     1     -28.611  -2.800  26.093  1.00  0.00     0.308 A 
HETATM   23  C20 UNL     1     -27.245  -2.323  26.030  1.00  0.00     0.251 A 
HETATM   24  C21 UNL     1     -26.039  -3.181  26.170  1.00  0.00     0.042 C 
ENDROOT
BRANCH   1  25
HETATM   25  C2  UNL     1     -26.424  -4.067  23.857  1.00  0.00     0.000 C 
HETATM   26  C1  UNL     1     -25.289  -3.634  22.995  1.00  0.00     0.005 C 
ENDBRANCH   1  25
TORSDOF 1
ENDMDL
MODEL 2
REMARK VINA RESULT: -7.084365044      2.867      5.233
REMARK  1 active torsions:
REMARK  status: ('A' for Active; 'I' for Inactive)
REMARK    1  A    between atoms: C2_2  and  C3_3 
ROOT
HETATM    1  C3  UNL     1     -29.340  -2.680  27.553  1.00  0.00    -0.013 C 
HETATM    2  C4  UNL     1     -27.896  -2.302  27.661  1.00  0.00     0.005 C 
HETATM    3  C5  UNL     1     -27.193  -2.281  26.331  1.00  0.00     0.000 C 
HETATM    4  C6  UNL     1     -27.182  -3.607  25.643  1.00  0.00     0.000 C 
HETATM    5  C7  UNL     1     -25.747  -4.104  25.446  1.00  0.00     0.000 C 
HETATM    6  C8  UNL     1     -25.740  -5.541  24.994  1.00  0.00     0.002 C 
HETATM    7  C9  UNL     1     -24.387  -6.118  25.269  1.00  0.00     0.026 C 
HETATM    8  C10 UNL     1     -24.398  -7.641  25.312  1.00  0.00     0.167 C 
HETATM    9  O1  UNL     1     -25.283  -8.127  26.251  1.00  0.00    -0.389 OA
HETATM   10  C11 UNL     1     -24.857  -9.283  26.874  1.00  0.00     0.193 C 
HETATM   11  C12 UNL     1     -26.047 -10.207  27.131  1.00  0.00     0.193 C 
HETATM   12  O2  UNL     1     -26.999  -9.565  27.910  1.00  0.00    -0.387 OA
HETATM   13  C13 UNL     1     -27.948 -10.465  28.339  1.00  0.00     0.193 C 
HETATM   14  C14 UNL     1     -28.524 -10.135  29.696  1.00  0.00     0.193 C 
HETATM   15  O3  UNL     1     -29.457  -9.103  29.644  1.00  0.00    -0.387 OA
HETATM   16  C15 UNL     1     -30.634  -9.563  30.177  1.00  0.00     0.193 C 
HETATM   17  C16 UNL     1     -31.530  -8.506  30.732  1.00  0.00     0.193 C 
HETATM   18  O4  UNL     1     -31.350  -7.258  30.181  1.00  0.00    -0.387 OA
HETATM   19  C17 UNL     1     -32.429  -6.468  30.631  1.00  0.00     0.198 C 
HETATM   20  C18 UNL     1     -32.150  -5.003  30.448  1.00  0.00     0.299 C 
HETATM   21  N1  UNL     1     -31.459  -4.818  29.214  1.00  0.00     0.099 N 
HETATM   22  C19 UNL     1     -32.051  -4.167  28.093  1.00  0.00     0.308 A 
HETATM   23  C20 UNL     1     -31.286  -3.337  29.000  1.00  0.00     0.251 A 
HETATM   24  C21 UNL     1     -29.819  -3.111  28.912  1.00  0.00     0.042 C 
ENDROOT
BRANCH   1  25
HETATM   25  C2  UNL     1     -30.190  -1.595  26.950  1.00  0.00     0.000 C 
HETATM   26  C1  UNL     1     -30.675  -1.898  25.575  1.00  0.00     0.005 C 
ENDBRANCH   1  25
TORSDOF 1
ENDMDL
MODEL 3
REMARK VINA RESULT: -6.950405243      2.405      2.545
REMARK  1 active torsions:
REMARK  status: ('A' for Active; 'I' for Inactive)
REMARK    1  A    between atoms: C2_2  and  C3_3 
ROOT
HETATM    1  C3  UNL     1     -26.555  -4.588  25.292  1.00  0.00    -0.013 C 
HETATM    2  C4  UNL     1     -25.585  -5.670  25.649  1.00  0.00     0.005 C 
HETATM    3  C5  UNL     1     -25.828  -6.949  24.895  1.00  0.00     0.000 C 
HETATM    4  C6  UNL     1     -27.171  -7.549  25.156  1.00  0.00     0.000 C 
HETATM    5  C7  UNL     1     -27.031  -8.935  25.791  1.00  0.00     0.000 C 
HETATM    6  C8  UNL     1     -28.365  -9.427  26.291  1.00  0.00     0.002 C 
HETATM    7  C9  UNL     1     -28.124 -10.514  27.293  1.00  0.00     0.026 C 
HETATM    8  C10 UNL     1     -29.324 -10.746  28.202  1.00  0.00     0.167 C 
HETATM    9  O1  UNL     1     -29.696  -9.601  28.875  1.00  0.00    -0.389 OA
HETATM   10  C11 UNL     1     -30.169  -9.831  30.151  1.00  0.00     0.193 C 
HETATM   11  C12 UNL     1     -31.310  -8.866  30.468  1.00  0.00     0.193 C 
HETATM   12  O2  UNL     1     -30.879  -7.551  30.346  1.00  0.00    -0.387 OA
HETATM   13  C13 UNL     1     -31.824  -6.692  30.858  1.00  0.00     0.193 C 
HETATM   14  C14 UNL     1     -31.235  -5.444  31.474  1.00  0.00     0.193 C 
HETATM   15  O3  UNL     1     -30.837  -4.514  30.517  1.00  0.00    -0.387 OA
HETATM   16  C15 UNL     1     -31.486  -3.333  30.774  1.00  0.00     0.193 C 
HETATM   17  C16 UNL     1     -30.796  -2.111  30.265  1.00  0.00     0.193 C 
HETATM   18  O4  UNL     1     -29.957  -2.332  29.197  1.00  0.00    -0.387 OA
HETATM   19  C17 UNL     1     -29.603  -1.059  28.703  1.00  0.00     0.198 C 
HETATM   20  C18 UNL     1     -28.393  -1.134  27.814  1.00  0.00     0.299 C 
HETATM   21  N1  UNL     1     -28.469  -2.323  27.032  1.00  0.00     0.099 N 
HETATM   22  C19 UNL     1     -28.681  -2.303  25.623  1.00  0.00     0.308 A 
HETATM   23  C20 UNL     1     -27.306  -2.322  26.076  1.00  0.00     0.251 A 
HETATM   24  C21 UNL     1     -26.530  -3.553  26.383  1.00  0.00     0.042 C 
ENDROOT
BRANCH   1  25
HETATM   25  C2  UNL     1     -26.313  -4.006  23.927  1.00  0.00     0.000 C 
HETATM   26  C1  UNL     1     -24.876  -3.774  23.614  1.00  0.00     0.005 C 
ENDBRANCH   1  25
TORSDOF 1
ENDMDL
MODEL 4
REMARK VINA RESULT: -6.886227591      2.781      6.573
REMARK  1 active torsions:
REMARK  status: ('A' for Active; 'I' for Inactive)
REMARK    1  A    between atoms: C2_2  and  C3_3 
ROOT
HETATM    1  C3  UNL     1     -25.402  -5.722  25.231  1.00  0.00    -0.013 C 
HETATM    2  C4  UNL     1     -26.346  -4.812  24.510  1.00  0.00     0.005 C 
HETATM    3  C5  UNL     1     -26.347  -3.412  25.060  1.00  0.00     0.000 C 
HETATM    4  C6  UNL     1     -26.772  -3.334  26.490  1.00  0.00     0.000 C 
HETATM    5  C7  UNL     1     -28.042  -2.491  26.633  1.00  0.00     0.000 C 
HETATM    6  C8  UNL     1     -28.615  -2.625  28.020  1.00  0.00     0.002 C 
HETATM    7  C9  UNL     1     -30.050  -2.202  27.984  1.00  0.00     0.026 C 
HETATM    8  C10 UNL     1     -30.848  -2.736  29.167  1.00  0.00     0.167 C 
HETATM    9  O1  UNL     1     -30.796  -4.112  29.248  1.00  0.00    -0.389 OA
HETATM   10  C11 UNL     1     -31.963  -4.688  29.708  1.00  0.00     0.193 C 
HETATM   11  C12 UNL     1     -31.640  -5.890  30.593  1.00  0.00     0.193 C 
HETATM   12  O2  UNL     1     -30.889  -6.822  29.889  1.00  0.00    -0.387 OA
HETATM   13  C13 UNL     1     -30.803  -7.998  30.599  1.00  0.00     0.193 C 
HETATM   14  C14 UNL     1     -30.728  -9.227  29.724  1.00  0.00     0.193 C 
HETATM   15  O3  UNL     1     -29.464  -9.413  29.171  1.00  0.00    -0.387 OA
HETATM   16  C15 UNL     1     -29.017 -10.659  29.532  1.00  0.00     0.193 C 
HETATM   17  C16 UNL     1     -28.007 -11.257  28.611  1.00  0.00     0.193 C 
HETATM   18  O4  UNL     1     -27.280 -10.340  27.887  1.00  0.00    -0.387 OA
HETATM   19  C17 UNL     1     -26.228 -11.059  27.282  1.00  0.00     0.198 C 
HETATM   20  C18 UNL     1     -25.609 -10.280  26.155  1.00  0.00     0.299 C 
HETATM   21  N1  UNL     1     -25.553  -8.904  26.525  1.00  0.00     0.099 N 
HETATM   22  C19 UNL     1     -24.326  -8.228  26.785  1.00  0.00     0.308 A 
HETATM   23  C20 UNL     1     -24.834  -8.161  25.430  1.00  0.00     0.251 A 
HETATM   24  C21 UNL     1     -25.796  -7.143  24.933  1.00  0.00     0.042 C 
ENDROOT
BRANCH   1  25
HETATM   25  C2  UNL     1     -23.958  -5.438  24.923  1.00  0.00     0.000 C 
HETATM   26  C1  UNL     1     -23.748  -4.642  23.682  1.00  0.00     0.005 C 
ENDBRANCH   1  25
TORSDOF 1
ENDMDL
MODEL 5
REMARK VINA RESULT: -6.812015812      2.005      3.901
REMARK  1 active torsions:
REMARK  status: ('A' for Active; 'I' for Inactive)
REMARK    1  A    between atoms: C2_2  and  C3_3 
ROOT
HETATM    1  C3  UNL     1     -28.583  -2.822  26.841  1.00  0.00    -0.013 C 
HETATM    2  C4  UNL     1     -27.104  -2.646  26.696  1.00  0.00     0.005 C 
HETATM    3  C5  UNL     1     -26.567  -3.223  25.414  1.00  0.00     0.000 C 
HETATM    4  C6  UNL     1     -26.784  -4.695  25.286  1.00  0.00     0.000 C 
HETATM    5  C7  UNL     1     -25.445  -5.434  25.196  1.00  0.00     0.000 C 
HETATM    6  C8  UNL     1     -25.650  -6.921  25.330  1.00  0.00     0.002 C 
HETATM    7  C9  UNL     1     -24.344  -7.547  25.709  1.00  0.00     0.026 C 
HETATM    8  C10 UNL     1     -24.517  -8.926  26.333  1.00  0.00     0.167 C 
HETATM    9  O1  UNL     1     -25.331  -8.895  27.446  1.00  0.00    -0.389 OA
HETATM   10  C11 UNL     1     -24.962  -9.787  28.432  1.00  0.00     0.193 C 
HETATM   11  C12 UNL     1     -26.206 -10.366  29.105  1.00  0.00     0.193 C 
HETATM   12  O2  UNL     1     -26.983  -9.348  29.643  1.00  0.00    -0.387 OA
HETATM   13  C13 UNL     1     -27.966  -9.877  30.448  1.00  0.00     0.193 C 
HETATM   14  C14 UNL     1     -28.335  -8.987  31.612  1.00  0.00     0.193 C 
HETATM   15  O3  UNL     1     -29.150  -7.923  31.234  1.00  0.00    -0.387 OA
HETATM   16  C15 UNL     1     -30.298  -7.975  31.983  1.00  0.00     0.193 C 
HETATM   17  C16 UNL     1     -31.000  -6.669  32.152  1.00  0.00     0.193 C 
HETATM   18  O4  UNL     1     -30.752  -5.754  31.154  1.00  0.00    -0.387 OA
HETATM   19  C17 UNL     1     -31.677  -4.705  31.341  1.00  0.00     0.198 C 
HETATM   20  C18 UNL     1     -31.263  -3.470  30.592  1.00  0.00     0.299 C 
HETATM   21  N1  UNL     1     -30.709  -3.858  29.337  1.00  0.00     0.099 N 
HETATM   22  C19 UNL     1     -31.356  -3.589  28.096  1.00  0.00     0.308 A 
HETATM   23  C20 UNL     1     -30.402  -2.604  28.561  1.00  0.00     0.251 A 
HETATM   24  C21 UNL     1     -28.940  -2.645  28.291  1.00  0.00     0.042 C 
ENDROOT
BRANCH   1  25
HETATM   25  C2  UNL     1     -29.375  -1.925  25.929  1.00  0.00     0.000 C 
HETATM   26  C1  UNL     1     -29.058  -0.478  26.078  1.00  0.00     0.005 C 
ENDBRANCH   1  25
TORSDOF 1
ENDMDL
