MODEL 1
REMARK VINA RESULT: -8.548807966      0.000      0.000
REMARK  1 active torsions:
REMARK  status: ('A' for Active; 'I' for Inactive)
REMARK    1  A    between atoms: C2_2  and  C3_3 
REMARK       I    between atoms: C3_3  and  N1_5 
ROOT
HETATM    1  C3  UNL     1     -24.622  -4.640  24.499  1.00  0.00     0.219 C 
HETATM    2  O1  UNL     1     -23.529  -4.035  24.366  1.00  0.00    -0.273 OA
HETATM    3  N1  UNL     1     -24.605  -5.959  25.004  1.00  0.00    -0.346 N 
HETATM    4  C4  UNL     1     -25.661  -6.914  25.275  1.00  0.00     0.137 C 
HETATM    5  C5  UNL     1     -24.601  -7.952  25.536  1.00  0.00     0.001 C 
HETATM    6  C6  UNL     1     -24.612  -9.003  24.477  1.00  0.00     0.019 C 
HETATM    7  C7  UNL     1     -25.742  -9.914  24.980  1.00  0.00     0.072 C 
HETATM    8  C8  UNL     1     -25.549  -9.893  26.468  1.00  0.00     0.201 C 
HETATM    9  C9  UNL     1     -24.707  -8.710  26.815  1.00  0.00     0.084 C 
HETATM   10  O2  UNL     1     -24.972 -11.104  26.837  1.00  0.00    -0.197 OA
HETATM   11  O3  UNL     1     -25.989 -11.819  27.294  1.00  0.00    -0.197 OA
HETATM   12  C10 UNL     1     -26.659 -10.870  28.059  1.00  0.00     0.206 C 
HETATM   13  C11 UNL     1     -25.856 -10.598  29.281  1.00  0.00     0.074 C 
HETATM   14  C12 UNL     1     -26.914 -10.509  30.387  1.00  0.00     0.038 C 
HETATM   15  C13 UNL     1     -27.816 -11.670  29.937  1.00  0.00     0.131 C 
HETATM   16  O4  UNL     1     -28.953 -11.632  30.687  1.00  0.00    -0.380 OA
HETATM   17  C14 UNL     1     -29.950 -12.482  30.329  1.00  0.00     0.122 C 
HETATM   18  C15 UNL     1     -29.511 -13.759  29.684  1.00  0.00     0.036 C 
HETATM   19  C16 UNL     1     -29.736 -13.102  28.340  1.00  0.00    -0.009 C 
HETATM   20  C17 UNL     1     -30.641 -12.119  29.038  1.00  0.00     0.036 C 
HETATM   21  C18 UNL     1     -28.516 -12.499  27.752  1.00  0.00     0.017 C 
HETATM   22  C19 UNL     1     -28.025 -11.290  28.482  1.00  0.00     0.080 C 
HETATM   23  O5  UNL     1     -26.737  -9.800  27.178  1.00  0.00    -0.313 OA
HETATM   24  C20 UNL     1     -23.575  -6.886  25.450  1.00  0.00     0.093 C 
HETATM   25  C21 UNL     1     -22.451  -7.087  24.472  1.00  0.00     0.033 C 
ENDROOT
BRANCH   1  26
HETATM   26  C2  UNL     1     -25.907  -4.003  24.142  1.00  0.00     0.098 C 
HETATM   27  C1  UNL     1     -26.502  -3.404  25.397  1.00  0.00     0.014 C 
ENDBRANCH   1  26
TORSDOF 1
ENDMDL
MODEL 2
REMARK VINA RESULT: -8.399200955      2.890      7.939
REMARK  1 active torsions:
REMARK  status: ('A' for Active; 'I' for Inactive)
REMARK    1  A    between atoms: C2_2  and  C3_3 
REMARK       I    between atoms: C3_3  and  N1_5 
ROOT
HETATM    1  C3  UNL     1     -28.587 -14.568  24.406  1.00  0.00     0.219 C 
HETATM    2  O1  UNL     1     -28.352 -15.725  24.837  1.00  0.00    -0.273 OA
HETATM    3  N1  UNL     1     -28.116 -13.464  25.152  1.00  0.00    -0.346 N 
HETATM    4  C4  UNL     1     -28.212 -12.032  24.942  1.00  0.00     0.137 C 
HETATM    5  C5  UNL     1     -27.630 -11.833  26.317  1.00  0.00     0.001 C 
HETATM    6  C6  UNL     1     -28.646 -11.255  27.246  1.00  0.00     0.019 C 
HETATM    7  C7  UNL     1     -28.546  -9.763  26.898  1.00  0.00     0.072 C 
HETATM    8  C8  UNL     1     -27.076  -9.573  26.664  1.00  0.00     0.201 C 
HETATM    9  C9  UNL     1     -26.463 -10.913  26.422  1.00  0.00     0.084 C 
HETATM   10  O2  UNL     1     -26.550  -8.923  27.776  1.00  0.00    -0.197 OA
HETATM   11  O3  UNL     1     -26.455  -7.658  27.395  1.00  0.00    -0.197 OA
HETATM   12  C10 UNL     1     -25.940  -7.805  26.111  1.00  0.00     0.206 C 
HETATM   13  C11 UNL     1     -24.522  -8.237  26.219  1.00  0.00     0.074 C 
HETATM   14  C12 UNL     1     -23.819  -7.419  25.129  1.00  0.00     0.038 C 
HETATM   15  C13 UNL     1     -24.549  -6.082  25.339  1.00  0.00     0.131 C 
HETATM   16  O4  UNL     1     -24.209  -5.254  24.312  1.00  0.00    -0.380 OA
HETATM   17  C14 UNL     1     -24.879  -4.076  24.228  1.00  0.00     0.122 C 
HETATM   18  C15 UNL     1     -25.358  -3.512  25.529  1.00  0.00     0.036 C 
HETATM   19  C16 UNL     1     -26.696  -4.166  25.266  1.00  0.00    -0.009 C 
HETATM   20  C17 UNL     1     -26.321  -4.211  23.807  1.00  0.00     0.036 C 
HETATM   21  C18 UNL     1     -26.850  -5.498  25.899  1.00  0.00     0.017 C 
HETATM   22  C19 UNL     1     -25.989  -6.560  25.294  1.00  0.00     0.080 C 
HETATM   23  O5  UNL     1     -26.790  -8.764  25.574  1.00  0.00    -0.313 OA
HETATM   24  C20 UNL     1     -27.369 -13.290  26.388  1.00  0.00     0.093 C 
HETATM   25  C21 UNL     1     -27.930 -14.035  27.567  1.00  0.00     0.033 C 
ENDROOT
BRANCH   1  26
HETATM   26  C2  UNL     1     -29.337 -14.347  23.153  1.00  0.00     0.098 C 
HETATM   27  C1  UNL     1     -28.396 -14.585  21.992  1.00  0.00     0.014 C 
ENDBRANCH   1  26
TORSDOF 1
ENDMDL
MODEL 3
REMARK VINA RESULT: -7.677378270      2.303      8.116
REMARK  1 active torsions:
REMARK  status: ('A' for Active; 'I' for Inactive)
REMARK    1  A    between atoms: C2_2  and  C3_3 
REMARK       I    between atoms: C3_3  and  N1_5 
ROOT
HETATM    1  C3  UNL     1     -28.982 -10.631  31.483  1.00  0.00     0.219 C 
HETATM    2  O1  UNL     1     -30.165 -10.961  31.748  1.00  0.00    -0.273 OA
HETATM    3  N1  UNL     1     -28.657 -10.306  30.147  1.00  0.00    -0.346 N 
HETATM    4  C4  UNL     1     -27.417  -9.894  29.517  1.00  0.00     0.137 C 
HETATM    5  C5  UNL     1     -28.099 -10.031  28.180  1.00  0.00     0.001 C 
HETATM    6  C6  UNL     1     -27.526 -11.170  27.405  1.00  0.00     0.019 C 
HETATM    7  C7  UNL     1     -26.281 -10.512  26.794  1.00  0.00     0.072 C 
HETATM    8  C8  UNL     1     -26.761  -9.128  26.469  1.00  0.00     0.201 C 
HETATM    9  C9  UNL     1     -28.002  -8.866  27.257  1.00  0.00     0.084 C 
HETATM   10  O2  UNL     1     -26.960  -9.060  25.094  1.00  0.00    -0.197 OA
HETATM   11  O3  UNL     1     -25.876  -8.451  24.641  1.00  0.00    -0.197 OA
HETATM   12  C10 UNL     1     -25.728  -7.436  25.580  1.00  0.00     0.206 C 
HETATM   13  C11 UNL     1     -26.801  -6.431  25.360  1.00  0.00     0.074 C 
HETATM   14  C12 UNL     1     -26.076  -5.093  25.545  1.00  0.00     0.038 C 
HETATM   15  C13 UNL     1     -24.768  -5.437  24.816  1.00  0.00     0.131 C 
HETATM   16  O4  UNL     1     -23.882  -4.427  25.046  1.00  0.00    -0.380 OA
HETATM   17  C14 UNL     1     -22.608  -4.621  24.618  1.00  0.00     0.122 C 
HETATM   18  C15 UNL     1     -22.457  -5.501  23.418  1.00  0.00     0.036 C 
HETATM   19  C16 UNL     1     -22.202  -6.659  24.358  1.00  0.00    -0.009 C 
HETATM   20  C17 UNL     1     -21.836  -5.646  25.412  1.00  0.00     0.036 C 
HETATM   21  C18 UNL     1     -23.411  -7.459  24.670  1.00  0.00     0.017 C 
HETATM   22  C19 UNL     1     -24.413  -6.737  25.514  1.00  0.00     0.080 C 
HETATM   23  O5  UNL     1     -25.839  -8.137  26.774  1.00  0.00    -0.313 OA
HETATM   24  C20 UNL     1     -29.383 -10.245  28.888  1.00  0.00     0.093 C 
HETATM   25  C21 UNL     1     -30.156 -11.490  28.553  1.00  0.00     0.033 C 
ENDROOT
BRANCH   1  26
HETATM   26  C2  UNL     1     -27.941 -10.578  32.531  1.00  0.00     0.098 C 
HETATM   27  C1  UNL     1     -27.283 -11.938  32.612  1.00  0.00     0.014 C 
ENDBRANCH   1  26
TORSDOF 1
ENDMDL
MODEL 4
REMARK VINA RESULT: -7.577938124      2.842      7.959
REMARK  1 active torsions:
REMARK  status: ('A' for Active; 'I' for Inactive)
REMARK    1  A    between atoms: C2_2  and  C3_3 
REMARK       I    between atoms: C3_3  and  N1_5 
ROOT
HETATM    1  C3  UNL     1     -26.239 -13.791  29.622  1.00  0.00     0.219 C 
HETATM    2  O1  UNL     1     -26.987 -14.711  30.040  1.00  0.00    -0.273 OA
HETATM    3  N1  UNL     1     -26.770 -12.857  28.704  1.00  0.00    -0.346 N 
HETATM    4  C4  UNL     1     -26.192 -11.703  28.043  1.00  0.00     0.137 C 
HETATM    5  C5  UNL     1     -27.443 -11.606  27.208  1.00  0.00     0.001 C 
HETATM    6  C6  UNL     1     -27.158 -11.935  25.781  1.00  0.00     0.019 C 
HETATM    7  C7  UNL     1     -26.618 -10.591  25.273  1.00  0.00     0.072 C 
HETATM    8  C8  UNL     1     -27.477  -9.593  25.992  1.00  0.00     0.201 C 
HETATM    9  C9  UNL     1     -28.112 -10.276  27.158  1.00  0.00     0.084 C 
HETATM   10  O2  UNL     1     -28.400  -9.093  25.080  1.00  0.00    -0.197 OA
HETATM   11  O3  UNL     1     -27.894  -7.925  24.716  1.00  0.00    -0.197 OA
HETATM   12  C10 UNL     1     -27.479  -7.421  25.944  1.00  0.00     0.206 C 
HETATM   13  C11 UNL     1     -28.682  -7.042  26.729  1.00  0.00     0.074 C 
HETATM   14  C12 UNL     1     -28.276  -5.716  27.383  1.00  0.00     0.038 C 
HETATM   15  C13 UNL     1     -27.536  -5.088  26.190  1.00  0.00     0.131 C 
HETATM   16  O4  UNL     1     -26.905  -3.965  26.632  1.00  0.00    -0.380 OA
HETATM   17  C14 UNL     1     -26.061  -3.354  25.761  1.00  0.00     0.122 C 
HETATM   18  C15 UNL     1     -26.405  -3.509  24.313  1.00  0.00     0.036 C 
HETATM   19  C16 UNL     1     -25.443  -4.675  24.258  1.00  0.00    -0.009 C 
HETATM   20  C17 UNL     1     -24.787  -4.115  25.494  1.00  0.00     0.036 C 
HETATM   21  C18 UNL     1     -26.086  -5.997  24.451  1.00  0.00     0.017 C 
HETATM   22  C19 UNL     1     -26.594  -6.226  25.839  1.00  0.00     0.080 C 
HETATM   23  O5  UNL     1     -26.772  -8.496  26.467  1.00  0.00    -0.313 OA
HETATM   24  C20 UNL     1     -28.057 -12.655  28.057  1.00  0.00     0.093 C 
HETATM   25  C21 UNL     1     -28.604 -13.871  27.363  1.00  0.00     0.033 C 
ENDROOT
BRANCH   1  26
HETATM   26  C2  UNL     1     -24.836 -13.673  30.068  1.00  0.00     0.098 C 
HETATM   27  C1  UNL     1     -24.574 -14.754  31.093  1.00  0.00     0.014 C 
ENDBRANCH   1  26
TORSDOF 1
ENDMDL
MODEL 5
REMARK VINA RESULT: -7.417860438      2.596      7.910
REMARK  1 active torsions:
REMARK  status: ('A' for Active; 'I' for Inactive)
REMARK    1  A    between atoms: C2_2  and  C3_3 
REMARK       I    between atoms: C3_3  and  N1_5 
ROOT
HETATM    1  C3  UNL     1     -26.353 -12.595  31.508  1.00  0.00     0.219 C 
HETATM    2  O1  UNL     1     -27.112 -13.470  31.997  1.00  0.00    -0.273 OA
HETATM    3  N1  UNL     1     -26.746 -11.957  30.311  1.00  0.00    -0.346 N 
HETATM    4  C4  UNL     1     -26.119 -10.929  29.502  1.00  0.00     0.137 C 
HETATM    5  C5  UNL     1     -27.182 -11.158  28.459  1.00  0.00     0.001 C 
HETATM    6  C6  UNL     1     -26.598 -11.771  27.230  1.00  0.00     0.019 C 
HETATM    7  C7  UNL     1     -26.050 -10.528  26.515  1.00  0.00     0.072 C 
HETATM    8  C8  UNL     1     -27.094  -9.490  26.802  1.00  0.00     0.201 C 
HETATM    9  C9  UNL     1     -27.907  -9.953  27.966  1.00  0.00     0.084 C 
HETATM   10  O2  UNL     1     -27.845  -9.312  25.646  1.00  0.00    -0.197 OA
HETATM   11  O3  UNL     1     -27.349  -8.211  25.104  1.00  0.00    -0.197 OA
HETATM   12  C10 UNL     1     -27.218  -7.399  26.226  1.00  0.00     0.206 C 
HETATM   13  C11 UNL     1     -28.575  -6.982  26.667  1.00  0.00     0.074 C 
HETATM   14  C12 UNL     1     -28.389  -5.506  27.039  1.00  0.00     0.038 C 
HETATM   15  C13 UNL     1     -27.466  -5.092  25.881  1.00  0.00     0.131 C 
HETATM   16  O4  UNL     1     -27.005  -3.836  26.142  1.00  0.00    -0.380 OA
HETATM   17  C14 UNL     1     -26.043  -3.354  25.314  1.00  0.00     0.122 C 
HETATM   18  C15 UNL     1     -26.081  -3.869  23.910  1.00  0.00     0.036 C 
HETATM   19  C16 UNL     1     -25.057  -4.908  24.316  1.00  0.00    -0.009 C 
HETATM   20  C17 UNL     1     -24.697  -4.015  25.475  1.00  0.00     0.036 C 
HETATM   21  C18 UNL     1     -25.645  -6.212  24.707  1.00  0.00     0.017 C 
HETATM   22  C19 UNL     1     -26.405  -6.172  25.994  1.00  0.00     0.080 C 
HETATM   23  O5  UNL     1     -26.566  -8.246  27.114  1.00  0.00    -0.313 OA
HETATM   24  C20 UNL     1     -27.888 -12.045  29.413  1.00  0.00     0.093 C 
HETATM   25  C21 UNL     1     -28.211 -13.439  28.950  1.00  0.00     0.033 C 
ENDROOT
BRANCH   1  26
HETATM   26  C2  UNL     1     -25.077 -12.229  32.157  1.00  0.00     0.098 C 
HETATM   27  C1  UNL     1     -25.358 -11.143  33.171  1.00  0.00     0.014 C 
ENDBRANCH   1  26
TORSDOF 1
ENDMDL
