MODEL 1
REMARK VINA RESULT: -8.045375615      0.000      0.000
REMARK  7 active torsions:
REMARK  status: ('A' for Active; 'I' for Inactive)
REMARK    1  A    between atoms: C4_4  and  C5_5 
REMARK    2  A    between atoms: C5_5  and  C6_7 
REMARK    3  A    between atoms: C6_7  and  C7_8 
REMARK    4  A    between atoms: N1_11  and  C10_12 
REMARK    5  A    between atoms: C10_12  and  C11_13 
REMARK    6  A    between atoms: C14_18  and  N3_19 
REMARK    7  A    between atoms: C15_24  and  N5_25 
ROOT
HETATM    1  C7  UNL     1      20.972 -21.061 -44.169  1.00  0.00    -0.005 C 
HETATM    2  C8  UNL     1      21.882 -22.109 -44.682  1.00  0.00     0.020 C 
HETATM    3  C9  UNL     1      21.228 -23.446 -44.561  1.00  0.00     0.095 C 
HETATM    4  N1  UNL     1      19.880 -23.505 -44.172  1.00  0.00    -0.292 NA
HETATM    5  C16 UNL     1      19.407 -22.592 -43.218  1.00  0.00     0.095 C 
HETATM    6  C17 UNL     1      20.428 -21.527 -42.843  1.00  0.00     0.020 C 
ENDROOT
BRANCH   4   7
HETATM    7  C10 UNL     1      19.009 -23.628 -45.276  1.00  0.00     0.076 C 
BRANCH   7   8
HETATM    8  C11 UNL     1      18.534 -24.919 -45.727  1.00  0.00     0.041 A 
HETATM    9  C12 UNL     1      18.887 -25.330 -47.024  1.00  0.00     0.037 A 
HETATM   10  C13 UNL     1      19.769 -24.470 -47.858  1.00  0.00     0.070 C 
HETATM   11  N2  UNL     1      18.410 -26.493 -47.465  1.00  0.00    -0.195 N 
HETATM   12  C14 UNL     1      17.610 -27.289 -46.735  1.00  0.00     0.677 A 
ATOM     13  H2  UNL     1      18.664 -26.795 -48.406  1.00  0.00     0.184 HD
HETATM   14  N4  UNL     1      17.263 -26.925 -45.511  1.00  0.00    -0.176 N 
HETATM   15  C15 UNL     1      17.727 -25.743 -45.018  1.00  0.00     0.127 A 
ATOM     16  H4  UNL     1      16.656 -27.519 -44.946  1.00  0.00     0.186 HD
BRANCH  12  17
HETATM   17  N3  UNL     1      17.178 -28.419 -47.231  1.00  0.00    -0.234 N 
ATOM     18  H32 UNL     1      17.518 -28.746 -48.136  1.00  0.00     0.174 HD
ATOM     19  H31 UNL     1      16.498 -28.978 -46.715  1.00  0.00     0.174 HD
ENDBRANCH  12  17
BRANCH  15  20
HETATM   20  N5  UNL     1      17.287 -25.457 -43.840  1.00  0.00    -0.384 N 
ATOM     21  H52 UNL     1      17.996 -25.506 -43.109  1.00  0.00     0.157 HD
ATOM     22  H51 UNL     1      16.309 -25.243 -43.646  1.00  0.00     0.157 HD
ENDBRANCH  15  20
ENDBRANCH   7   8
ENDBRANCH   4   7
BRANCH   1  23
HETATM   23  C6  UNL     1      21.500 -19.668 -44.134  1.00  0.00     0.088 C 
BRANCH  23  24
HETATM   24  C5  UNL     1      22.931 -19.496 -43.964  1.00  0.00     0.160 C 
HETATM   25  O1  UNL     1      23.516 -19.885 -42.939  1.00  0.00    -0.292 OA
BRANCH  24  26
HETATM   26  C4  UNL     1      23.688 -18.852 -45.019  1.00  0.00     0.017 A 
HETATM   27  C3  UNL     1      23.370 -17.557 -45.445  1.00  0.00     0.025 A 
HETATM   28  C2  UNL     1      24.049 -16.912 -46.431  1.00  0.00    -0.022 A 
HETATM   29  C1  UNL     1      23.666 -15.536 -46.843  1.00  0.00     0.051 C 
HETATM   30  C22 UNL     1      25.102 -17.553 -47.047  1.00  0.00     0.128 A 
HETATM   31  C20 UNL     1      25.444 -18.832 -46.651  1.00  0.00    -0.016 A 
HETATM   32  F1  UNL     1      25.775 -16.898 -48.032  1.00  0.00    -0.205 F 
HETATM   33  C18 UNL     1      24.736 -19.491 -45.630  1.00  0.00    -0.039 A 
HETATM   34  C21 UNL     1      26.570 -19.498 -47.319  1.00  0.00     0.052 C 
HETATM   35  C19 UNL     1      25.193 -20.844 -45.298  1.00  0.00     0.050 C 
ENDBRANCH  24  26
ENDBRANCH  23  24
ENDBRANCH   1  23
TORSDOF 7
ENDMDL
MODEL 2
REMARK VINA RESULT: -8.035854770      2.774      4.686
REMARK  7 active torsions:
REMARK  status: ('A' for Active; 'I' for Inactive)
REMARK    1  A    between atoms: C4_4  and  C5_5 
REMARK    2  A    between atoms: C5_5  and  C6_7 
REMARK    3  A    between atoms: C6_7  and  C7_8 
REMARK    4  A    between atoms: N1_11  and  C10_12 
REMARK    5  A    between atoms: C10_12  and  C11_13 
REMARK    6  A    between atoms: C14_18  and  N3_19 
REMARK    7  A    between atoms: C15_24  and  N5_25 
ROOT
HETATM    1  C7  UNL     1      23.810 -19.356 -44.530  1.00  0.00    -0.005 C 
HETATM    2  C8  UNL     1      23.169 -20.421 -45.332  1.00  0.00     0.020 C 
HETATM    3  C9  UNL     1      23.415 -21.749 -44.694  1.00  0.00     0.095 C 
HETATM    4  N1  UNL     1      24.020 -21.787 -43.428  1.00  0.00    -0.292 NA
HETATM    5  C16 UNL     1      25.027 -20.856 -43.127  1.00  0.00     0.095 C 
HETATM    6  C17 UNL     1      25.213 -19.799 -44.206  1.00  0.00     0.020 C 
ENDROOT
BRANCH   4   7
HETATM    7  C10 UNL     1      23.076 -21.912 -42.385  1.00  0.00     0.076 C 
BRANCH   7   8
HETATM    8  C11 UNL     1      21.771 -22.497 -42.612  1.00  0.00     0.041 A 
HETATM    9  C12 UNL     1      21.687 -23.898 -42.695  1.00  0.00     0.037 A 
HETATM   10  C13 UNL     1      22.907 -24.725 -42.493  1.00  0.00     0.070 C 
HETATM   11  N2  UNL     1      20.499 -24.441 -42.956  1.00  0.00    -0.195 N 
HETATM   12  C14 UNL     1      19.381 -23.718 -43.143  1.00  0.00     0.677 A 
ATOM     13  H2  UNL     1      20.434 -25.457 -43.016  1.00  0.00     0.184 HD
HETATM   14  N4  UNL     1      19.434 -22.398 -43.071  1.00  0.00    -0.176 N 
HETATM   15  C15 UNL     1      20.627 -21.799 -42.807  1.00  0.00     0.127 A 
ATOM     16  H4  UNL     1      18.593 -21.838 -43.212  1.00  0.00     0.186 HD
BRANCH  12  17
HETATM   17  N3  UNL     1      18.247 -24.317 -43.396  1.00  0.00    -0.234 N 
ATOM     18  H32 UNL     1      18.232 -25.180 -43.940  1.00  0.00     0.174 HD
ATOM     19  H31 UNL     1      17.371 -23.924 -43.049  1.00  0.00     0.174 HD
ENDBRANCH  12  17
BRANCH  15  20
HETATM   20  N5  UNL     1      20.580 -20.510 -42.811  1.00  0.00    -0.384 N 
ATOM     21  H52 UNL     1      21.375 -20.064 -42.353  1.00  0.00     0.157 HD
ATOM     22  H51 UNL     1      19.799 -19.982 -43.200  1.00  0.00     0.157 HD
ENDBRANCH  15  20
ENDBRANCH   7   8
ENDBRANCH   4   7
BRANCH   1  23
HETATM   23  C6  UNL     1      23.738 -17.970 -45.070  1.00  0.00     0.088 C 
BRANCH  23  24
HETATM   24  C5  UNL     1      24.905 -17.457 -45.763  1.00  0.00     0.160 C 
HETATM   25  O1  UNL     1      25.826 -16.888 -45.152  1.00  0.00    -0.292 OA
BRANCH  24  26
HETATM   26  C4  UNL     1      24.991 -17.616 -47.201  1.00  0.00     0.017 A 
HETATM   27  C3  UNL     1      25.681 -18.695 -47.765  1.00  0.00     0.025 A 
HETATM   28  C2  UNL     1      25.791 -18.887 -49.107  1.00  0.00    -0.022 A 
HETATM   29  C1  UNL     1      26.537 -20.053 -49.649  1.00  0.00     0.051 C 
HETATM   30  C22 UNL     1      25.199 -17.983 -49.962  1.00  0.00     0.128 A 
HETATM   31  C20 UNL     1      24.509 -16.905 -49.439  1.00  0.00    -0.016 A 
HETATM   32  F1  UNL     1      25.314 -18.184 -51.303  1.00  0.00    -0.205 F 
HETATM   33  C18 UNL     1      24.401 -16.715 -48.050  1.00  0.00    -0.039 A 
HETATM   34  C21 UNL     1      23.885 -15.953 -50.367  1.00  0.00     0.052 C 
HETATM   35  C19 UNL     1      23.644 -15.536 -47.618  1.00  0.00     0.050 C 
ENDBRANCH  24  26
ENDBRANCH  23  24
ENDBRANCH   1  23
TORSDOF 7
ENDMDL
MODEL 3
REMARK VINA RESULT: -7.845642434      1.657      2.999
REMARK  7 active torsions:
REMARK  status: ('A' for Active; 'I' for Inactive)
REMARK    1  A    between atoms: C4_4  and  C5_5 
REMARK    2  A    between atoms: C5_5  and  C6_7 
REMARK    3  A    between atoms: C6_7  and  C7_8 
REMARK    4  A    between atoms: N1_11  and  C10_12 
REMARK    5  A    between atoms: C10_12  and  C11_13 
REMARK    6  A    between atoms: C14_18  and  N3_19 
REMARK    7  A    between atoms: C15_24  and  N5_25 
ROOT
HETATM    1  C7  UNL     1      22.635 -20.039 -44.462  1.00  0.00    -0.005 C 
HETATM    2  C8  UNL     1      23.164 -21.301 -45.025  1.00  0.00     0.020 C 
HETATM    3  C9  UNL     1      22.439 -22.462 -44.427  1.00  0.00     0.095 C 
HETATM    4  N1  UNL     1      21.323 -22.212 -43.612  1.00  0.00    -0.292 NA
HETATM    5  C16 UNL     1      21.339 -21.097 -42.760  1.00  0.00     0.095 C 
HETATM    6  C17 UNL     1      22.549 -20.197 -42.966  1.00  0.00     0.020 C 
ENDROOT
BRANCH   4   7
HETATM    7  C10 UNL     1      20.106 -22.331 -44.317  1.00  0.00     0.076 C 
BRANCH   7   8
HETATM    8  C11 UNL     1      19.250 -23.488 -44.161  1.00  0.00     0.041 A 
HETATM    9  C12 UNL     1      18.922 -24.221 -45.315  1.00  0.00     0.037 A 
HETATM   10  C13 UNL     1      19.500 -23.829 -46.628  1.00  0.00     0.070 C 
HETATM   11  N2  UNL     1      18.092 -25.255 -45.187  1.00  0.00    -0.195 N 
HETATM   12  C14 UNL     1      17.554 -25.631 -44.014  1.00  0.00     0.677 A 
ATOM     13  H2  UNL     1      17.853 -25.789 -46.023  1.00  0.00     0.184 HD
HETATM   14  N4  UNL     1      17.846 -24.957 -42.913  1.00  0.00    -0.176 N 
HETATM   15  C15 UNL     1      18.690 -23.892 -42.996  1.00  0.00     0.127 A 
ATOM     16  H4  UNL     1      17.444 -25.231 -42.016  1.00  0.00     0.186 HD
BRANCH  12  17
HETATM   17  N3  UNL     1      16.747 -26.658 -43.961  1.00  0.00    -0.234 N 
ATOM     18  H32 UNL     1      16.498 -27.159 -44.814  1.00  0.00     0.174 HD
ATOM     19  H31 UNL     1      16.361 -26.960 -43.066  1.00  0.00     0.174 HD
ENDBRANCH  12  17
BRANCH  15  20
HETATM   20  N5  UNL     1      18.866 -23.274 -41.878  1.00  0.00    -0.384 N 
ATOM     21  H52 UNL     1      19.305 -23.843 -41.153  1.00  0.00     0.157 HD
ATOM     22  H51 UNL     1      18.557 -22.316 -41.715  1.00  0.00     0.157 HD
ENDBRANCH  15  20
ENDBRANCH   7   8
ENDBRANCH   4   7
BRANCH   1  23
HETATM   23  C6  UNL     1      23.306 -18.778 -44.886  1.00  0.00     0.088 C 
BRANCH  23  24
HETATM   24  C5  UNL     1      24.689 -18.865 -45.318  1.00  0.00     0.160 C 
HETATM   25  O1  UNL     1      25.584 -19.271 -44.557  1.00  0.00    -0.292 OA
BRANCH  24  26
HETATM   26  C4  UNL     1      25.025 -18.468 -46.670  1.00  0.00     0.017 A 
HETATM   27  C3  UNL     1      25.676 -19.353 -47.539  1.00  0.00     0.025 A 
HETATM   28  C2  UNL     1      26.014 -19.026 -48.815  1.00  0.00    -0.022 A 
HETATM   29  C1  UNL     1      26.705 -20.007 -49.693  1.00  0.00     0.051 C 
HETATM   30  C22 UNL     1      25.706 -17.769 -49.288  1.00  0.00     0.128 A 
HETATM   31  C20 UNL     1      25.063 -16.871 -48.457  1.00  0.00    -0.016 A 
HETATM   32  F1  UNL     1      26.048 -17.453 -50.566  1.00  0.00    -0.205 F 
HETATM   33  C18 UNL     1      24.718 -17.217 -47.139  1.00  0.00    -0.039 A 
HETATM   34  C21 UNL     1      24.744 -15.535 -48.979  1.00  0.00     0.052 C 
HETATM   35  C19 UNL     1      24.039 -16.179 -46.356  1.00  0.00     0.050 C 
ENDBRANCH  24  26
ENDBRANCH  23  24
ENDBRANCH   1  23
TORSDOF 7
ENDMDL
MODEL 4
REMARK VINA RESULT: -7.756001208      0.616      1.564
REMARK  7 active torsions:
REMARK  status: ('A' for Active; 'I' for Inactive)
REMARK    1  A    between atoms: C4_4  and  C5_5 
REMARK    2  A    between atoms: C5_5  and  C6_7 
REMARK    3  A    between atoms: C6_7  and  C7_8 
REMARK    4  A    between atoms: N1_11  and  C10_12 
REMARK    5  A    between atoms: C10_12  and  C11_13 
REMARK    6  A    between atoms: C14_18  and  N3_19 
REMARK    7  A    between atoms: C15_24  and  N5_25 
ROOT
HETATM    1  C7  UNL     1      20.909 -21.058 -44.147  1.00  0.00    -0.005 C 
HETATM    2  C8  UNL     1      21.816 -22.066 -44.737  1.00  0.00     0.020 C 
HETATM    3  C9  UNL     1      21.183 -23.417 -44.664  1.00  0.00     0.095 C 
HETATM    4  N1  UNL     1      19.847 -23.513 -44.242  1.00  0.00    -0.292 NA
HETATM    5  C16 UNL     1      19.390 -22.654 -43.231  1.00  0.00     0.095 C 
HETATM    6  C17 UNL     1      20.408 -21.596 -42.832  1.00  0.00     0.020 C 
ENDROOT
BRANCH   4   7
HETATM    7  C10 UNL     1      18.947 -23.592 -45.327  1.00  0.00     0.076 C 
BRANCH   7   8
HETATM    8  C11 UNL     1      18.687 -24.845 -46.006  1.00  0.00     0.041 A 
HETATM    9  C12 UNL     1      17.858 -25.779 -45.363  1.00  0.00     0.037 A 
HETATM   10  C13 UNL     1      17.235 -25.438 -44.056  1.00  0.00     0.070 C 
HETATM   11  N2  UNL     1      17.657 -26.954 -45.957  1.00  0.00    -0.195 N 
HETATM   12  C14 UNL     1      18.208 -27.290 -47.137  1.00  0.00     0.677 A 
ATOM     13  H2  UNL     1      17.055 -27.634 -45.493  1.00  0.00     0.184 HD
HETATM   14  N4  UNL     1      18.994 -26.428 -47.762  1.00  0.00    -0.176 N 
HETATM   15  C15 UNL     1      19.227 -25.214 -47.192  1.00  0.00     0.127 A 
ATOM     16  H4  UNL     1      19.418 -26.670 -48.658  1.00  0.00     0.186 HD
BRANCH  12  17
HETATM   17  N3  UNL     1      17.968 -28.462 -47.664  1.00  0.00    -0.234 N 
ATOM     18  H32 UNL     1      18.357 -29.304 -47.240  1.00  0.00     0.174 HD
ATOM     19  H31 UNL     1      17.391 -28.538 -48.502  1.00  0.00     0.174 HD
ENDBRANCH  12  17
BRANCH  15  20
HETATM   20  N5  UNL     1      20.047 -24.471 -47.855  1.00  0.00    -0.384 N 
ATOM     21  H52 UNL     1      20.362 -23.644 -47.348  1.00  0.00     0.157 HD
ATOM     22  H51 UNL     1      20.325 -24.668 -48.816  1.00  0.00     0.157 HD
ENDBRANCH  15  20
ENDBRANCH   7   8
ENDBRANCH   4   7
BRANCH   1  23
HETATM   23  C6  UNL     1      21.421 -19.661 -44.057  1.00  0.00     0.088 C 
BRANCH  23  24
HETATM   24  C5  UNL     1      22.848 -19.479 -43.870  1.00  0.00     0.160 C 
HETATM   25  O1  UNL     1      23.418 -19.836 -42.825  1.00  0.00    -0.292 OA
BRANCH  24  26
HETATM   26  C4  UNL     1      23.620 -18.865 -44.932  1.00  0.00     0.017 A 
HETATM   27  C3  UNL     1      23.362 -17.552 -45.342  1.00  0.00     0.025 A 
HETATM   28  C2  UNL     1      24.057 -16.934 -46.334  1.00  0.00    -0.022 A 
HETATM   29  C1  UNL     1      23.738 -15.536 -46.728  1.00  0.00     0.051 C 
HETATM   30  C22 UNL     1      25.066 -17.621 -46.972  1.00  0.00     0.128 A 
HETATM   31  C20 UNL     1      25.349 -18.919 -46.592  1.00  0.00    -0.016 A 
HETATM   32  F1  UNL     1      25.756 -16.993 -47.963  1.00  0.00    -0.205 F 
HETATM   33  C18 UNL     1      24.625 -19.551 -45.566  1.00  0.00    -0.039 A 
HETATM   34  C21 UNL     1      26.428 -19.636 -47.284  1.00  0.00     0.052 C 
HETATM   35  C19 UNL     1      25.018 -20.928 -45.252  1.00  0.00     0.050 C 
ENDBRANCH  24  26
ENDBRANCH  23  24
ENDBRANCH   1  23
TORSDOF 7
ENDMDL
MODEL 5
REMARK VINA RESULT: -7.663873077      5.249      8.622
REMARK  7 active torsions:
REMARK  status: ('A' for Active; 'I' for Inactive)
REMARK    1  A    between atoms: C4_4  and  C5_5 
REMARK    2  A    between atoms: C5_5  and  C6_7 
REMARK    3  A    between atoms: C6_7  and  C7_8 
REMARK    4  A    between atoms: N1_11  and  C10_12 
REMARK    5  A    between atoms: C10_12  and  C11_13 
REMARK    6  A    between atoms: C14_18  and  N3_19 
REMARK    7  A    between atoms: C15_24  and  N5_25 
ROOT
HETATM    1  C7  UNL     1      15.183 -26.296 -43.715  1.00  0.00    -0.005 C 
HETATM    2  C8  UNL     1      13.782 -26.549 -44.115  1.00  0.00     0.020 C 
HETATM    3  C9  UNL     1      13.025 -27.121 -42.961  1.00  0.00     0.095 C 
HETATM    4  N1  UNL     1      13.648 -27.171 -41.704  1.00  0.00    -0.292 NA
HETATM    5  C16 UNL     1      15.020 -27.458 -41.637  1.00  0.00     0.095 C 
HETATM    6  C17 UNL     1      15.691 -27.522 -43.001  1.00  0.00     0.020 C 
ENDROOT
BRANCH   4   7
HETATM    7  C10 UNL     1      13.286 -26.082 -40.883  1.00  0.00     0.076 C 
BRANCH   7   8
HETATM    8  C11 UNL     1      13.790 -25.952 -39.531  1.00  0.00     0.041 A 
HETATM    9  C12 UNL     1      14.585 -24.832 -39.233  1.00  0.00     0.037 A 
HETATM   10  C13 UNL     1      14.832 -23.803 -40.278  1.00  0.00     0.070 C 
HETATM   11  N2  UNL     1      15.096 -24.733 -38.007  1.00  0.00    -0.195 N 
HETATM   12  C14 UNL     1      14.890 -25.649 -37.044  1.00  0.00     0.677 A 
ATOM     13  H2  UNL     1      15.673 -23.921 -37.788  1.00  0.00     0.184 HD
HETATM   14  N4  UNL     1      14.146 -26.713 -37.300  1.00  0.00    -0.176 N 
HETATM   15  C15 UNL     1      13.603 -26.856 -38.540  1.00  0.00     0.127 A 
ATOM     16  H4  UNL     1      13.982 -27.415 -36.578  1.00  0.00     0.186 HD
BRANCH  12  17
HETATM   17  N3  UNL     1      15.422 -25.488 -35.861  1.00  0.00    -0.234 N 
ATOM     18  H32 UNL     1      14.900 -25.015 -35.124  1.00  0.00     0.174 HD
ATOM     19  H31 UNL     1      16.363 -25.834 -35.671  1.00  0.00     0.174 HD
ENDBRANCH  12  17
BRANCH  15  20
HETATM   20  N5  UNL     1      12.941 -27.951 -38.700  1.00  0.00    -0.384 N 
ATOM     21  H52 UNL     1      13.051 -28.371 -39.623  1.00  0.00     0.157 HD
ATOM     22  H51 UNL     1      12.329 -28.343 -37.984  1.00  0.00     0.157 HD
ENDBRANCH  15  20
ENDBRANCH   7   8
ENDBRANCH   4   7
BRANCH   1  23
HETATM   23  C6  UNL     1      16.108 -25.804 -44.774  1.00  0.00     0.088 C 
BRANCH  23  24
HETATM   24  C5  UNL     1      17.534 -25.894 -44.516  1.00  0.00     0.160 C 
HETATM   25  O1  UNL     1      18.175 -26.929 -44.761  1.00  0.00    -0.292 OA
BRANCH  24  26
HETATM   26  C4  UNL     1      18.217 -24.743 -43.960  1.00  0.00     0.017 A 
HETATM   27  C3  UNL     1      18.106 -24.427 -42.601  1.00  0.00     0.025 A 
HETATM   28  C2  UNL     1      18.726 -23.359 -42.034  1.00  0.00    -0.022 A 
HETATM   29  C1  UNL     1      18.570 -23.072 -40.583  1.00  0.00     0.051 C 
HETATM   30  C22 UNL     1      19.505 -22.541 -42.822  1.00  0.00     0.128 A 
HETATM   31  C20 UNL     1      19.638 -22.823 -44.169  1.00  0.00    -0.016 A 
HETATM   32  F1  UNL     1      20.122 -21.474 -42.245  1.00  0.00    -0.205 F 
HETATM   33  C18 UNL     1      18.993 -23.930 -44.747  1.00  0.00    -0.039 A 
HETATM   34  C21 UNL     1      20.473 -21.940 -44.994  1.00  0.00     0.052 C 
HETATM   35  C19 UNL     1      19.211 -24.126 -46.184  1.00  0.00     0.050 C 
ENDBRANCH  24  26
ENDBRANCH  23  24
ENDBRANCH   1  23
TORSDOF 7
ENDMDL
