MODEL 1
REMARK VINA RESULT: -8.163090406      0.000      0.000
REMARK  9 active torsions:
REMARK  status: ('A' for Active; 'I' for Inactive)
REMARK    1  A    between atoms: N1_1  and  C1_4 
REMARK    2  A    between atoms: C2_10  and  N4_11 
REMARK    3  A    between atoms: C3_12  and  N5_13 
REMARK    4  A    between atoms: C9_22  and  N7_23 
REMARK    5  A    between atoms: C10_28  and  S1_29 
REMARK    6  A    between atoms: S1_29  and  C11_30 
REMARK    7  A    between atoms: C11_30  and  C12_31 
REMARK    8  A    between atoms: C12_31  and  N9_32 
REMARK    9  A    between atoms: C12_31  and  C13_36 
ROOT
HETATM    1  N4  UNL     1       1.378  -1.764  54.684  1.00  0.00    -0.109 N 
HETATM    2  C3  UNL     1       2.043  -2.575  55.531  1.00  0.00     0.691 A 
HETATM    3  N6  UNL     1       1.873  -3.864  55.090  1.00  0.00    -0.184 N 
ATOM      4  H6  UNL     1       2.264  -4.694  55.537  1.00  0.00     0.184 HD
HETATM    5  C8  UNL     1       1.121  -3.866  53.990  1.00  0.00     0.138 A 
HETATM    6  C9  UNL     1       0.678  -4.888  53.174  1.00  0.00     0.132 A 
HETATM    7  N8  UNL     1      -0.067  -4.534  52.126  1.00  0.00    -0.321 N 
ATOM      8  H8  UNL     1      -0.404  -5.274  51.510  1.00  0.00     0.169 HD
HETATM    9  C10 UNL     1      -0.404  -3.262  51.825  1.00  0.00     0.147 A 
HETATM   10  N11 UNL     1       0.048  -2.297  52.647  1.00  0.00    -0.320 N 
ATOM     11  H11 UNL     1      -0.197  -1.329  52.438  1.00  0.00     0.169 HD
HETATM   12  C14 UNL     1       0.813  -2.546  53.740  1.00  0.00     0.164 A 
ENDROOT
BRANCH   1  13
HETATM   13  C2  UNL     1       1.301  -0.353  54.770  1.00  0.00     0.198 A 
HETATM   14  C1  UNL     1       0.630   0.411  55.699  1.00  0.00     0.168 A 
HETATM   15  N2  UNL     1       0.828   1.707  55.399  1.00  0.00    -0.222 N 
HETATM   16  O1  UNL     1       1.582   1.759  54.340  1.00  0.00    -0.153 OA
ATOM     17  H2  UNL     1       0.455   2.506  55.912  1.00  0.00     0.198 HD
HETATM   18  N3  UNL     1       1.882   0.557  53.941  1.00  0.00    -0.221 N 
ATOM     19  H3  UNL     1       2.462   0.332  53.133  1.00  0.00     0.198 HD
BRANCH  14  20
HETATM   20  N1  UNL     1      -0.085   0.027  56.698  1.00  0.00    -0.381 N 
ATOM     21  H12 UNL     1       0.040   0.227  57.691  1.00  0.00     0.157 HD
ATOM     22  H11 UNL     1      -0.908  -0.566  56.594  1.00  0.00     0.157 HD
ENDBRANCH  14  20
ENDBRANCH   1  13
BRANCH   2  23
HETATM   23  N5  UNL     1       2.800  -2.290  56.666  1.00  0.00    -0.213 N 
HETATM   24  C4  UNL     1       2.279  -2.463  57.993  1.00  0.00     0.167 C 
HETATM   25  C5  UNL     1       3.379  -2.641  59.009  1.00  0.00     0.188 C 
HETATM   26  O2  UNL     1       4.598  -2.981  58.572  1.00  0.00    -0.388 OA
HETATM   27  C6  UNL     1       4.995  -2.836  57.296  1.00  0.00     0.188 C 
HETATM   28  C7  UNL     1       4.152  -1.815  56.568  1.00  0.00     0.167 C 
ENDBRANCH   2  23
BRANCH   6  29
HETATM   29  N7  UNL     1       0.950  -6.129  53.394  1.00  0.00    -0.383 N 
ATOM     30  H72 UNL     1       1.905  -6.420  53.602  1.00  0.00     0.157 HD
ATOM     31  H71 UNL     1       0.245  -6.865  53.367  1.00  0.00     0.157 HD
ENDBRANCH   6  29
BRANCH   9  32
HETATM   32  S1  UNL     1      -1.423  -2.892  50.406  1.00  0.00    -0.091 SA
BRANCH  32  33
HETATM   33  C11 UNL     1      -1.804  -4.421  49.521  1.00  0.00     0.124 C 
BRANCH  33  34
HETATM   34  C12 UNL     1      -3.065  -4.223  48.681  1.00  0.00     0.281 C 
BRANCH  34  35
HETATM   35  N9  UNL     1      -4.125  -3.733  49.526  1.00  0.00    -0.066 N 
ATOM     36  H93 UNL     1      -3.852  -3.698  50.508  1.00  0.00     0.275 HD
ATOM     37  H92 UNL     1      -4.300  -2.737  49.390  1.00  0.00     0.275 HD
ATOM     38  H91 UNL     1      -4.962  -4.296  49.376  1.00  0.00     0.275 HD
ENDBRANCH  34  35
BRANCH  34  39
HETATM   39  C13 UNL     1      -3.448  -5.463  47.966  1.00  0.00     0.262 C 
HETATM   40  N10 UNL     1      -2.642  -6.620  47.947  1.00  0.00    -0.060 NA
HETATM   41  O3  UNL     1      -4.557  -5.441  47.352  1.00  0.00    -0.275 OA
ENDBRANCH  34  39
ENDBRANCH  33  34
ENDBRANCH  32  33
ENDBRANCH   9  32
TORSDOF 9
ENDMDL
MODEL 2
REMARK VINA RESULT: -8.145986218      2.151      3.009
REMARK  9 active torsions:
REMARK  status: ('A' for Active; 'I' for Inactive)
REMARK    1  A    between atoms: N1_1  and  C1_4 
REMARK    2  A    between atoms: C2_10  and  N4_11 
REMARK    3  A    between atoms: C3_12  and  N5_13 
REMARK    4  A    between atoms: C9_22  and  N7_23 
REMARK    5  A    between atoms: C10_28  and  S1_29 
REMARK    6  A    between atoms: S1_29  and  C11_30 
REMARK    7  A    between atoms: C11_30  and  C12_31 
REMARK    8  A    between atoms: C12_31  and  N9_32 
REMARK    9  A    between atoms: C12_31  and  C13_36 
ROOT
HETATM    1  N4  UNL     1       1.911  -1.181  54.008  1.00  0.00    -0.109 N 
HETATM    2  C3  UNL     1       3.196  -0.842  53.781  1.00  0.00     0.691 A 
HETATM    3  N6  UNL     1       3.428  -0.973  52.434  1.00  0.00    -0.184 N 
ATOM      4  H6  UNL     1       4.318  -0.786  51.970  1.00  0.00     0.184 HD
HETATM    5  C8  UNL     1       2.315  -1.382  51.825  1.00  0.00     0.138 A 
HETATM    6  C9  UNL     1       2.030  -1.648  50.501  1.00  0.00     0.132 A 
HETATM    7  N8  UNL     1       0.784  -2.039  50.226  1.00  0.00    -0.321 N 
ATOM      8  H8  UNL     1       0.552  -2.241  49.254  1.00  0.00     0.169 HD
HETATM    9  C10 UNL     1      -0.189  -2.185  51.149  1.00  0.00     0.147 A 
HETATM   10  N11 UNL     1       0.132  -1.915  52.428  1.00  0.00    -0.320 N 
ATOM     11  H11 UNL     1      -0.590  -2.021  53.141  1.00  0.00     0.169 HD
HETATM   12  C14 UNL     1       1.367  -1.510  52.817  1.00  0.00     0.164 A 
ENDROOT
BRANCH   1  13
HETATM   13  C2  UNL     1       1.258  -1.178  55.264  1.00  0.00     0.198 A 
HETATM   14  C1  UNL     1       1.241  -2.168  56.220  1.00  0.00     0.168 A 
HETATM   15  N2  UNL     1       0.496  -1.740  57.255  1.00  0.00    -0.222 N 
HETATM   16  O1  UNL     1       0.066  -0.545  56.968  1.00  0.00    -0.153 OA
ATOM     17  H2  UNL     1       0.303  -2.258  58.112  1.00  0.00     0.198 HD
HETATM   18  N3  UNL     1       0.499  -0.180  55.796  1.00  0.00    -0.221 N 
ATOM     19  H3  UNL     1       0.302   0.714  55.347  1.00  0.00     0.198 HD
BRANCH  14  20
HETATM   20  N1  UNL     1       1.805  -3.325  56.198  1.00  0.00    -0.381 N 
ATOM     21  H12 UNL     1       2.121  -3.900  56.979  1.00  0.00     0.157 HD
ATOM     22  H11 UNL     1       2.016  -3.821  55.332  1.00  0.00     0.157 HD
ENDBRANCH  14  20
ENDBRANCH   1  13
BRANCH   2  23
HETATM   23  N5  UNL     1       4.198  -0.418  54.652  1.00  0.00    -0.213 N 
HETATM   24  C4  UNL     1       4.652   0.943  54.687  1.00  0.00     0.167 C 
HETATM   25  C5  UNL     1       5.285   1.291  56.011  1.00  0.00     0.188 C 
HETATM   26  O2  UNL     1       5.037   0.497  57.060  1.00  0.00    -0.388 OA
HETATM   27  C6  UNL     1       4.561  -0.754  56.948  1.00  0.00     0.188 C 
HETATM   28  C7  UNL     1       4.826  -1.324  55.574  1.00  0.00     0.167 C 
ENDBRANCH   2  23
BRANCH   6  29
HETATM   29  N7  UNL     1       2.904  -1.540  49.560  1.00  0.00    -0.383 N 
ATOM     30  H72 UNL     1       3.267  -0.625  49.294  1.00  0.00     0.157 HD
ATOM     31  H71 UNL     1       3.266  -2.341  49.042  1.00  0.00     0.157 HD
ENDBRANCH   6  29
BRANCH   9  32
HETATM   32  S1  UNL     1      -1.824  -2.733  50.682  1.00  0.00    -0.091 SA
BRANCH  32  33
HETATM   33  C11 UNL     1      -1.690  -4.126  49.537  1.00  0.00     0.124 C 
BRANCH  33  34
HETATM   34  C12 UNL     1      -3.003  -4.283  48.770  1.00  0.00     0.281 C 
BRANCH  34  35
HETATM   35  N9  UNL     1      -4.036  -3.538  49.444  1.00  0.00    -0.066 N 
ATOM     36  H93 UNL     1      -4.467  -4.071  50.199  1.00  0.00     0.275 HD
ATOM     37  H92 UNL     1      -3.661  -2.773  50.003  1.00  0.00     0.275 HD
ATOM     38  H91 UNL     1      -4.720  -3.217  48.758  1.00  0.00     0.275 HD
ENDBRANCH  34  35
BRANCH  34  39
HETATM   39  C13 UNL     1      -3.365  -5.708  48.591  1.00  0.00     0.262 C 
HETATM   40  N10 UNL     1      -2.575  -6.618  47.859  1.00  0.00    -0.060 NA
HETATM   41  O3  UNL     1      -4.446  -6.088  49.135  1.00  0.00    -0.275 OA
ENDBRANCH  34  39
ENDBRANCH  33  34
ENDBRANCH  32  33
ENDBRANCH   9  32
TORSDOF 9
ENDMDL
MODEL 3
REMARK VINA RESULT: -7.889106882      2.171      2.929
REMARK  9 active torsions:
REMARK  status: ('A' for Active; 'I' for Inactive)
REMARK    1  A    between atoms: N1_1  and  C1_4 
REMARK    2  A    between atoms: C2_10  and  N4_11 
REMARK    3  A    between atoms: C3_12  and  N5_13 
REMARK    4  A    between atoms: C9_22  and  N7_23 
REMARK    5  A    between atoms: C10_28  and  S1_29 
REMARK    6  A    between atoms: S1_29  and  C11_30 
REMARK    7  A    between atoms: C11_30  and  C12_31 
REMARK    8  A    between atoms: C12_31  and  N9_32 
REMARK    9  A    between atoms: C12_31  and  C13_36 
ROOT
HETATM    1  N4  UNL     1       1.871  -1.156  53.966  1.00  0.00    -0.109 N 
HETATM    2  C3  UNL     1       3.163  -0.847  53.738  1.00  0.00     0.691 A 
HETATM    3  N6  UNL     1       3.400  -1.020  52.396  1.00  0.00    -0.184 N 
ATOM      4  H6  UNL     1       4.295  -0.861  51.933  1.00  0.00     0.184 HD
HETATM    5  C8  UNL     1       2.283  -1.425  51.793  1.00  0.00     0.138 A 
HETATM    6  C9  UNL     1       2.001  -1.724  50.475  1.00  0.00     0.132 A 
HETATM    7  N8  UNL     1       0.749  -2.100  50.204  1.00  0.00    -0.321 N 
ATOM      8  H8  UNL     1       0.519  -2.324  49.236  1.00  0.00     0.169 HD
HETATM    9  C10 UNL     1      -0.232  -2.202  51.125  1.00  0.00     0.147 A 
HETATM   10  N11 UNL     1       0.087  -1.903  52.397  1.00  0.00    -0.320 N 
ATOM     11  H11 UNL     1      -0.640  -1.975  53.109  1.00  0.00     0.169 HD
HETATM   12  C14 UNL     1       1.327  -1.509  52.782  1.00  0.00     0.164 A 
ENDROOT
BRANCH   1  13
HETATM   13  C2  UNL     1       1.211  -1.106  55.218  1.00  0.00     0.198 A 
HETATM   14  C1  UNL     1       0.367  -0.131  55.700  1.00  0.00     0.168 A 
HETATM   15  N2  UNL     1      -0.030  -0.491  56.933  1.00  0.00    -0.222 N 
HETATM   16  O1  UNL     1       0.533  -1.630  57.215  1.00  0.00    -0.153 OA
ATOM     17  H2  UNL     1      -0.660   0.035  57.539  1.00  0.00     0.198 HD
HETATM   18  N3  UNL     1       1.274  -2.025  56.221  1.00  0.00    -0.221 N 
ATOM     19  H3  UNL     1       1.818  -2.888  56.197  1.00  0.00     0.198 HD
BRANCH  14  20
HETATM   20  N1  UNL     1      -0.016   0.960  55.134  1.00  0.00    -0.381 N 
ATOM     21  H12 UNL     1      -0.170   1.149  54.144  1.00  0.00     0.157 HD
ATOM     22  H11 UNL     1      -0.213   1.814  55.656  1.00  0.00     0.157 HD
ENDBRANCH  14  20
ENDBRANCH   1  13
BRANCH   2  23
HETATM   23  N5  UNL     1       4.168  -0.417  54.603  1.00  0.00    -0.213 N 
HETATM   24  C4  UNL     1       4.634   0.940  54.614  1.00  0.00     0.167 C 
HETATM   25  C5  UNL     1       5.269   1.305  55.933  1.00  0.00     0.188 C 
HETATM   26  O2  UNL     1       5.012   0.533  56.996  1.00  0.00    -0.388 OA
HETATM   27  C6  UNL     1       4.525  -0.716  56.905  1.00  0.00     0.188 C 
HETATM   28  C7  UNL     1       4.786  -1.312  55.541  1.00  0.00     0.167 C 
ENDBRANCH   2  23
BRANCH   6  29
HETATM   29  N7  UNL     1       2.881  -1.657  49.536  1.00  0.00    -0.383 N 
ATOM     30  H72 UNL     1       3.845  -1.402  49.749  1.00  0.00     0.157 HD
ATOM     31  H71 UNL     1       2.665  -1.846  48.557  1.00  0.00     0.157 HD
ENDBRANCH   6  29
BRANCH   9  32
HETATM   32  S1  UNL     1      -1.874  -2.733  50.663  1.00  0.00    -0.091 SA
BRANCH  32  33
HETATM   33  C11 UNL     1      -1.758  -4.119  49.508  1.00  0.00     0.124 C 
BRANCH  33  34
HETATM   34  C12 UNL     1      -3.084  -4.275  48.766  1.00  0.00     0.281 C 
BRANCH  34  35
HETATM   35  N9  UNL     1      -4.107  -3.539  49.464  1.00  0.00    -0.066 N 
ATOM     36  H93 UNL     1      -3.813  -3.259  50.399  1.00  0.00     0.275 HD
ATOM     37  H92 UNL     1      -4.249  -2.607  49.073  1.00  0.00     0.275 HD
ATOM     38  H91 UNL     1      -4.967  -4.088  49.476  1.00  0.00     0.275 HD
ENDBRANCH  34  35
BRANCH  34  39
HETATM   39  C13 UNL     1      -3.446  -5.701  48.584  1.00  0.00     0.262 C 
HETATM   40  N10 UNL     1      -2.651  -6.610  47.856  1.00  0.00    -0.060 NA
HETATM   41  O3  UNL     1      -4.530  -6.081  49.121  1.00  0.00    -0.275 OA
ENDBRANCH  34  39
ENDBRANCH  33  34
ENDBRANCH  32  33
ENDBRANCH   9  32
TORSDOF 9
ENDMDL
MODEL 4
REMARK VINA RESULT: -7.884348700      0.814      1.123
REMARK  9 active torsions:
REMARK  status: ('A' for Active; 'I' for Inactive)
REMARK    1  A    between atoms: N1_1  and  C1_4 
REMARK    2  A    between atoms: C2_10  and  N4_11 
REMARK    3  A    between atoms: C3_12  and  N5_13 
REMARK    4  A    between atoms: C9_22  and  N7_23 
REMARK    5  A    between atoms: C10_28  and  S1_29 
REMARK    6  A    between atoms: S1_29  and  C11_30 
REMARK    7  A    between atoms: C11_30  and  C12_31 
REMARK    8  A    between atoms: C12_31  and  N9_32 
REMARK    9  A    between atoms: C12_31  and  C13_36 
ROOT
HETATM    1  N4  UNL     1       1.785  -1.935  54.588  1.00  0.00    -0.109 N 
HETATM    2  C3  UNL     1       2.271  -2.741  55.553  1.00  0.00     0.691 A 
HETATM    3  N6  UNL     1       1.885  -4.025  55.255  1.00  0.00    -0.184 N 
ATOM      4  H6  UNL     1       2.108  -4.850  55.812  1.00  0.00     0.184 HD
HETATM    5  C8  UNL     1       1.175  -4.028  54.126  1.00  0.00     0.138 A 
HETATM    6  C9  UNL     1       0.579  -5.049  53.413  1.00  0.00     0.132 A 
HETATM    7  N8  UNL     1      -0.061  -4.700  52.296  1.00  0.00    -0.321 N 
ATOM      8  H8  UNL     1      -0.508  -5.438  51.753  1.00  0.00     0.169 HD
HETATM    9  C10 UNL     1      -0.157  -3.435  51.836  1.00  0.00     0.147 A 
HETATM   10  N11 UNL     1       0.438  -2.471  52.563  1.00  0.00    -0.320 N 
ATOM     11  H11 UNL     1       0.376  -1.508  52.233  1.00  0.00     0.169 HD
HETATM   12  C14 UNL     1       1.116  -2.715  53.712  1.00  0.00     0.164 A 
ENDROOT
BRANCH   1  13
HETATM   13  C2  UNL     1       1.959  -0.532  54.508  1.00  0.00     0.198 A 
HETATM   14  C1  UNL     1       1.167   0.459  55.043  1.00  0.00     0.168 A 
HETATM   15  N2  UNL     1       1.707   1.648  54.721  1.00  0.00    -0.222 N 
HETATM   16  O1  UNL     1       2.780   1.420  54.021  1.00  0.00    -0.153 OA
ATOM     17  H2  UNL     1       1.340   2.564  54.980  1.00  0.00     0.198 HD
HETATM   18  N3  UNL     1       2.961   0.140  53.876  1.00  0.00    -0.221 N 
ATOM     19  H3  UNL     1       3.733  -0.293  53.369  1.00  0.00     0.198 HD
BRANCH  14  20
HETATM   20  N1  UNL     1       0.086   0.347  55.732  1.00  0.00    -0.381 N 
ATOM     21  H12 UNL     1      -0.698   0.996  55.807  1.00  0.00     0.157 HD
ATOM     22  H11 UNL     1      -0.111  -0.461  56.324  1.00  0.00     0.157 HD
ENDBRANCH  14  20
ENDBRANCH   1  13
BRANCH   2  23
HETATM   23  N5  UNL     1       3.035  -2.457  56.683  1.00  0.00    -0.213 N 
HETATM   24  C4  UNL     1       4.390  -2.913  56.821  1.00  0.00     0.167 C 
HETATM   25  C5  UNL     1       5.172  -2.063  57.791  1.00  0.00     0.188 C 
HETATM   26  O2  UNL     1       4.695  -0.851  58.100  1.00  0.00    -0.388 OA
HETATM   27  C6  UNL     1       3.420  -0.480  57.891  1.00  0.00     0.188 C 
HETATM   28  C7  UNL     1       2.509  -1.680  57.770  1.00  0.00     0.167 C 
ENDBRANCH   2  23
BRANCH   6  29
HETATM   29  N7  UNL     1       0.619  -6.282  53.786  1.00  0.00    -0.383 N 
ATOM     30  H72 UNL     1      -0.047  -6.636  54.472  1.00  0.00     0.157 HD
ATOM     31  H71 UNL     1       1.303  -6.949  53.429  1.00  0.00     0.157 HD
ENDBRANCH   6  29
BRANCH   9  32
HETATM   32  S1  UNL     1      -1.055  -3.067  50.336  1.00  0.00    -0.091 SA
BRANCH  32  33
HETATM   33  C11 UNL     1      -1.751  -4.592  49.659  1.00  0.00     0.124 C 
BRANCH  33  34
HETATM   34  C12 UNL     1      -2.909  -4.252  48.722  1.00  0.00     0.281 C 
BRANCH  34  35
HETATM   35  N9  UNL     1      -3.963  -3.628  49.481  1.00  0.00    -0.066 N 
ATOM     36  H93 UNL     1      -4.289  -4.216  50.247  1.00  0.00     0.275 HD
ATOM     37  H92 UNL     1      -3.628  -2.840  50.035  1.00  0.00     0.275 HD
ATOM     38  H91 UNL     1      -4.719  -3.362  48.849  1.00  0.00     0.275 HD
ENDBRANCH  34  35
BRANCH  34  39
HETATM   39  C13 UNL     1      -3.382  -5.444  47.981  1.00  0.00     0.262 C 
HETATM   40  N10 UNL     1      -2.641  -6.641  47.894  1.00  0.00    -0.060 NA
HETATM   41  O3  UNL     1      -4.509  -5.343  47.410  1.00  0.00    -0.275 OA
ENDBRANCH  34  39
ENDBRANCH  33  34
ENDBRANCH  32  33
ENDBRANCH   9  32
TORSDOF 9
ENDMDL
MODEL 5
REMARK VINA RESULT: -7.839836457      1.028      1.046
REMARK  9 active torsions:
REMARK  status: ('A' for Active; 'I' for Inactive)
REMARK    1  A    between atoms: N1_1  and  C1_4 
REMARK    2  A    between atoms: C2_10  and  N4_11 
REMARK    3  A    between atoms: C3_12  and  N5_13 
REMARK    4  A    between atoms: C9_22  and  N7_23 
REMARK    5  A    between atoms: C10_28  and  S1_29 
REMARK    6  A    between atoms: S1_29  and  C11_30 
REMARK    7  A    between atoms: C11_30  and  C12_31 
REMARK    8  A    between atoms: C12_31  and  N9_32 
REMARK    9  A    between atoms: C12_31  and  C13_36 
ROOT
HETATM    1  N4  UNL     1       1.009  -1.102  54.161  1.00  0.00    -0.109 N 
HETATM    2  C3  UNL     1       1.886  -1.814  54.897  1.00  0.00     0.691 A 
HETATM    3  N6  UNL     1       1.817  -3.119  54.478  1.00  0.00    -0.184 N 
ATOM      4  H6  UNL     1       2.369  -3.889  54.858  1.00  0.00     0.184 HD
HETATM    5  C8  UNL     1       0.919  -3.228  53.498  1.00  0.00     0.138 A 
HETATM    6  C9  UNL     1       0.495  -4.307  52.749  1.00  0.00     0.132 A 
HETATM    7  N8  UNL     1      -0.433  -4.061  51.823  1.00  0.00    -0.321 N 
ATOM      8  H8  UNL     1      -0.761  -4.845  51.257  1.00  0.00     0.169 HD
HETATM    9  C10 UNL     1      -0.967  -2.846  51.583  1.00  0.00     0.147 A 
HETATM   10  N11 UNL     1      -0.525  -1.821  52.336  1.00  0.00    -0.320 N 
ATOM     11  H11 UNL     1      -0.917  -0.894  52.171  1.00  0.00     0.169 HD
HETATM   12  C14 UNL     1       0.416  -1.960  53.304  1.00  0.00     0.164 A 
ENDROOT
BRANCH   1  13
HETATM   13  C2  UNL     1       0.769   0.289  54.266  1.00  0.00     0.198 A 
HETATM   14  C1  UNL     1       0.108   0.969  55.265  1.00  0.00     0.168 A 
HETATM   15  N2  UNL     1       0.114   2.278  54.958  1.00  0.00    -0.222 N 
HETATM   16  O1  UNL     1       0.744   2.417  53.828  1.00  0.00    -0.153 OA
ATOM     17  H2  UNL     1      -0.300   3.027  55.512  1.00  0.00     0.198 HD
HETATM   18  N3  UNL     1       1.146   1.260  53.390  1.00  0.00    -0.221 N 
ATOM     19  H3  UNL     1       1.664   1.104  52.525  1.00  0.00     0.198 HD
BRANCH  14  20
HETATM   20  N1  UNL     1      -0.448   0.504  56.329  1.00  0.00    -0.381 N 
ATOM     21  H12 UNL     1      -0.226  -0.344  56.851  1.00  0.00     0.157 HD
ATOM     22  H11 UNL     1      -1.231   0.967  56.791  1.00  0.00     0.157 HD
ENDBRANCH  14  20
ENDBRANCH   1  13
BRANCH   2  23
HETATM   23  N5  UNL     1       2.758  -1.423  55.911  1.00  0.00    -0.213 N 
HETATM   24  C4  UNL     1       2.414  -1.541  57.300  1.00  0.00     0.167 C 
HETATM   25  C5  UNL     1       3.638  -1.602  58.179  1.00  0.00     0.188 C 
HETATM   26  O2  UNL     1       4.812  -1.906  57.612  1.00  0.00    -0.388 OA
HETATM   27  C6  UNL     1       5.042  -1.818  56.290  1.00  0.00     0.188 C 
HETATM   28  C7  UNL     1       4.058  -0.887  55.620  1.00  0.00     0.167 C 
ENDBRANCH   2  23
BRANCH   6  29
HETATM   29  N7  UNL     1       0.949  -5.501  52.919  1.00  0.00    -0.383 N 
ATOM     30  H72 UNL     1       1.359  -6.015  52.140  1.00  0.00     0.157 HD
ATOM     31  H71 UNL     1       0.918  -5.985  53.817  1.00  0.00     0.157 HD
ENDBRANCH   6  29
BRANCH   9  32
HETATM   32  S1  UNL     1      -2.220  -2.622  50.329  1.00  0.00    -0.091 SA
BRANCH  32  33
HETATM   33  C11 UNL     1      -2.016  -3.876  49.042  1.00  0.00     0.124 C 
BRANCH  33  34
HETATM   34  C12 UNL     1      -3.382  -4.456  48.676  1.00  0.00     0.281 C 
BRANCH  34  35
HETATM   35  N9  UNL     1      -4.370  -3.959  49.598  1.00  0.00    -0.066 N 
ATOM     36  H93 UNL     1      -4.006  -3.213  50.191  1.00  0.00     0.275 HD
ATOM     37  H92 UNL     1      -5.103  -3.426  49.131  1.00  0.00     0.275 HD
ATOM     38  H91 UNL     1      -4.745  -4.737  50.141  1.00  0.00     0.275 HD
ENDBRANCH  34  35
BRANCH  34  39
HETATM   39  C13 UNL     1      -3.353  -5.937  48.631  1.00  0.00     0.262 C 
HETATM   40  N10 UNL     1      -2.581  -6.664  47.701  1.00  0.00    -0.060 NA
HETATM   41  O3  UNL     1      -4.071  -6.541  49.483  1.00  0.00    -0.275 OA
ENDBRANCH  34  39
ENDBRANCH  33  34
ENDBRANCH  32  33
ENDBRANCH   9  32
TORSDOF 9
ENDMDL
