MODEL 1
REMARK VINA RESULT: -7.906342240      0.000      0.000
REMARK  9 active torsions:
REMARK  status: ('A' for Active; 'I' for Inactive)
REMARK    1  A    between atoms: N1_1  and  C1_4 
REMARK    2  A    between atoms: N2_5  and  C2_6 
REMARK    3  A    between atoms: C7_13  and  O1_14 
REMARK    4  A    between atoms: N4_16  and  C8_17 
REMARK    5  A    between atoms: N7_23  and  C11_25 
REMARK    6  A    between atoms: C11_25  and  C12_26 
REMARK    7  A    between atoms: C12_26  and  N8_27 
REMARK    8  A    between atoms: N8_27  and  C13_29 
REMARK    9  A    between atoms: N9_36  and  N10_37 
ROOT
HETATM    1  C8  UNL     1       0.377  -3.253  52.937  1.00  0.00     0.126 A 
HETATM    2  C9  UNL     1       0.542  -4.306  52.065  1.00  0.00     0.142 A 
HETATM    3  N5  UNL     1      -0.339  -4.207  51.068  1.00  0.00    -0.298 N 
ATOM      4  H5  UNL     1      -0.435  -4.854  50.285  1.00  0.00     0.186 HD
HETATM    5  N6  UNL     1      -1.068  -3.112  51.277  1.00  0.00    -0.195 N 
HETATM    6  C10 UNL     1      -2.075  -2.383  50.769  1.00  0.00     0.269 A 
HETATM    7  N7  UNL     1      -2.754  -2.596  49.701  1.00  0.00    -0.351 N 
ATOM      8  H7  UNL     1      -3.487  -1.926  49.471  1.00  0.00     0.163 HD
HETATM    9  O3  UNL     1      -2.276  -1.344  51.580  1.00  0.00    -0.175 OA
HETATM   10  N9  UNL     1      -1.437  -1.401  52.570  1.00  0.00    -0.137 N 
HETATM   11  C18 UNL     1      -0.655  -2.498  52.423  1.00  0.00     0.206 A 
ENDROOT
BRANCH   1  12
HETATM   12  N4  UNL     1       1.125  -3.001  54.125  1.00  0.00    -0.119 N 
HETATM   13  C1  UNL     1       2.258  -2.263  54.241  1.00  0.00     0.693 A 
HETATM   14  N2  UNL     1       2.671  -2.254  55.515  1.00  0.00    -0.139 N 
HETATM   15  C6  UNL     1       1.790  -2.990  56.197  1.00  0.00     0.173 A 
HETATM   16  C7  UNL     1       0.810  -3.471  55.344  1.00  0.00     0.180 A 
BRANCH  13  17
HETATM   17  N1  UNL     1       2.825  -1.669  53.235  1.00  0.00    -0.233 N 
ATOM     18  H12 UNL     1       3.018  -0.667  53.214  1.00  0.00     0.174 HD
ATOM     19  H11 UNL     1       3.141  -2.103  52.367  1.00  0.00     0.174 HD
ENDBRANCH  13  17
BRANCH  14  20
HETATM   20  C2  UNL     1       3.817  -1.602  56.089  1.00  0.00     0.128 A 
HETATM   21  C3  UNL     1       4.948  -2.222  56.568  1.00  0.00     0.051 A 
HETATM   22  C4  UNL     1       5.788  -1.238  57.025  1.00  0.00     0.021 A 
HETATM   23  C5  UNL     1       5.181  -0.018  56.831  1.00  0.00     0.090 A 
HETATM   24  N3  UNL     1       3.993  -0.281  56.264  1.00  0.00    -0.351 N 
ATOM     25  H3  UNL     1       3.312   0.430  55.999  1.00  0.00     0.166 HD
ENDBRANCH  14  20
BRANCH  16  26
HETATM   26  O1  UNL     1      -0.287  -4.281  55.695  1.00  0.00    -0.344 OA
ATOM     27  H1  UNL     1      -0.295  -5.229  55.756  1.00  0.00     0.219 HD
ENDBRANCH  16  26
ENDBRANCH   1  12
BRANCH  10  28
HETATM   28  N10 UNL     1      -1.323  -0.495  53.639  1.00  0.00    -0.317 N 
ATOM     29 2H10 UNL     1      -1.992   0.252  53.825  1.00  0.00     0.179 HD
ATOM     30 1H10 UNL     1      -0.587  -0.464  54.345  1.00  0.00     0.179 HD
ENDBRANCH  10  28
BRANCH   7  31
HETATM   31  C11 UNL     1      -2.566  -3.696  48.808  1.00  0.00     0.142 C 
BRANCH  31  32
HETATM   32  C12 UNL     1      -3.758  -4.631  48.766  1.00  0.00     0.134 C 
BRANCH  32  33
HETATM   33  N8  UNL     1      -3.372  -6.007  48.728  1.00  0.00    -0.413 N 
ATOM     34  H8  UNL     1      -2.397  -6.300  48.664  1.00  0.00     0.153 HD
BRANCH  33  35
HETATM   35  C13 UNL     1      -4.453  -6.945  48.787  1.00  0.00     0.100 C 
HETATM   36  C14 UNL     1      -5.757  -6.423  48.239  1.00  0.00     0.029 C 
HETATM   37  C15 UNL     1      -6.766  -7.544  48.348  1.00  0.00     0.028 C 
HETATM   38  C16 UNL     1      -6.822  -7.970  49.811  1.00  0.00     0.167 C 
HETATM   39  O2  UNL     1      -6.006  -7.197  50.612  1.00  0.00    -0.389 OA
HETATM   40  C17 UNL     1      -4.680  -7.315  50.245  1.00  0.00     0.192 C 
ENDBRANCH  33  35
ENDBRANCH  32  33
ENDBRANCH  31  32
ENDBRANCH   7  31
TORSDOF 9
ENDMDL
MODEL 2
REMARK VINA RESULT: -7.805559354      5.698      8.290
REMARK  9 active torsions:
REMARK  status: ('A' for Active; 'I' for Inactive)
REMARK    1  A    between atoms: N1_1  and  C1_4 
REMARK    2  A    between atoms: N2_5  and  C2_6 
REMARK    3  A    between atoms: C7_13  and  O1_14 
REMARK    4  A    between atoms: N4_16  and  C8_17 
REMARK    5  A    between atoms: N7_23  and  C11_25 
REMARK    6  A    between atoms: C11_25  and  C12_26 
REMARK    7  A    between atoms: C12_26  and  N8_27 
REMARK    8  A    between atoms: N8_27  and  C13_29 
REMARK    9  A    between atoms: N9_36  and  N10_37 
ROOT
HETATM    1  C8  UNL     1      -0.435   0.912  54.445  1.00  0.00     0.126 A 
HETATM    2  C9  UNL     1       0.448   1.721  53.763  1.00  0.00     0.142 A 
HETATM    3  N5  UNL     1       1.324   0.969  53.095  1.00  0.00    -0.298 N 
ATOM      4  H5  UNL     1       2.085   1.311  52.509  1.00  0.00     0.186 HD
HETATM    5  N6  UNL     1       1.025  -0.308  53.331  1.00  0.00    -0.195 N 
HETATM    6  C10 UNL     1       1.403  -1.566  53.049  1.00  0.00     0.269 A 
HETATM    7  N7  UNL     1       2.373  -1.959  52.306  1.00  0.00    -0.351 N 
ATOM      8  H7  UNL     1       2.508  -2.965  52.207  1.00  0.00     0.163 HD
HETATM    9  O3  UNL     1       0.577  -2.393  53.688  1.00  0.00    -0.175 OA
HETATM   10  N9  UNL     1      -0.297  -1.701  54.355  1.00  0.00    -0.137 N 
HETATM   11  C18 UNL     1      -0.054  -0.381  54.161  1.00  0.00     0.206 A 
ENDROOT
BRANCH   1  12
HETATM   12  N4  UNL     1      -1.518   1.334  55.271  1.00  0.00    -0.119 N 
HETATM   13  C1  UNL     1      -2.762   1.702  54.872  1.00  0.00     0.693 A 
HETATM   14  N2  UNL     1      -3.505   2.033  55.935  1.00  0.00    -0.139 N 
HETATM   15  C6  UNL     1      -2.721   1.871  57.003  1.00  0.00     0.173 A 
HETATM   16  C7  UNL     1      -1.467   1.432  56.611  1.00  0.00     0.180 A 
BRANCH  13  17
HETATM   17  N1  UNL     1      -3.133   1.715  53.627  1.00  0.00    -0.233 N 
ATOM     18  H12 UNL     1      -2.789   2.396  52.949  1.00  0.00     0.174 HD
ATOM     19  H11 UNL     1      -3.788   1.076  53.177  1.00  0.00     0.174 HD
ENDBRANCH  13  17
BRANCH  14  20
HETATM   20  C2  UNL     1      -4.873   2.478  55.978  1.00  0.00     0.128 A 
HETATM   21  C3  UNL     1      -5.829   2.075  56.881  1.00  0.00     0.051 A 
HETATM   22  C4  UNL     1      -6.989   2.736  56.567  1.00  0.00     0.021 A 
HETATM   23  C5  UNL     1      -6.753   3.542  55.476  1.00  0.00     0.090 A 
HETATM   24  N3  UNL     1      -5.464   3.357  55.151  1.00  0.00    -0.351 N 
ATOM     25  H3  UNL     1      -4.993   3.823  54.376  1.00  0.00     0.166 HD
ENDBRANCH  14  20
BRANCH  16  26
HETATM   26  O1  UNL     1      -0.374   1.150  57.452  1.00  0.00    -0.344 OA
ATOM     27  H1  UNL     1      -0.288   0.408  58.040  1.00  0.00     0.219 HD
ENDBRANCH  16  26
ENDBRANCH   1  12
BRANCH  10  28
HETATM   28  N10 UNL     1      -1.339  -2.196  55.158  1.00  0.00    -0.317 N 
ATOM     29 2H10 UNL     1      -1.252  -3.014  55.761  1.00  0.00     0.179 HD
ATOM     30 1H10 UNL     1      -2.283  -1.820  55.243  1.00  0.00     0.179 HD
ENDBRANCH  10  28
BRANCH   7  31
HETATM   31  C11 UNL     1       3.277  -1.103  51.605  1.00  0.00     0.142 C 
BRANCH  31  32
HETATM   32  C12 UNL     1       2.726  -0.620  50.279  1.00  0.00     0.134 C 
BRANCH  32  33
HETATM   33  N8  UNL     1       2.748  -1.638  49.274  1.00  0.00    -0.413 N 
ATOM     34  H8  UNL     1       2.262  -2.527  49.386  1.00  0.00     0.153 HD
BRANCH  33  35
HETATM   35  C13 UNL     1       3.504  -1.318  48.100  1.00  0.00     0.100 C 
HETATM   36  C14 UNL     1       3.443   0.134  47.700  1.00  0.00     0.029 C 
HETATM   37  C15 UNL     1       4.315   0.295  46.474  1.00  0.00     0.028 C 
HETATM   38  C16 UNL     1       3.799  -0.674  45.415  1.00  0.00     0.167 C 
HETATM   39  O2  UNL     1       2.680  -1.362  45.836  1.00  0.00    -0.389 OA
HETATM   40  C17 UNL     1       2.952  -2.139  46.944  1.00  0.00     0.192 C 
ENDBRANCH  33  35
ENDBRANCH  32  33
ENDBRANCH  31  32
ENDBRANCH   7  31
TORSDOF 9
ENDMDL
MODEL 3
REMARK VINA RESULT: -7.729576269      5.197      7.905
REMARK  9 active torsions:
REMARK  status: ('A' for Active; 'I' for Inactive)
REMARK    1  A    between atoms: N1_1  and  C1_4 
REMARK    2  A    between atoms: N2_5  and  C2_6 
REMARK    3  A    between atoms: C7_13  and  O1_14 
REMARK    4  A    between atoms: N4_16  and  C8_17 
REMARK    5  A    between atoms: N7_23  and  C11_25 
REMARK    6  A    between atoms: C11_25  and  C12_26 
REMARK    7  A    between atoms: C12_26  and  N8_27 
REMARK    8  A    between atoms: N8_27  and  C13_29 
REMARK    9  A    between atoms: N9_36  and  N10_37 
ROOT
HETATM    1  C8  UNL     1      -0.899  -0.763  53.237  1.00  0.00     0.126 A 
HETATM    2  C9  UNL     1      -1.548  -1.025  52.050  1.00  0.00     0.142 A 
HETATM    3  N5  UNL     1      -0.663  -1.400  51.126  1.00  0.00    -0.298 N 
ATOM      4  H5  UNL     1      -0.873  -1.652  50.160  1.00  0.00     0.186 HD
HETATM    5  N6  UNL     1       0.545  -1.385  51.690  1.00  0.00    -0.195 N 
HETATM    6  C10 UNL     1       1.845  -1.614  51.443  1.00  0.00     0.269 A 
HETATM    7  N7  UNL     1       2.392  -1.998  50.348  1.00  0.00    -0.351 N 
ATOM      8  H7  UNL     1       3.405  -2.122  50.349  1.00  0.00     0.163 HD
HETATM    9  O3  UNL     1       2.522  -1.374  52.565  1.00  0.00    -0.175 OA
HETATM   10  N9  UNL     1       1.695  -1.004  53.497  1.00  0.00    -0.137 N 
HETATM   11  C18 UNL     1       0.437  -0.996  52.993  1.00  0.00     0.206 A 
ENDROOT
BRANCH   1  12
HETATM   12  N4  UNL     1      -1.494  -0.340  54.462  1.00  0.00    -0.119 N 
HETATM   13  C1  UNL     1      -1.960   0.898  54.764  1.00  0.00     0.693 A 
HETATM   14  N2  UNL     1      -2.449   0.912  56.011  1.00  0.00    -0.139 N 
HETATM   15  C6  UNL     1      -2.285  -0.324  56.489  1.00  0.00     0.173 A 
HETATM   16  C7  UNL     1      -1.686  -1.129  55.533  1.00  0.00     0.180 A 
BRANCH  13  17
HETATM   17  N1  UNL     1      -1.919   1.895  53.933  1.00  0.00    -0.233 N 
ATOM     18  H12 UNL     1      -2.731   2.473  53.714  1.00  0.00     0.174 HD
ATOM     19  H11 UNL     1      -1.107   2.222  53.410  1.00  0.00     0.174 HD
ENDBRANCH  13  17
BRANCH  14  20
HETATM   20  C2  UNL     1      -3.040   2.003  56.738  1.00  0.00     0.128 A 
HETATM   21  C3  UNL     1      -4.383   2.296  56.810  1.00  0.00     0.051 A 
HETATM   22  C4  UNL     1      -4.513   3.411  57.599  1.00  0.00     0.021 A 
HETATM   23  C5  UNL     1      -3.260   3.806  58.011  1.00  0.00     0.090 A 
HETATM   24  N3  UNL     1      -2.399   2.930  57.470  1.00  0.00    -0.351 N 
ATOM     25  H3  UNL     1      -1.388   2.963  57.597  1.00  0.00     0.166 HD
ENDBRANCH  14  20
BRANCH  16  26
HETATM   26  O1  UNL     1      -1.355  -2.491  55.668  1.00  0.00    -0.344 OA
ATOM     27  H1  UNL     1      -1.022  -2.919  56.448  1.00  0.00     0.219 HD
ENDBRANCH  16  26
ENDBRANCH   1  12
BRANCH  10  28
HETATM   28  N10 UNL     1       2.010  -0.661  54.823  1.00  0.00    -0.317 N 
ATOM     29 2H10 UNL     1       2.653  -1.190  55.411  1.00  0.00     0.179 HD
ATOM     30 1H10 UNL     1       1.652   0.132  55.356  1.00  0.00     0.179 HD
ENDBRANCH  10  28
BRANCH   7  31
HETATM   31  C11 UNL     1       1.701  -2.266  49.127  1.00  0.00     0.142 C 
BRANCH  31  32
HETATM   32  C12 UNL     1       2.626  -2.346  47.929  1.00  0.00     0.134 C 
BRANCH  32  33
HETATM   33  N8  UNL     1       2.771  -1.088  47.266  1.00  0.00    -0.413 N 
ATOM     34  H8  UNL     1       2.140  -0.785  46.524  1.00  0.00     0.153 HD
BRANCH  33  35
HETATM   35  C13 UNL     1       3.868  -0.284  47.716  1.00  0.00     0.100 C 
HETATM   36  C14 UNL     1       3.500   0.733  48.766  1.00  0.00     0.029 C 
HETATM   37  C15 UNL     1       4.770   1.461  49.145  1.00  0.00     0.028 C 
HETATM   38  C16 UNL     1       5.357   2.055  47.868  1.00  0.00     0.167 C 
HETATM   39  O2  UNL     1       4.558   1.821  46.768  1.00  0.00    -0.389 OA
HETATM   40  C17 UNL     1       4.426   0.469  46.518  1.00  0.00     0.192 C 
ENDBRANCH  33  35
ENDBRANCH  32  33
ENDBRANCH  31  32
ENDBRANCH   7  31
TORSDOF 9
ENDMDL
MODEL 4
REMARK VINA RESULT: -7.627714057      5.696      7.635
REMARK  9 active torsions:
REMARK  status: ('A' for Active; 'I' for Inactive)
REMARK    1  A    between atoms: N1_1  and  C1_4 
REMARK    2  A    between atoms: N2_5  and  C2_6 
REMARK    3  A    between atoms: C7_13  and  O1_14 
REMARK    4  A    between atoms: N4_16  and  C8_17 
REMARK    5  A    between atoms: N7_23  and  C11_25 
REMARK    6  A    between atoms: C11_25  and  C12_26 
REMARK    7  A    between atoms: C12_26  and  N8_27 
REMARK    8  A    between atoms: N8_27  and  C13_29 
REMARK    9  A    between atoms: N9_36  and  N10_37 
ROOT
HETATM    1  C8  UNL     1      -0.981   0.231  56.130  1.00  0.00     0.126 A 
HETATM    2  C9  UNL     1      -1.410   0.967  57.214  1.00  0.00     0.142 A 
HETATM    3  N5  UNL     1      -2.371   1.810  56.834  1.00  0.00    -0.298 N 
ATOM      4  H5  UNL     1      -2.863   2.470  57.436  1.00  0.00     0.186 HD
HETATM    5  N6  UNL     1      -2.573   1.635  55.529  1.00  0.00    -0.195 N 
HETATM    6  C10 UNL     1      -3.308   2.068  54.491  1.00  0.00     0.269 A 
HETATM    7  N7  UNL     1      -4.222   2.969  54.483  1.00  0.00    -0.351 N 
ATOM      8  H7  UNL     1      -4.677   3.165  53.592  1.00  0.00     0.163 HD
HETATM    9  O3  UNL     1      -2.931   1.385  53.411  1.00  0.00    -0.175 OA
HETATM   10  N9  UNL     1      -1.992   0.548  53.736  1.00  0.00    -0.137 N 
HETATM   11  C18 UNL     1      -1.732   0.669  55.060  1.00  0.00     0.206 A 
ENDROOT
BRANCH   1  12
HETATM   12  N4  UNL     1       0.029  -0.775  56.125  1.00  0.00    -0.119 N 
HETATM   13  C1  UNL     1       1.332  -0.633  56.476  1.00  0.00     0.693 A 
HETATM   14  N2  UNL     1       1.973  -1.800  56.342  1.00  0.00    -0.139 N 
HETATM   15  C6  UNL     1       1.065  -2.676  55.904  1.00  0.00     0.173 A 
HETATM   16  C7  UNL     1      -0.165  -2.054  55.760  1.00  0.00     0.180 A 
BRANCH  13  17
HETATM   17  N1  UNL     1       1.840   0.493  56.880  1.00  0.00    -0.233 N 
ATOM     18  H12 UNL     1       2.445   0.571  57.697  1.00  0.00     0.174 HD
ATOM     19  H11 UNL     1       1.710   1.410  56.453  1.00  0.00     0.174 HD
ENDBRANCH  13  17
BRANCH  14  20
HETATM   20  C2  UNL     1       3.354  -2.108  56.602  1.00  0.00     0.128 A 
HETATM   21  C3  UNL     1       3.833  -2.867  57.645  1.00  0.00     0.051 A 
HETATM   22  C4  UNL     1       5.199  -2.909  57.521  1.00  0.00     0.021 A 
HETATM   23  C5  UNL     1       5.563  -2.181  56.411  1.00  0.00     0.090 A 
HETATM   24  N3  UNL     1       4.419  -1.715  55.884  1.00  0.00    -0.351 N 
ATOM     25  H3  UNL     1       4.366  -1.136  55.046  1.00  0.00     0.166 HD
ENDBRANCH  14  20
BRANCH  16  26
HETATM   26  O1  UNL     1      -1.363  -2.650  55.322  1.00  0.00    -0.344 OA
ATOM     27  H1  UNL     1      -1.819  -2.474  54.507  1.00  0.00     0.219 HD
ENDBRANCH  16  26
ENDBRANCH   1  12
BRANCH  10  28
HETATM   28  N10 UNL     1      -1.327  -0.354  52.886  1.00  0.00    -0.317 N 
ATOM     29 2H10 UNL     1      -0.434  -0.158  52.436  1.00  0.00     0.179 HD
ATOM     30 1H10 UNL     1      -1.636  -1.289  52.617  1.00  0.00     0.179 HD
ENDBRANCH  10  28
BRANCH   7  31
HETATM   31  C11 UNL     1      -4.653   3.720  55.619  1.00  0.00     0.142 C 
BRANCH  31  32
HETATM   32  C12 UNL     1      -5.865   3.117  56.300  1.00  0.00     0.134 C 
BRANCH  32  33
HETATM   33  N8  UNL     1      -6.717   2.423  55.386  1.00  0.00    -0.413 N 
ATOM     34  H8  UNL     1      -6.490   1.497  55.022  1.00  0.00     0.153 HD
BRANCH  33  35
HETATM   35  C13 UNL     1      -7.912   3.121  55.016  1.00  0.00     0.100 C 
HETATM   36  C14 UNL     1      -7.672   4.397  54.250  1.00  0.00     0.029 C 
HETATM   37  C15 UNL     1      -9.029   4.977  53.916  1.00  0.00     0.028 C 
HETATM   38  C16 UNL     1      -9.783   5.161  55.229  1.00  0.00     0.167 C 
HETATM   39  O2  UNL     1      -9.020   4.814  56.324  1.00  0.00    -0.389 OA
HETATM   40  C17 UNL     1      -8.663   3.481  56.289  1.00  0.00     0.192 C 
ENDBRANCH  33  35
ENDBRANCH  32  33
ENDBRANCH  31  32
ENDBRANCH   7  31
TORSDOF 9
ENDMDL
MODEL 5
REMARK VINA RESULT: -7.597301302      1.473      1.828
REMARK  9 active torsions:
REMARK  status: ('A' for Active; 'I' for Inactive)
REMARK    1  A    between atoms: N1_1  and  C1_4 
REMARK    2  A    between atoms: N2_5  and  C2_6 
REMARK    3  A    between atoms: C7_13  and  O1_14 
REMARK    4  A    between atoms: N4_16  and  C8_17 
REMARK    5  A    between atoms: N7_23  and  C11_25 
REMARK    6  A    between atoms: C11_25  and  C12_26 
REMARK    7  A    between atoms: C12_26  and  N8_27 
REMARK    8  A    between atoms: N8_27  and  C13_29 
REMARK    9  A    between atoms: N9_36  and  N10_37 
ROOT
HETATM    1  C8  UNL     1       0.416  -2.779  52.626  1.00  0.00     0.126 A 
HETATM    2  C9  UNL     1       0.744  -3.824  51.790  1.00  0.00     0.142 A 
HETATM    3  N5  UNL     1      -0.205  -3.976  50.865  1.00  0.00    -0.298 N 
ATOM      4  H5  UNL     1      -0.213  -4.676  50.122  1.00  0.00     0.186 HD
HETATM    5  N6  UNL     1      -1.139  -3.052  51.085  1.00  0.00    -0.195 N 
HETATM    6  C10 UNL     1      -2.314  -2.587  50.630  1.00  0.00     0.269 A 
HETATM    7  N7  UNL     1      -3.003  -3.005  49.632  1.00  0.00    -0.351 N 
ATOM      8  H7  UNL     1      -3.880  -2.523  49.433  1.00  0.00     0.163 HD
HETATM    9  O3  UNL     1      -2.679  -1.569  51.407  1.00  0.00    -0.175 OA
HETATM   10  N9  UNL     1      -1.780  -1.384  52.327  1.00  0.00    -0.137 N 
HETATM   11  C18 UNL     1      -0.790  -2.295  52.165  1.00  0.00     0.206 A 
ENDROOT
BRANCH   1  12
HETATM   12  N4  UNL     1       1.173  -2.301  53.735  1.00  0.00    -0.119 N 
HETATM   13  C1  UNL     1       1.534  -2.995  54.844  1.00  0.00     0.693 A 
HETATM   14  N2  UNL     1       2.241  -2.210  55.666  1.00  0.00    -0.139 N 
HETATM   15  C6  UNL     1       2.321  -1.019  55.067  1.00  0.00     0.173 A 
HETATM   16  C7  UNL     1       1.657  -1.052  53.852  1.00  0.00     0.180 A 
BRANCH  13  17
HETATM   17  N1  UNL     1       1.217  -4.240  55.037  1.00  0.00    -0.233 N 
ATOM     18  H12 UNL     1       0.906  -4.603  55.938  1.00  0.00     0.174 HD
ATOM     19  H11 UNL     1       1.233  -4.989  54.345  1.00  0.00     0.174 HD
ENDBRANCH  13  17
BRANCH  14  20
HETATM   20  C2  UNL     1       2.820  -2.528  56.944  1.00  0.00     0.128 A 
HETATM   21  C3  UNL     1       4.129  -2.885  57.174  1.00  0.00     0.051 A 
HETATM   22  C4  UNL     1       4.259  -3.104  58.523  1.00  0.00     0.021 A 
HETATM   23  C5  UNL     1       3.039  -2.885  59.122  1.00  0.00     0.090 A 
HETATM   24  N3  UNL     1       2.198  -2.540  58.134  1.00  0.00    -0.351 N 
ATOM     25  H3  UNL     1       1.213  -2.315  58.270  1.00  0.00     0.166 HD
ENDBRANCH  14  20
BRANCH  16  26
HETATM   26  O1  UNL     1       1.525   0.009  52.936  1.00  0.00    -0.344 OA
ATOM     27  H1  UNL     1       1.457  -0.062  51.991  1.00  0.00     0.219 HD
ENDBRANCH  16  26
ENDBRANCH   1  12
BRANCH  10  28
HETATM   28  N10 UNL     1      -1.791  -0.412  53.342  1.00  0.00    -0.317 N 
ATOM     29 2H10 UNL     1      -1.114   0.348  53.410  1.00  0.00     0.179 HD
ATOM     30 1H10 UNL     1      -2.450  -0.336  54.117  1.00  0.00     0.179 HD
ENDBRANCH  10  28
BRANCH   7  31
HETATM   31  C11 UNL     1      -2.645  -4.092  48.775  1.00  0.00     0.142 C 
BRANCH  31  32
HETATM   32  C12 UNL     1      -3.812  -5.005  48.460  1.00  0.00     0.134 C 
BRANCH  32  33
HETATM   33  N8  UNL     1      -3.557  -6.364  48.822  1.00  0.00    -0.413 N 
ATOM     34  H8  UNL     1      -2.622  -6.703  49.051  1.00  0.00     0.153 HD
BRANCH  33  35
HETATM   35  C13 UNL     1      -4.707  -7.217  48.841  1.00  0.00     0.100 C 
HETATM   36  C14 UNL     1      -5.949  -6.595  48.254  1.00  0.00     0.029 C 
HETATM   37  C15 UNL     1      -7.044  -7.636  48.325  1.00  0.00     0.028 C 
HETATM   38  C16 UNL     1      -7.180  -8.059  49.784  1.00  0.00     0.167 C 
HETATM   39  O2  UNL     1      -6.334  -7.353  50.614  1.00  0.00    -0.389 OA
HETATM   40  C17 UNL     1      -5.010  -7.571  50.289  1.00  0.00     0.192 C 
ENDBRANCH  33  35
ENDBRANCH  32  33
ENDBRANCH  31  32
ENDBRANCH   7  31
TORSDOF 9
ENDMDL
