MODEL 1
REMARK VINA RESULT: -7.092104576      0.000      0.000
REMARK  8 active torsions:
REMARK  status: ('A' for Active; 'I' for Inactive)
REMARK    1  A    between atoms: C2_2  and  O1_3 
REMARK    2  A    between atoms: O1_3  and  C3_4 
REMARK    3  A    between atoms: C3_4  and  O2_5 
REMARK    4  A    between atoms: C3_4  and  C5_7 
REMARK    5  A    between atoms: N1_9  and  C7_10 
REMARK    6  A    between atoms: N4_17  and  C9_19 
REMARK    7  A    between atoms: C14_26  and  N6_27 
REMARK    8  A    between atoms: C15_32  and  N8_33 
REMARK       I    between atoms: N8_33  and  C16_35 
REMARK       I    between atoms: C16_35  and  N9_36 
REMARK       I    between atoms: C16_35  and  N10_40 
ROOT
HETATM    1  C5  UNL     1      -2.467   1.709  53.704  1.00  0.00     0.123 A 
HETATM    2  C6  UNL     1      -2.485   0.885  52.672  1.00  0.00     0.149 A 
HETATM    3  N1  UNL     1      -1.839  -0.282  53.035  1.00  0.00    -0.134 N 
HETATM    4  C13 UNL     1      -1.453  -0.088  54.313  1.00  0.00     0.726 A 
HETATM    5  N5  UNL     1      -0.802  -0.866  55.167  1.00  0.00    -0.020 N 
ATOM      6  H5  UNL     1      -0.507  -1.792  54.855  1.00  0.00     0.203 HD
HETATM    7  C14 UNL     1      -0.509  -0.489  56.435  1.00  0.00     0.705 A 
HETATM    8  N7  UNL     1      -0.896   0.723  56.830  1.00  0.00    -0.021 N 
ATOM      9  H7  UNL     1      -0.690   1.036  57.779  1.00  0.00     0.203 HD
HETATM   10  C15 UNL     1      -1.557   1.539  55.987  1.00  0.00     0.717 A 
HETATM   11  N11 UNL     1      -1.860   1.172  54.710  1.00  0.00     0.027 N 
ENDROOT
BRANCH   3  12
HETATM   12  C7  UNL     1      -1.656  -1.382  52.170  1.00  0.00     0.195 A 
HETATM   13  N2  UNL     1      -2.550  -2.306  51.807  1.00  0.00    -0.221 N 
HETATM   14  O3  UNL     1      -2.013  -3.157  50.990  1.00  0.00    -0.153 OA
ATOM     15  H2  UNL     1      -3.518  -2.337  52.128  1.00  0.00     0.198 HD
HETATM   16  N3  UNL     1      -0.770  -2.827  50.789  1.00  0.00    -0.222 N 
HETATM   17  C8  UNL     1      -0.469  -1.729  51.491  1.00  0.00     0.171 A 
ATOM     18  H3  UNL     1      -0.122  -3.331  50.185  1.00  0.00     0.198 HD
HETATM   19  N4  UNL     1       0.575  -1.036  51.637  1.00  0.00    -0.364 N 
ATOM     20  H4  UNL     1       0.476  -0.240  52.266  1.00  0.00     0.162 HD
BRANCH  19  21
HETATM   21  C9  UNL     1       1.872  -1.188  51.065  1.00  0.00     0.021 C 
HETATM   22  C10 UNL     1       2.702  -2.046  52.014  1.00  0.00     0.037 C 
HETATM   23  C11 UNL     1       1.900  -1.878  49.731  1.00  0.00     0.037 C 
HETATM   24  C12 UNL     1       2.576   0.156  50.989  1.00  0.00     0.037 C 
ENDBRANCH  19  21
ENDBRANCH   3  12
BRANCH   1  25
HETATM   25  C3  UNL     1      -3.164   3.245  53.753  1.00  0.00     0.313 C 
BRANCH  25  26
HETATM   26  O1  UNL     1      -3.468   3.151  52.155  1.00  0.00    -0.356 OA
BRANCH  26  27
HETATM   27  C2  UNL     1      -2.870   4.262  51.654  1.00  0.00     0.167 C 
HETATM   28  C1  UNL     1      -2.097   3.845  50.424  1.00  0.00     0.033 C 
ENDBRANCH  26  27
ENDBRANCH  25  26
BRANCH  25  29
HETATM   29  O2  UNL     1      -4.390   2.730  53.986  1.00  0.00    -0.360 OA
HETATM   30  C4  UNL     1      -5.442   3.619  54.047  1.00  0.00     0.205 C 
ENDBRANCH  25  29
ENDBRANCH   1  25
BRANCH   7  31
HETATM   31  N6  UNL     1       0.131  -1.294  57.232  1.00  0.00    -0.234 N 
ATOM     32  H62 UNL     1      -0.039  -2.300  57.226  1.00  0.00     0.174 HD
ATOM     33  H61 UNL     1       0.823  -0.931  57.887  1.00  0.00     0.174 HD
ENDBRANCH   7  31
BRANCH  10  34
HETATM   34  N8  UNL     1      -1.952   2.707  56.338  1.00  0.00    -0.172 N 
HETATM   35  C16 UNL     1      -2.851   2.878  57.442  1.00  0.00     0.494 C 
HETATM   36  N9  UNL     1      -4.230   2.636  57.140  1.00  0.00    -0.032 N 
HETATM   37  N10 UNL     1      -2.684   4.294  57.845  1.00  0.00    -0.032 N 
ATOM     38  H93 UNL     1      -4.526   3.213  56.353  1.00  0.00     0.278 HD
ATOM     39  H92 UNL     1      -4.344   1.707  56.733  1.00  0.00     0.278 HD
ATOM     40  H91 UNL     1      -4.870   2.757  57.926  1.00  0.00     0.278 HD
ATOM     41 3H10 UNL     1      -1.720   4.557  58.050  1.00  0.00     0.278 HD
ATOM     42 2H10 UNL     1      -2.826   4.962  57.087  1.00  0.00     0.278 HD
ATOM     43 1H10 UNL     1      -3.324   4.416  58.631  1.00  0.00     0.278 HD
ATOM     44  H8  UNL     1      -1.623   3.525  55.824  1.00  0.00     0.181 HD
ENDBRANCH  10  34
TORSDOF 8
ENDMDL
MODEL 2
REMARK VINA RESULT: -6.935983667      1.086      1.181
REMARK  8 active torsions:
REMARK  status: ('A' for Active; 'I' for Inactive)
REMARK    1  A    between atoms: C2_2  and  O1_3 
REMARK    2  A    between atoms: O1_3  and  C3_4 
REMARK    3  A    between atoms: C3_4  and  O2_5 
REMARK    4  A    between atoms: C3_4  and  C5_7 
REMARK    5  A    between atoms: N1_9  and  C7_10 
REMARK    6  A    between atoms: N4_17  and  C9_19 
REMARK    7  A    between atoms: C14_26  and  N6_27 
REMARK    8  A    between atoms: C15_32  and  N8_33 
REMARK       I    between atoms: N8_33  and  C16_35 
REMARK       I    between atoms: C16_35  and  N9_36 
REMARK       I    between atoms: C16_35  and  N10_40 
ROOT
HETATM    1  C5  UNL     1      -2.522   2.239  52.708  1.00  0.00     0.123 A 
HETATM    2  C6  UNL     1      -2.566   1.248  51.836  1.00  0.00     0.149 A 
HETATM    3  N1  UNL     1      -2.128   0.096  52.462  1.00  0.00    -0.134 N 
HETATM    4  C13 UNL     1      -1.835   0.471  53.724  1.00  0.00     0.726 A 
HETATM    5  N5  UNL     1      -1.380  -0.213  54.766  1.00  0.00    -0.020 N 
ATOM      6  H5  UNL     1      -1.194  -1.209  54.650  1.00  0.00     0.203 HD
HETATM    7  C14 UNL     1      -1.151   0.351  55.976  1.00  0.00     0.705 A 
HETATM    8  N7  UNL     1      -1.393   1.653  56.113  1.00  0.00    -0.021 N 
ATOM      9  H7  UNL     1      -1.230   2.106  57.013  1.00  0.00     0.203 HD
HETATM   10  C15 UNL     1      -1.852   2.378  55.075  1.00  0.00     0.717 A 
HETATM   11  N11 UNL     1      -2.090   1.823  53.853  1.00  0.00     0.027 N 
ENDROOT
BRANCH   3  12
HETATM   12  C7  UNL     1      -2.029  -1.158  51.822  1.00  0.00     0.195 A 
HETATM   13  N2  UNL     1      -3.007  -2.026  51.547  1.00  0.00    -0.221 N 
HETATM   14  O3  UNL     1      -2.528  -3.068  50.943  1.00  0.00    -0.153 OA
ATOM     15  H2  UNL     1      -3.990  -1.887  51.781  1.00  0.00     0.198 HD
HETATM   16  N3  UNL     1      -1.243  -2.923  50.799  1.00  0.00    -0.222 N 
HETATM   17  C8  UNL     1      -0.853  -1.756  51.323  1.00  0.00     0.171 A 
ATOM     18  H3  UNL     1      -0.625  -3.599  50.353  1.00  0.00     0.198 HD
HETATM   19  N4  UNL     1       0.259  -1.170  51.438  1.00  0.00    -0.364 N 
ATOM     20  H4  UNL     1       0.219  -0.265  51.907  1.00  0.00     0.162 HD
BRANCH  19  21
HETATM   21  C9  UNL     1       1.562  -1.570  51.019  1.00  0.00     0.021 C 
HETATM   22  C10 UNL     1       2.090  -2.574  52.039  1.00  0.00     0.037 C 
HETATM   23  C11 UNL     1       1.617  -2.251  49.681  1.00  0.00     0.037 C 
HETATM   24  C12 UNL     1       2.515  -0.388  51.060  1.00  0.00     0.037 C 
ENDBRANCH  19  21
ENDBRANCH   3  12
BRANCH   1  25
HETATM   25  C3  UNL     1      -2.993   3.833  52.417  1.00  0.00     0.313 C 
BRANCH  25  26
HETATM   26  O1  UNL     1      -2.742   3.609  50.823  1.00  0.00    -0.356 OA
BRANCH  26  27
HETATM   27  C2  UNL     1      -1.923   4.637  50.484  1.00  0.00     0.167 C 
HETATM   28  C1  UNL     1      -2.650   5.477  49.460  1.00  0.00     0.033 C 
ENDBRANCH  26  27
ENDBRANCH  25  26
BRANCH  25  29
HETATM   29  O2  UNL     1      -4.279   3.467  52.236  1.00  0.00    -0.360 OA
HETATM   30  C4  UNL     1      -5.199   3.937  53.149  1.00  0.00     0.205 C 
ENDBRANCH  25  29
ENDBRANCH   1  25
BRANCH   7  31
HETATM   31  N6  UNL     1      -0.707  -0.369  56.965  1.00  0.00    -0.234 N 
ATOM     32  H62 UNL     1       0.291  -0.463  57.154  1.00  0.00     0.174 HD
ATOM     33  H61 UNL     1      -1.357  -0.859  57.579  1.00  0.00     0.174 HD
ENDBRANCH   7  31
BRANCH  10  34
HETATM   34  N8  UNL     1      -2.105   3.630  55.176  1.00  0.00    -0.172 N 
HETATM   35  C16 UNL     1      -2.615   4.181  56.398  1.00  0.00     0.494 C 
HETATM   36  N9  UNL     1      -4.022   4.006  56.599  1.00  0.00    -0.032 N 
HETATM   37  N10 UNL     1      -2.314   5.629  56.310  1.00  0.00    -0.032 N 
ATOM     38  H93 UNL     1      -4.541   4.376  55.803  1.00  0.00     0.278 HD
ATOM     39  H92 UNL     1      -4.268   3.018  56.528  1.00  0.00     0.278 HD
ATOM     40  H91 UNL     1      -4.384   4.397  57.469  1.00  0.00     0.278 HD
ATOM     41 3H10 UNL     1      -1.331   5.840  56.137  1.00  0.00     0.278 HD
ATOM     42 2H10 UNL     1      -2.677   6.079  55.469  1.00  0.00     0.278 HD
ATOM     43 1H10 UNL     1      -2.677   6.021  57.179  1.00  0.00     0.278 HD
ATOM     44  H8  UNL     1      -1.943   4.242  54.376  1.00  0.00     0.181 HD
ENDBRANCH  10  34
TORSDOF 8
ENDMDL
MODEL 3
REMARK VINA RESULT: -6.852197347      2.579      6.868
REMARK  8 active torsions:
REMARK  status: ('A' for Active; 'I' for Inactive)
REMARK    1  A    between atoms: C2_2  and  O1_3 
REMARK    2  A    between atoms: O1_3  and  C3_4 
REMARK    3  A    between atoms: C3_4  and  O2_5 
REMARK    4  A    between atoms: C3_4  and  C5_7 
REMARK    5  A    between atoms: N1_9  and  C7_10 
REMARK    6  A    between atoms: N4_17  and  C9_19 
REMARK    7  A    between atoms: C14_26  and  N6_27 
REMARK    8  A    between atoms: C15_32  and  N8_33 
REMARK       I    between atoms: N8_33  and  C16_35 
REMARK       I    between atoms: C16_35  and  N9_36 
REMARK       I    between atoms: C16_35  and  N10_40 
ROOT
HETATM    1  C5  UNL     1       0.281  -0.096  52.211  1.00  0.00     0.123 A 
HETATM    2  C6  UNL     1      -0.093   1.171  52.245  1.00  0.00     0.149 A 
HETATM    3  N1  UNL     1      -1.428   1.241  51.894  1.00  0.00    -0.134 N 
HETATM    4  C13 UNL     1      -1.798  -0.035  51.659  1.00  0.00     0.726 A 
HETATM    5  N5  UNL     1      -2.957  -0.567  51.296  1.00  0.00    -0.020 N 
ATOM      6  H5  UNL     1      -3.752   0.055  51.146  1.00  0.00     0.203 HD
HETATM    7  C14 UNL     1      -3.136  -1.898  51.114  1.00  0.00     0.705 A 
HETATM    8  N7  UNL     1      -2.090  -2.699  51.309  1.00  0.00    -0.021 N 
ATOM      9  H7  UNL     1      -2.193  -3.706  51.180  1.00  0.00     0.203 HD
HETATM   10  C15 UNL     1      -0.898  -2.192  51.676  1.00  0.00     0.717 A 
HETATM   11  N11 UNL     1      -0.704  -0.856  51.865  1.00  0.00     0.027 N 
ENDROOT
BRANCH   3  12
HETATM   12  C7  UNL     1      -2.157   2.446  51.810  1.00  0.00     0.195 A 
HETATM   13  N2  UNL     1      -2.232   3.297  50.783  1.00  0.00    -0.221 N 
HETATM   14  O3  UNL     1      -3.009   4.292  51.077  1.00  0.00    -0.153 OA
ATOM     15  H2  UNL     1      -1.746   3.180  49.894  1.00  0.00     0.198 HD
HETATM   16  N3  UNL     1      -3.467   4.131  52.284  1.00  0.00    -0.222 N 
HETATM   17  C8  UNL     1      -2.981   3.002  52.812  1.00  0.00     0.171 A 
ATOM     18  H3  UNL     1      -4.102   4.772  52.759  1.00  0.00     0.198 HD
HETATM   19  N4  UNL     1      -3.113   2.421  53.924  1.00  0.00    -0.364 N 
ATOM     20  H4  UNL     1      -2.588   1.552  54.017  1.00  0.00     0.162 HD
BRANCH  19  21
HETATM   21  C9  UNL     1      -3.878   2.784  55.071  1.00  0.00     0.021 C 
HETATM   22  C10 UNL     1      -3.276   4.063  55.645  1.00  0.00     0.037 C 
HETATM   23  C11 UNL     1      -5.326   3.078  54.801  1.00  0.00     0.037 C 
HETATM   24  C12 UNL     1      -3.737   1.729  56.154  1.00  0.00     0.037 C 
ENDBRANCH  19  21
ENDBRANCH   3  12
BRANCH   1  25
HETATM   25  C3  UNL     1       1.815  -0.683  52.597  1.00  0.00     0.313 C 
BRANCH  25  26
HETATM   26  O1  UNL     1       2.477   0.382  51.557  1.00  0.00    -0.356 OA
BRANCH  26  27
HETATM   27  C2  UNL     1       2.787  -0.381  50.477  1.00  0.00     0.167 C 
HETATM   28  C1  UNL     1       3.288   0.547  49.395  1.00  0.00     0.033 C 
ENDBRANCH  26  27
ENDBRANCH  25  26
BRANCH  25  29
HETATM   29  O2  UNL     1       1.966   0.229  53.580  1.00  0.00    -0.360 OA
HETATM   30  C4  UNL     1       2.160  -0.253  54.857  1.00  0.00     0.205 C 
ENDBRANCH  25  29
ENDBRANCH   1  25
BRANCH   7  31
HETATM   31  N6  UNL     1      -4.297  -2.365  50.760  1.00  0.00    -0.234 N 
ATOM     32  H62 UNL     1      -5.141  -2.167  51.297  1.00  0.00     0.174 HD
ATOM     33  H61 UNL     1      -4.388  -2.947  49.927  1.00  0.00     0.174 HD
ENDBRANCH   7  31
BRANCH  10  34
HETATM   34  N8  UNL     1       0.126  -2.935  51.881  1.00  0.00    -0.172 N 
HETATM   35  C16 UNL     1       0.086  -3.988  52.855  1.00  0.00     0.494 C 
HETATM   36  N9  UNL     1       0.274  -3.564  54.210  1.00  0.00    -0.032 N 
HETATM   37  N10 UNL     1       1.194  -4.894  52.472  1.00  0.00    -0.032 N 
ATOM     38  H93 UNL     1       1.142  -3.037  54.297  1.00  0.00     0.278 HD
ATOM     39  H92 UNL     1      -0.401  -2.837  54.449  1.00  0.00     0.278 HD
ATOM     40  H91 UNL     1       0.246  -4.313  54.903  1.00  0.00     0.278 HD
ATOM     41 3H10 UNL     1       1.149  -5.220  51.506  1.00  0.00     0.278 HD
ATOM     42 2H10 UNL     1       2.101  -4.434  52.396  1.00  0.00     0.278 HD
ATOM     43 1H10 UNL     1       1.165  -5.643  53.164  1.00  0.00     0.278 HD
ATOM     44  H8  UNL     1       0.980  -2.776  51.346  1.00  0.00     0.181 HD
ENDBRANCH  10  34
TORSDOF 8
ENDMDL
MODEL 4
REMARK VINA RESULT: -6.732788968      2.533      7.364
REMARK  8 active torsions:
REMARK  status: ('A' for Active; 'I' for Inactive)
REMARK    1  A    between atoms: C2_2  and  O1_3 
REMARK    2  A    between atoms: O1_3  and  C3_4 
REMARK    3  A    between atoms: C3_4  and  O2_5 
REMARK    4  A    between atoms: C3_4  and  C5_7 
REMARK    5  A    between atoms: N1_9  and  C7_10 
REMARK    6  A    between atoms: N4_17  and  C9_19 
REMARK    7  A    between atoms: C14_26  and  N6_27 
REMARK    8  A    between atoms: C15_32  and  N8_33 
REMARK       I    between atoms: N8_33  and  C16_35 
REMARK       I    between atoms: C16_35  and  N9_36 
REMARK       I    between atoms: C16_35  and  N10_40 
ROOT
HETATM    1  C5  UNL     1      -0.368  -0.783  54.148  1.00  0.00     0.123 A 
HETATM    2  C6  UNL     1      -0.329   0.422  54.687  1.00  0.00     0.149 A 
HETATM    3  N1  UNL     1      -1.107   1.268  53.921  1.00  0.00    -0.134 N 
HETATM    4  C13 UNL     1      -1.590   0.498  52.924  1.00  0.00     0.726 A 
HETATM    5  N5  UNL     1      -2.391   0.772  51.903  1.00  0.00    -0.020 N 
ATOM      6  H5  UNL     1      -2.733   1.727  51.796  1.00  0.00     0.203 HD
HETATM    7  C14 UNL     1      -2.776  -0.157  50.995  1.00  0.00     0.705 A 
HETATM    8  N7  UNL     1      -2.320  -1.400  51.144  1.00  0.00    -0.021 N 
ATOM      9  H7  UNL     1      -2.592  -2.121  50.476  1.00  0.00     0.203 HD
HETATM   10  C15 UNL     1      -1.503  -1.712  52.167  1.00  0.00     0.717 A 
HETATM   11  N11 UNL     1      -1.110  -0.788  53.090  1.00  0.00     0.027 N 
ENDROOT
BRANCH   3  12
HETATM   12  C7  UNL     1      -1.282   2.642  54.196  1.00  0.00     0.195 A 
HETATM   13  N2  UNL     1      -0.526   3.668  53.794  1.00  0.00    -0.221 N 
HETATM   14  O3  UNL     1      -1.008   4.785  54.242  1.00  0.00    -0.153 OA
ATOM     15  H2  UNL     1       0.311   3.583  53.218  1.00  0.00     0.198 HD
HETATM   16  N3  UNL     1      -2.079   4.537  54.937  1.00  0.00    -0.222 N 
HETATM   17  C8  UNL     1      -2.318   3.221  54.958  1.00  0.00     0.171 A 
ATOM     18  H3  UNL     1      -2.653   5.242  55.399  1.00  0.00     0.198 HD
HETATM   19  N4  UNL     1      -3.204   2.495  55.486  1.00  0.00    -0.364 N 
ATOM     20  H4  UNL     1      -3.097   1.496  55.313  1.00  0.00     0.162 HD
BRANCH  19  21
HETATM   21  C9  UNL     1      -4.330   2.846  56.286  1.00  0.00     0.021 C 
HETATM   22  C10 UNL     1      -5.073   1.560  56.635  1.00  0.00     0.037 C 
HETATM   23  C11 UNL     1      -3.999   3.514  57.590  1.00  0.00     0.037 C 
HETATM   24  C12 UNL     1      -5.305   3.690  55.483  1.00  0.00     0.037 C 
ENDBRANCH  19  21
ENDBRANCH   3  12
BRANCH   1  25
HETATM   25  C3  UNL     1       0.399  -2.160  54.749  1.00  0.00     0.313 C 
BRANCH  25  26
HETATM   26  O1  UNL     1       1.835  -1.397  54.644  1.00  0.00    -0.356 OA
BRANCH  26  27
HETATM   27  C2  UNL     1       2.366  -1.879  53.491  1.00  0.00     0.167 C 
HETATM   28  C1  UNL     1       3.534  -0.993  53.124  1.00  0.00     0.033 C 
ENDBRANCH  26  27
ENDBRANCH  25  26
BRANCH  25  29
HETATM   29  O2  UNL     1       0.292  -1.719  56.020  1.00  0.00    -0.360 OA
HETATM   30  C4  UNL     1       1.208  -2.203  56.930  1.00  0.00     0.205 C 
ENDBRANCH  25  29
ENDBRANCH   1  25
BRANCH   7  31
HETATM   31  N6  UNL     1      -3.566   0.167  50.014  1.00  0.00    -0.234 N 
ATOM     32  H62 UNL     1      -3.266   0.799  49.271  1.00  0.00     0.174 HD
ATOM     33  H61 UNL     1      -4.513  -0.208  49.967  1.00  0.00     0.174 HD
ENDBRANCH   7  31
BRANCH  10  34
HETATM   34  N8  UNL     1      -1.054  -2.899  52.345  1.00  0.00    -0.172 N 
HETATM   35  C16 UNL     1      -0.251  -3.538  51.344  1.00  0.00     0.494 C 
HETATM   36  N9  UNL     1      -0.985  -4.111  50.255  1.00  0.00    -0.032 N 
HETATM   37  N10 UNL     1       0.462  -4.617  52.068  1.00  0.00    -0.032 N 
ATOM     38  H93 UNL     1      -1.690  -4.758  50.607  1.00  0.00     0.278 HD
ATOM     39  H92 UNL     1      -1.587  -3.407  49.827  1.00  0.00     0.278 HD
ATOM     40  H91 UNL     1      -0.413  -4.566  49.543  1.00  0.00     0.278 HD
ATOM     41 3H10 UNL     1       0.989  -4.294  52.880  1.00  0.00     0.278 HD
ATOM     42 2H10 UNL     1      -0.152  -5.254  52.576  1.00  0.00     0.278 HD
ATOM     43 1H10 UNL     1       1.034  -5.072  51.356  1.00  0.00     0.278 HD
ATOM     44  H8  UNL     1      -1.272  -3.395  53.210  1.00  0.00     0.181 HD
ENDBRANCH  10  34
TORSDOF 8
ENDMDL
MODEL 5
REMARK VINA RESULT: -6.670154212      3.186      5.819
REMARK  8 active torsions:
REMARK  status: ('A' for Active; 'I' for Inactive)
REMARK    1  A    between atoms: C2_2  and  O1_3 
REMARK    2  A    between atoms: O1_3  and  C3_4 
REMARK    3  A    between atoms: C3_4  and  O2_5 
REMARK    4  A    between atoms: C3_4  and  C5_7 
REMARK    5  A    between atoms: N1_9  and  C7_10 
REMARK    6  A    between atoms: N4_17  and  C9_19 
REMARK    7  A    between atoms: C14_26  and  N6_27 
REMARK    8  A    between atoms: C15_32  and  N8_33 
REMARK       I    between atoms: N8_33  and  C16_35 
REMARK       I    between atoms: C16_35  and  N9_36 
REMARK       I    between atoms: C16_35  and  N10_40 
ROOT
HETATM    1  C5  UNL     1      -0.508   0.196  52.529  1.00  0.00     0.123 A 
HETATM    2  C6  UNL     1       0.614   0.743  52.960  1.00  0.00     0.149 A 
HETATM    3  N1  UNL     1       1.549  -0.259  53.139  1.00  0.00    -0.134 N 
HETATM    4  C13 UNL     1       0.914  -1.398  52.792  1.00  0.00     0.726 A 
HETATM    5  N5  UNL     1       1.318  -2.661  52.762  1.00  0.00    -0.020 N 
ATOM      6  H5  UNL     1       2.274  -2.874  53.049  1.00  0.00     0.203 HD
HETATM    7  C14 UNL     1       0.519  -3.683  52.370  1.00  0.00     0.705 A 
HETATM    8  N7  UNL     1      -0.728  -3.394  52.002  1.00  0.00    -0.021 N 
ATOM      9  H7  UNL     1      -1.353  -4.143  51.702  1.00  0.00     0.203 HD
HETATM   10  C15 UNL     1      -1.171  -2.123  52.023  1.00  0.00     0.717 A 
HETATM   11  N11 UNL     1      -0.378  -1.085  52.413  1.00  0.00     0.027 N 
ENDROOT
BRANCH   3  12
HETATM   12  C7  UNL     1       2.861  -0.038  53.608  1.00  0.00     0.195 A 
HETATM   13  N2  UNL     1       3.827   0.696  53.046  1.00  0.00    -0.221 N 
HETATM   14  O3  UNL     1       4.897   0.667  53.777  1.00  0.00    -0.153 OA
ATOM     15  H2  UNL     1       3.734   1.205  52.168  1.00  0.00     0.198 HD
HETATM   16  N3  UNL     1       4.675  -0.070  54.827  1.00  0.00    -0.222 N 
HETATM   17  C8  UNL     1       3.427  -0.548  54.795  1.00  0.00     0.171 A 
ATOM     18  H3  UNL     1       5.354  -0.255  55.565  1.00  0.00     0.198 HD
HETATM   19  N4  UNL     1       2.750  -1.295  55.554  1.00  0.00    -0.364 N 
ATOM     20  H4  UNL     1       1.800  -1.482  55.235  1.00  0.00     0.162 HD
BRANCH  19  21
HETATM   21  C9  UNL     1       3.101  -1.920  56.786  1.00  0.00     0.021 C 
HETATM   22  C10 UNL     1       1.901  -2.741  57.250  1.00  0.00     0.037 C 
HETATM   23  C11 UNL     1       4.262  -2.870  56.709  1.00  0.00     0.037 C 
HETATM   24  C12 UNL     1       3.334  -0.873  57.862  1.00  0.00     0.037 C 
ENDBRANCH  19  21
ENDBRANCH   3  12
BRANCH   1  25
HETATM   25  C3  UNL     1      -1.924   1.024  52.136  1.00  0.00     0.313 C 
BRANCH  25  26
HETATM   26  O1  UNL     1      -1.727   1.969  53.448  1.00  0.00    -0.356 OA
BRANCH  26  27
HETATM   27  C2  UNL     1      -2.825   1.699  54.200  1.00  0.00     0.167 C 
HETATM   28  C1  UNL     1      -2.347   1.344  55.589  1.00  0.00     0.033 C 
ENDBRANCH  26  27
ENDBRANCH  25  26
BRANCH  25  29
HETATM   29  O2  UNL     1      -1.242   1.937  51.413  1.00  0.00    -0.360 OA
HETATM   30  C4  UNL     1      -1.985   2.860  50.708  1.00  0.00     0.205 C 
ENDBRANCH  25  29
ENDBRANCH   1  25
BRANCH   7  31
HETATM   31  N6  UNL     1       0.969  -4.904  52.357  1.00  0.00    -0.234 N 
ATOM     32  H62 UNL     1       1.691  -5.216  53.008  1.00  0.00     0.174 HD
ATOM     33  H61 UNL     1       0.605  -5.582  51.688  1.00  0.00     0.174 HD
ENDBRANCH   7  31
BRANCH  10  34
HETATM   34  N8  UNL     1      -2.361  -1.809  51.666  1.00  0.00    -0.172 N 
HETATM   35  C16 UNL     1      -3.022  -2.517  50.609  1.00  0.00     0.494 C 
HETATM   36  N9  UNL     1      -2.650  -2.112  49.286  1.00  0.00    -0.032 N 
HETATM   37  N10 UNL     1      -4.463  -2.238  50.814  1.00  0.00    -0.032 N 
ATOM     38  H93 UNL     1      -2.784  -1.108  49.175  1.00  0.00     0.278 HD
ATOM     39  H92 UNL     1      -1.638  -2.171  49.171  1.00  0.00     0.278 HD
ATOM     40  H91 UNL     1      -3.120  -2.616  48.534  1.00  0.00     0.278 HD
ATOM     41 3H10 UNL     1      -4.802  -2.473  51.747  1.00  0.00     0.278 HD
ATOM     42 2H10 UNL     1      -4.692  -1.245  50.856  1.00  0.00     0.278 HD
ATOM     43 1H10 UNL     1      -4.933  -2.742  50.062  1.00  0.00     0.278 HD
ATOM     44  H8  UNL     1      -2.844  -1.046  52.141  1.00  0.00     0.181 HD
ENDBRANCH  10  34
TORSDOF 8
ENDMDL
