MODEL 1
REMARK VINA RESULT: -8.073021332      0.000      0.000
REMARK  8 active torsions:
REMARK  status: ('A' for Active; 'I' for Inactive)
REMARK    1  A    between atoms: C2_2  and  C3_4 
REMARK    2  A    between atoms: C3_4  and  N1_5 
REMARK    3  A    between atoms: C3_4  and  C8_18 
REMARK       I    between atoms: N1_5  and  C4_7 
REMARK    4  A    between atoms: C4_7  and  C5_9 
REMARK    5  A    between atoms: C5_9  and  N2_10 
REMARK    6  A    between atoms: C5_9  and  C6_14 
REMARK    7  A    between atoms: C6_14  and  C7_15 
REMARK       I    between atoms: C8_18  and  N3_20 
REMARK    8  A    between atoms: N3_20  and  C9_22 
ROOT
HETATM    1  C3  UNL     1      -7.682  -9.769   5.192  1.00  0.00     0.246 C 
ENDROOT
BRANCH   1   2
HETATM    2  C2  UNL     1      -6.639  -9.831   4.171  1.00  0.00     0.154 C 
HETATM    3  C1  UNL     1      -6.485 -10.825   3.095  1.00  0.00     0.093 C 
HETATM    4  O1  UNL     1      -5.772  -8.946   4.200  1.00  0.00    -0.296 OA
ENDBRANCH   1   2
BRANCH   1   5
HETATM    5  N1  UNL     1      -7.166 -10.050   6.532  1.00  0.00    -0.340 N 
HETATM    6  C4  UNL     1      -7.374  -9.163   7.616  1.00  0.00     0.249 C 
HETATM    7  O2  UNL     1      -8.019  -8.068   7.450  1.00  0.00    -0.271 OA
ATOM      8  H1  UNL     1      -6.642 -10.911   6.689  1.00  0.00     0.163 HD
BRANCH   6   9
HETATM    9  C5  UNL     1      -6.869  -9.469   8.955  1.00  0.00     0.284 C 
BRANCH   9  10
HETATM   10  N2  UNL     1      -7.200  -8.309   9.799  1.00  0.00    -0.066 N 
ATOM     11  H23 UNL     1      -7.142  -7.419   9.305  1.00  0.00     0.275 HD
ATOM     12  H22 UNL     1      -8.190  -8.253  10.040  1.00  0.00     0.275 HD
ATOM     13  H21 UNL     1      -6.587  -8.360  10.613  1.00  0.00     0.275 HD
ENDBRANCH   9  10
BRANCH   9  14
HETATM   14  C6  UNL     1      -5.427  -9.802   9.082  1.00  0.00     0.155 C 
BRANCH  14  15
HETATM   15  C7  UNL     1      -4.749  -8.921  10.036  1.00  0.00     0.175 C 
HETATM   16  O3  UNL     1      -4.661  -9.307  11.226  1.00  0.00    -0.648 OA
HETATM   17  O4  UNL     1      -4.218  -7.703   9.661  1.00  0.00    -0.648 OA
ENDBRANCH  14  15
ENDBRANCH   9  14
ENDBRANCH   6   9
ENDBRANCH   1   5
BRANCH   1  18
HETATM   18  C8  UNL     1      -8.822 -10.711   4.955  1.00  0.00     0.252 C 
HETATM   19  O5  UNL     1      -8.854 -11.750   5.641  1.00  0.00    -0.270 OA
HETATM   20  N3  UNL     1      -9.816 -10.447   4.004  1.00  0.00    -0.325 N 
ATOM     21  H3  UNL     1      -9.732  -9.583   3.469  1.00  0.00     0.169 HD
BRANCH  20  22
HETATM   22  C9  UNL     1     -10.933 -11.282   3.720  1.00  0.00     0.034 A 
HETATM   23  C10 UNL     1     -10.921 -12.015   2.521  1.00  0.00     0.031 A 
HETATM   24  C11 UNL     1     -11.992 -12.798   2.223  1.00  0.00     0.029 A 
HETATM   25  C12 UNL     1     -13.064 -12.872   3.075  1.00  0.00     0.046 A 
HETATM   26  N4  UNL     1     -14.185 -13.700   2.756  1.00  0.00    -0.102 NA
HETATM   27  C13 UNL     1     -13.092 -12.164   4.250  1.00  0.00     0.029 A 
HETATM   28  C14 UNL     1     -11.996 -11.357   4.562  1.00  0.00     0.031 A 
ENDBRANCH  20  22
ENDBRANCH   1  18
TORSDOF 8
ENDMDL
MODEL 2
REMARK VINA RESULT: -8.038975934      0.585      1.221
REMARK  8 active torsions:
REMARK  status: ('A' for Active; 'I' for Inactive)
REMARK    1  A    between atoms: C2_2  and  C3_4 
REMARK    2  A    between atoms: C3_4  and  N1_5 
REMARK    3  A    between atoms: C3_4  and  C8_18 
REMARK       I    between atoms: N1_5  and  C4_7 
REMARK    4  A    between atoms: C4_7  and  C5_9 
REMARK    5  A    between atoms: C5_9  and  N2_10 
REMARK    6  A    between atoms: C5_9  and  C6_14 
REMARK    7  A    between atoms: C6_14  and  C7_15 
REMARK       I    between atoms: C8_18  and  N3_20 
REMARK    8  A    between atoms: N3_20  and  C9_22 
ROOT
HETATM    1  C3  UNL     1      -7.906  -9.637   5.310  1.00  0.00     0.246 C 
ENDROOT
BRANCH   1   2
HETATM    2  C2  UNL     1      -6.846  -9.571   4.307  1.00  0.00     0.154 C 
HETATM    3  C1  UNL     1      -5.655  -8.704   4.307  1.00  0.00     0.093 C 
HETATM    4  O1  UNL     1      -6.944 -10.333   3.335  1.00  0.00    -0.296 OA
ENDBRANCH   1   2
BRANCH   1   5
HETATM    5  N1  UNL     1      -7.394  -9.973   6.639  1.00  0.00    -0.340 N 
HETATM    6  C4  UNL     1      -7.353  -9.023   7.689  1.00  0.00     0.249 C 
HETATM    7  O2  UNL     1      -7.758  -7.822   7.499  1.00  0.00    -0.271 OA
ATOM      8  H1  UNL     1      -7.057 -10.920   6.814  1.00  0.00     0.163 HD
BRANCH   6   9
HETATM    9  C5  UNL     1      -6.858  -9.381   9.017  1.00  0.00     0.284 C 
BRANCH   9  10
HETATM   10  N2  UNL     1      -7.150  -8.234   9.893  1.00  0.00    -0.066 N 
ATOM     11  H23 UNL     1      -7.028  -8.440  10.884  1.00  0.00     0.275 HD
ATOM     12  H22 UNL     1      -6.453  -7.491   9.833  1.00  0.00     0.275 HD
ATOM     13  H21 UNL     1      -8.093  -7.925   9.657  1.00  0.00     0.275 HD
ENDBRANCH   9  10
BRANCH   9  14
HETATM   14  C6  UNL     1      -5.427  -9.765   9.134  1.00  0.00     0.155 C 
BRANCH  14  15
HETATM   15  C7  UNL     1      -4.708  -8.900  10.073  1.00  0.00     0.175 C 
HETATM   16  O3  UNL     1      -4.573  -9.307  11.253  1.00  0.00    -0.648 OA
HETATM   17  O4  UNL     1      -4.190  -7.678   9.697  1.00  0.00    -0.648 OA
ENDBRANCH  14  15
ENDBRANCH   9  14
ENDBRANCH   6   9
ENDBRANCH   1   5
BRANCH   1  18
HETATM   18  C8  UNL     1      -8.983 -10.627   4.992  1.00  0.00     0.252 C 
HETATM   19  O5  UNL     1      -8.958 -11.712   5.603  1.00  0.00    -0.270 OA
HETATM   20  N3  UNL     1      -9.983 -10.358   4.048  1.00  0.00    -0.325 N 
ATOM     21  H3  UNL     1      -9.947  -9.454   3.576  1.00  0.00     0.169 HD
BRANCH  20  22
HETATM   22  C9  UNL     1     -11.044 -11.236   3.692  1.00  0.00     0.034 A 
HETATM   23  C10 UNL     1     -12.144 -11.328   4.561  1.00  0.00     0.031 A 
HETATM   24  C11 UNL     1     -13.156 -12.181   4.248  1.00  0.00     0.029 A 
HETATM   25  C12 UNL     1     -13.105 -12.938   3.105  1.00  0.00     0.046 A 
HETATM   26  N4  UNL     1     -14.174 -13.831   2.781  1.00  0.00    -0.102 NA
HETATM   27  C13 UNL     1     -12.039 -12.860   2.245  1.00  0.00     0.029 A 
HETATM   28  C14 UNL     1     -10.996 -11.987   2.562  1.00  0.00     0.031 A 
ENDBRANCH  20  22
ENDBRANCH   1  18
TORSDOF 8
ENDMDL
MODEL 3
REMARK VINA RESULT: -7.829650333      1.510      1.783
REMARK  8 active torsions:
REMARK  status: ('A' for Active; 'I' for Inactive)
REMARK    1  A    between atoms: C2_2  and  C3_4 
REMARK    2  A    between atoms: C3_4  and  N1_5 
REMARK    3  A    between atoms: C3_4  and  C8_18 
REMARK       I    between atoms: N1_5  and  C4_7 
REMARK    4  A    between atoms: C4_7  and  C5_9 
REMARK    5  A    between atoms: C5_9  and  N2_10 
REMARK    6  A    between atoms: C5_9  and  C6_14 
REMARK    7  A    between atoms: C6_14  and  C7_15 
REMARK       I    between atoms: C8_18  and  N3_20 
REMARK    8  A    between atoms: N3_20  and  C9_22 
ROOT
HETATM    1  C3  UNL     1      -7.189  -9.146   4.779  1.00  0.00     0.246 C 
ENDROOT
BRANCH   1   2
HETATM    2  C2  UNL     1      -6.205  -9.622   3.811  1.00  0.00     0.154 C 
HETATM    3  C1  UNL     1      -6.149 -10.939   3.152  1.00  0.00     0.093 C 
HETATM    4  O1  UNL     1      -5.303  -8.834   3.492  1.00  0.00    -0.296 OA
ENDBRANCH   1   2
BRANCH   1   5
HETATM    5  N1  UNL     1      -7.024  -9.770   6.092  1.00  0.00    -0.340 N 
HETATM    6  C4  UNL     1      -6.665  -9.020   7.239  1.00  0.00     0.249 C 
HETATM    7  O2  UNL     1      -6.461  -7.758   7.156  1.00  0.00    -0.271 OA
ATOM      8  H1  UNL     1      -7.171 -10.775   6.183  1.00  0.00     0.163 HD
BRANCH   6   9
HETATM    9  C5  UNL     1      -6.524  -9.657   8.549  1.00  0.00     0.284 C 
BRANCH   9  10
HETATM   10  N2  UNL     1      -7.249  -8.803   9.505  1.00  0.00    -0.066 N 
ATOM     11  H23 UNL     1      -6.639  -8.178  10.032  1.00  0.00     0.275 HD
ATOM     12  H22 UNL     1      -7.812  -8.080   9.057  1.00  0.00     0.275 HD
ATOM     13  H21 UNL     1      -7.792  -9.431  10.098  1.00  0.00     0.275 HD
ENDBRANCH   9  10
BRANCH   9  14
HETATM   14  C6  UNL     1      -5.146  -9.920   9.037  1.00  0.00     0.155 C 
BRANCH  14  15
HETATM   15  C7  UNL     1      -4.722  -8.927  10.026  1.00  0.00     0.175 C 
HETATM   16  O3  UNL     1      -4.734  -9.265  11.235  1.00  0.00    -0.648 OA
HETATM   17  O4  UNL     1      -4.320  -7.657   9.666  1.00  0.00    -0.648 OA
ENDBRANCH  14  15
ENDBRANCH   9  14
ENDBRANCH   6   9
ENDBRANCH   1   5
BRANCH   1  18
HETATM   18  C8  UNL     1      -8.609  -9.369   4.363  1.00  0.00     0.252 C 
HETATM   19  O5  UNL     1      -8.871  -9.267   3.150  1.00  0.00    -0.270 OA
HETATM   20  N3  UNL     1      -9.613  -9.681   5.290  1.00  0.00    -0.325 N 
ATOM     21  H3  UNL     1      -9.337  -9.745   6.271  1.00  0.00     0.169 HD
BRANCH  20  22
HETATM   22  C9  UNL     1     -10.982  -9.915   4.982  1.00  0.00     0.034 A 
HETATM   23  C10 UNL     1     -11.372 -11.228   4.667  1.00  0.00     0.031 A 
HETATM   24  C11 UNL     1     -12.672 -11.465   4.346  1.00  0.00     0.029 A 
HETATM   25  C12 UNL     1     -13.586 -10.443   4.330  1.00  0.00     0.046 A 
HETATM   26  N4  UNL     1     -14.952 -10.701   3.994  1.00  0.00    -0.102 NA
HETATM   27  C13 UNL     1     -13.223  -9.156   4.635  1.00  0.00     0.029 A 
HETATM   28  C14 UNL     1     -11.889  -8.905   4.964  1.00  0.00     0.031 A 
ENDBRANCH  20  22
ENDBRANCH   1  18
TORSDOF 8
ENDMDL
MODEL 4
REMARK VINA RESULT: -7.800771061      0.955      1.429
REMARK  8 active torsions:
REMARK  status: ('A' for Active; 'I' for Inactive)
REMARK    1  A    between atoms: C2_2  and  C3_4 
REMARK    2  A    between atoms: C3_4  and  N1_5 
REMARK    3  A    between atoms: C3_4  and  C8_18 
REMARK       I    between atoms: N1_5  and  C4_7 
REMARK    4  A    between atoms: C4_7  and  C5_9 
REMARK    5  A    between atoms: C5_9  and  N2_10 
REMARK    6  A    between atoms: C5_9  and  C6_14 
REMARK    7  A    between atoms: C6_14  and  C7_15 
REMARK       I    between atoms: C8_18  and  N3_20 
REMARK    8  A    between atoms: N3_20  and  C9_22 
ROOT
HETATM    1  C3  UNL     1      -7.165  -8.767   5.113  1.00  0.00     0.246 C 
ENDROOT
BRANCH   1   2
HETATM    2  C2  UNL     1      -6.108  -8.678   4.109  1.00  0.00     0.154 C 
HETATM    3  C1  UNL     1      -6.226  -8.864   2.653  1.00  0.00     0.093 C 
HETATM    4  O1  UNL     1      -4.968  -8.411   4.516  1.00  0.00    -0.296 OA
ENDBRANCH   1   2
BRANCH   1   5
HETATM    5  N1  UNL     1      -6.639  -9.028   6.453  1.00  0.00    -0.340 N 
HETATM    6  C4  UNL     1      -7.425  -8.839   7.616  1.00  0.00     0.249 C 
HETATM    7  O2  UNL     1      -8.632  -8.419   7.528  1.00  0.00    -0.271 OA
ATOM      8  H1  UNL     1      -5.678  -9.354   6.552  1.00  0.00     0.163 HD
BRANCH   6   9
HETATM    9  C5  UNL     1      -6.891  -9.124   8.948  1.00  0.00     0.284 C 
BRANCH   9  10
HETATM   10  N2  UNL     1      -7.102  -7.907   9.749  1.00  0.00    -0.066 N 
ATOM     11  H23 UNL     1      -6.349  -7.724  10.412  1.00  0.00     0.275 HD
ATOM     12  H22 UNL     1      -7.007  -7.046   9.210  1.00  0.00     0.275 HD
ATOM     13  H21 UNL     1      -8.015  -8.009  10.193  1.00  0.00     0.275 HD
ENDBRANCH   9  10
BRANCH   9  14
HETATM   14  C6  UNL     1      -5.473  -9.558   9.037  1.00  0.00     0.155 C 
BRANCH  14  15
HETATM   15  C7  UNL     1      -4.721  -8.762  10.010  1.00  0.00     0.175 C 
HETATM   16  O3  UNL     1      -4.594  -9.226  11.169  1.00  0.00    -0.648 OA
HETATM   17  O4  UNL     1      -4.165  -7.541   9.687  1.00  0.00    -0.648 OA
ENDBRANCH  14  15
ENDBRANCH   9  14
ENDBRANCH   6   9
ENDBRANCH   1   5
BRANCH   1  18
HETATM   18  C8  UNL     1      -8.185  -9.826   4.829  1.00  0.00     0.252 C 
HETATM   19  O5  UNL     1      -7.785 -11.004   4.777  1.00  0.00    -0.270 OA
HETATM   20  N3  UNL     1      -9.537  -9.518   4.628  1.00  0.00    -0.325 N 
ATOM     21  H3  UNL     1      -9.803  -8.534   4.677  1.00  0.00     0.169 HD
BRANCH  20  22
HETATM   22  C9  UNL     1     -10.570 -10.459   4.361  1.00  0.00     0.034 A 
HETATM   23  C10 UNL     1     -11.400 -10.847   5.427  1.00  0.00     0.031 A 
HETATM   24  C11 UNL     1     -12.378 -11.764   5.195  1.00  0.00     0.029 A 
HETATM   25  C12 UNL     1     -12.551 -12.301   3.945  1.00  0.00     0.046 A 
HETATM   26  N4  UNL     1     -13.582 -13.263   3.709  1.00  0.00    -0.102 NA
HETATM   27  C13 UNL     1     -11.750 -11.933   2.894  1.00  0.00     0.029 A 
HETATM   28  C14 UNL     1     -10.744 -10.992   3.125  1.00  0.00     0.031 A 
ENDBRANCH  20  22
ENDBRANCH   1  18
TORSDOF 8
ENDMDL
MODEL 5
REMARK VINA RESULT: -7.794021551      1.451      1.875
REMARK  8 active torsions:
REMARK  status: ('A' for Active; 'I' for Inactive)
REMARK    1  A    between atoms: C2_2  and  C3_4 
REMARK    2  A    between atoms: C3_4  and  N1_5 
REMARK    3  A    between atoms: C3_4  and  C8_18 
REMARK       I    between atoms: N1_5  and  C4_7 
REMARK    4  A    between atoms: C4_7  and  C5_9 
REMARK    5  A    between atoms: C5_9  and  N2_10 
REMARK    6  A    between atoms: C5_9  and  C6_14 
REMARK    7  A    between atoms: C6_14  and  C7_15 
REMARK       I    between atoms: C8_18  and  N3_20 
REMARK    8  A    between atoms: N3_20  and  C9_22 
ROOT
HETATM    1  C3  UNL     1      -7.394  -9.252   4.043  1.00  0.00     0.246 C 
ENDROOT
BRANCH   1   2
HETATM    2  C2  UNL     1      -6.331  -9.457   3.064  1.00  0.00     0.154 C 
HETATM    3  C1  UNL     1      -6.174 -10.580   2.122  1.00  0.00     0.093 C 
HETATM    4  O1  UNL     1      -5.447  -8.591   3.003  1.00  0.00    -0.296 OA
ENDBRANCH   1   2
BRANCH   1   5
HETATM    5  N1  UNL     1      -7.099  -9.891   5.326  1.00  0.00    -0.340 N 
HETATM    6  C4  UNL     1      -6.695  -9.145   6.460  1.00  0.00     0.249 C 
HETATM    7  O2  UNL     1      -6.563  -7.872   6.391  1.00  0.00    -0.271 OA
ATOM      8  H1  UNL     1      -7.188 -10.904   5.405  1.00  0.00     0.163 HD
BRANCH   6   9
HETATM    9  C5  UNL     1      -6.424  -9.797   7.741  1.00  0.00     0.284 C 
BRANCH   9  10
HETATM   10  N2  UNL     1      -7.735 -10.099   8.339  1.00  0.00    -0.066 N 
ATOM     11  H23 UNL     1      -7.749 -10.004   9.353  1.00  0.00     0.275 HD
ATOM     12  H22 UNL     1      -8.445  -9.394   8.137  1.00  0.00     0.275 HD
ATOM     13  H21 UNL     1      -7.990 -11.034   8.017  1.00  0.00     0.275 HD
ENDBRANCH   9  10
BRANCH   9  14
HETATM   14  C6  UNL     1      -5.572  -9.065   8.714  1.00  0.00     0.155 C 
BRANCH  14  15
HETATM   15  C7  UNL     1      -4.896  -9.980   9.637  1.00  0.00     0.175 C 
HETATM   16  O3  UNL     1      -3.679  -9.778   9.871  1.00  0.00    -0.648 OA
HETATM   17  O4  UNL     1      -5.552 -11.032  10.241  1.00  0.00    -0.648 OA
ENDBRANCH  14  15
ENDBRANCH   9  14
ENDBRANCH   6   9
ENDBRANCH   1   5
BRANCH   1  18
HETATM   18  C8  UNL     1      -8.734  -9.754   3.602  1.00  0.00     0.252 C 
HETATM   19  O5  UNL     1      -9.359  -9.061   2.776  1.00  0.00    -0.270 OA
HETATM   20  N3  UNL     1      -9.274 -10.951   4.089  1.00  0.00    -0.325 N 
ATOM     21  H3  UNL     1      -8.718 -11.471   4.768  1.00  0.00     0.169 HD
BRANCH  20  22
HETATM   22  C9  UNL     1     -10.533 -11.503   3.720  1.00  0.00     0.034 A 
HETATM   23  C10 UNL     1     -11.606 -11.356   4.615  1.00  0.00     0.031 A 
HETATM   24  C11 UNL     1     -12.809 -11.899   4.289  1.00  0.00     0.029 A 
HETATM   25  C12 UNL     1     -12.974 -12.578   3.109  1.00  0.00     0.046 A 
HETATM   26  N4  UNL     1     -14.243 -13.144   2.771  1.00  0.00    -0.102 NA
HETATM   27  C13 UNL     1     -11.937 -12.730   2.223  1.00  0.00     0.029 A 
HETATM   28  C14 UNL     1     -10.698 -12.176   2.553  1.00  0.00     0.031 A 
ENDBRANCH  20  22
ENDBRANCH   1  18
TORSDOF 8
ENDMDL
