MODEL 1
REMARK VINA RESULT: -8.258475702      0.000      0.000
REMARK  9 active torsions:
REMARK  status: ('A' for Active; 'I' for Inactive)
REMARK    1  A    between atoms: C1_4  and  C2_5 
REMARK    2  A    between atoms: C1_4  and  C3_8 
REMARK    3  A    between atoms: C3_8  and  C4_10 
REMARK    4  A    between atoms: C4_10  and  N3_11 
REMARK    5  A    between atoms: C4_10  and  C5_15 
REMARK    6  A    between atoms: C5_15  and  C6_16 
REMARK    7  A    between atoms: C6_16  and  O3_17 
REMARK    8  A    between atoms: C6_16  and  C7_19 
REMARK    9  A    between atoms: C7_19  and  N4_20 
ROOT
HETATM    1  C6  UNL     1      -6.959  -8.349   5.831  1.00  0.00     0.148 C 
ENDROOT
BRANCH   1   2
HETATM    2  C5  UNL     1      -6.043  -8.451   6.974  1.00  0.00     0.074 C 
BRANCH   2   3
HETATM    3  C4  UNL     1      -5.931  -7.371   7.983  1.00  0.00     0.261 C 
BRANCH   3   4
HETATM    4  C3  UNL     1      -6.498  -7.969   9.264  1.00  0.00     0.210 C 
HETATM    5  O2  UNL     1      -6.991  -7.177  10.098  1.00  0.00    -0.288 OA
BRANCH   4   6
HETATM    6  C1  UNL     1      -6.482  -9.382   9.533  1.00  0.00     0.140 C 
HETATM    7  N1  UNL     1      -7.550 -10.076   9.470  1.00  0.00    -0.392 N 
ATOM      8  H12 UNL     1      -7.539 -11.077   9.661  1.00  0.00     0.156 HD
ATOM      9  H11 UNL     1      -8.433  -9.631   9.219  1.00  0.00     0.156 HD
BRANCH   6  10
HETATM   10  C2  UNL     1      -5.225 -10.016   9.892  1.00  0.00     0.284 C 
HETATM   11  N2  UNL     1      -4.077  -9.274  10.280  1.00  0.00    -0.056 NA
HETATM   12  O1  UNL     1      -5.147 -11.263   9.858  1.00  0.00    -0.269 OA
ENDBRANCH   6  10
ENDBRANCH   4   6
ENDBRANCH   3   4
BRANCH   3  13
HETATM   13  N3  UNL     1      -6.897  -6.281   7.710  1.00  0.00    -0.068 N 
ATOM     14  H33 UNL     1      -7.573  -6.474   6.970  1.00  0.00     0.275 HD
ATOM     15  H32 UNL     1      -7.596  -6.128   8.436  1.00  0.00     0.275 HD
ATOM     16  H31 UNL     1      -6.273  -5.493   7.535  1.00  0.00     0.275 HD
ENDBRANCH   3  13
ENDBRANCH   2   3
ENDBRANCH   1   2
BRANCH   1  17
HETATM   17  O3  UNL     1      -6.330  -7.328   4.998  1.00  0.00    -0.394 OA
ATOM     18  H3  UNL     1      -6.755  -7.450   4.157  1.00  0.00     0.210 HD
ENDBRANCH   1  17
BRANCH   1  19
HETATM   19  C7  UNL     1      -7.276  -9.508   4.981  1.00  0.00     0.303 C 
BRANCH  19  20
HETATM   20  N4  UNL     1      -8.181 -10.490   5.500  1.00  0.00     0.090 N 
HETATM   21  C8  UNL     1      -9.156  -9.900   6.406  1.00  0.00     0.273 C 
HETATM   22  C9  UNL     1     -10.446 -10.672   6.312  1.00  0.00     0.041 C 
HETATM   23  C10 UNL     1     -11.099 -10.446   4.976  1.00  0.00    -0.012 C 
HETATM   24  C11 UNL     1     -12.034 -11.570   4.688  1.00  0.00     0.039 C 
HETATM   25  C13 UNL     1     -11.899  -9.161   4.942  1.00  0.00     0.241 C 
HETATM   26  C14 UNL     1     -10.014 -10.301   3.917  1.00  0.00     0.041 C 
HETATM   27  C12 UNL     1     -13.366 -10.882   4.562  1.00  0.00     0.233 C 
HETATM   28  N5  UNL     1     -13.234  -9.615   5.249  1.00  0.00    -0.074 N 
ATOM     29  H52 UNL     1     -13.964  -8.940   5.016  1.00  0.00     0.277 HD
ATOM     30  H51 UNL     1     -13.435  -9.663   6.248  1.00  0.00     0.277 HD
HETATM   31  C15 UNL     1      -8.842 -11.119   4.350  1.00  0.00     0.273 C 
ENDBRANCH  19  20
ENDBRANCH   1  19
TORSDOF 9
ENDMDL
MODEL 2
REMARK VINA RESULT: -8.167420356      3.397      7.698
REMARK  9 active torsions:
REMARK  status: ('A' for Active; 'I' for Inactive)
REMARK    1  A    between atoms: C1_4  and  C2_5 
REMARK    2  A    between atoms: C1_4  and  C3_8 
REMARK    3  A    between atoms: C3_8  and  C4_10 
REMARK    4  A    between atoms: C4_10  and  N3_11 
REMARK    5  A    between atoms: C4_10  and  C5_15 
REMARK    6  A    between atoms: C5_15  and  C6_16 
REMARK    7  A    between atoms: C6_16  and  O3_17 
REMARK    8  A    between atoms: C6_16  and  C7_19 
REMARK    9  A    between atoms: C7_19  and  N4_20 
ROOT
HETATM    1  C6  UNL     1      -9.707 -11.553   5.045  1.00  0.00     0.148 C 
ENDROOT
BRANCH   1   2
HETATM    2  C5  UNL     1     -11.009 -10.882   4.957  1.00  0.00     0.074 C 
BRANCH   2   3
HETATM    3  C4  UNL     1     -12.267 -11.566   5.341  1.00  0.00     0.261 C 
BRANCH   3   4
HETATM    4  C3  UNL     1     -13.230 -11.294   4.192  1.00  0.00     0.210 C 
HETATM    5  O2  UNL     1     -14.198 -10.534   4.422  1.00  0.00    -0.288 OA
BRANCH   4   6
HETATM    6  C1  UNL     1     -13.061 -11.872   2.886  1.00  0.00     0.140 C 
HETATM    7  N1  UNL     1     -13.035 -11.142   1.841  1.00  0.00    -0.392 N 
ATOM      8  H12 UNL     1     -12.916 -11.552   0.915  1.00  0.00     0.156 HD
ATOM      9  H11 UNL     1     -13.128 -10.129   1.925  1.00  0.00     0.156 HD
BRANCH   6  10
HETATM   10  C2  UNL     1     -12.930 -13.314   2.766  1.00  0.00     0.284 C 
HETATM   11  N2  UNL     1     -13.879 -14.218   3.317  1.00  0.00    -0.056 NA
HETATM   12  O1  UNL     1     -11.945 -13.783   2.155  1.00  0.00    -0.269 OA
ENDBRANCH   6  10
ENDBRANCH   4   6
ENDBRANCH   3   4
BRANCH   3  13
HETATM   13  N3  UNL     1     -12.936 -10.864   6.462  1.00  0.00    -0.068 N 
ATOM     14  H33 UNL     1     -12.755  -9.862   6.518  1.00  0.00     0.275 HD
ATOM     15  H32 UNL     1     -13.948 -10.771   6.375  1.00  0.00     0.275 HD
ATOM     16  H31 UNL     1     -12.618 -11.410   7.264  1.00  0.00     0.275 HD
ENDBRANCH   3  13
ENDBRANCH   2   3
ENDBRANCH   1   2
BRANCH   1  17
HETATM   17  O3  UNL     1      -9.709 -12.427   3.875  1.00  0.00    -0.394 OA
ATOM     18  H3  UNL     1      -9.134 -13.136   4.138  1.00  0.00     0.210 HD
ENDBRANCH   1  17
BRANCH   1  19
HETATM   19  C7  UNL     1      -8.442 -10.800   5.056  1.00  0.00     0.303 C 
BRANCH  19  20
HETATM   20  N4  UNL     1      -8.403  -9.570   5.789  1.00  0.00     0.090 N 
HETATM   21  C8  UNL     1      -8.701  -9.773   7.200  1.00  0.00     0.273 C 
HETATM   22  C9  UNL     1      -7.944  -8.757   8.014  1.00  0.00     0.041 C 
HETATM   23  C10 UNL     1      -6.469  -9.044   7.975  1.00  0.00    -0.012 C 
HETATM   24  C11 UNL     1      -5.715  -7.801   8.304  1.00  0.00     0.039 C 
HETATM   25  C13 UNL     1      -6.066 -10.106   8.975  1.00  0.00     0.241 C 
HETATM   26  C14 UNL     1      -6.113  -9.597   6.601  1.00  0.00     0.041 C 
HETATM   27  C12 UNL     1      -4.948  -8.184   9.539  1.00  0.00     0.233 C 
HETATM   28  N5  UNL     1      -5.639  -9.321  10.110  1.00  0.00    -0.074 N 
ATOM     29  H52 UNL     1      -5.085  -9.844  10.789  1.00  0.00     0.277 HD
ATOM     30  H51 UNL     1      -6.395  -9.068  10.745  1.00  0.00     0.277 HD
HETATM   31  C15 UNL     1      -7.060  -9.003   5.610  1.00  0.00     0.273 C 
ENDBRANCH  19  20
ENDBRANCH   1  19
TORSDOF 9
ENDMDL
MODEL 3
REMARK VINA RESULT: -8.124785494      1.936      2.619
REMARK  9 active torsions:
REMARK  status: ('A' for Active; 'I' for Inactive)
REMARK    1  A    between atoms: C1_4  and  C2_5 
REMARK    2  A    between atoms: C1_4  and  C3_8 
REMARK    3  A    between atoms: C3_8  and  C4_10 
REMARK    4  A    between atoms: C4_10  and  N3_11 
REMARK    5  A    between atoms: C4_10  and  C5_15 
REMARK    6  A    between atoms: C5_15  and  C6_16 
REMARK    7  A    between atoms: C6_16  and  O3_17 
REMARK    8  A    between atoms: C6_16  and  C7_19 
REMARK    9  A    between atoms: C7_19  and  N4_20 
ROOT
HETATM    1  C6  UNL     1      -8.345 -10.055   5.480  1.00  0.00     0.148 C 
ENDROOT
BRANCH   1   2
HETATM    2  C5  UNL     1      -7.414  -8.957   5.770  1.00  0.00     0.074 C 
BRANCH   2   3
HETATM    3  C4  UNL     1      -6.083  -9.201   6.374  1.00  0.00     0.261 C 
BRANCH   3   4
HETATM    4  C3  UNL     1      -6.210  -8.722   7.814  1.00  0.00     0.210 C 
HETATM    5  O2  UNL     1      -6.065  -7.497   8.026  1.00  0.00    -0.288 OA
BRANCH   4   6
HETATM    6  C1  UNL     1      -6.483  -9.615   8.907  1.00  0.00     0.140 C 
HETATM    7  N1  UNL     1      -7.681  -9.891   9.249  1.00  0.00    -0.392 N 
ATOM      8  H12 UNL     1      -7.875 -10.524  10.024  1.00  0.00     0.156 HD
ATOM      9  H11 UNL     1      -8.463  -9.480   8.738  1.00  0.00     0.156 HD
BRANCH   6  10
HETATM   10  C2  UNL     1      -5.369 -10.201   9.634  1.00  0.00     0.284 C 
HETATM   11  N2  UNL     1      -4.070  -9.625   9.637  1.00  0.00    -0.056 NA
HETATM   12  O1  UNL     1      -5.557 -11.252  10.284  1.00  0.00    -0.269 OA
ENDBRANCH   6  10
ENDBRANCH   4   6
ENDBRANCH   3   4
BRANCH   3  13
HETATM   13  N3  UNL     1      -5.070  -8.262   5.835  1.00  0.00    -0.068 N 
ATOM     14  H33 UNL     1      -4.099  -8.528   6.000  1.00  0.00     0.275 HD
ATOM     15  H32 UNL     1      -4.991  -8.244   4.819  1.00  0.00     0.275 HD
ATOM     16  H31 UNL     1      -5.359  -7.382   6.264  1.00  0.00     0.275 HD
ENDBRANCH   3  13
ENDBRANCH   2   3
ENDBRANCH   1   2
BRANCH   1  17
HETATM   17  O3  UNL     1      -7.548 -11.243   5.771  1.00  0.00    -0.394 OA
ATOM     18  H3  UNL     1      -6.787 -11.131   5.214  1.00  0.00     0.210 HD
ENDBRANCH   1  17
BRANCH   1  19
HETATM   19  C7  UNL     1      -9.637 -10.184   6.173  1.00  0.00     0.303 C 
BRANCH  19  20
HETATM   20  N4  UNL     1     -10.800  -9.663   5.520  1.00  0.00     0.090 N 
HETATM   21  C8  UNL     1     -10.637  -9.626   4.074  1.00  0.00     0.273 C 
HETATM   22  C9  UNL     1     -11.977  -9.838   3.422  1.00  0.00     0.041 C 
HETATM   23  C10 UNL     1     -12.451 -11.249   3.635  1.00  0.00    -0.012 C 
HETATM   24  C11 UNL     1     -13.932 -11.302   3.475  1.00  0.00     0.039 C 
HETATM   25  C13 UNL     1     -11.844 -12.212   2.637  1.00  0.00     0.241 C 
HETATM   26  C14 UNL     1     -11.994 -11.717   5.010  1.00  0.00     0.041 C 
HETATM   27  C12 UNL     1     -14.117 -12.260   2.329  1.00  0.00     0.233 C 
HETATM   28  N5  UNL     1     -12.859 -12.282   1.612  1.00  0.00    -0.074 N 
ATOM     29  H52 UNL     1     -12.756 -13.078   0.982  1.00  0.00     0.277 HD
ATOM     30  H51 UNL     1     -12.777 -11.557   0.900  1.00  0.00     0.277 HD
HETATM   31  C15 UNL     1     -11.930 -10.520   5.902  1.00  0.00     0.273 C 
ENDBRANCH  19  20
ENDBRANCH   1  19
TORSDOF 9
ENDMDL
MODEL 4
REMARK VINA RESULT: -8.074221428      3.106      7.259
REMARK  9 active torsions:
REMARK  status: ('A' for Active; 'I' for Inactive)
REMARK    1  A    between atoms: C1_4  and  C2_5 
REMARK    2  A    between atoms: C1_4  and  C3_8 
REMARK    3  A    between atoms: C3_8  and  C4_10 
REMARK    4  A    between atoms: C4_10  and  N3_11 
REMARK    5  A    between atoms: C4_10  and  C5_15 
REMARK    6  A    between atoms: C5_15  and  C6_16 
REMARK    7  A    between atoms: C6_16  and  O3_17 
REMARK    8  A    between atoms: C6_16  and  C7_19 
REMARK    9  A    between atoms: C7_19  and  N4_20 
ROOT
HETATM    1  C6  UNL     1      -9.052 -10.647   3.894  1.00  0.00     0.148 C 
ENDROOT
BRANCH   1   2
HETATM    2  C5  UNL     1     -10.066 -11.707   3.933  1.00  0.00     0.074 C 
BRANCH   2   3
HETATM    3  C4  UNL     1     -11.376 -11.560   3.255  1.00  0.00     0.261 C 
BRANCH   3   4
HETATM    4  C3  UNL     1     -12.411 -11.920   4.313  1.00  0.00     0.210 C 
HETATM    5  O2  UNL     1     -13.000 -13.018   4.190  1.00  0.00    -0.288 OA
BRANCH   4   6
HETATM    6  C1  UNL     1     -12.721 -11.055   5.419  1.00  0.00     0.140 C 
HETATM    7  N1  UNL     1     -12.482 -11.412   6.621  1.00  0.00    -0.392 N 
ATOM      8  H12 UNL     1     -12.702 -10.799   7.405  1.00  0.00     0.156 HD
ATOM      9  H11 UNL     1     -12.058 -12.321   6.808  1.00  0.00     0.156 HD
BRANCH   6  10
HETATM   10  C2  UNL     1     -13.325  -9.761   5.154  1.00  0.00     0.284 C 
HETATM   11  N2  UNL     1     -12.560  -8.621   4.784  1.00  0.00    -0.056 NA
HETATM   12  O1  UNL     1     -14.565  -9.640   5.255  1.00  0.00    -0.269 OA
ENDBRANCH   6  10
ENDBRANCH   4   6
ENDBRANCH   3   4
BRANCH   3  13
HETATM   13  N3  UNL     1     -11.585 -12.635   2.256  1.00  0.00    -0.068 N 
ATOM     14  H33 UNL     1     -12.281 -12.433   1.538  1.00  0.00     0.275 HD
ATOM     15  H32 UNL     1     -10.816 -12.777   1.602  1.00  0.00     0.275 HD
ATOM     16  H31 UNL     1     -11.798 -13.433   2.856  1.00  0.00     0.275 HD
ENDBRANCH   3  13
ENDBRANCH   2   3
ENDBRANCH   1   2
BRANCH   1  17
HETATM   17  O3  UNL     1      -9.854  -9.428   3.862  1.00  0.00    -0.394 OA
ATOM     18  H3  UNL     1      -9.924  -9.244   2.932  1.00  0.00     0.210 HD
ENDBRANCH   1  17
BRANCH   1  19
HETATM   19  C7  UNL     1      -8.035 -10.503   4.949  1.00  0.00     0.303 C 
BRANCH  19  20
HETATM   20  N4  UNL     1      -8.117  -9.357   5.803  1.00  0.00     0.090 N 
HETATM   21  C8  UNL     1      -8.456  -9.726   7.171  1.00  0.00     0.273 C 
HETATM   22  C9  UNL     1      -7.810  -8.750   8.118  1.00  0.00     0.041 C 
HETATM   23  C10 UNL     1      -6.317  -8.928   8.121  1.00  0.00    -0.012 C 
HETATM   24  C11 UNL     1      -5.672  -7.676   8.609  1.00  0.00     0.039 C 
HETATM   25  C13 UNL     1      -5.877 -10.057   9.027  1.00  0.00     0.241 C 
HETATM   26  C14 UNL     1      -5.866  -9.308   6.716  1.00  0.00     0.041 C 
HETATM   27  C12 UNL     1      -4.928  -8.131   9.835  1.00  0.00     0.233 C 
HETATM   28  N5  UNL     1      -5.556  -9.367  10.254  1.00  0.00    -0.074 N 
ATOM     29  H52 UNL     1      -4.992  -9.918  10.902  1.00  0.00     0.277 HD
ATOM     30  H51 UNL     1      -6.354  -9.235  10.875  1.00  0.00     0.277 HD
HETATM   31  C15 UNL     1      -6.814  -8.681   5.747  1.00  0.00     0.273 C 
ENDBRANCH  19  20
ENDBRANCH   1  19
TORSDOF 9
ENDMDL
MODEL 5
REMARK VINA RESULT: -8.070719047      1.247      2.609
REMARK  9 active torsions:
REMARK  status: ('A' for Active; 'I' for Inactive)
REMARK    1  A    between atoms: C1_4  and  C2_5 
REMARK    2  A    between atoms: C1_4  and  C3_8 
REMARK    3  A    between atoms: C3_8  and  C4_10 
REMARK    4  A    between atoms: C4_10  and  N3_11 
REMARK    5  A    between atoms: C4_10  and  C5_15 
REMARK    6  A    between atoms: C5_15  and  C6_16 
REMARK    7  A    between atoms: C6_16  and  O3_17 
REMARK    8  A    between atoms: C6_16  and  C7_19 
REMARK    9  A    between atoms: C7_19  and  N4_20 
ROOT
HETATM    1  C6  UNL     1      -7.400  -9.723   6.560  1.00  0.00     0.148 C 
ENDROOT
BRANCH   1   2
HETATM    2  C5  UNL     1      -6.473 -10.205   7.593  1.00  0.00     0.074 C 
BRANCH   2   3
HETATM    3  C4  UNL     1      -6.621  -9.818   9.016  1.00  0.00     0.261 C 
BRANCH   3   4
HETATM    4  C3  UNL     1      -5.383  -8.990   9.330  1.00  0.00     0.210 C 
HETATM    5  O2  UNL     1      -4.317  -9.609   9.547  1.00  0.00    -0.288 OA
BRANCH   4   6
HETATM    6  C1  UNL     1      -5.405  -7.552   9.384  1.00  0.00     0.140 C 
HETATM    7  N1  UNL     1      -4.352  -6.887   9.660  1.00  0.00    -0.392 N 
ATOM      8  H12 UNL     1      -4.368  -5.869   9.699  1.00  0.00     0.156 HD
ATOM      9  H11 UNL     1      -3.474  -7.375   9.841  1.00  0.00     0.156 HD
BRANCH   6  10
HETATM   10  C2  UNL     1      -6.655  -6.857   9.127  1.00  0.00     0.284 C 
HETATM   11  N2  UNL     1      -7.039  -6.429   7.827  1.00  0.00    -0.056 NA
HETATM   12  O1  UNL     1      -7.425  -6.624  10.083  1.00  0.00    -0.269 OA
ENDBRANCH   6  10
ENDBRANCH   4   6
ENDBRANCH   3   4
BRANCH   3  13
HETATM   13  N3  UNL     1      -6.432 -10.986   9.910  1.00  0.00    -0.068 N 
ATOM     14  H33 UNL     1      -6.188 -10.760  10.874  1.00  0.00     0.275 HD
ATOM     15  H32 UNL     1      -7.284 -11.494  10.146  1.00  0.00     0.275 HD
ATOM     16  H31 UNL     1      -5.733 -11.524   9.398  1.00  0.00     0.275 HD
ENDBRANCH   3  13
ENDBRANCH   2   3
ENDBRANCH   1   2
BRANCH   1  17
HETATM   17  O3  UNL     1      -6.665  -8.618   5.952  1.00  0.00    -0.394 OA
ATOM     18  H3  UNL     1      -7.343  -7.968   5.805  1.00  0.00     0.210 HD
ENDBRANCH   1  17
BRANCH   1  19
HETATM   19  C7  UNL     1      -7.889 -10.600   5.484  1.00  0.00     0.303 C 
BRANCH  19  20
HETATM   20  N4  UNL     1      -9.046 -11.401   5.749  1.00  0.00     0.090 N 
HETATM   21  C8  UNL     1     -10.004 -10.703   6.595  1.00  0.00     0.273 C 
HETATM   22  C9  UNL     1     -11.396 -11.152   6.236  1.00  0.00     0.041 C 
HETATM   23  C10 UNL     1     -11.778 -10.648   4.872  1.00  0.00    -0.012 C 
HETATM   24  C11 UNL     1     -12.871 -11.497   4.320  1.00  0.00     0.039 C 
HETATM   25  C13 UNL     1     -12.277  -9.220   4.908  1.00  0.00     0.241 C 
HETATM   26  C14 UNL     1     -10.538 -10.643   3.987  1.00  0.00     0.041 C 
HETATM   27  C12 UNL     1     -13.996 -10.518   4.120  1.00  0.00     0.233 C 
HETATM   28  N5  UNL     1     -13.709  -9.390   4.981  1.00  0.00    -0.074 N 
ATOM     29  H52 UNL     1     -14.238  -8.549   4.751  1.00  0.00     0.277 HD
ATOM     30  H51 UNL     1     -14.065  -9.495   5.932  1.00  0.00     0.277 HD
HETATM   31  C15 UNL     1      -9.641 -11.744   4.451  1.00  0.00     0.273 C 
ENDBRANCH  19  20
ENDBRANCH   1  19
TORSDOF 9
ENDMDL
