MODEL 1
REMARK VINA RESULT: -7.729257166      0.000      0.000
REMARK  9 active torsions:
REMARK  status: ('A' for Active; 'I' for Inactive)
REMARK    1  A    between atoms: C3_6  and  C4_7 
REMARK    2  A    between atoms: C4_7  and  O2_8 
REMARK    3  A    between atoms: C4_7  and  C5_10 
REMARK    4  A    between atoms: C5_10  and  O3_11 
REMARK    5  A    between atoms: C5_10  and  N2_13 
REMARK    6  A    between atoms: N2_13  and  O4_14 
REMARK    7  A    between atoms: O4_14  and  C6_15 
REMARK    8  A    between atoms: C6_15  and  C7_16 
REMARK    9  A    between atoms: C7_16  and  C8_17 
ROOT
HETATM    1  C4  UNL     1     -11.735 -11.638   5.239  1.00  0.00     0.205 C 
ENDROOT
BRANCH   1   2
HETATM    2  C3  UNL     1     -12.355 -11.729   3.917  1.00  0.00     0.058 A 
HETATM    3  C2  UNL     1     -12.180 -10.810   2.914  1.00  0.00     0.108 A 
HETATM    4  N1  UNL     1     -12.800 -10.973   1.704  1.00  0.00    -0.318 N 
HETATM    5  C1  UNL     1     -13.586 -12.012   1.452  1.00  0.00     0.326 A 
ATOM      6  H1  UNL     1     -12.653 -10.276   0.975  1.00  0.00     0.170 HD
HETATM    7  O1  UNL     1     -14.143 -12.126   0.315  1.00  0.00    -0.247 OA
HETATM    8  N3  UNL     1     -13.777 -12.920   2.402  1.00  0.00    -0.275 N 
HETATM    9  C14 UNL     1     -13.193 -12.810   3.608  1.00  0.00     0.259 A 
ATOM     10  H3  UNL     1     -14.381 -13.720   2.213  1.00  0.00     0.173 HD
HETATM   11  O5  UNL     1     -13.408 -13.691   4.457  1.00  0.00    -0.267 OA
ENDBRANCH   1   2
BRANCH   1  12
HETATM   12  O2  UNL     1     -12.670 -11.614   6.276  1.00  0.00    -0.387 OA
ATOM     13  H2  UNL     1     -12.371 -12.074   7.052  1.00  0.00     0.210 HD
ENDBRANCH   1  12
BRANCH   1  14
HETATM   14  C5  UNL     1     -10.796 -10.497   5.449  1.00  0.00     0.271 C 
BRANCH  14  15
HETATM   15  O3  UNL     1     -11.421  -9.298   5.725  1.00  0.00    -0.374 OA
ATOM     16  H3  UNL     1     -10.850  -8.541   5.666  1.00  0.00     0.212 HD
ENDBRANCH  14  15
BRANCH  14  17
HETATM   17  N2  UNL     1      -9.713 -10.792   6.372  1.00  0.00    -0.066 NA
BRANCH  17  18
HETATM   18  O4  UNL     1      -8.557 -11.008   5.745  1.00  0.00    -0.284 OA
BRANCH  18  19
HETATM   19  C6  UNL     1      -7.806  -9.854   5.748  1.00  0.00     0.200 C 
BRANCH  19  20
HETATM   20  C7  UNL     1      -6.586  -9.953   6.630  1.00  0.00     0.066 C 
BRANCH  20  21
HETATM   21  C8  UNL     1      -6.612  -8.790   7.572  1.00  0.00    -0.056 A 
HETATM   22  C9  UNL     1      -5.553  -8.495   8.410  1.00  0.00     0.007 A 
HETATM   23  C10 UNL     1      -5.583  -7.422   9.277  1.00  0.00     0.001 A 
HETATM   24  C11 UNL     1      -6.704  -6.619   9.307  1.00  0.00     0.000 A 
HETATM   25  C12 UNL     1      -7.782  -6.872   8.492  1.00  0.00     0.001 A 
HETATM   26  C13 UNL     1      -7.721  -7.949   7.640  1.00  0.00     0.007 A 
ENDBRANCH  20  21
ENDBRANCH  19  20
ENDBRANCH  18  19
ENDBRANCH  17  18
ENDBRANCH  14  17
ENDBRANCH   1  14
TORSDOF 9
ENDMDL
MODEL 2
REMARK VINA RESULT: -7.727294524      2.153      2.530
REMARK  9 active torsions:
REMARK  status: ('A' for Active; 'I' for Inactive)
REMARK    1  A    between atoms: C3_6  and  C4_7 
REMARK    2  A    between atoms: C4_7  and  O2_8 
REMARK    3  A    between atoms: C4_7  and  C5_10 
REMARK    4  A    between atoms: C5_10  and  O3_11 
REMARK    5  A    between atoms: C5_10  and  N2_13 
REMARK    6  A    between atoms: N2_13  and  O4_14 
REMARK    7  A    between atoms: O4_14  and  C6_15 
REMARK    8  A    between atoms: C6_15  and  C7_16 
REMARK    9  A    between atoms: C7_16  and  C8_17 
ROOT
HETATM    1  C4  UNL     1     -10.061 -11.224   6.125  1.00  0.00     0.205 C 
ENDROOT
BRANCH   1   2
HETATM    2  C3  UNL     1     -11.268 -10.614   5.566  1.00  0.00     0.058 A 
HETATM    3  C2  UNL     1     -11.382  -9.289   5.231  1.00  0.00     0.108 A 
HETATM    4  N1  UNL     1     -12.551  -8.801   4.713  1.00  0.00    -0.318 N 
HETATM    5  C1  UNL     1     -13.610  -9.575   4.515  1.00  0.00     0.326 A 
ATOM      6  H1  UNL     1     -12.610  -7.811   4.471  1.00  0.00     0.170 HD
HETATM    7  O1  UNL     1     -14.677  -9.081   4.031  1.00  0.00    -0.247 OA
HETATM    8  N3  UNL     1     -13.532 -10.863   4.829  1.00  0.00    -0.275 N 
HETATM    9  C14 UNL     1     -12.410 -11.396   5.341  1.00  0.00     0.259 A 
ATOM     10  H3  UNL     1     -14.344 -11.463   4.679  1.00  0.00     0.173 HD
HETATM   11  O5  UNL     1     -12.396 -12.607   5.615  1.00  0.00    -0.267 OA
ENDBRANCH   1   2
BRANCH   1  12
HETATM   12  O2  UNL     1      -9.415 -10.401   7.049  1.00  0.00    -0.387 OA
ATOM     13  H2  UNL     1      -9.767 -10.486   7.928  1.00  0.00     0.210 HD
ENDBRANCH   1  12
BRANCH   1  14
HETATM   14  C5  UNL     1      -9.041 -11.687   5.139  1.00  0.00     0.271 C 
BRANCH  14  15
HETATM   15  O3  UNL     1      -9.573 -12.303   4.025  1.00  0.00    -0.374 OA
ATOM     16  H3  UNL     1      -9.169 -13.136   3.812  1.00  0.00     0.212 HD
ENDBRANCH  14  15
BRANCH  14  17
HETATM   17  N2  UNL     1      -8.051 -10.677   4.803  1.00  0.00    -0.066 NA
BRANCH  17  18
HETATM   18  O4  UNL     1      -6.904 -10.854   5.457  1.00  0.00    -0.284 OA
BRANCH  18  19
HETATM   19  C6  UNL     1      -6.130  -9.720   5.349  1.00  0.00     0.200 C 
BRANCH  19  20
HETATM   20  C7  UNL     1      -6.893  -8.459   5.674  1.00  0.00     0.066 C 
BRANCH  20  21
HETATM   21  C8  UNL     1      -6.582  -8.093   7.092  1.00  0.00    -0.056 A 
HETATM   22  C9  UNL     1      -5.528  -8.657   7.786  1.00  0.00     0.007 A 
HETATM   23  C10 UNL     1      -5.247  -8.316   9.093  1.00  0.00     0.001 A 
HETATM   24  C11 UNL     1      -6.042  -7.383   9.726  1.00  0.00     0.000 A 
HETATM   25  C12 UNL     1      -7.101  -6.794   9.076  1.00  0.00     0.001 A 
HETATM   26  C13 UNL     1      -7.355  -7.156   7.774  1.00  0.00     0.007 A 
ENDBRANCH  20  21
ENDBRANCH  19  20
ENDBRANCH  18  19
ENDBRANCH  17  18
ENDBRANCH  14  17
ENDBRANCH   1  14
TORSDOF 9
ENDMDL
MODEL 3
REMARK VINA RESULT: -7.713527452      0.830      1.396
REMARK  9 active torsions:
REMARK  status: ('A' for Active; 'I' for Inactive)
REMARK    1  A    between atoms: C3_6  and  C4_7 
REMARK    2  A    between atoms: C4_7  and  O2_8 
REMARK    3  A    between atoms: C4_7  and  C5_10 
REMARK    4  A    between atoms: C5_10  and  O3_11 
REMARK    5  A    between atoms: C5_10  and  N2_13 
REMARK    6  A    between atoms: N2_13  and  O4_14 
REMARK    7  A    between atoms: O4_14  and  C6_15 
REMARK    8  A    between atoms: C6_15  and  C7_16 
REMARK    9  A    between atoms: C7_16  and  C8_17 
ROOT
HETATM    1  C4  UNL     1     -11.699 -11.496   5.218  1.00  0.00     0.205 C 
ENDROOT
BRANCH   1   2
HETATM    2  C3  UNL     1     -12.317 -11.626   3.898  1.00  0.00     0.058 A 
HETATM    3  C2  UNL     1     -12.141 -10.737   2.869  1.00  0.00     0.108 A 
HETATM    4  N1  UNL     1     -12.759 -10.936   1.664  1.00  0.00    -0.318 N 
HETATM    5  C1  UNL     1     -13.544 -11.982   1.441  1.00  0.00     0.326 A 
ATOM      6  H1  UNL     1     -12.611 -10.260   0.914  1.00  0.00     0.170 HD
HETATM    7  O1  UNL     1     -14.099 -12.130   0.307  1.00  0.00    -0.247 OA
HETATM    8  N3  UNL     1     -13.736 -12.862   2.417  1.00  0.00    -0.275 N 
HETATM    9  C14 UNL     1     -13.154 -12.717   3.619  1.00  0.00     0.259 A 
ATOM     10  H3  UNL     1     -14.339 -13.668   2.250  1.00  0.00     0.173 HD
HETATM   11  O5  UNL     1     -13.369 -13.572   4.493  1.00  0.00    -0.267 OA
ENDBRANCH   1   2
BRANCH   1  12
HETATM   12  O2  UNL     1     -12.634 -11.489   6.256  1.00  0.00    -0.387 OA
ATOM     13  H2  UNL     1     -12.253 -11.246   7.093  1.00  0.00     0.210 HD
ENDBRANCH   1  12
BRANCH   1  14
HETATM   14  C5  UNL     1     -10.798 -10.322   5.410  1.00  0.00     0.271 C 
BRANCH  14  15
HETATM   15  O3  UNL     1     -11.459  -9.113   5.491  1.00  0.00    -0.374 OA
ATOM     16  H3  UNL     1     -11.370  -8.570   4.717  1.00  0.00     0.212 HD
ENDBRANCH  14  15
BRANCH  14  17
HETATM   17  N2  UNL     1      -9.822 -10.501   6.472  1.00  0.00    -0.066 NA
BRANCH  17  18
HETATM   18  O4  UNL     1      -8.614 -10.810   6.003  1.00  0.00    -0.284 OA
BRANCH  18  19
HETATM   19  C6  UNL     1      -7.732  -9.793   6.291  1.00  0.00     0.200 C 
BRANCH  19  20
HETATM   20  C7  UNL     1      -8.159  -8.967   7.479  1.00  0.00     0.066 C 
BRANCH  20  21
HETATM   21  C8  UNL     1      -7.005  -8.907   8.429  1.00  0.00    -0.056 A 
HETATM   22  C9  UNL     1      -6.552  -7.716   8.967  1.00  0.00     0.007 A 
HETATM   23  C10 UNL     1      -5.487  -7.668   9.843  1.00  0.00     0.001 A 
HETATM   24  C11 UNL     1      -4.855  -8.843  10.193  1.00  0.00     0.000 A 
HETATM   25  C12 UNL     1      -5.270 -10.051   9.684  1.00  0.00     0.001 A 
HETATM   26  C13 UNL     1      -6.334 -10.066   8.814  1.00  0.00     0.007 A 
ENDBRANCH  20  21
ENDBRANCH  19  20
ENDBRANCH  18  19
ENDBRANCH  17  18
ENDBRANCH  14  17
ENDBRANCH   1  14
TORSDOF 9
ENDMDL
MODEL 4
REMARK VINA RESULT: -7.658395818      1.161      1.804
REMARK  9 active torsions:
REMARK  status: ('A' for Active; 'I' for Inactive)
REMARK    1  A    between atoms: C3_6  and  C4_7 
REMARK    2  A    between atoms: C4_7  and  O2_8 
REMARK    3  A    between atoms: C4_7  and  C5_10 
REMARK    4  A    between atoms: C5_10  and  O3_11 
REMARK    5  A    between atoms: C5_10  and  N2_13 
REMARK    6  A    between atoms: N2_13  and  O4_14 
REMARK    7  A    between atoms: O4_14  and  C6_15 
REMARK    8  A    between atoms: C6_15  and  C7_16 
REMARK    9  A    between atoms: C7_16  and  C8_17 
ROOT
HETATM    1  C4  UNL     1     -11.793 -11.312   5.112  1.00  0.00     0.205 C 
ENDROOT
BRANCH   1   2
HETATM    2  C3  UNL     1     -12.380 -11.483   3.783  1.00  0.00     0.058 A 
HETATM    3  C2  UNL     1     -12.234 -10.592   2.750  1.00  0.00     0.108 A 
HETATM    4  N1  UNL     1     -12.819 -10.832   1.536  1.00  0.00    -0.318 N 
HETATM    5  C1  UNL     1     -13.543 -11.920   1.308  1.00  0.00     0.326 A 
ATOM      6  H1  UNL     1     -12.694 -10.154   0.784  1.00  0.00     0.170 HD
HETATM    7  O1  UNL     1     -14.070 -12.104   0.165  1.00  0.00    -0.247 OA
HETATM    8  N3  UNL     1     -13.705 -12.803   2.287  1.00  0.00    -0.275 N 
HETATM    9  C14 UNL     1     -13.153 -12.618   3.498  1.00  0.00     0.259 A 
ATOM     10  H3  UNL     1     -14.261 -13.640   2.115  1.00  0.00     0.173 HD
HETATM   11  O5  UNL     1     -13.338 -13.478   4.374  1.00  0.00    -0.267 OA
ENDBRANCH   1   2
BRANCH   1  12
HETATM   12  O2  UNL     1     -12.217 -10.141   5.745  1.00  0.00    -0.387 OA
ATOM     13  H2  UNL     1     -12.648 -10.307   6.576  1.00  0.00     0.210 HD
ENDBRANCH   1  12
BRANCH   1  14
HETATM   14  C5  UNL     1     -10.303 -11.352   5.183  1.00  0.00     0.271 C 
BRANCH  14  15
HETATM   15  O3  UNL     1      -9.723 -12.261   4.322  1.00  0.00    -0.374 OA
ATOM     16  H3  UNL     1      -9.210 -11.864   3.629  1.00  0.00     0.212 HD
ENDBRANCH  14  15
BRANCH  14  17
HETATM   17  N2  UNL     1      -9.678 -10.042   5.122  1.00  0.00    -0.066 NA
BRANCH  17  18
HETATM   18  O4  UNL     1      -9.668  -9.429   6.305  1.00  0.00    -0.284 OA
BRANCH  18  19
HETATM   19  C6  UNL     1      -8.411  -9.515   6.859  1.00  0.00     0.200 C 
BRANCH  19  20
HETATM   20  C7  UNL     1      -8.028  -8.278   7.635  1.00  0.00     0.066 C 
BRANCH  20  21
HETATM   21  C8  UNL     1      -6.879  -8.639   8.525  1.00  0.00    -0.056 A 
HETATM   22  C9  UNL     1      -6.559  -9.950   8.823  1.00  0.00     0.007 A 
HETATM   23  C10 UNL     1      -5.499 -10.275   9.644  1.00  0.00     0.001 A 
HETATM   24  C11 UNL     1      -4.734  -9.261  10.182  1.00  0.00     0.000 A 
HETATM   25  C12 UNL     1      -5.013  -7.942   9.914  1.00  0.00     0.001 A 
HETATM   26  C13 UNL     1      -6.077  -7.650   9.093  1.00  0.00     0.007 A 
ENDBRANCH  20  21
ENDBRANCH  19  20
ENDBRANCH  18  19
ENDBRANCH  17  18
ENDBRANCH  14  17
ENDBRANCH   1  14
TORSDOF 9
ENDMDL
MODEL 5
REMARK VINA RESULT: -7.583537302      1.445      1.754
REMARK  9 active torsions:
REMARK  status: ('A' for Active; 'I' for Inactive)
REMARK    1  A    between atoms: C3_6  and  C4_7 
REMARK    2  A    between atoms: C4_7  and  O2_8 
REMARK    3  A    between atoms: C4_7  and  C5_10 
REMARK    4  A    between atoms: C5_10  and  O3_11 
REMARK    5  A    between atoms: C5_10  and  N2_13 
REMARK    6  A    between atoms: N2_13  and  O4_14 
REMARK    7  A    between atoms: O4_14  and  C6_15 
REMARK    8  A    between atoms: C6_15  and  C7_16 
REMARK    9  A    between atoms: C7_16  and  C8_17 
ROOT
HETATM    1  C4  UNL     1     -12.099 -12.005   4.694  1.00  0.00     0.205 C 
ENDROOT
BRANCH   1   2
HETATM    2  C3  UNL     1     -12.175 -11.453   3.341  1.00  0.00     0.058 A 
HETATM    3  C2  UNL     1     -12.285 -10.116   3.055  1.00  0.00     0.108 A 
HETATM    4  N1  UNL     1     -12.350  -9.686   1.757  1.00  0.00    -0.318 N 
HETATM    5  C1  UNL     1     -12.311 -10.530   0.734  1.00  0.00     0.326 A 
ATOM      6  H1  UNL     1     -12.431  -8.687   1.570  1.00  0.00     0.170 HD
HETATM    7  O1  UNL     1     -12.374 -10.088  -0.457  1.00  0.00    -0.247 OA
HETATM    8  N3  UNL     1     -12.205 -11.831   0.977  1.00  0.00    -0.275 N 
HETATM    9  C14 UNL     1     -12.137 -12.309   2.231  1.00  0.00     0.259 A 
ATOM     10  H3  UNL     1     -12.174 -12.484   0.193  1.00  0.00     0.173 HD
HETATM   11  O5  UNL     1     -12.038 -13.536   2.397  1.00  0.00    -0.267 OA
ENDBRANCH   1   2
BRANCH   1  12
HETATM   12  O2  UNL     1     -13.084 -12.964   4.944  1.00  0.00    -0.387 OA
ATOM     13  H2  UNL     1     -12.723 -13.822   5.133  1.00  0.00     0.210 HD
ENDBRANCH   1  12
BRANCH   1  14
HETATM   14  C5  UNL     1     -12.134 -11.017   5.811  1.00  0.00     0.271 C 
BRANCH  14  15
HETATM   15  O3  UNL     1     -12.688 -11.505   6.978  1.00  0.00    -0.374 OA
ATOM     16  H3  UNL     1     -13.061 -10.836   7.539  1.00  0.00     0.212 HD
ENDBRANCH  14  15
BRANCH  14  17
HETATM   17  N2  UNL     1     -10.869 -10.337   6.032  1.00  0.00    -0.066 NA
BRANCH  17  18
HETATM   18  O4  UNL     1      -9.935 -11.149   6.524  1.00  0.00    -0.284 OA
BRANCH  18  19
HETATM   19  C6  UNL     1      -8.720 -10.502   6.540  1.00  0.00     0.200 C 
BRANCH  19  20
HETATM   20  C7  UNL     1      -8.858  -9.004   6.662  1.00  0.00     0.066 C 
BRANCH  20  21
HETATM   21  C8  UNL     1      -7.913  -8.547   7.729  1.00  0.00    -0.056 A 
HETATM   22  C9  UNL     1      -7.038  -9.411   8.360  1.00  0.00     0.007 A 
HETATM   23  C10 UNL     1      -6.170  -8.984   9.344  1.00  0.00     0.001 A 
HETATM   24  C11 UNL     1      -6.174  -7.654   9.707  1.00  0.00     0.000 A 
HETATM   25  C12 UNL     1      -7.026  -6.756   9.108  1.00  0.00     0.001 A 
HETATM   26  C13 UNL     1      -7.879  -7.213   8.132  1.00  0.00     0.007 A 
ENDBRANCH  20  21
ENDBRANCH  19  20
ENDBRANCH  18  19
ENDBRANCH  17  18
ENDBRANCH  14  17
ENDBRANCH   1  14
TORSDOF 9
ENDMDL
