MODEL 1
REMARK VINA RESULT: -6.975307727      0.000      0.000
REMARK  8 active torsions:
REMARK  status: ('A' for Active; 'I' for Inactive)
REMARK    1  A    between atoms: O1_2  and  C2_3 
REMARK    2  A    between atoms: C5_6  and  S1_7 
REMARK    3  A    between atoms: S1_7  and  N1_10 
REMARK    4  A    between atoms: N1_10  and  C6_12 
REMARK    5  A    between atoms: C6_12  and  C8_14 
REMARK    6  A    between atoms: C8_14  and  C9_15 
REMARK    7  A    between atoms: C9_15  and  O4_16 
REMARK    8  A    between atoms: C9_15  and  N2_18 
REMARK       I    between atoms: N2_18  and  C10_21 
REMARK       I    between atoms: C10_21  and  N3_22 
REMARK       I    between atoms: C10_21  and  N4_26 
ROOT
HETATM    1  C8  UNL     1      -5.414  -8.998   5.442  1.00  0.00     0.086 C 
ENDROOT
BRANCH   1   2
HETATM    2  C6  UNL     1      -6.527  -9.787   4.861  1.00  0.00     0.093 C 
HETATM    3  C7  UNL     1      -5.978 -10.307   3.509  1.00  0.00     0.033 C 
BRANCH   2   4
HETATM    4  N1  UNL     1      -7.794  -9.247   4.754  1.00  0.00    -0.311 N 
ATOM      5  H1  UNL     1      -7.971  -8.553   4.027  1.00  0.00     0.172 HD
BRANCH   4   6
HETATM    6  S1  UNL     1      -9.045  -9.685   5.765  1.00  0.00     0.259 S 
HETATM    7  O2  UNL     1      -9.222  -8.708   6.909  1.00  0.00    -0.201 OA
HETATM    8  O3  UNL     1      -8.626 -10.980   6.472  1.00  0.00    -0.201 OA
BRANCH   6   9
HETATM    9  C5  UNL     1     -10.568 -10.046   5.013  1.00  0.00     0.079 A 
HETATM   10  C4  UNL     1     -11.635  -9.177   5.016  1.00  0.00     0.028 A 
HETATM   11  C3  UNL     1     -12.833  -9.504   4.396  1.00  0.00     0.038 A 
HETATM   12  C2  UNL     1     -12.995 -10.712   3.754  1.00  0.00     0.068 A 
HETATM   13  C12 UNL     1     -11.918 -11.594   3.748  1.00  0.00     0.038 A 
HETATM   14  C11 UNL     1     -10.753 -11.244   4.367  1.00  0.00     0.028 A 
BRANCH  12  15
HETATM   15  O1  UNL     1     -14.187 -11.085   3.112  1.00  0.00    -0.356 OA
HETATM   16  C1  UNL     1     -14.224 -12.271   2.347  1.00  0.00     0.210 C 
ENDBRANCH  12  15
ENDBRANCH   6   9
ENDBRANCH   4   6
ENDBRANCH   2   4
ENDBRANCH   1   2
BRANCH   1  17
HETATM   17  C9  UNL     1      -5.502  -8.635   6.882  1.00  0.00     0.325 C 
BRANCH  17  18
HETATM   18  O4  UNL     1      -6.342  -7.484   6.928  1.00  0.00    -0.369 OA
ATOM     19  H4  UNL     1      -6.873  -7.592   7.709  1.00  0.00     0.212 HD
ENDBRANCH  17  18
BRANCH  17  20
HETATM   20  N2  UNL     1      -6.170  -9.599   7.721  1.00  0.00     0.005 N 
HETATM   21  C10 UNL     1      -6.877  -9.017   8.836  1.00  0.00     0.578 C 
HETATM   22  N3  UNL     1      -7.584 -10.097   9.526  1.00  0.00    -0.026 N 
HETATM   23  N4  UNL     1      -5.869  -8.563   9.796  1.00  0.00    -0.026 N 
ATOM     24  H33 UNL     1      -8.193 -10.632   8.907  1.00  0.00     0.278 HD
ATOM     25  H32 UNL     1      -6.968 -10.861   9.803  1.00  0.00     0.278 HD
ATOM     26  H31 UNL     1      -8.084  -9.685  10.314  1.00  0.00     0.278 HD
ATOM     27  H43 UNL     1      -5.222  -9.301  10.074  1.00  0.00     0.278 HD
ATOM     28  H42 UNL     1      -5.181  -7.933   9.386  1.00  0.00     0.278 HD
ATOM     29  H41 UNL     1      -6.369  -8.151  10.584  1.00  0.00     0.278 HD
ATOM     30  H22 UNL     1      -6.796 -10.184   7.167  1.00  0.00     0.284 HD
ATOM     31  H21 UNL     1      -5.513 -10.309   8.044  1.00  0.00     0.284 HD
ENDBRANCH  17  20
ENDBRANCH   1  17
TORSDOF 8
ENDMDL
MODEL 2
REMARK VINA RESULT: -6.870226990      2.599      4.010
REMARK  8 active torsions:
REMARK  status: ('A' for Active; 'I' for Inactive)
REMARK    1  A    between atoms: O1_2  and  C2_3 
REMARK    2  A    between atoms: C5_6  and  S1_7 
REMARK    3  A    between atoms: S1_7  and  N1_10 
REMARK    4  A    between atoms: N1_10  and  C6_12 
REMARK    5  A    between atoms: C6_12  and  C8_14 
REMARK    6  A    between atoms: C8_14  and  C9_15 
REMARK    7  A    between atoms: C9_15  and  O4_16 
REMARK    8  A    between atoms: C9_15  and  N2_18 
REMARK       I    between atoms: N2_18  and  C10_21 
REMARK       I    between atoms: C10_21  and  N3_22 
REMARK       I    between atoms: C10_21  and  N4_26 
ROOT
HETATM    1  C8  UNL     1      -7.941  -8.487   7.485  1.00  0.00     0.086 C 
ENDROOT
BRANCH   1   2
HETATM    2  C6  UNL     1      -6.897  -7.490   7.149  1.00  0.00     0.093 C 
HETATM    3  C7  UNL     1      -7.301  -6.217   7.934  1.00  0.00     0.033 C 
BRANCH   2   4
HETATM    4  N1  UNL     1      -6.570  -7.227   5.833  1.00  0.00    -0.311 N 
ATOM      5  H1  UNL     1      -6.801  -6.314   5.443  1.00  0.00     0.172 HD
BRANCH   4   6
HETATM    6  S1  UNL     1      -5.813  -8.347   4.856  1.00  0.00     0.259 S 
HETATM    7  O2  UNL     1      -4.710  -9.085   5.584  1.00  0.00    -0.201 OA
HETATM    8  O3  UNL     1      -5.058  -7.568   3.772  1.00  0.00    -0.201 OA
BRANCH   6   9
HETATM    9  C5  UNL     1      -6.839  -9.452   3.995  1.00  0.00     0.079 A 
HETATM   10  C4  UNL     1      -6.356 -10.489   3.229  1.00  0.00     0.028 A 
HETATM   11  C3  UNL     1      -7.213 -11.353   2.563  1.00  0.00     0.038 A 
HETATM   12  C2  UNL     1      -8.580 -11.203   2.644  1.00  0.00     0.068 A 
HETATM   13  C12 UNL     1      -9.074 -10.156   3.418  1.00  0.00     0.038 A 
HETATM   14  C11 UNL     1      -8.205  -9.322   4.061  1.00  0.00     0.028 A 
BRANCH  12  15
HETATM   15  O1  UNL     1      -9.485 -12.053   1.989  1.00  0.00    -0.356 OA
HETATM   16  C1  UNL     1     -10.855 -12.004   2.326  1.00  0.00     0.210 C 
ENDBRANCH  12  15
ENDBRANCH   6   9
ENDBRANCH   4   6
ENDBRANCH   2   4
ENDBRANCH   1   2
BRANCH   1  17
HETATM   17  C9  UNL     1      -7.567  -9.599   8.400  1.00  0.00     0.325 C 
BRANCH  17  18
HETATM   18  O4  UNL     1      -6.560 -10.333   7.706  1.00  0.00    -0.369 OA
ATOM     19  H4  UNL     1      -6.782 -10.253   6.785  1.00  0.00     0.212 HD
ENDBRANCH  17  18
BRANCH  17  20
HETATM   20  N2  UNL     1      -6.931  -9.196   9.630  1.00  0.00     0.005 N 
HETATM   21  C10 UNL     1      -5.697  -9.890   9.907  1.00  0.00     0.578 C 
HETATM   22  N3  UNL     1      -5.122  -9.306  11.120  1.00  0.00    -0.026 N 
HETATM   23  N4  UNL     1      -6.047 -11.259  10.288  1.00  0.00    -0.026 N 
ATOM     24  H33 UNL     1      -5.003  -8.294  11.056  1.00  0.00     0.278 HD
ATOM     25  H32 UNL     1      -5.767  -9.315  11.910  1.00  0.00     0.278 HD
ATOM     26  H31 UNL     1      -4.248  -9.796  11.316  1.00  0.00     0.278 HD
ATOM     27  H43 UNL     1      -6.711 -11.302  11.060  1.00  0.00     0.278 HD
ATOM     28  H42 UNL     1      -6.624 -11.733   9.593  1.00  0.00     0.278 HD
ATOM     29  H41 UNL     1      -5.174 -11.749  10.483  1.00  0.00     0.278 HD
ATOM     30  H22 UNL     1      -6.786  -8.187   9.645  1.00  0.00     0.284 HD
ATOM     31  H21 UNL     1      -7.578  -9.289  10.414  1.00  0.00     0.284 HD
ENDBRANCH  17  20
ENDBRANCH   1  17
TORSDOF 8
ENDMDL
MODEL 3
REMARK VINA RESULT: -6.864166487      2.761      7.012
REMARK  8 active torsions:
REMARK  status: ('A' for Active; 'I' for Inactive)
REMARK    1  A    between atoms: O1_2  and  C2_3 
REMARK    2  A    between atoms: C5_6  and  S1_7 
REMARK    3  A    between atoms: S1_7  and  N1_10 
REMARK    4  A    between atoms: N1_10  and  C6_12 
REMARK    5  A    between atoms: C6_12  and  C8_14 
REMARK    6  A    between atoms: C8_14  and  C9_15 
REMARK    7  A    between atoms: C9_15  and  O4_16 
REMARK    8  A    between atoms: C9_15  and  N2_18 
REMARK       I    between atoms: N2_18  and  C10_21 
REMARK       I    between atoms: C10_21  and  N3_22 
REMARK       I    between atoms: C10_21  and  N4_26 
ROOT
HETATM    1  C8  UNL     1     -10.752 -12.254   2.838  1.00  0.00     0.086 C 
ENDROOT
BRANCH   1   2
HETATM    2  C6  UNL     1      -9.552 -11.530   3.323  1.00  0.00     0.093 C 
HETATM    3  C7  UNL     1      -8.455 -11.837   2.272  1.00  0.00     0.033 C 
BRANCH   2   4
HETATM    4  N1  UNL     1      -9.110 -11.687   4.621  1.00  0.00    -0.311 N 
ATOM      5  H1  UNL     1      -8.590 -12.530   4.864  1.00  0.00     0.172 HD
BRANCH   4   6
HETATM    6  S1  UNL     1      -9.393 -10.552   5.809  1.00  0.00     0.259 S 
HETATM    7  O2  UNL     1     -10.471 -10.994   6.775  1.00  0.00    -0.201 OA
HETATM    8  O3  UNL     1     -10.013  -9.326   5.128  1.00  0.00    -0.201 OA
BRANCH   6   9
HETATM    9  C5  UNL     1      -8.003  -9.949   6.660  1.00  0.00     0.079 A 
HETATM   10  C4  UNL     1      -6.801  -9.682   6.045  1.00  0.00     0.028 A 
HETATM   11  C3  UNL     1      -5.718  -9.193   6.763  1.00  0.00     0.038 A 
HETATM   12  C2  UNL     1      -5.809  -8.959   8.117  1.00  0.00     0.068 A 
HETATM   13  C12 UNL     1      -7.024  -9.228   8.743  1.00  0.00     0.038 A 
HETATM   14  C11 UNL     1      -8.071  -9.708   8.010  1.00  0.00     0.028 A 
BRANCH  12  15
HETATM   15  O1  UNL     1      -4.741  -8.465   8.883  1.00  0.00    -0.356 OA
HETATM   16  C1  UNL     1      -4.747  -8.645  10.283  1.00  0.00     0.210 C 
ENDBRANCH  12  15
ENDBRANCH   6   9
ENDBRANCH   4   6
ENDBRANCH   2   4
ENDBRANCH   1   2
BRANCH   1  17
HETATM   17  C9  UNL     1     -12.082 -11.773   3.297  1.00  0.00     0.325 C 
BRANCH  17  18
HETATM   18  O4  UNL     1     -12.192 -12.209   4.650  1.00  0.00    -0.369 OA
ATOM     19  H4  UNL     1     -12.970 -12.755   4.675  1.00  0.00     0.212 HD
ENDBRANCH  17  18
BRANCH  17  20
HETATM   20  N2  UNL     1     -12.228 -10.340   3.371  1.00  0.00     0.005 N 
HETATM   21  C10 UNL     1     -12.985  -9.885   4.512  1.00  0.00     0.578 C 
HETATM   22  N3  UNL     1     -12.957  -8.421   4.508  1.00  0.00    -0.026 N 
HETATM   23  N4  UNL     1     -14.386 -10.228   4.264  1.00  0.00    -0.026 N 
ATOM     24  H33 UNL     1     -12.010  -8.042   4.483  1.00  0.00     0.278 HD
ATOM     25  H32 UNL     1     -13.285  -8.021   3.629  1.00  0.00     0.278 HD
ATOM     26  H31 UNL     1     -13.492  -8.099   5.315  1.00  0.00     0.278 HD
ATOM     27  H43 UNL     1     -14.737  -9.861   3.379  1.00  0.00     0.278 HD
ATOM     28  H42 UNL     1     -14.526 -11.217   4.060  1.00  0.00     0.278 HD
ATOM     29  H41 UNL     1     -14.921  -9.906   5.071  1.00  0.00     0.278 HD
ATOM     30  H22 UNL     1     -11.315  -9.885   3.342  1.00  0.00     0.284 HD
ATOM     31  H21 UNL     1     -12.629  -9.976   2.506  1.00  0.00     0.284 HD
ENDBRANCH  17  20
ENDBRANCH   1  17
TORSDOF 8
ENDMDL
MODEL 4
REMARK VINA RESULT: -6.787287503      2.258      2.676
REMARK  8 active torsions:
REMARK  status: ('A' for Active; 'I' for Inactive)
REMARK    1  A    between atoms: O1_2  and  C2_3 
REMARK    2  A    between atoms: C5_6  and  S1_7 
REMARK    3  A    between atoms: S1_7  and  N1_10 
REMARK    4  A    between atoms: N1_10  and  C6_12 
REMARK    5  A    between atoms: C6_12  and  C8_14 
REMARK    6  A    between atoms: C8_14  and  C9_15 
REMARK    7  A    between atoms: C9_15  and  O4_16 
REMARK    8  A    between atoms: C9_15  and  N2_18 
REMARK       I    between atoms: N2_18  and  C10_21 
REMARK       I    between atoms: C10_21  and  N3_22 
REMARK       I    between atoms: C10_21  and  N4_26 
ROOT
HETATM    1  C8  UNL     1      -6.330  -9.755   7.771  1.00  0.00     0.086 C 
ENDROOT
BRANCH   1   2
HETATM    2  C6  UNL     1      -7.334  -9.843   6.683  1.00  0.00     0.093 C 
HETATM    3  C7  UNL     1      -6.832  -8.852   5.602  1.00  0.00     0.033 C 
BRANCH   2   4
HETATM    4  N1  UNL     1      -8.681  -9.704   6.954  1.00  0.00    -0.311 N 
ATOM      5  H1  UNL     1      -8.973  -9.023   7.655  1.00  0.00     0.172 HD
BRANCH   4   6
HETATM    6  S1  UNL     1      -9.849 -10.607   6.179  1.00  0.00     0.259 S 
HETATM    7  O2  UNL     1     -10.826 -11.231   7.151  1.00  0.00    -0.201 OA
HETATM    8  O3  UNL     1      -9.147 -11.821   5.558  1.00  0.00    -0.201 OA
BRANCH   6   9
HETATM    9  C5  UNL     1     -10.684  -9.839   4.863  1.00  0.00     0.079 A 
HETATM   10  C4  UNL     1     -11.890  -9.191   5.012  1.00  0.00     0.028 A 
HETATM   11  C3  UNL     1     -12.518  -8.585   3.933  1.00  0.00     0.038 A 
HETATM   12  C2  UNL     1     -11.958  -8.610   2.675  1.00  0.00     0.068 A 
HETATM   13  C12 UNL     1     -10.739  -9.265   2.521  1.00  0.00     0.038 A 
HETATM   14  C11 UNL     1     -10.144  -9.852   3.600  1.00  0.00     0.028 A 
BRANCH  12  15
HETATM   15  O1  UNL     1     -12.557  -8.010   1.557  1.00  0.00    -0.356 OA
HETATM   16  C1  UNL     1     -11.987  -8.195   0.279  1.00  0.00     0.210 C 
ENDBRANCH  12  15
ENDBRANCH   6   9
ENDBRANCH   4   6
ENDBRANCH   2   4
ENDBRANCH   1   2
BRANCH   1  17
HETATM   17  C9  UNL     1      -6.827  -9.543   9.156  1.00  0.00     0.325 C 
BRANCH  17  18
HETATM   18  O4  UNL     1      -5.742  -9.911  10.005  1.00  0.00    -0.369 OA
ATOM     19  H4  UNL     1      -6.010 -10.725  10.416  1.00  0.00     0.212 HD
ENDBRANCH  17  18
BRANCH  17  20
HETATM   20  N2  UNL     1      -7.108  -8.173   9.508  1.00  0.00     0.005 N 
HETATM   21  C10 UNL     1      -6.286  -7.210   8.816  1.00  0.00     0.578 C 
HETATM   22  N3  UNL     1      -6.754  -5.874   9.193  1.00  0.00    -0.026 N 
HETATM   23  N4  UNL     1      -4.940  -7.303   9.383  1.00  0.00    -0.026 N 
ATOM     24  H33 UNL     1      -7.751  -5.741   9.023  1.00  0.00     0.278 HD
ATOM     25  H32 UNL     1      -6.769  -5.730  10.202  1.00  0.00     0.278 HD
ATOM     26  H31 UNL     1      -6.174  -5.193   8.703  1.00  0.00     0.278 HD
ATOM     27  H43 UNL     1      -4.925  -7.186  10.397  1.00  0.00     0.278 HD
ATOM     28  H42 UNL     1      -4.558  -8.248   9.354  1.00  0.00     0.278 HD
ATOM     29  H41 UNL     1      -4.360  -6.621   8.894  1.00  0.00     0.278 HD
ATOM     30  H22 UNL     1      -8.096  -7.963   9.372  1.00  0.00     0.284 HD
ATOM     31  H21 UNL     1      -7.040  -8.042  10.517  1.00  0.00     0.284 HD
ENDBRANCH  17  20
ENDBRANCH   1  17
TORSDOF 8
ENDMDL
MODEL 5
REMARK VINA RESULT: -6.758818915      4.321      6.610
REMARK  8 active torsions:
REMARK  status: ('A' for Active; 'I' for Inactive)
REMARK    1  A    between atoms: O1_2  and  C2_3 
REMARK    2  A    between atoms: C5_6  and  S1_7 
REMARK    3  A    between atoms: S1_7  and  N1_10 
REMARK    4  A    between atoms: N1_10  and  C6_12 
REMARK    5  A    between atoms: C6_12  and  C8_14 
REMARK    6  A    between atoms: C8_14  and  C9_15 
REMARK    7  A    between atoms: C9_15  and  O4_16 
REMARK    8  A    between atoms: C9_15  and  N2_18 
REMARK       I    between atoms: N2_18  and  C10_21 
REMARK       I    between atoms: C10_21  and  N3_22 
REMARK       I    between atoms: C10_21  and  N4_26 
ROOT
HETATM    1  C8  UNL     1      -7.882  -8.598   7.377  1.00  0.00     0.086 C 
ENDROOT
BRANCH   1   2
HETATM    2  C6  UNL     1      -6.887  -7.529   7.126  1.00  0.00     0.093 C 
HETATM    3  C7  UNL     1      -7.309  -6.369   8.063  1.00  0.00     0.033 C 
BRANCH   2   4
HETATM    4  N1  UNL     1      -6.614  -7.106   5.839  1.00  0.00    -0.311 N 
ATOM      5  H1  UNL     1      -6.797  -6.134   5.593  1.00  0.00     0.172 HD
BRANCH   4   6
HETATM    6  S1  UNL     1      -5.997  -8.126   4.673  1.00  0.00     0.259 S 
HETATM    7  O2  UNL     1      -7.032  -9.109   4.169  1.00  0.00    -0.201 OA
HETATM    8  O3  UNL     1      -4.961  -9.026   5.357  1.00  0.00    -0.201 OA
BRANCH   6   9
HETATM    9  C5  UNL     1      -5.152  -7.379   3.352  1.00  0.00     0.079 A 
HETATM   10  C4  UNL     1      -3.964  -6.699   3.504  1.00  0.00     0.028 A 
HETATM   11  C3  UNL     1      -3.320  -6.124   2.418  1.00  0.00     0.038 A 
HETATM   12  C2  UNL     1      -3.845  -6.212   1.149  1.00  0.00     0.068 A 
HETATM   13  C12 UNL     1      -5.047  -6.899   0.990  1.00  0.00     0.038 A 
HETATM   14  C11 UNL     1      -5.658  -7.454   2.077  1.00  0.00     0.028 A 
BRANCH  12  15
HETATM   15  O1  UNL     1      -3.228  -5.647   0.022  1.00  0.00    -0.356 OA
HETATM   16  C1  UNL     1      -3.802  -5.835  -1.254  1.00  0.00     0.210 C 
ENDBRANCH  12  15
ENDBRANCH   6   9
ENDBRANCH   4   6
ENDBRANCH   2   4
ENDBRANCH   1   2
BRANCH   1  17
HETATM   17  C9  UNL     1      -7.503  -9.690   8.312  1.00  0.00     0.325 C 
BRANCH  17  18
HETATM   18  O4  UNL     1      -6.462 -10.406   7.650  1.00  0.00    -0.369 OA
ATOM     19  H4  UNL     1      -5.707 -10.338   8.224  1.00  0.00     0.212 HD
ENDBRANCH  17  18
BRANCH  17  20
HETATM   20  N2  UNL     1      -6.907  -9.260   9.553  1.00  0.00     0.005 N 
HETATM   21  C10 UNL     1      -5.680  -9.944   9.883  1.00  0.00     0.578 C 
HETATM   22  N3  UNL     1      -5.144  -9.332  11.101  1.00  0.00    -0.026 N 
HETATM   23  N4  UNL     1      -6.039 -11.306  10.283  1.00  0.00    -0.026 N 
ATOM     24  H33 UNL     1      -5.025  -8.322  11.018  1.00  0.00     0.278 HD
ATOM     25  H32 UNL     1      -5.814  -9.326  11.870  1.00  0.00     0.278 HD
ATOM     26  H31 UNL     1      -4.277  -9.815  11.334  1.00  0.00     0.278 HD
ATOM     27  H43 UNL     1      -6.728 -11.333  11.035  1.00  0.00     0.278 HD
ATOM     28  H42 UNL     1      -6.594 -11.795   9.581  1.00  0.00     0.278 HD
ATOM     29  H41 UNL     1      -5.172 -11.789  10.516  1.00  0.00     0.278 HD
ATOM     30  H22 UNL     1      -6.764  -8.250   9.550  1.00  0.00     0.284 HD
ATOM     31  H21 UNL     1      -7.577  -9.337  10.318  1.00  0.00     0.284 HD
ENDBRANCH  17  20
ENDBRANCH   1  17
TORSDOF 8
ENDMDL
