MODEL 1
REMARK VINA RESULT: -7.018331814      0.000      0.000
REMARK  10 active torsions:
REMARK  status: ('A' for Active; 'I' for Inactive)
REMARK    1  A    between atoms: N1_2  and  C3_4 
REMARK    2  A    between atoms: C3_4  and  C4_5 
REMARK    3  A    between atoms: C4_5  and  O1_6 
REMARK    4  A    between atoms: O1_6  and  C5_7 
REMARK    5  A    between atoms: C5_7  and  C6_8 
REMARK    6  A    between atoms: C6_8  and  N2_9 
REMARK    7  A    between atoms: N2_9  and  C7_11 
REMARK    8  A    between atoms: C9_15  and  N4_16 
REMARK    9  A    between atoms: N4_16  and  C10_18 
REMARK   10  A    between atoms: C13_25  and  N7_26 
ROOT
HETATM    1  C7  UNL     1      -8.757 -11.059   5.212  1.00  0.00     0.679 A 
HETATM    2  N3  UNL     1      -9.018 -10.990   6.525  1.00  0.00    -0.200 N 
ATOM      3  H3  UNL     1      -9.604 -11.710   6.950  1.00  0.00     0.183 HD
HETATM    4  C8  UNL     1      -8.530  -9.997   7.303  1.00  0.00     0.139 A 
HETATM    5  C9  UNL     1      -7.745  -9.044   6.708  1.00  0.00     0.094 A 
HETATM    6  C13 UNL     1      -7.453  -9.086   5.341  1.00  0.00     0.143 A 
HETATM    7  N8  UNL     1      -7.976 -10.103   4.641  1.00  0.00    -0.175 N 
ATOM      8  H8  UNL     1      -7.781 -10.162   3.642  1.00  0.00     0.186 HD
ENDROOT
BRANCH   1   9
HETATM    9  N2  UNL     1      -9.207 -11.997   4.469  1.00  0.00    -0.224 N 
ATOM     10  H2  UNL     1      -9.365 -12.909   4.898  1.00  0.00     0.177 HD
BRANCH   9  11
HETATM   11  C6  UNL     1      -9.502 -11.854   3.081  1.00  0.00     0.164 C 
BRANCH  11  12
HETATM   12  C5  UNL     1     -11.007 -11.857   2.920  1.00  0.00     0.187 C 
BRANCH  12  13
HETATM   13  O1  UNL     1     -11.716 -12.433   3.837  1.00  0.00    -0.388 OA
BRANCH  13  14
HETATM   14  C4  UNL     1     -12.745 -12.142   4.571  1.00  0.00     0.187 C 
BRANCH  14  15
HETATM   15  C3  UNL     1     -12.523 -11.258   5.752  1.00  0.00     0.142 C 
BRANCH  15  16
HETATM   16  N1  UNL     1     -12.930  -9.879   5.471  1.00  0.00    -0.419 N 
HETATM   17  C1  UNL     1     -11.870  -9.021   5.077  1.00  0.00     0.142 C 
HETATM   18  C2  UNL     1     -14.149  -9.781   4.746  1.00  0.00     0.142 C 
ENDBRANCH  15  16
ENDBRANCH  14  15
ENDBRANCH  13  14
ENDBRANCH  12  13
ENDBRANCH  11  12
ENDBRANCH   9  11
ENDBRANCH   1   9
BRANCH   6  19
HETATM   19  N7  UNL     1      -6.714  -8.171   4.833  1.00  0.00    -0.383 N 
ATOM     20  H72 UNL     1      -6.439  -7.321   5.325  1.00  0.00     0.157 HD
ATOM     21  H71 UNL     1      -6.371  -8.283   3.879  1.00  0.00     0.157 HD
ENDBRANCH   6  19
BRANCH   5  22
HETATM   22  N4  UNL     1      -7.217  -7.991   7.505  1.00  0.00    -0.337 N 
ATOM     23  H4  UNL     1      -7.408  -7.023   7.246  1.00  0.00     0.167 HD
BRANCH  22  24
HETATM   24  C10 UNL     1      -6.502  -8.236   8.548  1.00  0.00     0.121 A 
HETATM   25  C11 UNL     1      -5.266  -8.835   8.617  1.00  0.00     0.068 A 
HETATM   26  C12 UNL     1      -4.892  -8.884   9.930  1.00  0.00     0.111 A 
HETATM   27  N5  UNL     1      -5.894  -8.323  10.627  1.00  0.00    -0.310 N 
HETATM   28  N6  UNL     1      -6.871  -7.928   9.804  1.00  0.00    -0.286 N 
ATOM     29  H5  UNL     1      -5.908  -8.213  11.641  1.00  0.00     0.186 HD
ATOM     30  H6  UNL     1      -7.741  -7.472  10.080  1.00  0.00     0.188 HD
ENDBRANCH  22  24
ENDBRANCH   5  22
TORSDOF 10
ENDMDL
MODEL 2
REMARK VINA RESULT: -6.902560467      1.648      2.527
REMARK  10 active torsions:
REMARK  status: ('A' for Active; 'I' for Inactive)
REMARK    1  A    between atoms: N1_2  and  C3_4 
REMARK    2  A    between atoms: C3_4  and  C4_5 
REMARK    3  A    between atoms: C4_5  and  O1_6 
REMARK    4  A    between atoms: O1_6  and  C5_7 
REMARK    5  A    between atoms: C5_7  and  C6_8 
REMARK    6  A    between atoms: C6_8  and  N2_9 
REMARK    7  A    between atoms: N2_9  and  C7_11 
REMARK    8  A    between atoms: C9_15  and  N4_16 
REMARK    9  A    between atoms: N4_16  and  C10_18 
REMARK   10  A    between atoms: C13_25  and  N7_26 
ROOT
HETATM    1  C7  UNL     1      -8.610  -9.568   4.040  1.00  0.00     0.679 A 
HETATM    2  N3  UNL     1      -7.321  -9.260   4.232  1.00  0.00    -0.200 N 
ATOM      3  H3  UNL     1      -6.795  -8.835   3.467  1.00  0.00     0.183 HD
HETATM    4  C8  UNL     1      -6.693  -9.495   5.407  1.00  0.00     0.139 A 
HETATM    5  C9  UNL     1      -7.420 -10.067   6.419  1.00  0.00     0.094 A 
HETATM    6  C13 UNL     1      -8.768 -10.400   6.252  1.00  0.00     0.143 A 
HETATM    7  N8  UNL     1      -9.315 -10.135   5.057  1.00  0.00    -0.175 N 
ATOM      8  H8  UNL     1     -10.296 -10.367   4.904  1.00  0.00     0.186 HD
ENDROOT
BRANCH   1   9
HETATM    9  N2  UNL     1      -9.215  -9.344   2.936  1.00  0.00    -0.224 N 
ATOM     10  H2  UNL     1      -8.804  -8.661   2.299  1.00  0.00     0.177 HD
BRANCH   9  11
HETATM   11  C6  UNL     1     -10.425  -9.985   2.535  1.00  0.00     0.164 C 
BRANCH  11  12
HETATM   12  C5  UNL     1     -11.545  -8.972   2.633  1.00  0.00     0.187 C 
BRANCH  12  13
HETATM   13  O1  UNL     1     -11.994  -8.674   3.810  1.00  0.00    -0.388 OA
BRANCH  13  14
HETATM   14  C4  UNL     1     -12.711  -9.241   4.730  1.00  0.00     0.187 C 
BRANCH  14  15
HETATM   15  C3  UNL     1     -13.926  -9.990   4.295  1.00  0.00     0.142 C 
BRANCH  15  16
HETATM   16  N1  UNL     1     -13.672 -11.431   4.236  1.00  0.00    -0.419 N 
HETATM   17  C1  UNL     1     -13.751 -11.990   2.933  1.00  0.00     0.142 C 
HETATM   18  C2  UNL     1     -12.592 -11.855   5.060  1.00  0.00     0.142 C 
ENDBRANCH  15  16
ENDBRANCH  14  15
ENDBRANCH  13  14
ENDBRANCH  12  13
ENDBRANCH  11  12
ENDBRANCH   9  11
ENDBRANCH   1   9
BRANCH   6  19
HETATM   19  N7  UNL     1      -9.405 -10.933   7.229  1.00  0.00    -0.383 N 
ATOM     20  H72 UNL     1     -10.351 -10.670   7.504  1.00  0.00     0.157 HD
ATOM     21  H71 UNL     1      -8.952 -11.666   7.775  1.00  0.00     0.157 HD
ENDBRANCH   6  19
BRANCH   5  22
HETATM   22  N4  UNL     1      -6.785 -10.320   7.665  1.00  0.00    -0.337 N 
ATOM     23  H4  UNL     1      -6.570 -11.282   7.931  1.00  0.00     0.167 HD
BRANCH  22  24
HETATM   24  C10 UNL     1      -6.476  -9.360   8.466  1.00  0.00     0.121 A 
HETATM   25  C11 UNL     1      -5.323  -8.610   8.498  1.00  0.00     0.068 A 
HETATM   26  C12 UNL     1      -5.436  -7.705   9.515  1.00  0.00     0.111 A 
HETATM   27  N5  UNL     1      -6.638  -7.918  10.076  1.00  0.00    -0.310 N 
HETATM   28  N6  UNL     1      -7.275  -8.914   9.451  1.00  0.00    -0.286 N 
ATOM     29  H5  UNL     1      -7.013  -7.394  10.867  1.00  0.00     0.186 HD
ATOM     30  H6  UNL     1      -8.202  -9.271   9.681  1.00  0.00     0.188 HD
ENDBRANCH  22  24
ENDBRANCH   5  22
TORSDOF 10
ENDMDL
MODEL 3
REMARK VINA RESULT: -6.869312663      1.089      1.099
REMARK  10 active torsions:
REMARK  status: ('A' for Active; 'I' for Inactive)
REMARK    1  A    between atoms: N1_2  and  C3_4 
REMARK    2  A    between atoms: C3_4  and  C4_5 
REMARK    3  A    between atoms: C4_5  and  O1_6 
REMARK    4  A    between atoms: O1_6  and  C5_7 
REMARK    5  A    between atoms: C5_7  and  C6_8 
REMARK    6  A    between atoms: C6_8  and  N2_9 
REMARK    7  A    between atoms: N2_9  and  C7_11 
REMARK    8  A    between atoms: C9_15  and  N4_16 
REMARK    9  A    between atoms: N4_16  and  C10_18 
REMARK   10  A    between atoms: C13_25  and  N7_26 
ROOT
HETATM    1  C7  UNL     1      -8.791 -10.893   4.131  1.00  0.00     0.679 A 
HETATM    2  N3  UNL     1      -9.300 -11.274   5.310  1.00  0.00    -0.200 N 
ATOM      3  H3  UNL     1      -9.952 -12.058   5.337  1.00  0.00     0.183 HD
HETATM    4  C8  UNL     1      -8.975 -10.651   6.466  1.00  0.00     0.139 A 
HETATM    5  C9  UNL     1      -8.096  -9.601   6.404  1.00  0.00     0.094 A 
HETATM    6  C13 UNL     1      -7.546  -9.179   5.189  1.00  0.00     0.143 A 
HETATM    7  N8  UNL     1      -7.920  -9.849   4.090  1.00  0.00    -0.175 N 
ATOM      8  H8  UNL     1      -7.537  -9.565   3.188  1.00  0.00     0.186 HD
ENDROOT
BRANCH   1   9
HETATM    9  N2  UNL     1      -9.085 -11.479   3.033  1.00  0.00    -0.224 N 
ATOM     10  H2  UNL     1      -8.476 -12.236   2.720  1.00  0.00     0.177 HD
BRANCH   9  11
HETATM   11  C6  UNL     1     -10.206 -11.147   2.216  1.00  0.00     0.164 C 
BRANCH  11  12
HETATM   12  C5  UNL     1     -11.246 -12.232   2.385  1.00  0.00     0.187 C 
BRANCH  12  13
HETATM   13  O1  UNL     1     -11.725 -12.438   3.569  1.00  0.00    -0.388 OA
BRANCH  13  14
HETATM   14  C4  UNL     1     -12.812 -12.160   4.221  1.00  0.00     0.187 C 
BRANCH  14  15
HETATM   15  C3  UNL     1     -12.682 -11.364   5.476  1.00  0.00     0.142 C 
BRANCH  15  16
HETATM   16  N1  UNL     1     -13.148  -9.989   5.287  1.00  0.00    -0.419 N 
HETATM   17  C1  UNL     1     -12.128  -9.063   4.941  1.00  0.00     0.142 C 
HETATM   18  C2  UNL     1     -14.378  -9.895   4.579  1.00  0.00     0.142 C 
ENDBRANCH  15  16
ENDBRANCH  14  15
ENDBRANCH  13  14
ENDBRANCH  12  13
ENDBRANCH  11  12
ENDBRANCH   9  11
ENDBRANCH   1   9
BRANCH   6  19
HETATM   19  N7  UNL     1      -6.729  -8.192   5.184  1.00  0.00    -0.383 N 
ATOM     20  H72 UNL     1      -5.813  -8.212   4.735  1.00  0.00     0.157 HD
ATOM     21  H71 UNL     1      -6.994  -7.325   5.652  1.00  0.00     0.157 HD
ENDBRANCH   6  19
BRANCH   5  22
HETATM   22  N4  UNL     1      -7.736  -8.931   7.606  1.00  0.00    -0.337 N 
ATOM     23  H4  UNL     1      -8.119  -8.005   7.796  1.00  0.00     0.167 HD
BRANCH  22  24
HETATM   24  C10 UNL     1      -6.936  -9.472   8.458  1.00  0.00     0.121 A 
HETATM   25  C11 UNL     1      -5.562  -9.413   8.499  1.00  0.00     0.068 A 
HETATM   26  C12 UNL     1      -5.140 -10.134   9.580  1.00  0.00     0.111 A 
HETATM   27  N5  UNL     1      -6.249 -10.612  10.169  1.00  0.00    -0.310 N 
HETATM   28  N6  UNL     1      -7.338 -10.218   9.501  1.00  0.00    -0.286 N 
ATOM     29  H5  UNL     1      -6.259 -11.193  11.007  1.00  0.00     0.186 HD
ATOM     30  H6  UNL     1      -8.304 -10.445   9.741  1.00  0.00     0.188 HD
ENDBRANCH  22  24
ENDBRANCH   5  22
TORSDOF 10
ENDMDL
MODEL 4
REMARK VINA RESULT: -6.797661649      1.188      1.827
REMARK  10 active torsions:
REMARK  status: ('A' for Active; 'I' for Inactive)
REMARK    1  A    between atoms: N1_2  and  C3_4 
REMARK    2  A    between atoms: C3_4  and  C4_5 
REMARK    3  A    between atoms: C4_5  and  O1_6 
REMARK    4  A    between atoms: O1_6  and  C5_7 
REMARK    5  A    between atoms: C5_7  and  C6_8 
REMARK    6  A    between atoms: C6_8  and  N2_9 
REMARK    7  A    between atoms: N2_9  and  C7_11 
REMARK    8  A    between atoms: C9_15  and  N4_16 
REMARK    9  A    between atoms: N4_16  and  C10_18 
REMARK   10  A    between atoms: C13_25  and  N7_26 
ROOT
HETATM    1  C7  UNL     1      -8.314 -10.935   4.014  1.00  0.00     0.679 A 
HETATM    2  N3  UNL     1      -7.344 -10.028   4.191  1.00  0.00    -0.200 N 
ATOM      3  H3  UNL     1      -6.742  -9.787   3.404  1.00  0.00     0.183 HD
HETATM    4  C8  UNL     1      -7.139  -9.421   5.383  1.00  0.00     0.139 A 
HETATM    5  C9  UNL     1      -7.961  -9.760   6.426  1.00  0.00     0.094 A 
HETATM    6  C13 UNL     1      -8.983 -10.703   6.274  1.00  0.00     0.143 A 
HETATM    7  N8  UNL     1      -9.119 -11.258   5.061  1.00  0.00    -0.175 N 
ATOM      8  H8  UNL     1      -9.856 -11.950   4.919  1.00  0.00     0.186 HD
ENDROOT
BRANCH   1   9
HETATM    9  N2  UNL     1      -8.522 -11.510   2.890  1.00  0.00    -0.224 N 
ATOM     10  H2  UNL     1      -7.870 -12.240   2.603  1.00  0.00     0.177 HD
BRANCH   9  11
HETATM   11  C6  UNL     1      -9.603 -11.199   2.014  1.00  0.00     0.164 C 
BRANCH  11  12
HETATM   12  C5  UNL     1     -10.637 -12.296   2.138  1.00  0.00     0.187 C 
BRANCH  12  13
HETATM   13  O1  UNL     1     -11.332 -12.357   3.228  1.00  0.00    -0.388 OA
BRANCH  13  14
HETATM   14  C4  UNL     1     -12.489 -11.945   3.646  1.00  0.00     0.187 C 
BRANCH  14  15
HETATM   15  C3  UNL     1     -12.606 -11.551   5.080  1.00  0.00     0.142 C 
BRANCH  15  16
HETATM   16  N1  UNL     1     -13.079 -10.172   5.218  1.00  0.00    -0.419 N 
HETATM   17  C1  UNL     1     -12.096  -9.182   4.956  1.00  0.00     0.142 C 
HETATM   18  C2  UNL     1     -14.377  -9.957   4.676  1.00  0.00     0.142 C 
ENDBRANCH  15  16
ENDBRANCH  14  15
ENDBRANCH  13  14
ENDBRANCH  12  13
ENDBRANCH  11  12
ENDBRANCH   9  11
ENDBRANCH   1   9
BRANCH   6  19
HETATM   19  N7  UNL     1      -9.725 -10.986   7.279  1.00  0.00    -0.383 N 
ATOM     20  H72 UNL     1      -9.413 -11.529   8.085  1.00  0.00     0.157 HD
ATOM     21  H71 UNL     1     -10.690 -10.655   7.293  1.00  0.00     0.157 HD
ENDBRANCH   6  19
BRANCH   5  22
HETATM   22  N4  UNL     1      -7.768  -9.134   7.687  1.00  0.00    -0.337 N 
ATOM     23  H4  UNL     1      -8.361  -8.347   7.951  1.00  0.00     0.167 HD
BRANCH  22  24
HETATM   24  C10 UNL     1      -6.858  -9.540   8.504  1.00  0.00     0.121 A 
HETATM   25  C11 UNL     1      -5.520  -9.224   8.520  1.00  0.00     0.068 A 
HETATM   26  C12 UNL     1      -4.941  -9.887   9.566  1.00  0.00     0.111 A 
HETATM   27  N5  UNL     1      -5.925 -10.584  10.158  1.00  0.00    -0.310 N 
HETATM   28  N6  UNL     1      -7.086 -10.383   9.527  1.00  0.00    -0.286 N 
ATOM     29  H5  UNL     1      -5.803 -11.183  10.974  1.00  0.00     0.186 HD
ATOM     30  H6  UNL     1      -7.985 -10.795   9.777  1.00  0.00     0.188 HD
ENDBRANCH  22  24
ENDBRANCH   5  22
TORSDOF 10
ENDMDL
MODEL 5
REMARK VINA RESULT: -6.760731281      1.150      1.380
REMARK  10 active torsions:
REMARK  status: ('A' for Active; 'I' for Inactive)
REMARK    1  A    between atoms: N1_2  and  C3_4 
REMARK    2  A    between atoms: C3_4  and  C4_5 
REMARK    3  A    between atoms: C4_5  and  O1_6 
REMARK    4  A    between atoms: O1_6  and  C5_7 
REMARK    5  A    between atoms: C5_7  and  C6_8 
REMARK    6  A    between atoms: C6_8  and  N2_9 
REMARK    7  A    between atoms: N2_9  and  C7_11 
REMARK    8  A    between atoms: C9_15  and  N4_16 
REMARK    9  A    between atoms: N4_16  and  C10_18 
REMARK   10  A    between atoms: C13_25  and  N7_26 
ROOT
HETATM    1  C7  UNL     1      -7.594 -10.479   4.543  1.00  0.00     0.679 A 
HETATM    2  N3  UNL     1      -8.069 -10.753   5.765  1.00  0.00    -0.200 N 
ATOM      3  H3  UNL     1      -8.527 -11.650   5.928  1.00  0.00     0.183 HD
HETATM    4  C8  UNL     1      -7.960  -9.876   6.791  1.00  0.00     0.139 A 
HETATM    5  C9  UNL     1      -7.340  -8.678   6.547  1.00  0.00     0.094 A 
HETATM    6  C13 UNL     1      -6.832  -8.362   5.283  1.00  0.00     0.143 A 
HETATM    7  N8  UNL     1      -6.982  -9.285   4.322  1.00  0.00    -0.175 N 
ATOM      8  H8  UNL     1      -6.622  -9.083   3.389  1.00  0.00     0.186 HD
ENDROOT
BRANCH   1   9
HETATM    9  N2  UNL     1      -7.684 -11.302   3.569  1.00  0.00    -0.224 N 
ATOM     10  H2  UNL     1      -6.983 -12.041   3.503  1.00  0.00     0.177 HD
BRANCH   9  11
HETATM   11  C6  UNL     1      -8.699 -11.258   2.568  1.00  0.00     0.164 C 
BRANCH  11  12
HETATM   12  C5  UNL     1      -9.781 -12.243   2.954  1.00  0.00     0.187 C 
BRANCH  12  13
HETATM   13  O1  UNL     1     -10.403 -12.056   4.073  1.00  0.00    -0.388 OA
BRANCH  13  14
HETATM   14  C4  UNL     1     -11.363 -11.306   4.517  1.00  0.00     0.187 C 
BRANCH  14  15
HETATM   15  C3  UNL     1     -12.642 -11.975   4.900  1.00  0.00     0.142 C 
BRANCH  15  16
HETATM   16  N1  UNL     1     -13.766 -11.470   4.109  1.00  0.00    -0.419 N 
HETATM   17  C1  UNL     1     -14.105 -10.115   4.365  1.00  0.00     0.142 C 
HETATM   18  C2  UNL     1     -13.741 -11.887   2.750  1.00  0.00     0.142 C 
ENDBRANCH  15  16
ENDBRANCH  14  15
ENDBRANCH  13  14
ENDBRANCH  12  13
ENDBRANCH  11  12
ENDBRANCH   9  11
ENDBRANCH   1   9
BRANCH   6  19
HETATM   19  N7  UNL     1      -6.261  -7.229   5.106  1.00  0.00    -0.383 N 
ATOM     20  H72 UNL     1      -5.255  -7.110   4.981  1.00  0.00     0.157 HD
ATOM     21  H71 UNL     1      -6.831  -6.383   5.087  1.00  0.00     0.157 HD
ENDBRANCH   6  19
BRANCH   5  22
HETATM   22  N4  UNL     1      -7.210  -7.742   7.609  1.00  0.00    -0.337 N 
ATOM     23  H4  UNL     1      -7.719  -6.859   7.562  1.00  0.00     0.167 HD
BRANCH  22  24
HETATM   24  C10 UNL     1      -6.462  -7.986   8.629  1.00  0.00     0.121 A 
HETATM   25  C11 UNL     1      -5.112  -8.250   8.656  1.00  0.00     0.068 A 
HETATM   26  C12 UNL     1      -4.746  -8.447   9.958  1.00  0.00     0.111 A 
HETATM   27  N5  UNL     1      -5.865  -8.302  10.688  1.00  0.00    -0.310 N 
HETATM   28  N6  UNL     1      -6.906  -8.023   9.897  1.00  0.00    -0.286 N 
ATOM     29  H5  UNL     1      -5.913  -8.392  11.703  1.00  0.00     0.186 HD
ATOM     30  H6  UNL     1      -7.867  -7.867  10.202  1.00  0.00     0.188 HD
ENDBRANCH  22  24
ENDBRANCH   5  22
TORSDOF 10
ENDMDL
