MODEL 1
REMARK VINA RESULT: -5.963943338      0.000      0.000
REMARK  10 active torsions:
REMARK  status: ('A' for Active; 'I' for Inactive)
REMARK    1  A    between atoms: C2_2  and  S1_3 
REMARK    2  A    between atoms: S1_3  and  C3_4 
REMARK    3  A    between atoms: C5_9  and  C6_10 
REMARK    4  A    between atoms: C7_11  and  C8_12 
REMARK    5  A    between atoms: C8_12  and  O2_13 
REMARK    6  A    between atoms: C8_12  and  C9_15 
REMARK    7  A    between atoms: C9_15  and  C11_17 
REMARK    8  A    between atoms: C13_19  and  S2_20 
REMARK    9  A    between atoms: S2_20  and  C14_21 
REMARK   10  A    between atoms: C14_21  and  C15_22 
ROOT
HETATM    1  C3  UNL     1      33.225  46.200  44.330  1.00  0.00     0.147 A 
HETATM    2  N1  UNL     1      33.460  47.106  43.362  1.00  0.00    -0.302 N 
ATOM      3  H1  UNL     1      33.142  48.068  43.480  1.00  0.00     0.171 HD
HETATM    4  C4  UNL     1      34.110  46.753  42.242  1.00  0.00     0.269 A 
HETATM    5  O1  UNL     1      34.326  47.604  41.343  1.00  0.00    -0.266 OA
HETATM    6  C5  UNL     1      34.549  45.432  42.075  1.00  0.00     0.119 A 
HETATM    7  C13 UNL     1      34.300  44.524  43.074  1.00  0.00     0.096 A 
HETATM    8  N2  UNL     1      33.632  44.931  44.199  1.00  0.00    -0.330 N 
ATOM      9  H2  UNL     1      33.444  44.260  44.943  1.00  0.00     0.168 HD
ENDROOT
BRANCH   6  10
HETATM   10  C6  UNL     1      35.238  45.054  40.867  1.00  0.00    -0.056 C 
HETATM   11  C7  UNL     1      35.857  44.729  39.858  1.00  0.00    -0.069 C 
BRANCH  11  12
HETATM   12  C8  UNL     1      36.630  44.338  38.683  1.00  0.00     0.200 C 
BRANCH  12  13
HETATM   13  O2  UNL     1      35.817  44.324  37.526  1.00  0.00    -0.383 OA
ATOM     14  H2  UNL     1      36.200  44.853  36.836  1.00  0.00     0.211 HD
ENDBRANCH  12  13
BRANCH  12  15
HETATM   15  C9  UNL     1      37.128  42.949  38.881  1.00  0.00     0.022 C 
HETATM   16  C10 UNL     1      36.038  42.027  38.297  1.00  0.00     0.013 C 
BRANCH  15  17
HETATM   17  C11 UNL     1      38.387  42.726  38.067  1.00  0.00     0.003 C 
HETATM   18  C12 UNL     1      39.227  41.604  38.628  1.00  0.00     0.005 C 
ENDBRANCH  15  17
ENDBRANCH  12  15
ENDBRANCH  11  12
ENDBRANCH   6  10
BRANCH   7  19
HETATM   19  S2  UNL     1      34.848  42.861  42.870  1.00  0.00    -0.110 SA
BRANCH  19  20
HETATM   20  C14 UNL     1      36.533  42.546  43.348  1.00  0.00     0.084 C 
BRANCH  20  21
HETATM   21  C15 UNL     1      37.505  42.308  42.244  1.00  0.00    -0.013 C 
HETATM   22  C16 UNL     1      37.746  40.837  41.977  1.00  0.00     0.010 C 
HETATM   23  C17 UNL     1      38.808  43.008  42.346  1.00  0.00     0.010 C 
ENDBRANCH  20  21
ENDBRANCH  19  20
ENDBRANCH   7  19
BRANCH   1  24
HETATM   24  S1  UNL     1      32.354  46.682  45.826  1.00  0.00    -0.094 SA
BRANCH  24  25
HETATM   25  C2  UNL     1      32.327  48.483  45.976  1.00  0.00     0.078 C 
HETATM   26  C1  UNL     1      31.100  49.055  45.317  1.00  0.00     0.016 C 
ENDBRANCH  24  25
ENDBRANCH   1  24
TORSDOF 10
ENDMDL
MODEL 2
REMARK VINA RESULT: -5.871917804      0.845      1.326
REMARK  10 active torsions:
REMARK  status: ('A' for Active; 'I' for Inactive)
REMARK    1  A    between atoms: C2_2  and  S1_3 
REMARK    2  A    between atoms: S1_3  and  C3_4 
REMARK    3  A    between atoms: C5_9  and  C6_10 
REMARK    4  A    between atoms: C7_11  and  C8_12 
REMARK    5  A    between atoms: C8_12  and  O2_13 
REMARK    6  A    between atoms: C8_12  and  C9_15 
REMARK    7  A    between atoms: C9_15  and  C11_17 
REMARK    8  A    between atoms: C13_19  and  S2_20 
REMARK    9  A    between atoms: S2_20  and  C14_21 
REMARK   10  A    between atoms: C14_21  and  C15_22 
ROOT
HETATM    1  C3  UNL     1      33.527  45.795  44.064  1.00  0.00     0.147 A 
HETATM    2  N1  UNL     1      33.851  46.735  43.155  1.00  0.00    -0.302 N 
ATOM      3  H1  UNL     1      33.628  47.714  43.338  1.00  0.00     0.171 HD
HETATM    4  C4  UNL     1      34.463  46.395  42.010  1.00  0.00     0.269 A 
HETATM    5  O1  UNL     1      34.762  47.277  41.168  1.00  0.00    -0.266 OA
HETATM    6  C5  UNL     1      34.771  45.051  41.756  1.00  0.00     0.119 A 
HETATM    7  C13 UNL     1      34.434  44.108  42.694  1.00  0.00     0.096 A 
HETATM    8  N2  UNL     1      33.809  44.504  43.848  1.00  0.00    -0.330 N 
ATOM      9  H2  UNL     1      33.555  43.807  44.548  1.00  0.00     0.168 HD
ENDROOT
BRANCH   6  10
HETATM   10  C6  UNL     1      35.419  44.687  40.521  1.00  0.00    -0.056 C 
HETATM   11  C7  UNL     1      35.961  44.412  39.454  1.00  0.00    -0.069 C 
BRANCH  11  12
HETATM   12  C8  UNL     1      36.595  44.125  38.171  1.00  0.00     0.200 C 
BRANCH  12  13
HETATM   13  O2  UNL     1      35.693  44.338  37.104  1.00  0.00    -0.383 OA
ATOM     14  H2  UNL     1      35.187  43.553  36.925  1.00  0.00     0.211 HD
ENDBRANCH  12  13
BRANCH  12  15
HETATM   15  C9  UNL     1      36.974  42.685  38.139  1.00  0.00     0.022 C 
HETATM   16  C10 UNL     1      38.413  42.620  38.690  1.00  0.00     0.013 C 
BRANCH  15  17
HETATM   17  C11 UNL     1      36.095  41.893  39.086  1.00  0.00     0.003 C 
HETATM   18  C12 UNL     1      36.845  40.749  39.726  1.00  0.00     0.005 C 
ENDBRANCH  15  17
ENDBRANCH  12  15
ENDBRANCH  11  12
ENDBRANCH   6  10
BRANCH   7  19
HETATM   19  S2  UNL     1      34.816  42.416  42.379  1.00  0.00    -0.110 SA
BRANCH  19  20
HETATM   20  C14 UNL     1      36.340  41.831  43.087  1.00  0.00     0.084 C 
BRANCH  20  21
HETATM   21  C15 UNL     1      37.362  42.864  43.414  1.00  0.00    -0.013 C 
HETATM   22  C16 UNL     1      38.521  42.875  42.438  1.00  0.00     0.010 C 
HETATM   23  C17 UNL     1      37.889  42.862  44.800  1.00  0.00     0.010 C 
ENDBRANCH  20  21
ENDBRANCH  19  20
ENDBRANCH   7  19
BRANCH   1  24
HETATM   24  S1  UNL     1      32.707  46.261  45.594  1.00  0.00    -0.094 SA
BRANCH  24  25
HETATM   25  C2  UNL     1      32.763  48.056  45.805  1.00  0.00     0.078 C 
HETATM   26  C1  UNL     1      31.531  48.699  45.227  1.00  0.00     0.016 C 
ENDBRANCH  24  25
ENDBRANCH   1  24
TORSDOF 10
ENDMDL
MODEL 3
REMARK VINA RESULT: -5.847214172      3.862      7.319
REMARK  10 active torsions:
REMARK  status: ('A' for Active; 'I' for Inactive)
REMARK    1  A    between atoms: C2_2  and  S1_3 
REMARK    2  A    between atoms: S1_3  and  C3_4 
REMARK    3  A    between atoms: C5_9  and  C6_10 
REMARK    4  A    between atoms: C7_11  and  C8_12 
REMARK    5  A    between atoms: C8_12  and  O2_13 
REMARK    6  A    between atoms: C8_12  and  C9_15 
REMARK    7  A    between atoms: C9_15  and  C11_17 
REMARK    8  A    between atoms: C13_19  and  S2_20 
REMARK    9  A    between atoms: S2_20  and  C14_21 
REMARK   10  A    between atoms: C14_21  and  C15_22 
ROOT
HETATM    1  C3  UNL     1      36.695  38.391  43.068  1.00  0.00     0.147 A 
HETATM    2  N1  UNL     1      35.885  38.716  44.094  1.00  0.00    -0.302 N 
ATOM      3  H1  UNL     1      35.650  38.014  44.796  1.00  0.00     0.171 HD
HETATM    4  C4  UNL     1      35.385  39.957  44.201  1.00  0.00     0.269 A 
HETATM    5  O1  UNL     1      34.631  40.252  45.161  1.00  0.00    -0.266 OA
HETATM    6  C5  UNL     1      35.707  40.925  43.239  1.00  0.00     0.119 A 
HETATM    7  C13 UNL     1      36.534  40.574  42.201  1.00  0.00     0.096 A 
HETATM    8  N2  UNL     1      37.019  39.295  42.134  1.00  0.00    -0.330 N 
ATOM      9  H2  UNL     1      37.633  39.028  41.365  1.00  0.00     0.168 HD
ENDROOT
BRANCH   6  10
HETATM   10  C6  UNL     1      35.160  42.254  43.351  1.00  0.00    -0.056 C 
HETATM   11  C7  UNL     1      34.730  43.400  43.444  1.00  0.00    -0.069 C 
BRANCH  11  12
HETATM   12  C8  UNL     1      34.260  44.778  43.551  1.00  0.00     0.200 C 
BRANCH  12  13
HETATM   13  O2  UNL     1      33.082  44.850  44.329  1.00  0.00    -0.383 OA
ATOM     14  H2  UNL     1      32.386  45.285  43.851  1.00  0.00     0.211 HD
ENDBRANCH  12  13
BRANCH  12  15
HETATM   15  C9  UNL     1      33.912  45.270  42.188  1.00  0.00     0.022 C 
HETATM   16  C10 UNL     1      33.511  46.748  42.369  1.00  0.00     0.013 C 
BRANCH  15  17
HETATM   17  C11 UNL     1      35.136  45.242  41.295  1.00  0.00     0.003 C 
HETATM   18  C12 UNL     1      34.802  45.617  39.872  1.00  0.00     0.005 C 
ENDBRANCH  15  17
ENDBRANCH  12  15
ENDBRANCH  11  12
ENDBRANCH   6  10
BRANCH   7  19
HETATM   19  S2  UNL     1      36.940  41.786  40.987  1.00  0.00    -0.110 SA
BRANCH  19  20
HETATM   20  C14 UNL     1      35.749  41.993  39.683  1.00  0.00     0.084 C 
BRANCH  20  21
HETATM   21  C15 UNL     1      36.267  41.915  38.289  1.00  0.00    -0.013 C 
HETATM   22  C16 UNL     1      37.379  40.899  38.128  1.00  0.00     0.010 C 
HETATM   23  C17 UNL     1      36.678  43.195  37.661  1.00  0.00     0.010 C 
ENDBRANCH  20  21
ENDBRANCH  19  20
ENDBRANCH   7  19
BRANCH   1  24
HETATM   24  S1  UNL     1      37.360  36.727  42.934  1.00  0.00    -0.094 SA
BRANCH  24  25
HETATM   25  C2  UNL     1      37.343  35.919  44.551  1.00  0.00     0.078 C 
HETATM   26  C1  UNL     1      36.071  35.138  44.745  1.00  0.00     0.016 C 
ENDBRANCH  24  25
ENDBRANCH   1  24
TORSDOF 10
ENDMDL
MODEL 4
REMARK VINA RESULT: -5.817949987      2.147      2.739
REMARK  10 active torsions:
REMARK  status: ('A' for Active; 'I' for Inactive)
REMARK    1  A    between atoms: C2_2  and  S1_3 
REMARK    2  A    between atoms: S1_3  and  C3_4 
REMARK    3  A    between atoms: C5_9  and  C6_10 
REMARK    4  A    between atoms: C7_11  and  C8_12 
REMARK    5  A    between atoms: C8_12  and  O2_13 
REMARK    6  A    between atoms: C8_12  and  C9_15 
REMARK    7  A    between atoms: C9_15  and  C11_17 
REMARK    8  A    between atoms: C13_19  and  S2_20 
REMARK    9  A    between atoms: S2_20  and  C14_21 
REMARK   10  A    between atoms: C14_21  and  C15_22 
ROOT
HETATM    1  C3  UNL     1      34.287  46.934  41.803  1.00  0.00     0.147 A 
HETATM    2  N1  UNL     1      34.658  46.959  40.509  1.00  0.00    -0.302 N 
ATOM      3  H1  UNL     1      34.581  47.825  39.976  1.00  0.00     0.171 HD
HETATM    4  C4  UNL     1      35.130  45.852  39.914  1.00  0.00     0.269 A 
HETATM    5  O1  UNL     1      35.475  45.883  38.706  1.00  0.00    -0.266 OA
HETATM    6  C5  UNL     1      35.239  44.659  40.643  1.00  0.00     0.119 A 
HETATM    7  C13 UNL     1      34.855  44.655  41.960  1.00  0.00     0.096 A 
HETATM    8  N2  UNL     1      34.379  45.809  42.524  1.00  0.00    -0.330 N 
ATOM      9  H2  UNL     1      34.092  45.811  43.502  1.00  0.00     0.168 HD
ENDROOT
BRANCH   6  10
HETATM   10  C6  UNL     1      35.736  43.470  39.998  1.00  0.00    -0.056 C 
HETATM   11  C7  UNL     1      36.131  42.436  39.467  1.00  0.00    -0.069 C 
BRANCH  11  12
HETATM   12  C8  UNL     1      36.568  41.185  38.856  1.00  0.00     0.200 C 
BRANCH  12  13
HETATM   13  O2  UNL     1      36.917  40.235  39.843  1.00  0.00    -0.383 OA
ATOM     14  H2  UNL     1      36.875  39.352  39.495  1.00  0.00     0.211 HD
ENDBRANCH  12  13
BRANCH  12  15
HETATM   15  C9  UNL     1      37.796  41.450  38.055  1.00  0.00     0.022 C 
HETATM   16  C10 UNL     1      37.510  42.746  37.270  1.00  0.00     0.013 C 
BRANCH  15  17
HETATM   17  C11 UNL     1      38.968  41.731  38.974  1.00  0.00     0.003 C 
HETATM   18  C12 UNL     1      39.999  40.629  38.924  1.00  0.00     0.005 C 
ENDBRANCH  15  17
ENDBRANCH  12  15
ENDBRANCH  11  12
ENDBRANCH   6  10
BRANCH   7  19
HETATM   19  S2  UNL     1      34.987  43.157  42.882  1.00  0.00    -0.110 SA
BRANCH  19  20
HETATM   20  C14 UNL     1      36.576  42.851  43.621  1.00  0.00     0.084 C 
BRANCH  20  21
HETATM   21  C15 UNL     1      37.622  42.268  42.735  1.00  0.00    -0.013 C 
HETATM   22  C16 UNL     1      38.154  40.944  43.243  1.00  0.00     0.010 C 
HETATM   23  C17 UNL     1      38.760  43.151  42.382  1.00  0.00     0.010 C 
ENDBRANCH  20  21
ENDBRANCH  19  20
ENDBRANCH   7  19
BRANCH   1  24
HETATM   24  S1  UNL     1      33.656  48.421  42.591  1.00  0.00    -0.094 SA
BRANCH  24  25
HETATM   25  C2  UNL     1      34.564  49.869  42.000  1.00  0.00     0.078 C 
HETATM   26  C1  UNL     1      36.038  49.721  42.272  1.00  0.00     0.016 C 
ENDBRANCH  24  25
ENDBRANCH   1  24
TORSDOF 10
ENDMDL
MODEL 5
REMARK VINA RESULT: -5.766164335      3.857      7.332
REMARK  10 active torsions:
REMARK  status: ('A' for Active; 'I' for Inactive)
REMARK    1  A    between atoms: C2_2  and  S1_3 
REMARK    2  A    between atoms: S1_3  and  C3_4 
REMARK    3  A    between atoms: C5_9  and  C6_10 
REMARK    4  A    between atoms: C7_11  and  C8_12 
REMARK    5  A    between atoms: C8_12  and  O2_13 
REMARK    6  A    between atoms: C8_12  and  C9_15 
REMARK    7  A    between atoms: C9_15  and  C11_17 
REMARK    8  A    between atoms: C13_19  and  S2_20 
REMARK    9  A    between atoms: S2_20  and  C14_21 
REMARK   10  A    between atoms: C14_21  and  C15_22 
ROOT
HETATM    1  C3  UNL     1      36.271  38.191  43.581  1.00  0.00     0.147 A 
HETATM    2  N1  UNL     1      35.801  38.785  44.696  1.00  0.00    -0.302 N 
ATOM      3  H1  UNL     1      35.744  38.255  45.566  1.00  0.00     0.171 HD
HETATM    4  C4  UNL     1      35.408  40.067  44.671  1.00  0.00     0.269 A 
HETATM    5  O1  UNL     1      34.971  40.613  45.714  1.00  0.00    -0.266 OA
HETATM    6  C5  UNL     1      35.485  40.799  43.477  1.00  0.00     0.119 A 
HETATM    7  C13 UNL     1      35.967  40.177  42.353  1.00  0.00     0.096 A 
HETATM    8  N2  UNL     1      36.356  38.865  42.427  1.00  0.00    -0.330 N 
ATOM      9  H2  UNL     1      36.714  38.397  41.595  1.00  0.00     0.168 HD
ENDROOT
BRANCH   6  10
HETATM   10  C6  UNL     1      35.051  42.173  43.451  1.00  0.00    -0.056 C 
HETATM   11  C7  UNL     1      34.684  43.345  43.468  1.00  0.00    -0.069 C 
BRANCH  11  12
HETATM   12  C8  UNL     1      34.252  44.737  43.532  1.00  0.00     0.200 C 
BRANCH  12  13
HETATM   13  O2  UNL     1      33.109  44.874  44.353  1.00  0.00    -0.383 OA
ATOM     14  H2  UNL     1      32.589  45.624  44.089  1.00  0.00     0.211 HD
ENDBRANCH  12  13
BRANCH  12  15
HETATM   15  C9  UNL     1      33.859  45.177  42.164  1.00  0.00     0.022 C 
HETATM   16  C10 UNL     1      33.589  46.691  42.274  1.00  0.00     0.013 C 
BRANCH  15  17
HETATM   17  C11 UNL     1      35.018  44.995  41.205  1.00  0.00     0.003 C 
HETATM   18  C12 UNL     1      35.000  46.024  40.100  1.00  0.00     0.005 C 
ENDBRANCH  15  17
ENDBRANCH  12  15
ENDBRANCH  11  12
ENDBRANCH   6  10
BRANCH   7  19
HETATM   19  S2  UNL     1      36.065  41.090  40.848  1.00  0.00    -0.110 SA
BRANCH  19  20
HETATM   20  C14 UNL     1      37.698  41.272  40.168  1.00  0.00     0.084 C 
BRANCH  20  21
HETATM   21  C15 UNL     1      38.289  42.639  40.211  1.00  0.00    -0.013 C 
HETATM   22  C16 UNL     1      38.270  43.247  41.598  1.00  0.00     0.010 C 
HETATM   23  C17 UNL     1      37.757  43.623  39.237  1.00  0.00     0.010 C 
ENDBRANCH  20  21
ENDBRANCH  19  20
ENDBRANCH   7  19
BRANCH   1  24
HETATM   24  S1  UNL     1      36.796  36.473  43.625  1.00  0.00    -0.094 SA
BRANCH  24  25
HETATM   25  C2  UNL     1      36.857  35.800  41.948  1.00  0.00     0.078 C 
HETATM   26  C1  UNL     1      38.273  35.468  41.558  1.00  0.00     0.016 C 
ENDBRANCH  24  25
ENDBRANCH   1  24
TORSDOF 10
ENDMDL
