MODEL 1
REMARK VINA RESULT: -7.690457874      0.000      0.000
REMARK  4 active torsions:
REMARK  status: ('A' for Active; 'I' for Inactive)
REMARK    1  A    between atoms: C2_2  and  C3_3 
REMARK    2  A    between atoms: C3_3  and  C4_4 
REMARK    3  A    between atoms: N1_5  and  C6_7 
REMARK    4  A    between atoms: C6_7  and  C7_8 
ROOT
HETATM    1  C7  UNL     1      40.145  35.597  37.774  1.00  0.00     0.103 A 
HETATM    2  N2  UNL     1      40.317  35.289  39.094  1.00  0.00    -0.311 N 
ATOM      3  H2  UNL     1      40.636  34.356  39.355  1.00  0.00     0.170 HD
HETATM    4  C8  UNL     1      40.071  36.201  40.056  1.00  0.00     0.256 A 
HETATM    5  O1  UNL     1      40.221  35.946  41.284  1.00  0.00    -0.267 OA
HETATM    6  C9  UNL     1      39.639  37.474  39.746  1.00  0.00     0.054 A 
HETATM    7  C10 UNL     1      39.462  37.796  38.408  1.00  0.00     0.118 A 
HETATM    8  N3  UNL     1      39.724  36.841  37.508  1.00  0.00    -0.330 N 
ATOM      9  H3  UNL     1      39.592  37.084  36.526  1.00  0.00     0.168 HD
HETATM   10  N4  UNL     1      39.027  39.018  37.827  1.00  0.00    -0.341 N 
ATOM     11  H4  UNL     1      39.001  39.058  36.808  1.00  0.00     0.167 HD
HETATM   12  C11 UNL     1      38.626  40.186  38.523  1.00  0.00     0.040 A 
HETATM   13  C12 UNL     1      37.797  41.005  37.747  1.00  0.00     0.040 A 
HETATM   14  C13 UNL     1      37.327  42.178  38.294  1.00  0.00    -0.021 A 
HETATM   15  C14 UNL     1      37.674  42.534  39.590  1.00  0.00     0.075 A 
HETATM   16  C15 UNL     1      38.495  41.699  40.322  1.00  0.00     0.046 A 
HETATM   17  C16 UNL     1      38.990  40.513  39.819  1.00  0.00    -0.028 A 
HETATM   18  C17 UNL     1      39.855  39.754  40.767  1.00  0.00     0.046 C 
HETATM   19  C18 UNL     1      39.422  38.327  40.913  1.00  0.00     0.053 C 
HETATM   20  O2  UNL     1      37.064  43.736  39.850  1.00  0.00    -0.350 OA
HETATM   21  C19 UNL     1      35.991  43.986  38.957  1.00  0.00     0.180 C 
HETATM   22  C20 UNL     1      36.442  43.235  37.726  1.00  0.00     0.068 C 
ENDROOT
BRANCH   1  23
HETATM   23  C6  UNL     1      40.407  34.604  36.704  1.00  0.00     0.198 C 
BRANCH  23  24
HETATM   24  N1  UNL     1      41.276  35.063  35.652  1.00  0.00    -0.388 N 
HETATM   25  C4  UNL     1      42.593  35.228  35.925  1.00  0.00     0.081 C 
HETATM   26  C5  UNL     1      40.628  35.398  34.459  1.00  0.00     0.149 C 
BRANCH  25  27
HETATM   27  C3  UNL     1      43.633  34.355  35.372  1.00  0.00    -0.010 C 
BRANCH  27  28
HETATM   28  C2  UNL     1      44.811  33.885  36.092  1.00  0.00     0.024 C 
HETATM   29  C1  UNL     1      46.060  34.674  36.102  1.00  0.00     0.009 C 
ENDBRANCH  27  28
ENDBRANCH  25  27
ENDBRANCH  23  24
ENDBRANCH   1  23
TORSDOF 4
ENDMDL
MODEL 2
REMARK VINA RESULT: -7.617756009      4.182      6.674
REMARK  4 active torsions:
REMARK  status: ('A' for Active; 'I' for Inactive)
REMARK    1  A    between atoms: C2_2  and  C3_3 
REMARK    2  A    between atoms: C3_3  and  C4_4 
REMARK    3  A    between atoms: N1_5  and  C6_7 
REMARK    4  A    between atoms: C6_7  and  C7_8 
ROOT
HETATM    1  C7  UNL     1      38.595  38.214  41.571  1.00  0.00     0.103 A 
HETATM    2  N2  UNL     1      39.326  38.166  40.417  1.00  0.00    -0.311 N 
ATOM      3  H2  UNL     1      39.975  37.394  40.264  1.00  0.00     0.170 HD
HETATM    4  C8  UNL     1      39.200  39.125  39.478  1.00  0.00     0.256 A 
HETATM    5  O1  UNL     1      39.862  39.108  38.402  1.00  0.00    -0.267 OA
HETATM    6  C9  UNL     1      38.334  40.186  39.643  1.00  0.00     0.054 A 
HETATM    7  C10 UNL     1      37.588  40.242  40.812  1.00  0.00     0.118 A 
HETATM    8  N3  UNL     1      37.763  39.257  41.700  1.00  0.00    -0.330 N 
ATOM      9  H3  UNL     1      37.212  39.305  42.557  1.00  0.00     0.168 HD
HETATM   10  N4  UNL     1      36.639  41.216  41.227  1.00  0.00    -0.341 N 
ATOM     11  H4  UNL     1      36.169  41.049  42.116  1.00  0.00     0.167 HD
HETATM   12  C11 UNL     1      36.283  42.397  40.528  1.00  0.00     0.040 A 
HETATM   13  C12 UNL     1      35.745  43.371  41.376  1.00  0.00     0.040 A 
HETATM   14  C13 UNL     1      35.353  44.577  40.835  1.00  0.00    -0.021 A 
HETATM   15  C14 UNL     1      35.493  44.811  39.474  1.00  0.00     0.075 A 
HETATM   16  C15 UNL     1      36.028  43.823  38.672  1.00  0.00     0.046 A 
HETATM   17  C16 UNL     1      36.436  42.601  39.165  1.00  0.00    -0.028 A 
HETATM   18  C17 UNL     1      36.989  41.672  38.138  1.00  0.00     0.046 C 
HETATM   19  C18 UNL     1      38.330  41.128  38.526  1.00  0.00     0.053 C 
HETATM   20  O2  UNL     1      35.022  46.078  39.238  1.00  0.00    -0.350 OA
HETATM   21  C19 UNL     1      34.976  46.853  40.425  1.00  0.00     0.180 C 
HETATM   22  C20 UNL     1      34.758  45.786  41.473  1.00  0.00     0.068 C 
ENDROOT
BRANCH   1  23
HETATM   23  C6  UNL     1      38.723  37.170  42.616  1.00  0.00     0.198 C 
BRANCH  23  24
HETATM   24  N1  UNL     1      37.481  36.750  43.208  1.00  0.00    -0.388 N 
HETATM   25  C4  UNL     1      37.311  36.910  44.543  1.00  0.00     0.081 C 
HETATM   26  C5  UNL     1      36.601  36.106  42.333  1.00  0.00     0.149 C 
BRANCH  25  27
HETATM   27  C3  UNL     1      36.378  37.889  45.111  1.00  0.00    -0.010 C 
BRANCH  27  28
HETATM   28  C2  UNL     1      36.438  39.332  44.901  1.00  0.00     0.024 C 
HETATM   29  C1  UNL     1      35.252  40.080  44.438  1.00  0.00     0.009 C 
ENDBRANCH  27  28
ENDBRANCH  25  27
ENDBRANCH  23  24
ENDBRANCH   1  23
TORSDOF 4
ENDMDL
MODEL 3
REMARK VINA RESULT: -7.585999269      4.167      5.635
REMARK  4 active torsions:
REMARK  status: ('A' for Active; 'I' for Inactive)
REMARK    1  A    between atoms: C2_2  and  C3_3 
REMARK    2  A    between atoms: C3_3  and  C4_4 
REMARK    3  A    between atoms: N1_5  and  C6_7 
REMARK    4  A    between atoms: C6_7  and  C7_8 
ROOT
HETATM    1  C7  UNL     1      38.531  38.202  41.481  1.00  0.00     0.103 A 
HETATM    2  N2  UNL     1      39.294  38.199  40.347  1.00  0.00    -0.311 N 
ATOM      3  H2  UNL     1      39.949  37.434  40.183  1.00  0.00     0.170 HD
HETATM    4  C8  UNL     1      39.193  39.194  39.443  1.00  0.00     0.256 A 
HETATM    5  O1  UNL     1      39.885  39.219  38.386  1.00  0.00    -0.267 OA
HETATM    6  C9  UNL     1      38.320  40.246  39.624  1.00  0.00     0.054 A 
HETATM    7  C10 UNL     1      37.541  40.257  40.773  1.00  0.00     0.118 A 
HETATM    8  N3  UNL     1      37.694  39.238  41.627  1.00  0.00    -0.330 N 
ATOM      9  H3  UNL     1      37.118  39.252  42.469  1.00  0.00     0.168 HD
HETATM   10  N4  UNL     1      36.580  41.213  41.199  1.00  0.00    -0.341 N 
ATOM     11  H4  UNL     1      36.084  41.011  42.067  1.00  0.00     0.167 HD
HETATM   12  C11 UNL     1      36.241  42.420  40.536  1.00  0.00     0.040 A 
HETATM   13  C12 UNL     1      35.677  43.360  41.406  1.00  0.00     0.040 A 
HETATM   14  C13 UNL     1      35.298  44.585  40.901  1.00  0.00    -0.021 A 
HETATM   15  C14 UNL     1      35.475  44.871  39.555  1.00  0.00     0.075 A 
HETATM   16  C15 UNL     1      36.035  43.916  38.730  1.00  0.00     0.046 A 
HETATM   17  C16 UNL     1      36.431  42.676  39.187  1.00  0.00    -0.028 A 
HETATM   18  C17 UNL     1      37.015  41.789  38.141  1.00  0.00     0.046 C 
HETATM   19  C18 UNL     1      38.345  41.231  38.545  1.00  0.00     0.053 C 
HETATM   20  O2  UNL     1      35.009  46.146  39.355  1.00  0.00    -0.350 OA
HETATM   21  C19 UNL     1      34.928  46.875  40.569  1.00  0.00     0.180 C 
HETATM   22  C20 UNL     1      34.683  45.768  41.568  1.00  0.00     0.068 C 
ENDROOT
BRANCH   1  23
HETATM   23  C6  UNL     1      38.632  37.118  42.488  1.00  0.00     0.198 C 
BRANCH  23  24
HETATM   24  N1  UNL     1      37.976  35.890  42.124  1.00  0.00    -0.388 N 
HETATM   25  C4  UNL     1      38.732  34.860  41.672  1.00  0.00     0.081 C 
HETATM   26  C5  UNL     1      36.579  35.931  42.177  1.00  0.00     0.149 C 
BRANCH  25  27
HETATM   27  C3  UNL     1      38.944  33.633  42.446  1.00  0.00    -0.010 C 
BRANCH  27  28
HETATM   28  C2  UNL     1      37.897  32.857  43.102  1.00  0.00     0.024 C 
HETATM   29  C1  UNL     1      37.930  31.381  43.098  1.00  0.00     0.009 C 
ENDBRANCH  27  28
ENDBRANCH  25  27
ENDBRANCH  23  24
ENDBRANCH   1  23
TORSDOF 4
ENDMDL
MODEL 4
REMARK VINA RESULT: -7.578086498      3.232      6.097
REMARK  4 active torsions:
REMARK  status: ('A' for Active; 'I' for Inactive)
REMARK    1  A    between atoms: C2_2  and  C3_3 
REMARK    2  A    between atoms: C3_3  and  C4_4 
REMARK    3  A    between atoms: N1_5  and  C6_7 
REMARK    4  A    between atoms: C6_7  and  C7_8 
ROOT
HETATM    1  C7  UNL     1      38.212  40.187  40.277  1.00  0.00     0.103 A 
HETATM    2  N2  UNL     1      38.832  40.831  39.243  1.00  0.00    -0.311 N 
ATOM      3  H2  UNL     1      39.568  40.354  38.722  1.00  0.00     0.170 HD
HETATM    4  C8  UNL     1      38.482  42.088  38.902  1.00  0.00     0.256 A 
HETATM    5  O1  UNL     1      39.036  42.708  37.952  1.00  0.00    -0.267 OA
HETATM    6  C9  UNL     1      37.492  42.768  39.579  1.00  0.00     0.054 A 
HETATM    7  C10 UNL     1      36.858  42.122  40.631  1.00  0.00     0.118 A 
HETATM    8  N3  UNL     1      37.255  40.876  40.914  1.00  0.00    -0.330 N 
ATOM      9  H3  UNL     1      36.785  40.407  41.688  1.00  0.00     0.168 HD
HETATM   10  N4  UNL     1      35.823  42.593  41.483  1.00  0.00    -0.341 N 
ATOM     11  H4  UNL     1      35.466  41.937  42.178  1.00  0.00     0.167 HD
HETATM   12  C11 UNL     1      35.237  43.884  41.463  1.00  0.00     0.040 A 
HETATM   13  C12 UNL     1      34.646  44.215  42.688  1.00  0.00     0.040 A 
HETATM   14  C13 UNL     1      34.037  45.444  42.818  1.00  0.00    -0.021 A 
HETATM   15  C14 UNL     1      34.013  46.329  41.749  1.00  0.00     0.075 A 
HETATM   16  C15 UNL     1      34.608  45.964  40.558  1.00  0.00     0.046 A 
HETATM   17  C16 UNL     1      35.231  44.746  40.378  1.00  0.00    -0.028 A 
HETATM   18  C17 UNL     1      35.813  44.544  39.021  1.00  0.00     0.046 C 
HETATM   19  C18 UNL     1      37.248  44.118  39.075  1.00  0.00     0.053 C 
HETATM   20  O2  UNL     1      33.346  47.450  42.175  1.00  0.00    -0.350 OA
HETATM   21  C19 UNL     1      33.300  47.530  43.591  1.00  0.00     0.180 C 
HETATM   22  C20 UNL     1      33.337  46.069  43.976  1.00  0.00     0.068 C 
ENDROOT
BRANCH   1  23
HETATM   23  C6  UNL     1      38.587  38.806  40.668  1.00  0.00     0.198 C 
BRANCH  23  24
HETATM   24  N1  UNL     1      39.703  38.254  39.946  1.00  0.00    -0.388 N 
HETATM   25  C4  UNL     1      39.458  37.526  38.831  1.00  0.00     0.081 C 
HETATM   26  C5  UNL     1      40.948  38.447  40.554  1.00  0.00     0.149 C 
BRANCH  25  27
HETATM   27  C3  UNL     1      39.795  38.001  37.485  1.00  0.00    -0.010 C 
BRANCH  27  28
HETATM   28  C2  UNL     1      40.155  37.150  36.355  1.00  0.00     0.024 C 
HETATM   29  C1  UNL     1      40.177  35.680  36.489  1.00  0.00     0.009 C 
ENDBRANCH  27  28
ENDBRANCH  25  27
ENDBRANCH  23  24
ENDBRANCH   1  23
TORSDOF 4
ENDMDL
MODEL 5
REMARK VINA RESULT: -7.561900403      3.311      4.709
REMARK  4 active torsions:
REMARK  status: ('A' for Active; 'I' for Inactive)
REMARK    1  A    between atoms: C2_2  and  C3_3 
REMARK    2  A    between atoms: C3_3  and  C4_4 
REMARK    3  A    between atoms: N1_5  and  C6_7 
REMARK    4  A    between atoms: C6_7  and  C7_8 
ROOT
HETATM    1  C7  UNL     1      40.226  38.412  41.583  1.00  0.00     0.103 A 
HETATM    2  N2  UNL     1      40.561  38.134  40.287  1.00  0.00    -0.311 N 
ATOM      3  H2  UNL     1      41.245  37.404  40.090  1.00  0.00     0.170 HD
HETATM    4  C8  UNL     1      39.999  38.812  39.266  1.00  0.00     0.256 A 
HETATM    5  O1  UNL     1      40.288  38.579  38.059  1.00  0.00    -0.267 OA
HETATM    6  C9  UNL     1      39.069  39.807  39.488  1.00  0.00     0.054 A 
HETATM    7  C10 UNL     1      38.722  40.095  40.800  1.00  0.00     0.118 A 
HETATM    8  N3  UNL     1      39.320  39.383  41.763  1.00  0.00    -0.330 N 
ATOM      9  H3  UNL     1      39.060  39.600  42.725  1.00  0.00     0.168 HD
HETATM   10  N4  UNL     1      37.807  41.062  41.298  1.00  0.00    -0.341 N 
ATOM     11  H4  UNL     1      37.668  41.086  42.308  1.00  0.00     0.167 HD
HETATM   12  C11 UNL     1      37.067  41.996  40.528  1.00  0.00     0.040 A 
HETATM   13  C12 UNL     1      36.670  43.105  41.283  1.00  0.00     0.040 A 
HETATM   14  C13 UNL     1      35.943  44.099  40.666  1.00  0.00    -0.021 A 
HETATM   15  C14 UNL     1      35.614  43.994  39.321  1.00  0.00     0.075 A 
HETATM   16  C15 UNL     1      36.025  42.882  38.612  1.00  0.00     0.046 A 
HETATM   17  C16 UNL     1      36.756  41.861  39.184  1.00  0.00    -0.028 A 
HETATM   18  C17 UNL     1      37.104  40.752  38.251  1.00  0.00     0.046 C 
HETATM   19  C18 UNL     1      38.568  40.434  38.267  1.00  0.00     0.053 C 
HETATM   20  O2  UNL     1      34.898  45.118  38.997  1.00  0.00    -0.350 OA
HETATM   21  C19 UNL     1      35.098  46.161  39.938  1.00  0.00     0.180 C 
HETATM   22  C20 UNL     1      35.390  45.377  41.197  1.00  0.00     0.068 C 
ENDROOT
BRANCH   1  23
HETATM   23  C6  UNL     1      40.837  37.678  42.717  1.00  0.00     0.198 C 
BRANCH  23  24
HETATM   24  N1  UNL     1      42.274  37.741  42.775  1.00  0.00    -0.388 N 
HETATM   25  C4  UNL     1      42.976  36.583  42.719  1.00  0.00     0.081 C 
HETATM   26  C5  UNL     1      42.797  39.018  42.995  1.00  0.00     0.149 C 
BRANCH  25  27
HETATM   27  C3  UNL     1      43.794  36.208  41.561  1.00  0.00    -0.010 C 
BRANCH  27  28
HETATM   28  C2  UNL     1      45.059  35.484  41.621  1.00  0.00     0.024 C 
HETATM   29  C1  UNL     1      45.983  35.473  40.469  1.00  0.00     0.009 C 
ENDBRANCH  27  28
ENDBRANCH  25  27
ENDBRANCH  23  24
ENDBRANCH   1  23
TORSDOF 4
ENDMDL
