MODEL 1
REMARK VINA RESULT: -6.157279668      0.000      0.000
REMARK  9 active torsions:
REMARK  status: ('A' for Active; 'I' for Inactive)
REMARK    1  A    between atoms: C2_2  and  N1_3 
REMARK    2  A    between atoms: N1_3  and  C3_4 
REMARK    3  A    between atoms: N1_3  and  C5_6 
REMARK    4  A    between atoms: C8_9  and  C9_10 
REMARK    5  A    between atoms: C10_11  and  C11_12 
REMARK    6  A    between atoms: C11_12  and  O1_13 
REMARK    7  A    between atoms: N2_15  and  O2_17 
REMARK    8  A    between atoms: O2_17  and  C12_18 
REMARK    9  A    between atoms: C16_25  and  N5_26 
ROOT
HETATM    1  C5  UNL     1      39.554  39.370  40.506  1.00  0.00     0.064 A 
HETATM    2  C6  UNL     1      39.839  40.155  39.363  1.00  0.00     0.033 A 
HETATM    3  C7  UNL     1      38.972  41.098  38.868  1.00  0.00     0.014 A 
HETATM    4  C8  UNL     1      37.784  41.282  39.508  1.00  0.00    -0.028 A 
HETATM    5  C14 UNL     1      37.477  40.521  40.639  1.00  0.00    -0.016 A 
HETATM    6  C15 UNL     1      36.199  40.734  41.330  1.00  0.00     0.052 C 
HETATM    7  C16 UNL     1      38.360  39.557  41.149  1.00  0.00     0.136 A 
ENDROOT
BRANCH   4   8
HETATM    8  C9  UNL     1      36.798  42.271  39.026  1.00  0.00     0.016 C 
HETATM    9  C10 UNL     1      37.064  43.535  38.975  1.00  0.00     0.058 C 
BRANCH   9  10
HETATM   10  C11 UNL     1      36.132  44.536  38.511  1.00  0.00     0.160 C 
HETATM   11  N2  UNL     1      35.581  45.448  39.139  1.00  0.00    -0.236 N 
ATOM     12  H2  UNL     1      34.961  46.027  38.573  1.00  0.00     0.197 HD
BRANCH  10  13
HETATM   13  O1  UNL     1      35.783  44.480  37.115  1.00  0.00    -0.345 OA
ATOM     14  H1  UNL     1      34.863  44.345  36.919  1.00  0.00     0.219 HD
ENDBRANCH  10  13
BRANCH  11  15
HETATM   15  O2  UNL     1      35.648  45.812  40.413  1.00  0.00    -0.202 OA
BRANCH  15  16
HETATM   16  C12 UNL     1      34.655  45.332  41.291  1.00  0.00     0.251 C 
HETATM   17  N3  UNL     1      33.379  45.911  41.312  1.00  0.00    -0.055 NA
HETATM   18  N4  UNL     1      34.957  44.364  42.055  1.00  0.00    -0.361 N 
HETATM   19  C13 UNL     1      34.120  43.718  43.021  1.00  0.00     0.149 C 
ATOM     20  H4  UNL     1      35.908  44.004  41.972  1.00  0.00     0.162 HD
ENDBRANCH  15  16
ENDBRANCH  11  15
ENDBRANCH   9  10
ENDBRANCH   4   8
BRANCH   7  21
HETATM   21  N5  UNL     1      37.935  38.871  42.306  1.00  0.00    -0.113 N 
HETATM   22  O3  UNL     1      37.303  37.778  42.178  1.00  0.00    -0.532 OA
HETATM   23  O4  UNL     1      38.173  39.237  43.603  1.00  0.00    -0.532 OA
ENDBRANCH   7  21
BRANCH   1  24
HETATM   24  N1  UNL     1      40.480  38.400  40.896  1.00  0.00    -0.380 N 
BRANCH  24  25
HETATM   25  C2  UNL     1      41.720  38.896  41.541  1.00  0.00     0.118 C 
HETATM   26  C1  UNL     1      42.666  37.760  41.784  1.00  0.00     0.026 C 
ENDBRANCH  24  25
BRANCH  24  27
HETATM   27  C3  UNL     1      40.468  36.979  40.701  1.00  0.00     0.118 C 
HETATM   28  C4  UNL     1      39.665  36.649  39.484  1.00  0.00     0.026 C 
ENDBRANCH  24  27
ENDBRANCH   1  24
TORSDOF 9
ENDMDL
MODEL 2
REMARK VINA RESULT: -6.145762156      2.301      3.448
REMARK  9 active torsions:
REMARK  status: ('A' for Active; 'I' for Inactive)
REMARK    1  A    between atoms: C2_2  and  N1_3 
REMARK    2  A    between atoms: N1_3  and  C3_4 
REMARK    3  A    between atoms: N1_3  and  C5_6 
REMARK    4  A    between atoms: C8_9  and  C9_10 
REMARK    5  A    between atoms: C10_11  and  C11_12 
REMARK    6  A    between atoms: C11_12  and  O1_13 
REMARK    7  A    between atoms: N2_15  and  O2_17 
REMARK    8  A    between atoms: O2_17  and  C12_18 
REMARK    9  A    between atoms: C16_25  and  N5_26 
ROOT
HETATM    1  C5  UNL     1      37.239  39.395  41.819  1.00  0.00     0.064 A 
HETATM    2  C6  UNL     1      36.047  40.042  42.227  1.00  0.00     0.033 A 
HETATM    3  C7  UNL     1      35.548  41.156  41.599  1.00  0.00     0.014 A 
HETATM    4  C8  UNL     1      36.232  41.659  40.534  1.00  0.00    -0.028 A 
HETATM    5  C14 UNL     1      37.410  41.040  40.109  1.00  0.00    -0.016 A 
HETATM    6  C15 UNL     1      38.137  41.581  38.954  1.00  0.00     0.052 C 
HETATM    7  C16 UNL     1      37.925  39.901  40.748  1.00  0.00     0.136 A 
ENDROOT
BRANCH   4   8
HETATM    8  C9  UNL     1      35.759  42.860  39.816  1.00  0.00     0.016 C 
HETATM    9  C10 UNL     1      35.646  44.007  40.401  1.00  0.00     0.058 C 
BRANCH   9  10
HETATM   10  C11 UNL     1      35.189  45.207  39.739  1.00  0.00     0.160 C 
HETATM   11  N2  UNL     1      34.294  45.994  40.069  1.00  0.00    -0.236 N 
ATOM     12  H2  UNL     1      34.167  46.774  39.424  1.00  0.00     0.197 HD
BRANCH  10  13
HETATM   13  O1  UNL     1      35.863  45.552  38.514  1.00  0.00    -0.345 OA
ATOM     14  H1  UNL     1      36.266  44.834  38.041  1.00  0.00     0.219 HD
ENDBRANCH  10  13
BRANCH  11  15
HETATM   15  O2  UNL     1      33.469  46.011  41.107  1.00  0.00    -0.202 OA
BRANCH  15  16
HETATM   16  C12 UNL     1      33.544  47.104  41.995  1.00  0.00     0.251 C 
HETATM   17  N3  UNL     1      33.662  46.897  43.376  1.00  0.00    -0.055 NA
HETATM   18  N4  UNL     1      33.501  48.273  41.501  1.00  0.00    -0.361 N 
HETATM   19  C13 UNL     1      33.559  49.521  42.200  1.00  0.00     0.149 C 
ATOM     20  H4  UNL     1      33.416  48.330  40.486  1.00  0.00     0.162 HD
ENDBRANCH  15  16
ENDBRANCH  11  15
ENDBRANCH   9  10
ENDBRANCH   4   8
BRANCH   7  21
HETATM   21  N5  UNL     1      39.112  39.365  40.207  1.00  0.00    -0.113 N 
HETATM   22  O3  UNL     1      40.227  39.686  40.725  1.00  0.00    -0.532 OA
HETATM   23  O4  UNL     1      39.206  38.468  39.179  1.00  0.00    -0.532 OA
ENDBRANCH   7  21
BRANCH   1  24
HETATM   24  N1  UNL     1      37.691  38.301  42.560  1.00  0.00    -0.380 N 
BRANCH  24  25
HETATM   25  C2  UNL     1      37.039  36.999  42.275  1.00  0.00     0.118 C 
HETATM   26  C1  UNL     1      37.972  36.111  41.509  1.00  0.00     0.026 C 
ENDBRANCH  24  25
BRANCH  24  27
HETATM   27  C3  UNL     1      38.645  38.239  43.628  1.00  0.00     0.118 C 
HETATM   28  C4  UNL     1      37.935  37.977  44.918  1.00  0.00     0.026 C 
ENDBRANCH  24  27
ENDBRANCH   1  24
TORSDOF 9
ENDMDL
MODEL 3
REMARK VINA RESULT: -6.133951534      3.373      5.312
REMARK  9 active torsions:
REMARK  status: ('A' for Active; 'I' for Inactive)
REMARK    1  A    between atoms: C2_2  and  N1_3 
REMARK    2  A    between atoms: N1_3  and  C3_4 
REMARK    3  A    between atoms: N1_3  and  C5_6 
REMARK    4  A    between atoms: C8_9  and  C9_10 
REMARK    5  A    between atoms: C10_11  and  C11_12 
REMARK    6  A    between atoms: C11_12  and  O1_13 
REMARK    7  A    between atoms: N2_15  and  O2_17 
REMARK    8  A    between atoms: O2_17  and  C12_18 
REMARK    9  A    between atoms: C16_25  and  N5_26 
ROOT
HETATM    1  C5  UNL     1      36.636  43.000  40.321  1.00  0.00     0.064 A 
HETATM    2  C6  UNL     1      36.556  44.116  39.454  1.00  0.00     0.033 A 
HETATM    3  C7  UNL     1      35.766  45.209  39.712  1.00  0.00     0.014 A 
HETATM    4  C8  UNL     1      35.028  45.217  40.857  1.00  0.00    -0.028 A 
HETATM    5  C14 UNL     1      35.088  44.129  41.731  1.00  0.00    -0.016 A 
HETATM    6  C15 UNL     1      34.298  44.149  42.968  1.00  0.00     0.052 C 
HETATM    7  C16 UNL     1      35.894  43.010  41.471  1.00  0.00     0.136 A 
ENDROOT
BRANCH   4   8
HETATM    8  C9  UNL     1      34.148  46.355  41.195  1.00  0.00     0.016 C 
HETATM    9  C10 UNL     1      34.619  47.525  41.474  1.00  0.00     0.058 C 
BRANCH   9  10
HETATM   10  C11 UNL     1      33.798  48.665  41.809  1.00  0.00     0.160 C 
HETATM   11  N2  UNL     1      33.110  48.869  42.816  1.00  0.00    -0.236 N 
ATOM     12  H2  UNL     1      32.621  49.764  42.812  1.00  0.00     0.197 HD
BRANCH  10  13
HETATM   13  O1  UNL     1      33.765  49.730  40.840  1.00  0.00    -0.345 OA
ATOM     14  H1  UNL     1      33.260  50.499  41.080  1.00  0.00     0.219 HD
ENDBRANCH  10  13
BRANCH  11  15
HETATM   15  O2  UNL     1      32.891  48.138  43.901  1.00  0.00    -0.202 OA
BRANCH  15  16
HETATM   16  C12 UNL     1      31.881  48.560  44.790  1.00  0.00     0.251 C 
HETATM   17  N3  UNL     1      31.827  48.062  46.100  1.00  0.00    -0.055 NA
HETATM   18  N4  UNL     1      31.030  49.401  44.366  1.00  0.00    -0.361 N 
HETATM   19  C13 UNL     1      29.926  49.967  45.081  1.00  0.00     0.149 C 
ATOM     20  H4  UNL     1      31.146  49.711  43.400  1.00  0.00     0.162 HD
ENDBRANCH  15  16
ENDBRANCH  11  15
ENDBRANCH   9  10
ENDBRANCH   4   8
BRANCH   7  21
HETATM   21  N5  UNL     1      35.877  41.988  42.445  1.00  0.00    -0.113 N 
HETATM   22  O3  UNL     1      35.074  41.015  42.304  1.00  0.00    -0.532 OA
HETATM   23  O4  UNL     1      36.688  41.896  43.543  1.00  0.00    -0.532 OA
ENDBRANCH   7  21
BRANCH   1  24
HETATM   24  N1  UNL     1      37.428  41.915  39.939  1.00  0.00    -0.380 N 
BRANCH  24  25
HETATM   25  C2  UNL     1      36.813  40.953  38.992  1.00  0.00     0.118 C 
HETATM   26  C1  UNL     1      37.544  40.976  37.684  1.00  0.00     0.026 C 
ENDBRANCH  24  25
BRANCH  24  27
HETATM   27  C3  UNL     1      38.736  41.524  40.378  1.00  0.00     0.118 C 
HETATM   28  C4  UNL     1      38.659  40.192  41.054  1.00  0.00     0.026 C 
ENDBRANCH  24  27
ENDBRANCH   1  24
TORSDOF 9
ENDMDL
MODEL 4
REMARK VINA RESULT: -6.131138274      2.575      3.890
REMARK  9 active torsions:
REMARK  status: ('A' for Active; 'I' for Inactive)
REMARK    1  A    between atoms: C2_2  and  N1_3 
REMARK    2  A    between atoms: N1_3  and  C3_4 
REMARK    3  A    between atoms: N1_3  and  C5_6 
REMARK    4  A    between atoms: C8_9  and  C9_10 
REMARK    5  A    between atoms: C10_11  and  C11_12 
REMARK    6  A    between atoms: C11_12  and  O1_13 
REMARK    7  A    between atoms: N2_15  and  O2_17 
REMARK    8  A    between atoms: O2_17  and  C12_18 
REMARK    9  A    between atoms: C16_25  and  N5_26 
ROOT
HETATM    1  C5  UNL     1      36.665  39.703  42.347  1.00  0.00     0.064 A 
HETATM    2  C6  UNL     1      35.461  40.433  42.495  1.00  0.00     0.033 A 
HETATM    3  C7  UNL     1      35.150  41.526  41.723  1.00  0.00     0.014 A 
HETATM    4  C8  UNL     1      36.043  41.922  40.774  1.00  0.00    -0.028 A 
HETATM    5  C14 UNL     1      37.238  41.219  40.607  1.00  0.00    -0.016 A 
HETATM    6  C15 UNL     1      38.191  41.645  39.574  1.00  0.00     0.052 C 
HETATM    7  C16 UNL     1      37.560  40.102  41.393  1.00  0.00     0.136 A 
ENDROOT
BRANCH   4   8
HETATM    8  C9  UNL     1      35.779  43.094  39.914  1.00  0.00     0.016 C 
HETATM    9  C10 UNL     1      35.647  44.284  40.400  1.00  0.00     0.058 C 
BRANCH   9  10
HETATM   10  C11 UNL     1      35.389  45.458  39.599  1.00  0.00     0.160 C 
HETATM   11  N2  UNL     1      34.952  46.563  39.941  1.00  0.00    -0.236 N 
ATOM     12  H2  UNL     1      34.863  47.230  39.175  1.00  0.00     0.197 HD
BRANCH  10  13
HETATM   13  O1  UNL     1      35.679  45.342  38.193  1.00  0.00    -0.345 OA
ATOM     14  H1  UNL     1      35.049  45.740  37.601  1.00  0.00     0.219 HD
ENDBRANCH  10  13
BRANCH  11  15
HETATM   15  O2  UNL     1      34.578  47.040  41.121  1.00  0.00    -0.202 OA
BRANCH  15  16
HETATM   16  C12 UNL     1      34.558  48.439  41.293  1.00  0.00     0.251 C 
HETATM   17  N3  UNL     1      35.750  49.178  41.283  1.00  0.00    -0.055 NA
HETATM   18  N4  UNL     1      33.431  49.001  41.455  1.00  0.00    -0.361 N 
HETATM   19  C13 UNL     1      33.168  50.395  41.648  1.00  0.00     0.149 C 
ATOM     20  H4  UNL     1      32.617  48.387  41.447  1.00  0.00     0.162 HD
ENDBRANCH  15  16
ENDBRANCH  11  15
ENDBRANCH   9  10
ENDBRANCH   4   8
BRANCH   7  21
HETATM   21  N5  UNL     1      38.791  39.473  41.109  1.00  0.00    -0.113 N 
HETATM   22  O3  UNL     1      39.819  39.797  41.780  1.00  0.00    -0.532 OA
HETATM   23  O4  UNL     1      39.006  38.482  40.190  1.00  0.00    -0.532 OA
ENDBRANCH   7  21
BRANCH   1  24
HETATM   24  N1  UNL     1      36.910  38.640  43.220  1.00  0.00    -0.380 N 
BRANCH  24  25
HETATM   25  C2  UNL     1      36.785  37.277  42.648  1.00  0.00     0.118 C 
HETATM   26  C1  UNL     1      36.582  36.274  43.743  1.00  0.00     0.026 C 
ENDBRANCH  24  25
BRANCH  24  27
HETATM   27  C3  UNL     1      37.191  38.645  44.626  1.00  0.00     0.118 C 
HETATM   28  C4  UNL     1      38.213  39.694  44.927  1.00  0.00     0.026 C 
ENDBRANCH  24  27
ENDBRANCH   1  24
TORSDOF 9
ENDMDL
MODEL 5
REMARK VINA RESULT: -6.118046178      2.281      3.131
REMARK  9 active torsions:
REMARK  status: ('A' for Active; 'I' for Inactive)
REMARK    1  A    between atoms: C2_2  and  N1_3 
REMARK    2  A    between atoms: N1_3  and  C3_4 
REMARK    3  A    between atoms: N1_3  and  C5_6 
REMARK    4  A    between atoms: C8_9  and  C9_10 
REMARK    5  A    between atoms: C10_11  and  C11_12 
REMARK    6  A    between atoms: C11_12  and  O1_13 
REMARK    7  A    between atoms: N2_15  and  O2_17 
REMARK    8  A    between atoms: O2_17  and  C12_18 
REMARK    9  A    between atoms: C16_25  and  N5_26 
ROOT
HETATM    1  C5  UNL     1      37.414  39.392  41.620  1.00  0.00     0.064 A 
HETATM    2  C6  UNL     1      36.250  40.047  42.091  1.00  0.00     0.033 A 
HETATM    3  C7  UNL     1      35.727  41.165  41.491  1.00  0.00     0.014 A 
HETATM    4  C8  UNL     1      36.359  41.664  40.392  1.00  0.00    -0.028 A 
HETATM    5  C14 UNL     1      37.508  41.037  39.905  1.00  0.00    -0.016 A 
HETATM    6  C15 UNL     1      38.178  41.574  38.714  1.00  0.00     0.052 C 
HETATM    7  C16 UNL     1      38.047  39.894  40.516  1.00  0.00     0.136 A 
ENDROOT
BRANCH   4   8
HETATM    8  C9  UNL     1      35.858  42.870  39.700  1.00  0.00     0.016 C 
HETATM    9  C10 UNL     1      35.707  43.998  40.313  1.00  0.00     0.058 C 
BRANCH   9  10
HETATM   10  C11 UNL     1      35.221  45.201  39.678  1.00  0.00     0.160 C 
HETATM   11  N2  UNL     1      34.309  45.960  40.025  1.00  0.00    -0.236 N 
ATOM     12  H2  UNL     1      34.164  46.750  39.397  1.00  0.00     0.197 HD
BRANCH  10  13
HETATM   13  O1  UNL     1      35.887  45.589  38.460  1.00  0.00    -0.345 OA
ATOM     14  H1  UNL     1      35.918  44.934  37.773  1.00  0.00     0.219 HD
ENDBRANCH  10  13
BRANCH  11  15
HETATM   15  O2  UNL     1      33.484  45.934  41.063  1.00  0.00    -0.202 OA
BRANCH  15  16
HETATM   16  C12 UNL     1      33.529  47.013  41.970  1.00  0.00     0.251 C 
HETATM   17  N3  UNL     1      33.564  46.784  43.353  1.00  0.00    -0.055 NA
HETATM   18  N4  UNL     1      33.537  48.189  41.493  1.00  0.00    -0.361 N 
HETATM   19  C13 UNL     1      33.578  49.426  42.214  1.00  0.00     0.149 C 
ATOM     20  H4  UNL     1      33.510  48.263  40.476  1.00  0.00     0.162 HD
ENDBRANCH  15  16
ENDBRANCH  11  15
ENDBRANCH   9  10
ENDBRANCH   4   8
BRANCH   7  21
HETATM   21  N5  UNL     1      39.200  39.349  39.913  1.00  0.00    -0.113 N 
HETATM   22  O3  UNL     1      40.343  39.687  40.351  1.00  0.00    -0.532 OA
HETATM   23  O4  UNL     1      39.233  38.428  38.902  1.00  0.00    -0.532 OA
ENDBRANCH   7  21
BRANCH   1  24
HETATM   24  N1  UNL     1      37.895  38.293  42.336  1.00  0.00    -0.380 N 
BRANCH  24  25
HETATM   25  C2  UNL     1      38.616  38.594  43.597  1.00  0.00     0.118 C 
HETATM   26  C1  UNL     1      40.034  38.118  43.509  1.00  0.00     0.026 C 
ENDBRANCH  24  25
BRANCH  24  27
HETATM   27  C3  UNL     1      37.878  36.897  42.009  1.00  0.00     0.118 C 
HETATM   28  C4  UNL     1      36.522  36.335  42.294  1.00  0.00     0.026 C 
ENDBRANCH  24  27
ENDBRANCH   1  24
TORSDOF 9
ENDMDL
