MODEL 1
REMARK VINA RESULT: -6.094353283      0.000      0.000
REMARK  8 active torsions:
REMARK  status: ('A' for Active; 'I' for Inactive)
REMARK    1  A    between atoms: C2_4  and  C3_5 
REMARK    2  A    between atoms: C4_6  and  O1_7 
REMARK    3  A    between atoms: C5_9  and  C6_10 
REMARK    4  A    between atoms: N2_17  and  C13_18 
REMARK    5  A    between atoms: C13_18  and  C14_19 
REMARK    6  A    between atoms: C13_18  and  C15_22 
REMARK    7  A    between atoms: C14_19  and  O2_20 
REMARK    8  A    between atoms: C15_22  and  N3_23 
ROOT
HETATM    1  C3  UNL     1      37.592  38.859  42.960  1.00  0.00     0.084 A 
HETATM    2  C4  UNL     1      36.654  39.609  42.299  1.00  0.00     0.102 A 
HETATM    3  C5  UNL     1      37.364  40.601  41.606  1.00  0.00    -0.003 A 
HETATM    4  C12 UNL     1      38.706  40.432  41.859  1.00  0.00     0.102 A 
HETATM    5  N2  UNL     1      38.803  39.391  42.663  1.00  0.00    -0.344 N 
ENDROOT
BRANCH   5   6
HETATM    6  C13 UNL     1      40.066  38.838  43.195  1.00  0.00     0.141 C 
BRANCH   6   7
HETATM    7  C14 UNL     1      40.592  39.673  44.289  1.00  0.00     0.191 C 
BRANCH   7   8
HETATM    8  O2  UNL     1      41.611  40.533  44.014  1.00  0.00    -0.399 OA
ATOM      9  H2  UNL     1      42.046  40.966  44.740  1.00  0.00     0.209 HD
ENDBRANCH   7   8
ENDBRANCH   6   7
BRANCH   6  10
HETATM   10  C15 UNL     1      40.985  38.633  42.056  1.00  0.00     0.300 C 
BRANCH  10  11
HETATM   11  N3  UNL     1      41.097  37.361  41.405  1.00  0.00     0.090 N 
HETATM   12  C16 UNL     1      40.638  36.368  42.447  1.00  0.00     0.272 C 
HETATM   13  C17 UNL     1      40.786  35.006  41.883  1.00  0.00     0.030 C 
HETATM   14  C18 UNL     1      39.593  34.797  40.939  1.00  0.00     0.003 C 
HETATM   15  C19 UNL     1      39.037  36.175  40.642  1.00  0.00     0.030 C 
HETATM   16  C20 UNL     1      40.097  37.193  40.338  1.00  0.00     0.272 C 
ENDBRANCH  10  11
ENDBRANCH   6  10
ENDBRANCH   5   6
BRANCH   1  17
HETATM   17  C2  UNL     1      37.382  37.694  43.827  1.00  0.00     0.115 C 
HETATM   18  N1  UNL     1      36.427  36.882  43.593  1.00  0.00    -0.401 N 
HETATM   19  C1  UNL     1      36.200  35.730  44.430  1.00  0.00     0.145 C 
ATOM     20  H1  UNL     1      35.813  37.049  42.797  1.00  0.00     0.158 HD
ENDBRANCH   1  17
BRANCH   2  21
HETATM   21  O1  UNL     1      35.281  39.475  42.275  1.00  0.00    -0.358 OA
ATOM     22  H1  UNL     1      34.613  40.022  42.671  1.00  0.00     0.217 HD
ENDBRANCH   2  21
BRANCH   3  23
HETATM   23  C6  UNL     1      36.759  41.631  40.758  1.00  0.00     0.023 C 
HETATM   24  C7  UNL     1      36.878  41.218  39.291  1.00  0.00     0.009 C 
HETATM   25  C8  UNL     1      35.930  42.158  38.544  1.00  0.00     0.001 C 
HETATM   26  C9  UNL     1      36.409  43.580  38.646  1.00  0.00     0.000 C 
HETATM   27  C10 UNL     1      36.637  43.966  40.077  1.00  0.00     0.001 C 
HETATM   28  C11 UNL     1      37.486  42.979  40.849  1.00  0.00     0.009 C 
ENDBRANCH   3  23
TORSDOF 8
ENDMDL
MODEL 2
REMARK VINA RESULT: -6.053294720      5.201      9.074
REMARK  8 active torsions:
REMARK  status: ('A' for Active; 'I' for Inactive)
REMARK    1  A    between atoms: C2_4  and  C3_5 
REMARK    2  A    between atoms: C4_6  and  O1_7 
REMARK    3  A    between atoms: C5_9  and  C6_10 
REMARK    4  A    between atoms: N2_17  and  C13_18 
REMARK    5  A    between atoms: C13_18  and  C14_19 
REMARK    6  A    between atoms: C13_18  and  C15_22 
REMARK    7  A    between atoms: C14_19  and  O2_20 
REMARK    8  A    between atoms: C15_22  and  N3_23 
ROOT
HETATM    1  C3  UNL     1      44.778  34.343  41.944  1.00  0.00     0.084 A 
HETATM    2  C4  UNL     1      45.665  34.400  40.900  1.00  0.00     0.102 A 
HETATM    3  C5  UNL     1      44.928  34.104  39.744  1.00  0.00    -0.003 A 
HETATM    4  C12 UNL     1      43.621  33.876  40.109  1.00  0.00     0.102 A 
HETATM    5  N2  UNL     1      43.569  34.026  41.418  1.00  0.00    -0.344 N 
ENDROOT
BRANCH   5   6
HETATM    6  C13 UNL     1      42.356  33.880  42.248  1.00  0.00     0.141 C 
BRANCH   6   7
HETATM    7  C14 UNL     1      41.763  32.540  42.092  1.00  0.00     0.191 C 
BRANCH   7   8
HETATM    8  O2  UNL     1      42.526  31.455  42.398  1.00  0.00    -0.399 OA
ATOM      9  H2  UNL     1      42.992  31.017  41.695  1.00  0.00     0.209 HD
ENDBRANCH   7   8
ENDBRANCH   6   7
BRANCH   6  10
HETATM   10  C15 UNL     1      41.456  35.011  41.935  1.00  0.00     0.300 C 
BRANCH  10  11
HETATM   11  N3  UNL     1      41.927  36.364  41.940  1.00  0.00     0.090 N 
HETATM   12  C16 UNL     1      40.813  37.150  41.288  1.00  0.00     0.272 C 
HETATM   13  C17 UNL     1      41.244  38.563  41.186  1.00  0.00     0.030 C 
HETATM   14  C18 UNL     1      41.060  39.173  42.583  1.00  0.00     0.003 C 
HETATM   15  C19 UNL     1      40.953  38.008  43.546  1.00  0.00     0.030 C 
HETATM   16  C20 UNL     1      41.968  36.932  43.297  1.00  0.00     0.272 C 
ENDBRANCH  10  11
ENDBRANCH   6  10
ENDBRANCH   5   6
BRANCH   1  17
HETATM   17  C2  UNL     1      45.032  34.574  43.370  1.00  0.00     0.115 C 
HETATM   18  N1  UNL     1      46.155  34.254  43.883  1.00  0.00    -0.401 N 
HETATM   19  C1  UNL     1      46.430  34.471  45.283  1.00  0.00     0.145 C 
ATOM     20  H1  UNL     1      46.873  33.836  43.293  1.00  0.00     0.158 HD
ENDBRANCH   1  17
BRANCH   2  21
HETATM   21  O1  UNL     1      47.015  34.683  40.909  1.00  0.00    -0.358 OA
ATOM     22  H1  UNL     1      47.501  35.328  40.409  1.00  0.00     0.217 HD
ENDBRANCH   2  21
BRANCH   3  23
HETATM   23  C6  UNL     1      45.475  34.055  38.387  1.00  0.00     0.023 C 
HETATM   24  C7  UNL     1      46.241  35.348  38.099  1.00  0.00     0.009 C 
HETATM   25  C8  UNL     1      47.045  35.049  36.833  1.00  0.00     0.001 C 
HETATM   26  C9  UNL     1      46.124  34.809  35.667  1.00  0.00     0.000 C 
HETATM   27  C10 UNL     1      45.108  33.757  35.997  1.00  0.00     0.001 C 
HETATM   28  C11 UNL     1      44.387  33.993  37.307  1.00  0.00     0.009 C 
ENDBRANCH   3  23
TORSDOF 8
ENDMDL
MODEL 3
REMARK VINA RESULT: -6.026772471      6.595     10.295
REMARK  8 active torsions:
REMARK  status: ('A' for Active; 'I' for Inactive)
REMARK    1  A    between atoms: C2_4  and  C3_5 
REMARK    2  A    between atoms: C4_6  and  O1_7 
REMARK    3  A    between atoms: C5_9  and  C6_10 
REMARK    4  A    between atoms: N2_17  and  C13_18 
REMARK    5  A    between atoms: C13_18  and  C14_19 
REMARK    6  A    between atoms: C13_18  and  C15_22 
REMARK    7  A    between atoms: C14_19  and  O2_20 
REMARK    8  A    between atoms: C15_22  and  N3_23 
ROOT
HETATM    1  C3  UNL     1      33.740  46.678  42.983  1.00  0.00     0.084 A 
HETATM    2  C4  UNL     1      33.919  45.488  42.325  1.00  0.00     0.102 A 
HETATM    3  C5  UNL     1      34.723  45.774  41.212  1.00  0.00    -0.003 A 
HETATM    4  C12 UNL     1      35.012  47.119  41.218  1.00  0.00     0.102 A 
HETATM    5  N2  UNL     1      34.414  47.621  42.280  1.00  0.00    -0.344 N 
ENDROOT
BRANCH   5   6
HETATM    6  C13 UNL     1      34.455  49.040  42.693  1.00  0.00     0.141 C 
BRANCH   6   7
HETATM    7  C14 UNL     1      34.054  49.927  41.588  1.00  0.00     0.191 C 
BRANCH   7   8
HETATM    8  O2  UNL     1      32.794  49.810  41.088  1.00  0.00    -0.399 OA
ATOM      9  H2  UNL     1      32.186  50.529  41.219  1.00  0.00     0.209 HD
ENDBRANCH   7   8
ENDBRANCH   6   7
BRANCH   6  10
HETATM   10  C15 UNL     1      35.792  49.305  43.265  1.00  0.00     0.300 C 
BRANCH  10  11
HETATM   11  N3  UNL     1      35.950  50.025  44.494  1.00  0.00     0.090 N 
HETATM   12  C16 UNL     1      35.230  49.179  45.518  1.00  0.00     0.272 C 
HETATM   13  C17 UNL     1      35.281  49.886  46.818  1.00  0.00     0.030 C 
HETATM   14  C18 UNL     1      36.687  49.645  47.387  1.00  0.00     0.003 C 
HETATM   15  C19 UNL     1      37.545  49.190  46.223  1.00  0.00     0.030 C 
HETATM   16  C20 UNL     1      37.340  50.001  44.977  1.00  0.00     0.272 C 
ENDBRANCH  10  11
ENDBRANCH   6  10
ENDBRANCH   5   6
BRANCH   1  17
HETATM   17  C2  UNL     1      32.982  46.935  44.211  1.00  0.00     0.115 C 
HETATM   18  N1  UNL     1      33.053  46.123  45.193  1.00  0.00    -0.401 N 
HETATM   19  C1  UNL     1      32.317  46.353  46.412  1.00  0.00     0.145 C 
ATOM     20  H1  UNL     1      33.643  45.296  45.115  1.00  0.00     0.158 HD
ENDBRANCH   1  17
BRANCH   2  21
HETATM   21  O1  UNL     1      33.439  44.232  42.635  1.00  0.00    -0.358 OA
ATOM     22  H1  UNL     1      33.075  43.566  42.064  1.00  0.00     0.217 HD
ENDBRANCH   2  21
BRANCH   3  23
HETATM   23  C6  UNL     1      35.171  44.790  40.223  1.00  0.00     0.023 C 
HETATM   24  C7  UNL     1      36.238  43.890  40.847  1.00  0.00     0.009 C 
HETATM   25  C8  UNL     1      36.371  42.715  39.877  1.00  0.00     0.001 C 
HETATM   26  C9  UNL     1      36.906  43.184  38.551  1.00  0.00     0.000 C 
HETATM   27  C10 UNL     1      36.084  44.318  38.015  1.00  0.00     0.001 C 
HETATM   28  C11 UNL     1      35.859  45.434  39.012  1.00  0.00     0.009 C 
ENDBRANCH   3  23
TORSDOF 8
ENDMDL
MODEL 4
REMARK VINA RESULT: -5.997534565      1.023      1.480
REMARK  8 active torsions:
REMARK  status: ('A' for Active; 'I' for Inactive)
REMARK    1  A    between atoms: C2_4  and  C3_5 
REMARK    2  A    between atoms: C4_6  and  O1_7 
REMARK    3  A    between atoms: C5_9  and  C6_10 
REMARK    4  A    between atoms: N2_17  and  C13_18 
REMARK    5  A    between atoms: C13_18  and  C14_19 
REMARK    6  A    between atoms: C13_18  and  C15_22 
REMARK    7  A    between atoms: C14_19  and  O2_20 
REMARK    8  A    between atoms: C15_22  and  N3_23 
ROOT
HETATM    1  C3  UNL     1      37.734  38.825  42.800  1.00  0.00     0.084 A 
HETATM    2  C4  UNL     1      36.774  39.541  42.132  1.00  0.00     0.102 A 
HETATM    3  C5  UNL     1      37.454  40.552  41.436  1.00  0.00    -0.003 A 
HETATM    4  C12 UNL     1      38.800  40.428  41.694  1.00  0.00     0.102 A 
HETATM    5  N2  UNL     1      38.928  39.396  42.504  1.00  0.00    -0.344 N 
ENDROOT
BRANCH   5   6
HETATM    6  C13 UNL     1      40.206  38.887  43.044  1.00  0.00     0.141 C 
BRANCH   6   7
HETATM    7  C14 UNL     1      40.682  39.723  44.160  1.00  0.00     0.191 C 
BRANCH   7   8
HETATM    8  O2  UNL     1      41.713  40.581  43.931  1.00  0.00    -0.399 OA
ATOM      9  H2  UNL     1      41.579  41.296  43.319  1.00  0.00     0.209 HD
ENDBRANCH   7   8
ENDBRANCH   6   7
BRANCH   6  10
HETATM   10  C15 UNL     1      41.148  38.742  41.914  1.00  0.00     0.300 C 
BRANCH  10  11
HETATM   11  N3  UNL     1      41.684  37.465  41.547  1.00  0.00     0.090 N 
HETATM   12  C16 UNL     1      43.070  37.456  42.148  1.00  0.00     0.272 C 
HETATM   13  C17 UNL     1      43.733  36.190  41.757  1.00  0.00     0.030 C 
HETATM   14  C18 UNL     1      43.163  35.102  42.678  1.00  0.00     0.003 C 
HETATM   15  C19 UNL     1      41.885  35.666  43.265  1.00  0.00     0.030 C 
HETATM   16  C20 UNL     1      41.019  36.360  42.255  1.00  0.00     0.272 C 
ENDBRANCH  10  11
ENDBRANCH   6  10
ENDBRANCH   5   6
BRANCH   1  17
HETATM   17  C2  UNL     1      37.559  37.660  43.672  1.00  0.00     0.115 C 
HETATM   18  N1  UNL     1      36.474  36.989  43.640  1.00  0.00    -0.401 N 
HETATM   19  C1  UNL     1      36.277  35.839  44.488  1.00  0.00     0.145 C 
ATOM     20  H1  UNL     1      35.731  37.272  43.001  1.00  0.00     0.158 HD
ENDBRANCH   1  17
BRANCH   2  21
HETATM   21  O1  UNL     1      35.407  39.363  42.103  1.00  0.00    -0.358 OA
ATOM     22  H1  UNL     1      34.720  39.985  41.895  1.00  0.00     0.217 HD
ENDBRANCH   2  21
BRANCH   3  23
HETATM   23  C6  UNL     1      36.819  41.557  40.580  1.00  0.00     0.023 C 
HETATM   24  C7  UNL     1      36.953  41.139  39.115  1.00  0.00     0.009 C 
HETATM   25  C8  UNL     1      35.977  42.044  38.362  1.00  0.00     0.001 C 
HETATM   26  C9  UNL     1      36.413  43.481  38.454  1.00  0.00     0.000 C 
HETATM   27  C10 UNL     1      36.627  43.883  39.883  1.00  0.00     0.001 C 
HETATM   28  C11 UNL     1      37.505  42.928  40.662  1.00  0.00     0.009 C 
ENDBRANCH   3  23
TORSDOF 8
ENDMDL
MODEL 5
REMARK VINA RESULT: -5.957084027      2.425      3.076
REMARK  8 active torsions:
REMARK  status: ('A' for Active; 'I' for Inactive)
REMARK    1  A    between atoms: C2_4  and  C3_5 
REMARK    2  A    between atoms: C4_6  and  O1_7 
REMARK    3  A    between atoms: C5_9  and  C6_10 
REMARK    4  A    between atoms: N2_17  and  C13_18 
REMARK    5  A    between atoms: C13_18  and  C14_19 
REMARK    6  A    between atoms: C13_18  and  C15_22 
REMARK    7  A    between atoms: C14_19  and  O2_20 
REMARK    8  A    between atoms: C15_22  and  N3_23 
ROOT
HETATM    1  C3  UNL     1      37.654  39.355  41.212  1.00  0.00     0.084 A 
HETATM    2  C4  UNL     1      36.766  40.399  41.172  1.00  0.00     0.102 A 
HETATM    3  C5  UNL     1      37.167  41.212  40.101  1.00  0.00    -0.003 A 
HETATM    4  C12 UNL     1      38.279  40.649  39.520  1.00  0.00     0.102 A 
HETATM    5  N2  UNL     1      38.538  39.551  40.203  1.00  0.00    -0.344 N 
ENDROOT
BRANCH   5   6
HETATM    6  C13 UNL     1      39.650  38.616  39.929  1.00  0.00     0.141 C 
BRANCH   6   7
HETATM    7  C14 UNL     1      40.811  38.906  40.788  1.00  0.00     0.191 C 
BRANCH   7   8
HETATM    8  O2  UNL     1      41.767  37.947  40.929  1.00  0.00    -0.399 OA
ATOM      9  H2  UNL     1      42.042  37.465  40.158  1.00  0.00     0.209 HD
ENDBRANCH   7   8
ENDBRANCH   6   7
BRANCH   6  10
HETATM   10  C15 UNL     1      39.915  38.644  38.475  1.00  0.00     0.300 C 
BRANCH  10  11
HETATM   11  N3  UNL     1      39.413  37.622  37.605  1.00  0.00     0.090 N 
HETATM   12  C16 UNL     1      40.437  37.540  36.496  1.00  0.00     0.272 C 
HETATM   13  C17 UNL     1      39.962  36.549  35.504  1.00  0.00     0.030 C 
HETATM   14  C18 UNL     1      40.268  35.164  36.094  1.00  0.00     0.003 C 
HETATM   15  C19 UNL     1      40.499  35.375  37.577  1.00  0.00     0.030 C 
HETATM   16  C20 UNL     1      39.491  36.285  38.215  1.00  0.00     0.272 C 
ENDBRANCH  10  11
ENDBRANCH   6  10
ENDBRANCH   5   6
BRANCH   1  17
HETATM   17  C2  UNL     1      37.684  38.220  42.140  1.00  0.00     0.115 C 
HETATM   18  N1  UNL     1      36.597  37.691  42.545  1.00  0.00    -0.401 N 
HETATM   19  C1  UNL     1      36.600  36.575  43.458  1.00  0.00     0.145 C 
ATOM     20  H1  UNL     1      35.707  38.065  42.216  1.00  0.00     0.158 HD
ENDBRANCH   1  17
BRANCH   2  21
HETATM   21  O1  UNL     1      35.681  40.661  41.982  1.00  0.00    -0.358 OA
ATOM     22  H1  UNL     1      35.656  40.987  42.874  1.00  0.00     0.217 HD
ENDBRANCH   2  21
BRANCH   3  23
HETATM   23  C6  UNL     1      36.497  42.447  39.686  1.00  0.00     0.023 C 
HETATM   24  C7  UNL     1      37.099  42.935  38.368  1.00  0.00     0.009 C 
HETATM   25  C8  UNL     1      36.118  43.993  37.860  1.00  0.00     0.001 C 
HETATM   26  C9  UNL     1      36.083  45.171  38.796  1.00  0.00     0.000 C 
HETATM   27  C10 UNL     1      35.816  44.728  40.203  1.00  0.00     0.001 C 
HETATM   28  C11 UNL     1      36.715  43.603  40.671  1.00  0.00     0.009 C 
ENDBRANCH   3  23
TORSDOF 8
ENDMDL
