MODEL 1
REMARK VINA RESULT: -7.404787350      0.000      0.000
REMARK  11 active torsions:
REMARK  status: ('A' for Active; 'I' for Inactive)
REMARK    1  A    between atoms: C2_2  and  C3_3 
REMARK    2  A    between atoms: C3_3  and  C4_4 
REMARK    3  A    between atoms: C3_3  and  C27_34 
REMARK    4  A    between atoms: C4_4  and  C5_5 
REMARK    5  A    between atoms: C5_5  and  C6_6 
REMARK    6  A    between atoms: C6_6  and  C7_8 
REMARK    7  A    between atoms: C12_13  and  O2_14 
REMARK    8  A    between atoms: C14_17  and  O3_18 
REMARK    9  A    between atoms: C17_22  and  O4_23 
REMARK   10  A    between atoms: O4_23  and  C18_24 
REMARK   11  A    between atoms: C18_24  and  C19_26 
ROOT
HETATM    1  C7  UNL     1       5.794   1.719  26.367  1.00  0.00     0.064 C 
HETATM    2  C8  UNL     1       7.312   1.583  26.620  1.00  0.00     0.013 C 
HETATM    3  C9  UNL     1       7.745   2.193  25.260  1.00  0.00     0.007 C 
HETATM    4  C10 UNL     1       6.996   3.488  25.330  1.00  0.00     0.002 C 
HETATM    5  C11 UNL     1       7.037   4.415  24.242  1.00  0.00     0.032 C 
HETATM    6  C12 UNL     1       8.490   4.612  23.800  1.00  0.00     0.126 C 
HETATM    7  C13 UNL     1       8.312   5.671  22.733  1.00  0.00     0.064 C 
HETATM    8  C14 UNL     1       6.845   5.639  22.345  1.00  0.00     0.131 C 
HETATM    9  C15 UNL     1       6.321   4.325  22.973  1.00  0.00     0.015 C 
HETATM   10  C16 UNL     1       6.725   3.287  21.995  1.00  0.00     0.021 C 
HETATM   11  C17 UNL     1       4.827   4.486  23.049  1.00  0.00     0.143 C 
HETATM   12  C23 UNL     1       4.323   4.643  24.459  1.00  0.00     0.034 C 
HETATM   13  C24 UNL     1       4.481   3.287  25.115  1.00  0.00     0.013 C 
HETATM   14  C25 UNL     1       5.686   3.167  25.998  1.00  0.00    -0.029 C 
HETATM   15  C26 UNL     1       5.448   4.031  27.214  1.00  0.00     0.016 C 
ENDROOT
BRANCH   1  16
HETATM   16  C6  UNL     1       5.114   1.282  27.582  1.00  0.00     0.131 C 
HETATM   17  O1  UNL     1       5.663   1.195  28.643  1.00  0.00    -0.298 OA
BRANCH  16  18
HETATM   18  C5  UNL     1       3.651   0.941  27.417  1.00  0.00     0.079 C 
BRANCH  18  19
HETATM   19  C4  UNL     1       3.460  -0.358  26.724  1.00  0.00     0.018 C 
BRANCH  19  20
HETATM   20  C3  UNL     1       3.323  -1.446  27.780  1.00  0.00     0.041 C 
BRANCH  20  21
HETATM   21  C2  UNL     1       2.082  -2.217  27.689  1.00  0.00    -0.030 C 
HETATM   22  C1  UNL     1       1.851  -3.462  27.995  1.00  0.00     0.007 C 
ENDBRANCH  20  21
BRANCH  20  23
HETATM   23  C27 UNL     1       4.528  -2.346  27.794  1.00  0.00     0.233 C 
HETATM   24  C28 UNL     1       5.225  -2.481  26.482  1.00  0.00     0.063 C 
HETATM   25  C29 UNL     1       6.632  -1.963  26.505  1.00  0.00    -0.027 C 
HETATM   26  C30 UNL     1       7.345  -2.097  27.600  1.00  0.00    -0.001 C 
HETATM   27  C31 UNL     1       6.637  -2.780  28.745  1.00  0.00     0.299 C 
HETATM   28  N1  UNL     1       5.403  -2.043  28.906  1.00  0.00     0.093 N 
HETATM   29  C32 UNL     1       4.762  -2.492  30.116  1.00  0.00     0.310 C 
ENDBRANCH  20  23
ENDBRANCH  19  20
ENDBRANCH  18  19
ENDBRANCH  16  18
ENDBRANCH   1  16
BRANCH   6  30
HETATM   30  O2  UNL     1       9.052   3.510  23.221  1.00  0.00    -0.395 OA
ATOM     31  H2  UNL     1       9.638   3.028  23.792  1.00  0.00     0.210 HD
ENDBRANCH   6  30
BRANCH  11  32
HETATM   32  O4  UNL     1       4.308   5.431  22.151  1.00  0.00    -0.312 OA
BRANCH  32  33
HETATM   33  C18 UNL     1       3.543   5.170  21.064  1.00  0.00     0.283 C 
HETATM   34  O5  UNL     1       3.946   5.639  19.965  1.00  0.00    -0.260 OA
BRANCH  33  35
HETATM   35  C19 UNL     1       2.327   4.399  21.122  1.00  0.00     0.084 C 
HETATM   36  C20 UNL     1       1.104   4.841  21.200  1.00  0.00    -0.082 C 
HETATM   37  C21 UNL     1       0.728   6.265  21.245  1.00  0.00     0.043 C 
HETATM   38  C22 UNL     1      -0.025   3.851  21.245  1.00  0.00     0.043 C 
ENDBRANCH  33  35
ENDBRANCH  32  33
ENDBRANCH  11  32
BRANCH   8  39
HETATM   39  O3  UNL     1       6.797   5.567  20.957  1.00  0.00    -0.395 OA
ATOM     40  H3  UNL     1       5.988   5.123  20.733  1.00  0.00     0.210 HD
ENDBRANCH   8  39
TORSDOF 11
ENDMDL
MODEL 2
REMARK VINA RESULT: -6.892377368      1.139      1.357
REMARK  11 active torsions:
REMARK  status: ('A' for Active; 'I' for Inactive)
REMARK    1  A    between atoms: C2_2  and  C3_3 
REMARK    2  A    between atoms: C3_3  and  C4_4 
REMARK    3  A    between atoms: C3_3  and  C27_34 
REMARK    4  A    between atoms: C4_4  and  C5_5 
REMARK    5  A    between atoms: C5_5  and  C6_6 
REMARK    6  A    between atoms: C6_6  and  C7_8 
REMARK    7  A    between atoms: C12_13  and  O2_14 
REMARK    8  A    between atoms: C14_17  and  O3_18 
REMARK    9  A    between atoms: C17_22  and  O4_23 
REMARK   10  A    between atoms: O4_23  and  C18_24 
REMARK   11  A    between atoms: C18_24  and  C19_26 
ROOT
HETATM    1  C7  UNL     1       5.868   1.826  26.503  1.00  0.00     0.064 C 
HETATM    2  C8  UNL     1       7.390   1.683  26.284  1.00  0.00     0.013 C 
HETATM    3  C9  UNL     1       7.431   2.521  24.977  1.00  0.00     0.007 C 
HETATM    4  C10 UNL     1       6.769   3.769  25.473  1.00  0.00     0.002 C 
HETATM    5  C11 UNL     1       6.521   4.864  24.588  1.00  0.00     0.032 C 
HETATM    6  C12 UNL     1       7.791   5.164  23.786  1.00  0.00     0.126 C 
HETATM    7  C13 UNL     1       7.343   6.382  23.006  1.00  0.00     0.064 C 
HETATM    8  C14 UNL     1       5.826   6.383  23.056  1.00  0.00     0.131 C 
HETATM    9  C15 UNL     1       5.469   4.971  23.582  1.00  0.00     0.015 C 
HETATM   10  C16 UNL     1       5.547   4.120  22.371  1.00  0.00     0.021 C 
HETATM   11  C17 UNL     1       4.064   5.085  24.110  1.00  0.00     0.143 C 
HETATM   12  C23 UNL     1       3.991   4.994  25.610  1.00  0.00     0.034 C 
HETATM   13  C24 UNL     1       4.293   3.552  25.960  1.00  0.00     0.013 C 
HETATM   14  C25 UNL     1       5.697   3.313  26.426  1.00  0.00    -0.029 C 
HETATM   15  C26 UNL     1       5.841   3.957  27.785  1.00  0.00     0.016 C 
ENDROOT
BRANCH   1  16
HETATM   16  C6  UNL     1       5.553   1.179  27.773  1.00  0.00     0.131 C 
HETATM   17  O1  UNL     1       6.351   1.052  28.658  1.00  0.00    -0.298 OA
BRANCH  16  18
HETATM   18  C5  UNL     1       4.136   0.670  27.906  1.00  0.00     0.079 C 
BRANCH  18  19
HETATM   19  C4  UNL     1       3.850  -0.426  26.946  1.00  0.00     0.018 C 
BRANCH  19  20
HETATM   20  C3  UNL     1       3.597  -1.700  27.739  1.00  0.00     0.041 C 
BRANCH  20  21
HETATM   21  C2  UNL     1       2.446  -2.477  27.275  1.00  0.00    -0.030 C 
HETATM   22  C1  UNL     1       2.274  -3.124  26.156  1.00  0.00     0.007 C 
ENDBRANCH  20  21
BRANCH  20  23
HETATM   23  C27 UNL     1       4.836  -2.549  27.815  1.00  0.00     0.233 C 
HETATM   24  C28 UNL     1       5.711  -2.493  26.609  1.00  0.00     0.063 C 
HETATM   25  C29 UNL     1       7.071  -1.929  26.890  1.00  0.00    -0.027 C 
HETATM   26  C30 UNL     1       7.635  -2.172  28.051  1.00  0.00    -0.001 C 
HETATM   27  C31 UNL     1       6.818  -3.019  28.996  1.00  0.00     0.299 C 
HETATM   28  N1  UNL     1       5.535  -2.355  29.068  1.00  0.00     0.093 N 
HETATM   29  C32 UNL     1       4.762  -2.975  30.113  1.00  0.00     0.310 C 
ENDBRANCH  20  23
ENDBRANCH  19  20
ENDBRANCH  18  19
ENDBRANCH  16  18
ENDBRANCH   1  16
BRANCH   6  30
HETATM   30  O2  UNL     1       8.133   4.187  22.896  1.00  0.00    -0.395 OA
ATOM     31  H2  UNL     1       9.063   3.994  22.870  1.00  0.00     0.210 HD
ENDBRANCH   6  30
BRANCH  11  32
HETATM   32  O4  UNL     1       3.336   6.154  23.568  1.00  0.00    -0.312 OA
BRANCH  32  33
HETATM   33  C18 UNL     1       2.013   6.157  23.273  1.00  0.00     0.283 C 
HETATM   34  O5  UNL     1       1.353   7.163  23.652  1.00  0.00    -0.260 OA
BRANCH  33  35
HETATM   35  C19 UNL     1       1.361   5.085  22.564  1.00  0.00     0.084 C 
HETATM   36  C20 UNL     1       1.525   4.734  21.320  1.00  0.00    -0.082 C 
HETATM   37  C21 UNL     1       2.443   5.396  20.376  1.00  0.00     0.043 C 
HETATM   38  C22 UNL     1       0.739   3.574  20.782  1.00  0.00     0.043 C 
ENDBRANCH  33  35
ENDBRANCH  32  33
ENDBRANCH  11  32
BRANCH   8  39
HETATM   39  O3  UNL     1       5.380   6.542  21.749  1.00  0.00    -0.395 OA
ATOM     40  H3  UNL     1       5.334   7.476  21.586  1.00  0.00     0.210 HD
ENDBRANCH   8  39
TORSDOF 11
ENDMDL
MODEL 3
REMARK VINA RESULT: -6.837560009      0.907      2.328
REMARK  11 active torsions:
REMARK  status: ('A' for Active; 'I' for Inactive)
REMARK    1  A    between atoms: C2_2  and  C3_3 
REMARK    2  A    between atoms: C3_3  and  C4_4 
REMARK    3  A    between atoms: C3_3  and  C27_34 
REMARK    4  A    between atoms: C4_4  and  C5_5 
REMARK    5  A    between atoms: C5_5  and  C6_6 
REMARK    6  A    between atoms: C6_6  and  C7_8 
REMARK    7  A    between atoms: C12_13  and  O2_14 
REMARK    8  A    between atoms: C14_17  and  O3_18 
REMARK    9  A    between atoms: C17_22  and  O4_23 
REMARK   10  A    between atoms: O4_23  and  C18_24 
REMARK   11  A    between atoms: C18_24  and  C19_26 
ROOT
HETATM    1  C7  UNL     1       5.677   1.575  26.176  1.00  0.00     0.064 C 
HETATM    2  C8  UNL     1       7.184   1.423  26.481  1.00  0.00     0.013 C 
HETATM    3  C9  UNL     1       7.670   2.101  25.171  1.00  0.00     0.007 C 
HETATM    4  C10 UNL     1       6.918   3.392  25.278  1.00  0.00     0.002 C 
HETATM    5  C11 UNL     1       7.001   4.373  24.242  1.00  0.00     0.032 C 
HETATM    6  C12 UNL     1       8.470   4.590  23.867  1.00  0.00     0.126 C 
HETATM    7  C13 UNL     1       8.334   5.702  22.850  1.00  0.00     0.064 C 
HETATM    8  C14 UNL     1       6.882   5.693  22.403  1.00  0.00     0.131 C 
HETATM    9  C15 UNL     1       6.335   4.350  22.943  1.00  0.00     0.015 C 
HETATM   10  C16 UNL     1       6.777   3.363  21.929  1.00  0.00     0.021 C 
HETATM   11  C17 UNL     1       4.839   4.510  22.969  1.00  0.00     0.143 C 
HETATM   12  C23 UNL     1       4.281   4.595  24.364  1.00  0.00     0.034 C 
HETATM   13  C24 UNL     1       4.413   3.207  24.956  1.00  0.00     0.013 C 
HETATM   14  C25 UNL     1       5.583   3.040  25.878  1.00  0.00    -0.029 C 
HETATM   15  C26 UNL     1       5.298   3.841  27.125  1.00  0.00     0.016 C 
ENDROOT
BRANCH   1  16
HETATM   16  C6  UNL     1       4.950   1.078  27.339  1.00  0.00     0.131 C 
HETATM   17  O1  UNL     1       3.758   0.949  27.360  1.00  0.00    -0.298 OA
BRANCH  16  18
HETATM   18  C5  UNL     1       5.804   0.731  28.537  1.00  0.00     0.079 C 
BRANCH  18  19
HETATM   19  C4  UNL     1       5.492  -0.621  29.066  1.00  0.00     0.018 C 
BRANCH  19  20
HETATM   20  C3  UNL     1       5.783  -1.640  27.973  1.00  0.00     0.041 C 
BRANCH  20  21
HETATM   21  C2  UNL     1       7.100  -2.271  28.077  1.00  0.00    -0.030 C 
HETATM   22  C1  UNL     1       8.147  -2.144  27.312  1.00  0.00     0.007 C 
ENDBRANCH  20  21
BRANCH  20  23
HETATM   23  C27 UNL     1       4.688  -2.667  27.881  1.00  0.00     0.233 C 
HETATM   24  C28 UNL     1       3.851  -2.804  29.107  1.00  0.00     0.063 C 
HETATM   25  C29 UNL     1       2.412  -2.446  28.883  1.00  0.00    -0.027 C 
HETATM   26  C30 UNL     1       1.859  -2.720  27.724  1.00  0.00    -0.001 C 
HETATM   27  C31 UNL     1       2.770  -3.385  26.721  1.00  0.00     0.299 C 
HETATM   28  N1  UNL     1       3.931  -2.526  26.655  1.00  0.00     0.093 N 
HETATM   29  C32 UNL     1       4.761  -2.970  25.563  1.00  0.00     0.310 C 
ENDBRANCH  20  23
ENDBRANCH  19  20
ENDBRANCH  18  19
ENDBRANCH  16  18
ENDBRANCH   1  16
BRANCH   6  30
HETATM   30  O2  UNL     1       9.054   3.518  23.254  1.00  0.00    -0.395 OA
ATOM     31  H2  UNL     1       9.713   3.082  23.781  1.00  0.00     0.210 HD
ENDBRANCH   6  30
BRANCH  11  32
HETATM   32  O4  UNL     1       4.355   5.500  22.101  1.00  0.00    -0.312 OA
BRANCH  32  33
HETATM   33  C18 UNL     1       3.569   5.303  21.016  1.00  0.00     0.283 C 
HETATM   34  O5  UNL     1       3.906   5.900  19.958  1.00  0.00    -0.260 OA
BRANCH  33  35
HETATM   35  C19 UNL     1       2.401   4.459  21.032  1.00  0.00     0.084 C 
HETATM   36  C20 UNL     1       1.155   4.821  21.153  1.00  0.00    -0.082 C 
HETATM   37  C21 UNL     1       0.697   6.214  21.301  1.00  0.00     0.043 C 
HETATM   38  C22 UNL     1       0.087   3.766  21.140  1.00  0.00     0.043 C 
ENDBRANCH  33  35
ENDBRANCH  32  33
ENDBRANCH  11  32
BRANCH   8  39
HETATM   39  O3  UNL     1       6.889   5.692  21.013  1.00  0.00    -0.395 OA
ATOM     40  H3  UNL     1       7.080   6.581  20.739  1.00  0.00     0.210 HD
ENDBRANCH   8  39
TORSDOF 11
ENDMDL
MODEL 4
REMARK VINA RESULT: -6.827568293      1.226      1.758
REMARK  11 active torsions:
REMARK  status: ('A' for Active; 'I' for Inactive)
REMARK    1  A    between atoms: C2_2  and  C3_3 
REMARK    2  A    between atoms: C3_3  and  C4_4 
REMARK    3  A    between atoms: C3_3  and  C27_34 
REMARK    4  A    between atoms: C4_4  and  C5_5 
REMARK    5  A    between atoms: C5_5  and  C6_6 
REMARK    6  A    between atoms: C6_6  and  C7_8 
REMARK    7  A    between atoms: C12_13  and  O2_14 
REMARK    8  A    between atoms: C14_17  and  O3_18 
REMARK    9  A    between atoms: C17_22  and  O4_23 
REMARK   10  A    between atoms: O4_23  and  C18_24 
REMARK   11  A    between atoms: C18_24  and  C19_26 
ROOT
HETATM    1  C7  UNL     1       5.810   1.421  26.131  1.00  0.00     0.064 C 
HETATM    2  C8  UNL     1       7.322   1.298  26.425  1.00  0.00     0.013 C 
HETATM    3  C9  UNL     1       7.784   2.036  25.139  1.00  0.00     0.007 C 
HETATM    4  C10 UNL     1       6.999   3.302  25.296  1.00  0.00     0.002 C 
HETATM    5  C11 UNL     1       7.051   4.321  24.295  1.00  0.00     0.032 C 
HETATM    6  C12 UNL     1       8.512   4.591  23.922  1.00  0.00     0.126 C 
HETATM    7  C13 UNL     1       8.341   5.735  22.947  1.00  0.00     0.064 C 
HETATM    8  C14 UNL     1       6.889   5.703  22.506  1.00  0.00     0.131 C 
HETATM    9  C15 UNL     1       6.380   4.327  22.999  1.00  0.00     0.015 C 
HETATM   10  C16 UNL     1       6.843   3.390  21.948  1.00  0.00     0.021 C 
HETATM   11  C17 UNL     1       4.880   4.447  23.036  1.00  0.00     0.143 C 
HETATM   12  C23 UNL     1       4.327   4.467  24.436  1.00  0.00     0.034 C 
HETATM   13  C24 UNL     1       4.498   3.063  24.977  1.00  0.00     0.013 C 
HETATM   14  C25 UNL     1       5.676   2.893  25.887  1.00  0.00    -0.029 C 
HETATM   15  C26 UNL     1       5.376   3.641  27.164  1.00  0.00     0.016 C 
ENDROOT
BRANCH   1  16
HETATM   16  C6  UNL     1       5.102   0.864  27.279  1.00  0.00     0.131 C 
HETATM   17  O1  UNL     1       5.605   0.738  28.360  1.00  0.00    -0.298 OA
BRANCH  16  18
HETATM   18  C5  UNL     1       3.673   0.446  27.018  1.00  0.00     0.079 C 
BRANCH  18  19
HETATM   19  C4  UNL     1       2.985   0.020  28.262  1.00  0.00     0.018 C 
BRANCH  19  20
HETATM   20  C3  UNL     1       2.476  -1.401  28.063  1.00  0.00     0.041 C 
BRANCH  20  21
HETATM   21  C2  UNL     1       2.792  -1.972  26.752  1.00  0.00    -0.030 C 
HETATM   22  C1  UNL     1       2.468  -3.130  26.248  1.00  0.00     0.007 C 
ENDBRANCH  20  21
BRANCH  20  23
HETATM   23  C27 UNL     1       2.928  -2.303  29.177  1.00  0.00     0.233 C 
HETATM   24  C28 UNL     1       4.405  -2.479  29.283  1.00  0.00     0.063 C 
HETATM   25  C29 UNL     1       4.972  -1.963  30.571  1.00  0.00    -0.027 C 
HETATM   26  C30 UNL     1       4.258  -2.066  31.669  1.00  0.00    -0.001 C 
HETATM   27  C31 UNL     1       2.906  -2.712  31.496  1.00  0.00     0.299 C 
HETATM   28  N1  UNL     1       2.278  -1.968  30.427  1.00  0.00     0.093 N 
HETATM   29  C32 UNL     1       0.899  -2.380  30.338  1.00  0.00     0.310 C 
ENDBRANCH  20  23
ENDBRANCH  19  20
ENDBRANCH  18  19
ENDBRANCH  16  18
ENDBRANCH   1  16
BRANCH   6  30
HETATM   30  O2  UNL     1       9.121   3.558  23.269  1.00  0.00    -0.395 OA
ATOM     31  H2  UNL     1      10.057   3.670  23.153  1.00  0.00     0.210 HD
ENDBRANCH   6  30
BRANCH  11  32
HETATM   32  O4  UNL     1       4.366   5.454  22.207  1.00  0.00    -0.312 OA
BRANCH  32  33
HETATM   33  C18 UNL     1       3.575   5.276  21.121  1.00  0.00     0.283 C 
HETATM   34  O5  UNL     1       3.916   5.881  20.069  1.00  0.00    -0.260 OA
BRANCH  33  35
HETATM   35  C19 UNL     1       2.399   4.443  21.132  1.00  0.00     0.084 C 
HETATM   36  C20 UNL     1       1.152   4.822  21.156  1.00  0.00    -0.082 C 
HETATM   37  C21 UNL     1       0.702   6.225  21.178  1.00  0.00     0.043 C 
HETATM   38  C22 UNL     1       0.075   3.776  21.158  1.00  0.00     0.043 C 
ENDBRANCH  33  35
ENDBRANCH  32  33
ENDBRANCH  11  32
BRANCH   8  39
HETATM   39  O3  UNL     1       6.889   5.753  21.117  1.00  0.00    -0.395 OA
ATOM     40  H3  UNL     1       5.986   5.868  20.846  1.00  0.00     0.210 HD
ENDBRANCH   8  39
TORSDOF 11
ENDMDL
MODEL 5
REMARK VINA RESULT: -6.641127842      0.975      1.351
REMARK  11 active torsions:
REMARK  status: ('A' for Active; 'I' for Inactive)
REMARK    1  A    between atoms: C2_2  and  C3_3 
REMARK    2  A    between atoms: C3_3  and  C4_4 
REMARK    3  A    between atoms: C3_3  and  C27_34 
REMARK    4  A    between atoms: C4_4  and  C5_5 
REMARK    5  A    between atoms: C5_5  and  C6_6 
REMARK    6  A    between atoms: C6_6  and  C7_8 
REMARK    7  A    between atoms: C12_13  and  O2_14 
REMARK    8  A    between atoms: C14_17  and  O3_18 
REMARK    9  A    between atoms: C17_22  and  O4_23 
REMARK   10  A    between atoms: O4_23  and  C18_24 
REMARK   11  A    between atoms: C18_24  and  C19_26 
ROOT
HETATM    1  C7  UNL     1       5.874   1.797  26.779  1.00  0.00     0.064 C 
HETATM    2  C8  UNL     1       7.374   1.869  27.141  1.00  0.00     0.013 C 
HETATM    3  C9  UNL     1       7.844   2.338  25.738  1.00  0.00     0.007 C 
HETATM    4  C10 UNL     1       6.961   3.537  25.579  1.00  0.00     0.002 C 
HETATM    5  C11 UNL     1       6.987   4.310  24.377  1.00  0.00     0.032 C 
HETATM    6  C12 UNL     1       8.442   4.610  24.000  1.00  0.00     0.126 C 
HETATM    7  C13 UNL     1       8.236   5.491  22.787  1.00  0.00     0.064 C 
HETATM    8  C14 UNL     1       6.813   5.241  22.318  1.00  0.00     0.131 C 
HETATM    9  C15 UNL     1       6.384   3.971  23.091  1.00  0.00     0.015 C 
HETATM   10  C16 UNL     1       6.966   2.865  22.295  1.00  0.00     0.021 C 
HETATM   11  C17 UNL     1       4.879   3.970  23.053  1.00  0.00     0.143 C 
HETATM   12  C23 UNL     1       4.256   4.255  24.394  1.00  0.00     0.034 C 
HETATM   13  C24 UNL     1       4.504   3.026  25.242  1.00  0.00     0.013 C 
HETATM   14  C25 UNL     1       5.644   3.162  26.205  1.00  0.00    -0.029 C 
HETATM   15  C26 UNL     1       5.226   4.147  27.270  1.00  0.00     0.016 C 
ENDROOT
BRANCH   1  16
HETATM   16  C6  UNL     1       5.153   1.452  28.000  1.00  0.00     0.131 C 
HETATM   17  O1  UNL     1       5.621   1.584  29.096  1.00  0.00    -0.298 OA
BRANCH  16  18
HETATM   18  C5  UNL     1       3.757   0.909  27.795  1.00  0.00     0.079 C 
BRANCH  18  19
HETATM   19  C4  UNL     1       3.747  -0.258  26.878  1.00  0.00     0.018 C 
BRANCH  19  20
HETATM   20  C3  UNL     1       3.498  -1.512  27.704  1.00  0.00     0.041 C 
BRANCH  20  21
HETATM   21  C2  UNL     1       2.390  -2.338  27.221  1.00  0.00    -0.030 C 
HETATM   22  C1  UNL     1       2.350  -3.180  26.227  1.00  0.00     0.007 C 
ENDBRANCH  20  21
BRANCH  20  23
HETATM   23  C27 UNL     1       4.757  -2.321  27.859  1.00  0.00     0.233 C 
HETATM   24  C28 UNL     1       5.659  -2.312  26.672  1.00  0.00     0.063 C 
HETATM   25  C29 UNL     1       6.997  -1.694  26.951  1.00  0.00    -0.027 C 
HETATM   26  C30 UNL     1       7.538  -1.853  28.137  1.00  0.00    -0.001 C 
HETATM   27  C31 UNL     1       6.720  -2.664  29.111  1.00  0.00     0.299 C 
HETATM   28  N1  UNL     1       5.420  -2.033  29.113  1.00  0.00     0.093 N 
HETATM   29  C32 UNL     1       4.637  -2.612  30.176  1.00  0.00     0.310 C 
ENDBRANCH  20  23
ENDBRANCH  19  20
ENDBRANCH  18  19
ENDBRANCH  16  18
ENDBRANCH   1  16
BRANCH   6  30
HETATM   30  O2  UNL     1       9.157   3.512  23.617  1.00  0.00    -0.395 OA
ATOM     31  H2  UNL     1       9.969   3.716  23.168  1.00  0.00     0.210 HD
ENDBRANCH   6  30
BRANCH  11  32
HETATM   32  O4  UNL     1       4.334   4.722  22.001  1.00  0.00    -0.312 OA
BRANCH  32  33
HETATM   33  C18 UNL     1       3.021   4.983  21.797  1.00  0.00     0.283 C 
HETATM   34  O5  UNL     1       2.246   3.990  21.768  1.00  0.00    -0.260 OA
BRANCH  33  35
HETATM   35  C19 UNL     1       2.500   6.316  21.620  1.00  0.00     0.084 C 
HETATM   36  C20 UNL     1       2.740   7.144  20.642  1.00  0.00    -0.082 C 
HETATM   37  C21 UNL     1       3.621   6.856  19.496  1.00  0.00     0.043 C 
HETATM   38  C22 UNL     1       2.082   8.493  20.655  1.00  0.00     0.043 C 
ENDBRANCH  33  35
ENDBRANCH  32  33
ENDBRANCH  11  32
BRANCH   8  39
HETATM   39  O3  UNL     1       6.879   4.980  20.954  1.00  0.00    -0.395 OA
ATOM     40  H3  UNL     1       6.155   4.400  20.750  1.00  0.00     0.210 HD
ENDBRANCH   8  39
TORSDOF 11
ENDMDL
