MODEL 1
REMARK VINA RESULT: -7.440910319      0.000      0.000
REMARK  7 active torsions:
REMARK  status: ('A' for Active; 'I' for Inactive)
REMARK    1  A    between atoms: C2_2  and  S1_16 
REMARK    2  A    between atoms: N1_3  and  C3_5 
REMARK    3  A    between atoms: C3_5  and  C4_6 
REMARK    4  A    between atoms: C4_6  and  C5_7 
REMARK    5  A    between atoms: S1_16  and  C11_17 
REMARK    6  A    between atoms: C12_18  and  O1_19 
REMARK    7  A    between atoms: N4_25  and  N5_26 
ROOT
HETATM    1  C1  UNL     1      -0.047  34.530  45.953  1.00  0.00     0.076 C 
HETATM    2  C2  UNL     1      -0.095  35.936  46.434  1.00  0.00     0.044 C 
HETATM    3  N1  UNL     1      -1.073  36.712  46.282  1.00  0.00    -0.388 N 
ATOM      4  H1  UNL     1      -0.978  37.655  46.660  1.00  0.00     0.159 HD
ENDROOT
BRANCH   2   5
HETATM    5  S1  UNL     1       1.350  36.561  47.293  1.00  0.00    -0.053 SA
BRANCH   5   6
HETATM    6  C11 UNL     1       1.454  35.935  48.949  1.00  0.00     0.152 A 
HETATM    7  C12 UNL     1       1.770  34.643  49.350  1.00  0.00     0.179 A 
HETATM    8  N3  UNL     1       1.723  34.638  50.708  1.00  0.00    -0.310 N 
HETATM    9  C13 UNL     1       1.388  35.884  51.119  1.00  0.00     0.200 A 
ATOM     10  H3  UNL     1       1.907  33.836  51.312  1.00  0.00     0.170 HD
HETATM   11  S2  UNL     1       1.208  36.365  52.686  1.00  0.00    -0.039 SA
HETATM   12  N4  UNL     1       1.224  36.678  50.049  1.00  0.00    -0.225 N 
BRANCH   7  13
HETATM   13  O1  UNL     1       2.068  33.595  48.494  1.00  0.00    -0.344 OA
ATOM     14  H1  UNL     1       2.875  33.093  48.506  1.00  0.00     0.219 HD
ENDBRANCH   7  13
BRANCH  12  15
HETATM   15  N5  UNL     1       0.877  38.035  50.062  1.00  0.00    -0.335 N 
ATOM     16  H52 UNL     1       1.029  38.708  49.311  1.00  0.00     0.177 HD
ATOM     17  H51 UNL     1       0.424  38.527  50.832  1.00  0.00     0.177 HD
ENDBRANCH  12  15
ENDBRANCH   5   6
ENDBRANCH   2   5
BRANCH   3  18
HETATM   18  C3  UNL     1      -2.303  36.398  45.628  1.00  0.00     0.122 C 
BRANCH  18  19
HETATM   19  C4  UNL     1      -2.749  37.421  44.653  1.00  0.00     0.052 C 
BRANCH  19  20
HETATM   20  C5  UNL     1      -2.289  37.085  43.263  1.00  0.00     0.187 C 
HETATM   21  C6  UNL     1      -2.083  35.615  43.015  1.00  0.00     0.033 C 
HETATM   22  C7  UNL     1      -2.787  35.185  41.749  1.00  0.00     0.002 C 
HETATM   23  C8  UNL     1      -2.332  35.979  40.571  1.00  0.00     0.002 C 
HETATM   24  C9  UNL     1      -1.010  36.656  40.725  1.00  0.00     0.027 C 
HETATM   25  C10 UNL     1      -1.055  37.956  41.481  1.00  0.00     0.232 C 
HETATM   26  N2  UNL     1      -1.065  37.812  42.913  1.00  0.00    -0.071 N 
ATOM     27  H22 UNL     1      -0.972  38.701  43.406  1.00  0.00     0.277 HD
ATOM     28  H21 UNL     1      -0.220  37.372  43.277  1.00  0.00     0.277 HD
ENDBRANCH  19  20
ENDBRANCH  18  19
ENDBRANCH   3  18
TORSDOF 7
ENDMDL
MODEL 2
REMARK VINA RESULT: -7.424174989      4.593      8.778
REMARK  7 active torsions:
REMARK  status: ('A' for Active; 'I' for Inactive)
REMARK    1  A    between atoms: C2_2  and  S1_16 
REMARK    2  A    between atoms: N1_3  and  C3_5 
REMARK    3  A    between atoms: C3_5  and  C4_6 
REMARK    4  A    between atoms: C4_6  and  C5_7 
REMARK    5  A    between atoms: S1_16  and  C11_17 
REMARK    6  A    between atoms: C12_18  and  O1_19 
REMARK    7  A    between atoms: N4_25  and  N5_26 
ROOT
HETATM    1  C1  UNL     1      -0.507  38.456  42.439  1.00  0.00     0.076 C 
HETATM    2  C2  UNL     1      -1.322  37.244  42.158  1.00  0.00     0.044 C 
HETATM    3  N1  UNL     1      -2.315  36.876  42.837  1.00  0.00    -0.388 N 
ATOM      4  H1  UNL     1      -2.790  36.025  42.538  1.00  0.00     0.159 HD
ENDROOT
BRANCH   2   5
HETATM    5  S1  UNL     1      -0.849  36.243  40.748  1.00  0.00    -0.053 SA
BRANCH   5   6
HETATM    6  C11 UNL     1      -1.656  36.775  39.262  1.00  0.00     0.152 A 
HETATM    7  C12 UNL     1      -1.323  37.853  38.453  1.00  0.00     0.179 A 
HETATM    8  N3  UNL     1      -2.224  37.867  37.436  1.00  0.00    -0.310 N 
HETATM    9  C13 UNL     1      -3.077  36.832  37.620  1.00  0.00     0.200 A 
ATOM     10  H3  UNL     1      -2.253  38.538  36.668  1.00  0.00     0.170 HD
HETATM   11  S2  UNL     1      -4.344  36.441  36.639  1.00  0.00    -0.039 SA
HETATM   12  N4  UNL     1      -2.734  36.163  38.733  1.00  0.00    -0.225 N 
BRANCH   7  13
HETATM   13  O1  UNL     1      -0.267  38.722  38.681  1.00  0.00    -0.344 OA
ATOM     14  H1  UNL     1       0.649  38.470  38.711  1.00  0.00     0.219 HD
ENDBRANCH   7  13
BRANCH  12  15
HETATM   15  N5  UNL     1      -3.373  35.032  39.257  1.00  0.00    -0.335 N 
ATOM     16  H52 UNL     1      -4.332  34.981  39.601  1.00  0.00     0.177 HD
ATOM     17  H51 UNL     1      -2.957  34.107  39.360  1.00  0.00     0.177 HD
ENDBRANCH  12  15
ENDBRANCH   5   6
ENDBRANCH   2   5
BRANCH   3  18
HETATM   18  C3  UNL     1      -2.840  37.540  43.988  1.00  0.00     0.122 C 
BRANCH  18  19
HETATM   19  C4  UNL     1      -2.707  36.766  45.245  1.00  0.00     0.052 C 
BRANCH  19  20
HETATM   20  C5  UNL     1      -1.276  36.387  45.501  1.00  0.00     0.187 C 
HETATM   21  C6  UNL     1      -1.014  34.905  45.490  1.00  0.00     0.033 C 
HETATM   22  C7  UNL     1       0.164  34.579  44.602  1.00  0.00     0.002 C 
HETATM   23  C8  UNL     1       1.389  35.320  45.020  1.00  0.00     0.002 C 
HETATM   24  C9  UNL     1       1.387  35.823  46.425  1.00  0.00     0.027 C 
HETATM   25  C10 UNL     1       0.637  37.111  46.630  1.00  0.00     0.232 C 
HETATM   26  N2  UNL     1      -0.788  36.957  46.761  1.00  0.00    -0.071 N 
ATOM     27  H22 UNL     1      -1.263  37.822  47.020  1.00  0.00     0.277 HD
ATOM     28  H21 UNL     1      -1.058  36.410  47.579  1.00  0.00     0.277 HD
ENDBRANCH  19  20
ENDBRANCH  18  19
ENDBRANCH   3  18
TORSDOF 7
ENDMDL
MODEL 3
REMARK VINA RESULT: -7.308629413      3.895      7.946
REMARK  7 active torsions:
REMARK  status: ('A' for Active; 'I' for Inactive)
REMARK    1  A    between atoms: C2_2  and  S1_16 
REMARK    2  A    between atoms: N1_3  and  C3_5 
REMARK    3  A    between atoms: C3_5  and  C4_6 
REMARK    4  A    between atoms: C4_6  and  C5_7 
REMARK    5  A    between atoms: S1_16  and  C11_17 
REMARK    6  A    between atoms: C12_18  and  O1_19 
REMARK    7  A    between atoms: N4_25  and  N5_26 
ROOT
HETATM    1  C1  UNL     1      -1.674  32.127  42.906  1.00  0.00     0.076 C 
HETATM    2  C2  UNL     1      -2.117  33.479  43.341  1.00  0.00     0.044 C 
HETATM    3  N1  UNL     1      -1.894  33.975  44.475  1.00  0.00    -0.388 N 
ATOM      4  H1  UNL     1      -2.252  34.914  44.648  1.00  0.00     0.159 HD
ENDROOT
BRANCH   2   5
HETATM    5  S1  UNL     1      -3.034  34.465  42.156  1.00  0.00    -0.053 SA
BRANCH   5   6
HETATM    6  C11 UNL     1      -2.074  35.828  41.552  1.00  0.00     0.152 A 
HETATM    7  C12 UNL     1      -1.221  36.652  42.273  1.00  0.00     0.179 A 
HETATM    8  N3  UNL     1      -0.714  37.552  41.390  1.00  0.00    -0.310 N 
HETATM    9  C13 UNL     1      -1.242  37.285  40.172  1.00  0.00     0.200 A 
ATOM     10  H3  UNL     1      -0.052  38.297  41.606  1.00  0.00     0.170 HD
HETATM   11  S2  UNL     1      -0.924  38.112  38.782  1.00  0.00    -0.039 SA
HETATM   12  N4  UNL     1      -2.073  36.233  40.267  1.00  0.00    -0.225 N 
BRANCH   7  13
HETATM   13  O1  UNL     1      -0.967  36.540  43.632  1.00  0.00    -0.344 OA
ATOM     14  H1  UNL     1      -1.346  37.094  44.305  1.00  0.00     0.219 HD
ENDBRANCH   7  13
BRANCH  12  15
HETATM   15  N5  UNL     1      -2.808  35.654  39.224  1.00  0.00    -0.335 N 
ATOM     16  H52 UNL     1      -2.645  34.740  38.802  1.00  0.00     0.177 HD
ATOM     17  H51 UNL     1      -3.606  36.077  38.752  1.00  0.00     0.177 HD
ENDBRANCH  12  15
ENDBRANCH   5   6
ENDBRANCH   2   5
BRANCH   3  18
HETATM   18  C3  UNL     1      -1.185  33.346  45.544  1.00  0.00     0.122 C 
BRANCH  18  19
HETATM   19  C4  UNL     1       0.262  33.667  45.581  1.00  0.00     0.052 C 
BRANCH  19  20
HETATM   20  C5  UNL     1       0.576  34.635  46.686  1.00  0.00     0.187 C 
HETATM   21  C6  UNL     1       1.326  35.862  46.243  1.00  0.00     0.033 C 
HETATM   22  C7  UNL     1       0.660  37.112  46.769  1.00  0.00     0.002 C 
HETATM   23  C8  UNL     1       0.538  37.086  48.255  1.00  0.00     0.002 C 
HETATM   24  C9  UNL     1       1.466  36.153  48.959  1.00  0.00     0.027 C 
HETATM   25  C10 UNL     1       1.017  34.717  48.979  1.00  0.00     0.232 C 
HETATM   26  N2  UNL     1       1.311  33.984  47.775  1.00  0.00    -0.071 N 
ATOM     27  H22 UNL     1       1.110  32.987  47.855  1.00  0.00     0.277 HD
ATOM     28  H21 UNL     1       2.311  33.901  47.591  1.00  0.00     0.277 HD
ENDBRANCH  19  20
ENDBRANCH  18  19
ENDBRANCH   3  18
TORSDOF 7
ENDMDL
MODEL 4
REMARK VINA RESULT: -7.263832947      1.556      2.394
REMARK  7 active torsions:
REMARK  status: ('A' for Active; 'I' for Inactive)
REMARK    1  A    between atoms: C2_2  and  S1_16 
REMARK    2  A    between atoms: N1_3  and  C3_5 
REMARK    3  A    between atoms: C3_5  and  C4_6 
REMARK    4  A    between atoms: C4_6  and  C5_7 
REMARK    5  A    between atoms: S1_16  and  C11_17 
REMARK    6  A    between atoms: C12_18  and  O1_19 
REMARK    7  A    between atoms: N4_25  and  N5_26 
ROOT
HETATM    1  C1  UNL     1      -1.312  36.619  46.145  1.00  0.00     0.076 C 
HETATM    2  C2  UNL     1      -0.115  35.767  46.373  1.00  0.00     0.044 C 
HETATM    3  N1  UNL     1      -0.008  34.570  46.001  1.00  0.00    -0.388 N 
ATOM      4  H1  UNL     1       0.869  34.095  46.219  1.00  0.00     0.159 HD
ENDROOT
BRANCH   2   5
HETATM    5  S1  UNL     1       1.269  36.507  47.240  1.00  0.00    -0.053 SA
BRANCH   5   6
HETATM    6  C11 UNL     1       1.420  35.885  48.894  1.00  0.00     0.152 A 
HETATM    7  C12 UNL     1       1.679  34.581  49.290  1.00  0.00     0.179 A 
HETATM    8  N3  UNL     1       1.700  34.586  50.649  1.00  0.00    -0.310 N 
HETATM    9  C13 UNL     1       1.459  35.852  51.065  1.00  0.00     0.200 A 
ATOM     10  H3  UNL     1       1.867  33.779  51.250  1.00  0.00     0.170 HD
HETATM   11  S2  UNL     1       1.385  36.352  52.635  1.00  0.00    -0.039 SA
HETATM   12  N4  UNL     1       1.287  36.648  49.997  1.00  0.00    -0.225 N 
BRANCH   7  13
HETATM   13  O1  UNL     1       1.874  33.511  48.430  1.00  0.00    -0.344 OA
ATOM     14  H1  UNL     1       1.488  32.649  48.535  1.00  0.00     0.219 HD
ENDBRANCH   7  13
BRANCH  12  15
HETATM   15  N5  UNL     1       1.021  38.023  50.015  1.00  0.00    -0.335 N 
ATOM     16  H52 UNL     1       1.113  38.669  49.232  1.00  0.00     0.177 HD
ATOM     17  H51 UNL     1       0.697  38.556  50.822  1.00  0.00     0.177 HD
ENDBRANCH  12  15
ENDBRANCH   5   6
ENDBRANCH   2   5
BRANCH   3  18
HETATM   18  C3  UNL     1      -0.997  33.814  45.302  1.00  0.00     0.122 C 
BRANCH  18  19
HETATM   19  C4  UNL     1      -0.624  33.474  43.908  1.00  0.00     0.052 C 
BRANCH  19  20
HETATM   20  C5  UNL     1      -1.664  33.954  42.935  1.00  0.00     0.187 C 
HETATM   21  C6  UNL     1      -1.979  35.422  43.036  1.00  0.00     0.033 C 
HETATM   22  C7  UNL     1      -1.925  36.073  41.673  1.00  0.00     0.002 C 
HETATM   23  C8  UNL     1      -2.850  35.408  40.710  1.00  0.00     0.002 C 
HETATM   24  C9  UNL     1      -3.952  34.611  41.323  1.00  0.00     0.027 C 
HETATM   25  C10 UNL     1      -3.554  33.230  41.769  1.00  0.00     0.232 C 
HETATM   26  N2  UNL     1      -2.904  33.182  43.052  1.00  0.00    -0.071 N 
ATOM     27  H22 UNL     1      -2.754  32.231  43.390  1.00  0.00     0.277 HD
ATOM     28  H21 UNL     1      -3.502  33.498  43.816  1.00  0.00     0.277 HD
ENDBRANCH  19  20
ENDBRANCH  18  19
ENDBRANCH   3  18
TORSDOF 7
ENDMDL
MODEL 5
REMARK VINA RESULT: -7.224103127      3.506      7.987
REMARK  7 active torsions:
REMARK  status: ('A' for Active; 'I' for Inactive)
REMARK    1  A    between atoms: C2_2  and  S1_16 
REMARK    2  A    between atoms: N1_3  and  C3_5 
REMARK    3  A    between atoms: C3_5  and  C4_6 
REMARK    4  A    between atoms: C4_6  and  C5_7 
REMARK    5  A    between atoms: S1_16  and  C11_17 
REMARK    6  A    between atoms: C12_18  and  O1_19 
REMARK    7  A    between atoms: N4_25  and  N5_26 
ROOT
HETATM    1  C1  UNL     1      -0.232  33.214  43.953  1.00  0.00     0.076 C 
HETATM    2  C2  UNL     1      -0.924  34.488  44.284  1.00  0.00     0.044 C 
HETATM    3  N1  UNL     1      -0.709  35.172  45.317  1.00  0.00    -0.388 N 
ATOM      4  H1  UNL     1      -1.252  36.028  45.426  1.00  0.00     0.159 HD
ENDROOT
BRANCH   2   5
HETATM    5  S1  UNL     1      -2.151  35.084  43.120  1.00  0.00    -0.053 SA
BRANCH   5   6
HETATM    6  C11 UNL     1      -1.513  36.387  42.100  1.00  0.00     0.152 A 
HETATM    7  C12 UNL     1      -0.717  37.456  42.488  1.00  0.00     0.179 A 
HETATM    8  N3  UNL     1      -0.483  38.190  41.368  1.00  0.00    -0.310 N 
HETATM    9  C13 UNL     1      -1.117  37.589  40.334  1.00  0.00     0.200 A 
ATOM     10  H3  UNL     1       0.073  39.044  41.316  1.00  0.00     0.170 HD
HETATM   11  S2  UNL     1      -1.124  38.114  38.771  1.00  0.00    -0.039 SA
HETATM   12  N4  UNL     1      -1.748  36.488  40.777  1.00  0.00    -0.225 N 
BRANCH   7  13
HETATM   13  O1  UNL     1      -0.270  37.688  43.779  1.00  0.00    -0.344 OA
ATOM     14  H1  UNL     1      -0.077  37.013  44.420  1.00  0.00     0.219 HD
ENDBRANCH   7  13
BRANCH  12  15
HETATM   15  N5  UNL     1      -2.510  35.598  40.010  1.00  0.00    -0.335 N 
ATOM     16  H52 UNL     1      -2.234  35.165  39.129  1.00  0.00     0.177 HD
ATOM     17  H51 UNL     1      -3.447  35.266  40.238  1.00  0.00     0.177 HD
ENDBRANCH  12  15
ENDBRANCH   5   6
ENDBRANCH   2   5
BRANCH   3  18
HETATM   18  C3  UNL     1       0.224  34.861  46.352  1.00  0.00     0.122 C 
BRANCH  18  19
HETATM   19  C4  UNL     1       1.314  35.854  46.501  1.00  0.00     0.052 C 
BRANCH  19  20
HETATM   20  C5  UNL     1       1.164  36.640  47.772  1.00  0.00     0.187 C 
HETATM   21  C6  UNL     1       0.771  35.818  48.970  1.00  0.00     0.033 C 
HETATM   22  C7  UNL     1       1.681  36.111  50.139  1.00  0.00     0.002 C 
HETATM   23  C8  UNL     1       1.682  37.562  50.484  1.00  0.00     0.002 C 
HETATM   24  C9  UNL     1       0.505  38.339  49.996  1.00  0.00     0.027 C 
HETATM   25  C10 UNL     1       0.588  38.765  48.555  1.00  0.00     0.232 C 
HETATM   26  N2  UNL     1       0.215  37.745  47.610  1.00  0.00    -0.071 N 
ATOM     27  H22 UNL     1       0.160  38.089  46.651  1.00  0.00     0.277 HD
ATOM     28  H21 UNL     1      -0.759  37.453  47.699  1.00  0.00     0.277 HD
ENDBRANCH  19  20
ENDBRANCH  18  19
ENDBRANCH   3  18
TORSDOF 7
ENDMDL
