MODEL 1
REMARK VINA RESULT: -9.365742639      0.000      0.000
REMARK  7 active torsions:
REMARK  status: ('A' for Active; 'I' for Inactive)
REMARK    1  A    between atoms: O1_1  and  N1_3 
REMARK    2  A    between atoms: C1_5  and  O2_6 
REMARK    3  A    between atoms: C1_5  and  C2_8 
REMARK    4  A    between atoms: C7_13  and  O3_14 
REMARK    5  A    between atoms: C9_17  and  N2_18 
REMARK    6  A    between atoms: C10_20  and  C11_21 
REMARK    7  A    between atoms: C11_21  and  N3_22 
ROOT
HETATM    1  C2  UNL     1      -1.688  36.714  42.187  1.00  0.00     0.181 A 
HETATM    2  C3  UNL     1      -2.448  35.543  41.731  1.00  0.00     0.007 A 
HETATM    3  C4  UNL     1      -2.324  34.363  42.285  1.00  0.00     0.012 A 
HETATM    4  C5  UNL     1      -1.416  34.131  43.395  1.00  0.00    -0.005 A 
HETATM    5  C6  UNL     1      -1.286  32.891  43.995  1.00  0.00     0.050 A 
HETATM    6  C7  UNL     1      -0.422  32.694  45.052  1.00  0.00     0.068 A 
HETATM    7  C8  UNL     1       0.328  33.755  45.522  1.00  0.00     0.068 A 
HETATM    8  C9  UNL     1       0.210  34.998  44.935  1.00  0.00     0.062 A 
HETATM    9  C17 UNL     1      -0.686  35.191  43.845  1.00  0.00     0.066 A 
HETATM   10  N4  UNL     1      -0.792  36.487  43.259  1.00  0.00    -0.372 N 
ATOM     11  H4  UNL     1      -0.220  37.253  43.614  1.00  0.00     0.161 HD
ENDROOT
BRANCH   8  12
HETATM   12  N2  UNL     1       0.946  36.078  45.359  1.00  0.00    -0.366 N 
HETATM   13  C10 UNL     1       1.130  36.769  46.344  1.00  0.00     0.081 C 
ATOM     14  H2  UNL     1       1.533  36.412  44.594  1.00  0.00     0.165 HD
BRANCH  13  15
HETATM   15  C11 UNL     1       0.535  36.692  47.669  1.00  0.00     0.171 C 
BRANCH  15  16
HETATM   16  N3  UNL     1       1.455  36.362  48.722  1.00  0.00    -0.369 N 
HETATM   17  C12 UNL     1       1.746  37.366  49.660  1.00  0.00     0.063 C 
HETATM   18  C13 UNL     1       1.333  37.103  51.068  1.00  0.00     0.045 C 
HETATM   19  C14 UNL     1       1.549  35.663  51.444  1.00  0.00     0.010 C 
HETATM   20  C15 UNL     1       0.958  34.705  50.461  1.00  0.00     0.045 C 
HETATM   21  C16 UNL     1       1.540  35.011  49.099  1.00  0.00     0.063 C 
ENDBRANCH  15  16
ENDBRANCH  13  15
ENDBRANCH   8  12
BRANCH   6  22
HETATM   22  O3  UNL     1      -0.259  31.471  45.683  1.00  0.00    -0.361 OA
ATOM     23  H3  UNL     1       0.500  31.253  46.211  1.00  0.00     0.217 HD
ENDBRANCH   6  22
BRANCH   1  24
HETATM   24  C1  UNL     1      -1.062  37.344  40.990  1.00  0.00     0.162 C 
HETATM   25  N1  UNL     1      -0.690  36.721  39.944  1.00  0.00    -0.249 N 
ATOM     26  H1  UNL     1      -0.821  35.710  39.898  1.00  0.00     0.196 HD
BRANCH  25  27
HETATM   27  O1  UNL     1      -0.126  37.359  38.892  1.00  0.00    -0.288 OA
ATOM     28  H1  UNL     1       0.091  36.905  38.086  1.00  0.00     0.244 HD
ENDBRANCH  25  27
BRANCH  24  29
HETATM   29  O2  UNL     1      -0.885  38.717  41.055  1.00  0.00    -0.346 OA
ATOM     30  H2  UNL     1      -1.595  39.259  41.378  1.00  0.00     0.219 HD
ENDBRANCH  24  29
ENDBRANCH   1  24
TORSDOF 7
ENDMDL
MODEL 2
REMARK VINA RESULT: -9.073079065      0.933      1.078
REMARK  7 active torsions:
REMARK  status: ('A' for Active; 'I' for Inactive)
REMARK    1  A    between atoms: O1_1  and  N1_3 
REMARK    2  A    between atoms: C1_5  and  O2_6 
REMARK    3  A    between atoms: C1_5  and  C2_8 
REMARK    4  A    between atoms: C7_13  and  O3_14 
REMARK    5  A    between atoms: C9_17  and  N2_18 
REMARK    6  A    between atoms: C10_20  and  C11_21 
REMARK    7  A    between atoms: C11_21  and  N3_22 
ROOT
HETATM    1  C2  UNL     1      -2.205  35.922  41.721  1.00  0.00     0.181 A 
HETATM    2  C3  UNL     1      -3.016  34.708  41.555  1.00  0.00     0.007 A 
HETATM    3  C4  UNL     1      -2.829  33.632  42.277  1.00  0.00     0.012 A 
HETATM    4  C5  UNL     1      -1.798  33.565  43.298  1.00  0.00    -0.005 A 
HETATM    5  C6  UNL     1      -1.600  32.437  44.074  1.00  0.00     0.050 A 
HETATM    6  C7  UNL     1      -0.618  32.396  45.042  1.00  0.00     0.068 A 
HETATM    7  C8  UNL     1       0.184  33.504  45.242  1.00  0.00     0.068 A 
HETATM    8  C9  UNL     1      -0.001  34.637  44.476  1.00  0.00     0.062 A 
HETATM    9  C17 UNL     1      -1.018  34.668  43.480  1.00  0.00     0.066 A 
HETATM   10  N4  UNL     1      -1.190  35.854  42.706  1.00  0.00    -0.372 N 
ATOM     11  H4  UNL     1      -0.579  36.655  42.861  1.00  0.00     0.161 HD
ENDROOT
BRANCH   8  12
HETATM   12  N2  UNL     1       0.782  35.756  44.629  1.00  0.00    -0.366 N 
HETATM   13  C10 UNL     1       1.053  36.615  45.447  1.00  0.00     0.081 C 
ATOM     14  H2  UNL     1       1.311  35.921  43.773  1.00  0.00     0.165 HD
BRANCH  13  15
HETATM   15  C11 UNL     1       0.564  36.809  46.803  1.00  0.00     0.171 C 
BRANCH  15  16
HETATM   16  N3  UNL     1       1.497  36.451  47.835  1.00  0.00    -0.369 N 
HETATM   17  C12 UNL     1       1.854  37.451  48.755  1.00  0.00     0.063 C 
HETATM   18  C13 UNL     1       1.468  37.218  50.175  1.00  0.00     0.045 C 
HETATM   19  C14 UNL     1       1.634  35.774  50.561  1.00  0.00     0.010 C 
HETATM   20  C15 UNL     1       0.979  34.832  49.603  1.00  0.00     0.045 C 
HETATM   21  C16 UNL     1       1.536  35.101  48.224  1.00  0.00     0.063 C 
ENDBRANCH  15  16
ENDBRANCH  13  15
ENDBRANCH   8  12
BRANCH   6  22
HETATM   22  O3  UNL     1      -0.385  31.289  45.843  1.00  0.00    -0.361 OA
ATOM     23  H3  UNL     1       0.477  31.052  46.167  1.00  0.00     0.217 HD
ENDBRANCH   6  22
BRANCH   1  24
HETATM   24  C1  UNL     1      -1.722  36.336  40.373  1.00  0.00     0.162 C 
HETATM   25  N1  UNL     1      -0.622  36.933  40.141  1.00  0.00    -0.249 N 
ATOM     26  H1  UNL     1      -0.006  37.156  40.922  1.00  0.00     0.196 HD
BRANCH  25  27
HETATM   27  O1  UNL     1      -0.246  37.280  38.888  1.00  0.00    -0.288 OA
ATOM     28  H1  UNL     1      -0.838  37.210  38.148  1.00  0.00     0.244 HD
ENDBRANCH  25  27
BRANCH  24  29
HETATM   29  O2  UNL     1      -2.560  36.031  39.313  1.00  0.00    -0.346 OA
ATOM     30  H2  UNL     1      -3.138  35.280  39.382  1.00  0.00     0.219 HD
ENDBRANCH  24  29
ENDBRANCH   1  24
TORSDOF 7
ENDMDL
MODEL 3
REMARK VINA RESULT: -9.042252051      0.775      1.349
REMARK  7 active torsions:
REMARK  status: ('A' for Active; 'I' for Inactive)
REMARK    1  A    between atoms: O1_1  and  N1_3 
REMARK    2  A    between atoms: C1_5  and  O2_6 
REMARK    3  A    between atoms: C1_5  and  C2_8 
REMARK    4  A    between atoms: C7_13  and  O3_14 
REMARK    5  A    between atoms: C9_17  and  N2_18 
REMARK    6  A    between atoms: C10_20  and  C11_21 
REMARK    7  A    between atoms: C11_21  and  N3_22 
ROOT
HETATM    1  C2  UNL     1      -1.730  36.843  42.046  1.00  0.00     0.181 A 
HETATM    2  C3  UNL     1      -2.602  35.808  41.474  1.00  0.00     0.007 A 
HETATM    3  C4  UNL     1      -2.585  34.565  41.889  1.00  0.00     0.012 A 
HETATM    4  C5  UNL     1      -1.694  34.123  42.947  1.00  0.00    -0.005 A 
HETATM    5  C6  UNL     1      -1.676  32.816  43.398  1.00  0.00     0.050 A 
HETATM    6  C7  UNL     1      -0.826  32.419  44.409  1.00  0.00     0.068 A 
HETATM    7  C8  UNL     1       0.026  33.344  44.982  1.00  0.00     0.068 A 
HETATM    8  C9  UNL     1       0.021  34.652  44.542  1.00  0.00     0.062 A 
HETATM    9  C17 UNL     1      -0.862  35.052  43.500  1.00  0.00     0.066 A 
HETATM   10  N4  UNL     1      -0.850  36.411  43.067  1.00  0.00    -0.372 N 
ATOM     11  H4  UNL     1      -0.204  37.074  43.495  1.00  0.00     0.161 HD
ENDROOT
BRANCH   8  12
HETATM   12  N2  UNL     1       0.861  35.603  45.071  1.00  0.00    -0.366 N 
HETATM   13  C10 UNL     1       1.394  35.915  46.120  1.00  0.00     0.081 C 
ATOM     14  H2  UNL     1       1.125  36.267  44.344  1.00  0.00     0.165 HD
BRANCH  13  15
HETATM   15  C11 UNL     1       1.328  35.286  47.430  1.00  0.00     0.171 C 
BRANCH  15  16
HETATM   16  N3  UNL     1       0.695  36.081  48.446  1.00  0.00    -0.369 N 
HETATM   17  C12 UNL     1       0.849  35.663  49.779  1.00  0.00     0.063 C 
HETATM   18  C13 UNL     1       1.587  36.587  50.686  1.00  0.00     0.045 C 
HETATM   19  C14 UNL     1       1.247  38.024  50.402  1.00  0.00     0.010 C 
HETATM   20  C15 UNL     1       1.371  38.383  48.957  1.00  0.00     0.045 C 
HETATM   21  C16 UNL     1       0.494  37.442  48.162  1.00  0.00     0.063 C 
ENDBRANCH  15  16
ENDBRANCH  13  15
ENDBRANCH   8  12
BRANCH   6  22
HETATM   22  O3  UNL     1      -0.774  31.121  44.894  1.00  0.00    -0.361 OA
ATOM     23  H3  UNL     1      -0.907  30.355  44.348  1.00  0.00     0.217 HD
ENDBRANCH   6  22
BRANCH   1  24
HETATM   24  C1  UNL     1      -1.057  37.545  40.916  1.00  0.00     0.162 C 
HETATM   25  N1  UNL     1      -0.773  37.019  39.792  1.00  0.00    -0.249 N 
ATOM     26  H1  UNL     1      -1.015  36.042  39.628  1.00  0.00     0.196 HD
BRANCH  25  27
HETATM   27  O1  UNL     1      -0.159  37.719  38.808  1.00  0.00    -0.288 OA
ATOM     28  H1  UNL     1       0.783  37.838  38.789  1.00  0.00     0.244 HD
ENDBRANCH  25  27
BRANCH  24  29
HETATM   29  O2  UNL     1      -0.730  38.872  41.141  1.00  0.00    -0.346 OA
ATOM     30  H2  UNL     1       0.155  39.167  40.959  1.00  0.00     0.219 HD
ENDBRANCH  24  29
ENDBRANCH   1  24
TORSDOF 7
ENDMDL
MODEL 4
REMARK VINA RESULT: -8.819217097      1.512      2.184
REMARK  7 active torsions:
REMARK  status: ('A' for Active; 'I' for Inactive)
REMARK    1  A    between atoms: O1_1  and  N1_3 
REMARK    2  A    between atoms: C1_5  and  O2_6 
REMARK    3  A    between atoms: C1_5  and  C2_8 
REMARK    4  A    between atoms: C7_13  and  O3_14 
REMARK    5  A    between atoms: C9_17  and  N2_18 
REMARK    6  A    between atoms: C10_20  and  C11_21 
REMARK    7  A    between atoms: C11_21  and  N3_22 
ROOT
HETATM    1  C2  UNL     1      -1.276  37.294  43.358  1.00  0.00     0.181 A 
HETATM    2  C3  UNL     1      -2.120  36.280  42.711  1.00  0.00     0.007 A 
HETATM    3  C4  UNL     1      -2.081  35.014  43.046  1.00  0.00     0.012 A 
HETATM    4  C5  UNL     1      -1.193  34.524  44.084  1.00  0.00    -0.005 A 
HETATM    5  C6  UNL     1      -1.152  33.191  44.452  1.00  0.00     0.050 A 
HETATM    6  C7  UNL     1      -0.304  32.747  45.446  1.00  0.00     0.068 A 
HETATM    7  C8  UNL     1       0.522  33.652  46.086  1.00  0.00     0.068 A 
HETATM    8  C9  UNL     1       0.494  34.984  45.731  1.00  0.00     0.062 A 
HETATM    9  C17 UNL     1      -0.387  35.432  44.705  1.00  0.00     0.066 A 
HETATM   10  N4  UNL     1      -0.398  36.816  44.360  1.00  0.00    -0.372 N 
ATOM     11  H4  UNL     1       0.228  37.464  44.837  1.00  0.00     0.161 HD
ENDROOT
BRANCH   8  12
HETATM   12  N2  UNL     1       1.307  35.917  46.330  1.00  0.00    -0.366 N 
HETATM   13  C10 UNL     1       1.274  36.806  47.159  1.00  0.00     0.081 C 
ATOM     14  H2  UNL     1       2.252  35.836  45.954  1.00  0.00     0.165 HD
BRANCH  13  15
HETATM   15  C11 UNL     1       0.167  37.298  47.965  1.00  0.00     0.171 C 
BRANCH  15  16
HETATM   16  N3  UNL     1       0.556  37.958  49.180  1.00  0.00    -0.369 N 
HETATM   17  C12 UNL     1       1.866  37.738  49.640  1.00  0.00     0.063 C 
HETATM   18  C13 UNL     1       2.764  38.926  49.686  1.00  0.00     0.045 C 
HETATM   19  C14 UNL     1       2.026  40.157  50.134  1.00  0.00     0.010 C 
HETATM   20  C15 UNL     1       0.763  40.394  49.371  1.00  0.00     0.045 C 
HETATM   21  C16 UNL     1      -0.101  39.159  49.496  1.00  0.00     0.063 C 
ENDBRANCH  15  16
ENDBRANCH  13  15
ENDBRANCH   8  12
BRANCH   6  22
HETATM   22  O3  UNL     1      -0.230  31.423  45.847  1.00  0.00    -0.361 OA
ATOM     23  H3  UNL     1      -0.182  30.695  45.239  1.00  0.00     0.217 HD
ENDBRANCH   6  22
BRANCH   1  24
HETATM   24  C1  UNL     1      -0.606  38.081  42.283  1.00  0.00     0.162 C 
HETATM   25  N1  UNL     1      -1.110  38.340  41.143  1.00  0.00    -0.249 N 
ATOM     26  H1  UNL     1      -2.044  37.994  40.925  1.00  0.00     0.196 HD
BRANCH  25  27
HETATM   27  O1  UNL     1      -0.443  39.063  40.213  1.00  0.00    -0.288 OA
ATOM     28  H1  UNL     1      -0.876  39.413  39.443  1.00  0.00     0.244 HD
ENDBRANCH  25  27
BRANCH  24  29
HETATM   29  O2  UNL     1       0.662  38.551  42.582  1.00  0.00    -0.346 OA
ATOM     30  H2  UNL     1       1.003  39.296  42.101  1.00  0.00     0.219 HD
ENDBRANCH  24  29
ENDBRANCH   1  24
TORSDOF 7
ENDMDL
MODEL 5
REMARK VINA RESULT: -8.816592772      2.856      6.902
REMARK  7 active torsions:
REMARK  status: ('A' for Active; 'I' for Inactive)
REMARK    1  A    between atoms: O1_1  and  N1_3 
REMARK    2  A    between atoms: C1_5  and  O2_6 
REMARK    3  A    between atoms: C1_5  and  C2_8 
REMARK    4  A    between atoms: C7_13  and  O3_14 
REMARK    5  A    between atoms: C9_17  and  N2_18 
REMARK    6  A    between atoms: C10_20  and  C11_21 
REMARK    7  A    between atoms: C11_21  and  N3_22 
ROOT
HETATM    1  C2  UNL     1       1.837  37.447  48.393  1.00  0.00     0.181 A 
HETATM    2  C3  UNL     1       1.613  36.411  49.410  1.00  0.00     0.007 A 
HETATM    3  C4  UNL     1       1.182  35.211  49.109  1.00  0.00     0.012 A 
HETATM    4  C5  UNL     1       0.893  34.822  47.740  1.00  0.00    -0.005 A 
HETATM    5  C6  UNL     1       0.449  33.555  47.412  1.00  0.00     0.050 A 
HETATM    6  C7  UNL     1       0.185  33.204  46.104  1.00  0.00     0.068 A 
HETATM    7  C8  UNL     1       0.369  34.138  45.101  1.00  0.00     0.068 A 
HETATM    8  C9  UNL     1       0.811  35.407  45.412  1.00  0.00     0.062 A 
HETATM    9  C17 UNL     1       1.082  35.757  46.766  1.00  0.00     0.066 A 
HETATM   10  N4  UNL     1       1.542  37.076  47.059  1.00  0.00    -0.372 N 
ATOM     11  H4  UNL     1       1.659  37.752  46.306  1.00  0.00     0.161 HD
ENDROOT
BRANCH   8  12
HETATM   12  N2  UNL     1       0.994  36.372  44.451  1.00  0.00    -0.366 N 
HETATM   13  C10 UNL     1       0.395  37.270  43.887  1.00  0.00     0.081 C 
ATOM     14  H2  UNL     1       1.947  36.320  44.091  1.00  0.00     0.165 HD
BRANCH  13  15
HETATM   15  C11 UNL     1      -0.974  37.733  44.051  1.00  0.00     0.171 C 
BRANCH  15  16
HETATM   16  N3  UNL     1      -1.808  37.560  42.894  1.00  0.00    -0.369 N 
HETATM   17  C12 UNL     1      -1.293  37.990  41.660  1.00  0.00     0.063 C 
HETATM   18  C13 UNL     1      -1.069  36.937  40.628  1.00  0.00     0.045 C 
HETATM   19  C14 UNL     1      -2.165  35.907  40.647  1.00  0.00     0.010 C 
HETATM   20  C15 UNL     1      -2.430  35.358  42.012  1.00  0.00     0.045 C 
HETATM   21  C16 UNL     1      -2.747  36.515  42.931  1.00  0.00     0.063 C 
ENDBRANCH  15  16
ENDBRANCH  13  15
ENDBRANCH   8  12
BRANCH   6  22
HETATM   22  O3  UNL     1      -0.261  31.947  45.728  1.00  0.00    -0.361 OA
ATOM     23  H3  UNL     1      -0.572  31.743  44.853  1.00  0.00     0.217 HD
ENDBRANCH   6  22
BRANCH   1  24
HETATM   24  C1  UNL     1       1.149  38.688  48.848  1.00  0.00     0.162 C 
HETATM   25  N1  UNL     1      -0.081  38.767  49.170  1.00  0.00    -0.249 N 
ATOM     26  H1  UNL     1      -0.660  37.929  49.121  1.00  0.00     0.196 HD
BRANCH  25  27
HETATM   27  O1  UNL     1      -0.642  39.931  49.575  1.00  0.00    -0.288 OA
ATOM     28  H1  UNL     1      -1.478  39.956  50.025  1.00  0.00     0.244 HD
ENDBRANCH  25  27
BRANCH  24  29
HETATM   29  O2  UNL     1       1.937  39.826  48.914  1.00  0.00    -0.346 OA
ATOM     30  H2  UNL     1       2.805  39.808  48.530  1.00  0.00     0.219 HD
ENDBRANCH  24  29
ENDBRANCH   1  24
TORSDOF 7
ENDMDL
