MODEL 1
REMARK VINA RESULT: -8.031278318      0.000      0.000
REMARK  8 active torsions:
REMARK  status: ('A' for Active; 'I' for Inactive)
REMARK    1  A    between atoms: C2_2  and  C3_3 
REMARK    2  A    between atoms: C3_3  and  C4_4 
REMARK    3  A    between atoms: C4_4  and  N1_5 
REMARK    4  A    between atoms: C8_9  and  O1_10 
REMARK    5  A    between atoms: C10_13  and  O2_14 
REMARK    6  A    between atoms: C12_16  and  O3_17 
REMARK    7  A    between atoms: C14_20  and  O4_21 
REMARK    8  A    between atoms: C16_24  and  O5_25 
ROOT
HETATM    1  N1  UNL     1      -1.028  37.097  43.921  1.00  0.00     0.097 N 
HETATM    2  C5  UNL     1      -0.130  37.539  42.801  1.00  0.00     0.315 C 
HETATM    3  C6  UNL     1      -0.955  37.178  41.594  1.00  0.00     0.015 A 
HETATM    4  C7  UNL     1      -1.623  36.042  41.987  1.00  0.00     0.015 A 
HETATM    5  C8  UNL     1      -2.490  35.448  41.098  1.00  0.00     0.088 A 
HETATM    6  C9  UNL     1      -2.736  35.916  39.831  1.00  0.00     0.050 A 
HETATM    7  C10 UNL     1      -3.613  35.328  38.949  1.00  0.00     0.115 A 
HETATM    8  C12 UNL     1      -3.841  35.843  37.694  1.00  0.00     0.102 A 
HETATM    9  C13 UNL     1      -3.158  36.990  37.310  1.00  0.00     0.077 A 
HETATM   10  C14 UNL     1      -2.270  37.593  38.188  1.00  0.00     0.082 A 
HETATM   11  C15 UNL     1      -2.042  37.076  39.453  1.00  0.00     0.047 A 
HETATM   12  C16 UNL     1      -1.161  37.691  40.339  1.00  0.00     0.088 A 
HETATM   13  C17 UNL     1      -1.213  35.717  43.398  1.00  0.00     0.315 C 
ENDROOT
BRANCH   1  14
HETATM   14  C4  UNL     1      -0.274  36.998  45.129  1.00  0.00     0.273 C 
BRANCH  14  15
HETATM   15  C3  UNL     1       0.645  35.842  45.261  1.00  0.00     0.030 C 
BRANCH  15  16
HETATM   16  C2  UNL     1       0.590  35.092  46.541  1.00  0.00    -0.003 C 
HETATM   17  C1  UNL     1       0.180  33.635  46.317  1.00  0.00     0.005 C 
ENDBRANCH  15  16
ENDBRANCH  14  15
ENDBRANCH   1  14
BRANCH  12  18
HETATM   18  O5  UNL     1      -0.496  38.822  39.942  1.00  0.00    -0.359 OA
ATOM     19  H5  UNL     1      -0.572  39.621  40.448  1.00  0.00     0.217 HD
ENDBRANCH  12  18
BRANCH   5  20
HETATM   20  O1  UNL     1      -3.149  34.298  41.542  1.00  0.00    -0.359 OA
ATOM     21  H1  UNL     1      -4.097  34.339  41.578  1.00  0.00     0.217 HD
ENDBRANCH   5  20
BRANCH  10  22
HETATM   22  O4  UNL     1      -1.598  38.748  37.776  1.00  0.00    -0.360 OA
ATOM     23  H4  UNL     1      -0.734  38.924  38.129  1.00  0.00     0.217 HD
ENDBRANCH  10  22
BRANCH   7  24
HETATM   24  O2  UNL     1      -4.296  34.184  39.304  1.00  0.00    -0.352 OA
HETATM   25  C11 UNL     1      -3.945  32.890  38.854  1.00  0.00     0.210 C 
ENDBRANCH   7  24
BRANCH   8  26
HETATM   26  O3  UNL     1      -4.715  35.296  36.765  1.00  0.00    -0.358 OA
ATOM     27  H3  UNL     1      -4.447  34.826  35.984  1.00  0.00     0.217 HD
ENDBRANCH   8  26
TORSDOF 8
ENDMDL
MODEL 2
REMARK VINA RESULT: -7.865699247      3.831      6.822
REMARK  8 active torsions:
REMARK  status: ('A' for Active; 'I' for Inactive)
REMARK    1  A    between atoms: C2_2  and  C3_3 
REMARK    2  A    between atoms: C3_3  and  C4_4 
REMARK    3  A    between atoms: C4_4  and  N1_5 
REMARK    4  A    between atoms: C8_9  and  O1_10 
REMARK    5  A    between atoms: C10_13  and  O2_14 
REMARK    6  A    between atoms: C12_16  and  O3_17 
REMARK    7  A    between atoms: C14_20  and  O4_21 
REMARK    8  A    between atoms: C16_24  and  O5_25 
ROOT
HETATM    1  N1  UNL     1       1.753  37.534  48.347  1.00  0.00     0.097 N 
HETATM    2  C5  UNL     1       1.396  36.167  48.858  1.00  0.00     0.315 C 
HETATM    3  C6  UNL     1       0.616  35.607  47.698  1.00  0.00     0.015 A 
HETATM    4  C7  UNL     1      -0.023  36.707  47.177  1.00  0.00     0.015 A 
HETATM    5  C8  UNL     1      -0.828  36.538  46.074  1.00  0.00     0.088 A 
HETATM    6  C9  UNL     1      -1.042  35.333  45.451  1.00  0.00     0.050 A 
HETATM    7  C10 UNL     1      -1.837  35.169  44.341  1.00  0.00     0.115 A 
HETATM    8  C12 UNL     1      -2.007  33.944  43.739  1.00  0.00     0.102 A 
HETATM    9  C13 UNL     1      -1.357  32.841  44.278  1.00  0.00     0.077 A 
HETATM   10  C14 UNL     1      -0.553  32.991  45.398  1.00  0.00     0.082 A 
HETATM   11  C15 UNL     1      -0.379  34.226  46.002  1.00  0.00     0.047 A 
HETATM   12  C16 UNL     1       0.440  34.377  47.117  1.00  0.00     0.088 A 
HETATM   13  C17 UNL     1       0.356  37.908  48.000  1.00  0.00     0.315 C 
ENDROOT
BRANCH   1  14
HETATM   14  C4  UNL     1       2.158  38.362  49.436  1.00  0.00     0.273 C 
BRANCH  14  15
HETATM   15  C3  UNL     1       1.806  37.906  50.802  1.00  0.00     0.030 C 
BRANCH  15  16
HETATM   16  C2  UNL     1       1.288  38.939  51.735  1.00  0.00    -0.003 C 
HETATM   17  C1  UNL     1      -0.090  39.443  51.302  1.00  0.00     0.005 C 
ENDBRANCH  15  16
ENDBRANCH  14  15
ENDBRANCH   1  14
BRANCH  12  18
HETATM   18  O5  UNL     1       1.074  33.277  47.635  1.00  0.00    -0.359 OA
ATOM     19  H5  UNL     1       1.905  33.373  48.084  1.00  0.00     0.217 HD
ENDBRANCH  12  18
BRANCH   5  20
HETATM   20  O1  UNL     1      -1.455  37.685  45.576  1.00  0.00    -0.359 OA
ATOM     21  H1  UNL     1      -1.618  37.708  44.640  1.00  0.00     0.217 HD
ENDBRANCH   5  20
BRANCH  10  22
HETATM   22  O4  UNL     1       0.092  31.864  45.917  1.00  0.00    -0.360 OA
ATOM     23  H4  UNL     1       0.090  31.730  46.857  1.00  0.00     0.217 HD
ENDBRANCH  10  22
BRANCH   7  24
HETATM   24  O2  UNL     1      -2.500  36.247  43.793  1.00  0.00    -0.352 OA
HETATM   25  C11 UNL     1      -2.142  36.844  42.562  1.00  0.00     0.210 C 
ENDBRANCH   7  24
BRANCH   8  26
HETATM   26  O3  UNL     1      -2.793  33.719  42.617  1.00  0.00    -0.358 OA
ATOM     27  H3  UNL     1      -3.193  32.886  42.397  1.00  0.00     0.217 HD
ENDBRANCH   8  26
TORSDOF 8
ENDMDL
MODEL 3
REMARK VINA RESULT: -7.838708665      1.045      1.187
REMARK  8 active torsions:
REMARK  status: ('A' for Active; 'I' for Inactive)
REMARK    1  A    between atoms: C2_2  and  C3_3 
REMARK    2  A    between atoms: C3_3  and  C4_4 
REMARK    3  A    between atoms: C4_4  and  N1_5 
REMARK    4  A    between atoms: C8_9  and  O1_10 
REMARK    5  A    between atoms: C10_13  and  O2_14 
REMARK    6  A    between atoms: C12_16  and  O3_17 
REMARK    7  A    between atoms: C14_20  and  O4_21 
REMARK    8  A    between atoms: C16_24  and  O5_25 
ROOT
HETATM    1  N1  UNL     1      -1.548  36.503  44.997  1.00  0.00     0.097 N 
HETATM    2  C5  UNL     1      -0.489  36.941  44.026  1.00  0.00     0.315 C 
HETATM    3  C6  UNL     1      -1.153  36.647  42.706  1.00  0.00     0.015 A 
HETATM    4  C7  UNL     1      -1.908  35.528  42.966  1.00  0.00     0.015 A 
HETATM    5  C8  UNL     1      -2.664  34.995  41.947  1.00  0.00     0.088 A 
HETATM    6  C9  UNL     1      -2.717  35.508  40.674  1.00  0.00     0.050 A 
HETATM    7  C10 UNL     1      -3.485  34.981  39.662  1.00  0.00     0.115 A 
HETATM    8  C12 UNL     1      -3.520  35.541  38.406  1.00  0.00     0.102 A 
HETATM    9  C13 UNL     1      -2.751  36.670  38.158  1.00  0.00     0.077 A 
HETATM   10  C14 UNL     1      -1.971  37.213  39.169  1.00  0.00     0.082 A 
HETATM   11  C15 UNL     1      -1.938  36.650  40.435  1.00  0.00     0.047 A 
HETATM   12  C16 UNL     1      -1.166  37.204  41.453  1.00  0.00     0.088 A 
HETATM   13  C17 UNL     1      -1.708  35.146  44.407  1.00  0.00     0.315 C 
ENDROOT
BRANCH   1  14
HETATM   14  C4  UNL     1      -0.971  36.339  46.293  1.00  0.00     0.273 C 
BRANCH  14  15
HETATM   15  C3  UNL     1       0.344  36.976  46.534  1.00  0.00     0.030 C 
BRANCH  15  16
HETATM   16  C2  UNL     1       1.315  36.208  47.353  1.00  0.00    -0.003 C 
HETATM   17  C1  UNL     1       0.939  34.726  47.422  1.00  0.00     0.005 C 
ENDBRANCH  15  16
ENDBRANCH  14  15
ENDBRANCH   1  14
BRANCH  12  18
HETATM   18  O5  UNL     1      -0.414  38.319  41.188  1.00  0.00    -0.359 OA
ATOM     19  H5  UNL     1       0.080  38.379  40.380  1.00  0.00     0.217 HD
ENDBRANCH  12  18
BRANCH   5  20
HETATM   20  O1  UNL     1      -3.419  33.859  42.257  1.00  0.00    -0.359 OA
ATOM     21  H1  UNL     1      -4.320  34.006  42.520  1.00  0.00     0.217 HD
ENDBRANCH   5  20
BRANCH  10  22
HETATM   22  O4  UNL     1      -1.209  38.351  38.892  1.00  0.00    -0.360 OA
ATOM     23  H4  UNL     1      -0.789  38.806  39.613  1.00  0.00     0.217 HD
ENDBRANCH  10  22
BRANCH   7  24
HETATM   24  O2  UNL     1      -4.250  33.855  39.882  1.00  0.00    -0.352 OA
HETATM   25  C11 UNL     1      -3.944  32.583  39.345  1.00  0.00     0.210 C 
ENDBRANCH   7  24
BRANCH   8  26
HETATM   26  O3  UNL     1      -4.277  35.055  37.348  1.00  0.00    -0.358 OA
ATOM     27  H3  UNL     1      -3.925  34.820  36.497  1.00  0.00     0.217 HD
ENDBRANCH   8  26
TORSDOF 8
ENDMDL
MODEL 4
REMARK VINA RESULT: -7.771388546      1.378      2.003
REMARK  8 active torsions:
REMARK  status: ('A' for Active; 'I' for Inactive)
REMARK    1  A    between atoms: C2_2  and  C3_3 
REMARK    2  A    between atoms: C3_3  and  C4_4 
REMARK    3  A    between atoms: C4_4  and  N1_5 
REMARK    4  A    between atoms: C8_9  and  O1_10 
REMARK    5  A    between atoms: C10_13  and  O2_14 
REMARK    6  A    between atoms: C12_16  and  O3_17 
REMARK    7  A    between atoms: C14_20  and  O4_21 
REMARK    8  A    between atoms: C16_24  and  O5_25 
ROOT
HETATM    1  N1  UNL     1      -0.919  36.718  45.812  1.00  0.00     0.097 N 
HETATM    2  C5  UNL     1       0.106  37.116  44.787  1.00  0.00     0.315 C 
HETATM    3  C6  UNL     1      -0.606  36.776  43.504  1.00  0.00     0.015 A 
HETATM    4  C7  UNL     1      -1.354  35.670  43.832  1.00  0.00     0.015 A 
HETATM    5  C8  UNL     1      -2.147  35.102  42.862  1.00  0.00     0.088 A 
HETATM    6  C9  UNL     1      -2.245  35.567  41.574  1.00  0.00     0.050 A 
HETATM    7  C10 UNL     1      -3.049  35.005  40.610  1.00  0.00     0.115 A 
HETATM    8  C12 UNL     1      -3.128  35.518  39.336  1.00  0.00     0.102 A 
HETATM    9  C13 UNL     1      -2.365  36.634  39.018  1.00  0.00     0.077 A 
HETATM   10  C14 UNL     1      -1.549  37.211  39.980  1.00  0.00     0.082 A 
HETATM   11  C15 UNL     1      -1.472  36.696  41.264  1.00  0.00     0.047 A 
HETATM   12  C16 UNL     1      -0.663  37.285  42.232  1.00  0.00     0.088 A 
HETATM   13  C17 UNL     1      -1.103  35.341  45.279  1.00  0.00     0.315 C 
ENDROOT
BRANCH   1  14
HETATM   14  C4  UNL     1      -0.296  36.601  47.091  1.00  0.00     0.273 C 
BRANCH  14  15
HETATM   15  C3  UNL     1       1.116  36.151  47.119  1.00  0.00     0.030 C 
BRANCH  15  16
HETATM   16  C2  UNL     1       1.449  35.065  48.074  1.00  0.00    -0.003 C 
HETATM   17  C1  UNL     1       1.061  35.441  49.506  1.00  0.00     0.005 C 
ENDBRANCH  15  16
ENDBRANCH  14  15
ENDBRANCH   1  14
BRANCH  12  18
HETATM   18  O5  UNL     1       0.083  38.387  41.899  1.00  0.00    -0.359 OA
ATOM     19  H5  UNL     1       1.027  38.317  41.823  1.00  0.00     0.217 HD
ENDBRANCH  12  18
BRANCH   5  20
HETATM   20  O1  UNL     1      -2.893  33.981  43.242  1.00  0.00    -0.359 OA
ATOM     21  H1  UNL     1      -3.582  33.708  42.647  1.00  0.00     0.217 HD
ENDBRANCH   5  20
BRANCH  10  22
HETATM   22  O4  UNL     1      -0.794  38.336  39.633  1.00  0.00    -0.360 OA
ATOM     23  H4  UNL     1      -1.236  39.173  39.549  1.00  0.00     0.217 HD
ENDBRANCH  10  22
BRANCH   7  24
HETATM   24  O2  UNL     1      -3.809  33.892  40.899  1.00  0.00    -0.352 OA
HETATM   25  C11 UNL     1      -3.735  32.682  40.170  1.00  0.00     0.210 C 
ENDBRANCH   7  24
BRANCH   8  26
HETATM   26  O3  UNL     1      -3.923  34.996  38.325  1.00  0.00    -0.358 OA
ATOM     27  H3  UNL     1      -3.603  34.458  37.610  1.00  0.00     0.217 HD
ENDBRANCH   8  26
TORSDOF 8
ENDMDL
MODEL 5
REMARK VINA RESULT: -7.731718061      6.338     10.541
REMARK  8 active torsions:
REMARK  status: ('A' for Active; 'I' for Inactive)
REMARK    1  A    between atoms: C2_2  and  C3_3 
REMARK    2  A    between atoms: C3_3  and  C4_4 
REMARK    3  A    between atoms: C4_4  and  N1_5 
REMARK    4  A    between atoms: C8_9  and  O1_10 
REMARK    5  A    between atoms: C10_13  and  O2_14 
REMARK    6  A    between atoms: C12_16  and  O3_17 
REMARK    7  A    between atoms: C14_20  and  O4_21 
REMARK    8  A    between atoms: C16_24  and  O5_25 
ROOT
HETATM    1  N1  UNL     1      -0.397  34.956  45.911  1.00  0.00     0.097 N 
HETATM    2  C5  UNL     1       0.786  34.270  46.532  1.00  0.00     0.315 C 
HETATM    3  C6  UNL     1       0.927  35.026  47.827  1.00  0.00     0.015 A 
HETATM    4  C7  UNL     1       0.536  36.302  47.500  1.00  0.00     0.015 A 
HETATM    5  C8  UNL     1       0.539  37.263  48.485  1.00  0.00     0.088 A 
HETATM    6  C9  UNL     1       0.910  37.033  49.787  1.00  0.00     0.050 A 
HETATM    7  C10 UNL     1       0.899  37.991  50.773  1.00  0.00     0.115 A 
HETATM    8  C12 UNL     1       1.262  37.709  52.070  1.00  0.00     0.102 A 
HETATM    9  C13 UNL     1       1.656  36.415  52.385  1.00  0.00     0.077 A 
HETATM   10  C14 UNL     1       1.673  35.438  51.400  1.00  0.00     0.082 A 
HETATM   11  C15 UNL     1       1.304  35.722  50.095  1.00  0.00     0.047 A 
HETATM   12  C16 UNL     1       1.308  34.736  49.112  1.00  0.00     0.088 A 
HETATM   13  C17 UNL     1       0.169  36.326  46.041  1.00  0.00     0.315 C 
ENDROOT
BRANCH   1  14
HETATM   14  C4  UNL     1      -0.453  34.649  44.518  1.00  0.00     0.273 C 
BRANCH  14  15
HETATM   15  C3  UNL     1      -1.084  33.365  44.133  1.00  0.00     0.030 C 
BRANCH  15  16
HETATM   16  C2  UNL     1      -0.182  32.317  43.592  1.00  0.00    -0.003 C 
HETATM   17  C1  UNL     1      -0.961  31.063  43.188  1.00  0.00     0.005 C 
ENDBRANCH  15  16
ENDBRANCH  14  15
ENDBRANCH   1  14
BRANCH  12  18
HETATM   18  O5  UNL     1       1.700  33.465  49.442  1.00  0.00    -0.359 OA
ATOM     19  H5  UNL     1       2.512  33.325  49.913  1.00  0.00     0.217 HD
ENDBRANCH  12  18
BRANCH   5  20
HETATM   20  O1  UNL     1       0.131  38.547  48.108  1.00  0.00    -0.359 OA
ATOM     21  H1  UNL     1      -0.681  38.862  48.486  1.00  0.00     0.217 HD
ENDBRANCH   5  20
BRANCH  10  22
HETATM   22  O4  UNL     1       2.071  34.143  51.747  1.00  0.00    -0.360 OA
ATOM     23  H4  UNL     1       1.700  33.410  51.271  1.00  0.00     0.217 HD
ENDBRANCH  10  22
BRANCH   7  24
HETATM   24  O2  UNL     1       0.520  39.285  50.483  1.00  0.00    -0.352 OA
HETATM   25  C11 UNL     1       1.430  40.362  50.375  1.00  0.00     0.210 C 
ENDBRANCH   7  24
BRANCH   8  26
HETATM   26  O3  UNL     1       1.267  38.634  53.105  1.00  0.00    -0.358 OA
ATOM     27  H3  UNL     1       1.081  38.427  54.013  1.00  0.00     0.217 HD
ENDBRANCH   8  26
TORSDOF 8
ENDMDL
