MODEL 1
REMARK VINA RESULT: -8.397469981      0.000      0.000
REMARK  6 active torsions:
REMARK  status: ('A' for Active; 'I' for Inactive)
REMARK    1  A    between atoms: C1_2  and  N2_4 
REMARK    2  A    between atoms: N2_4  and  N3_6 
REMARK    3  A    between atoms: C2_8  and  C3_9 
REMARK    4  A    between atoms: C2_8  and  C12_24 
REMARK    5  A    between atoms: C3_9  and  C4_10 
REMARK    6  A    between atoms: N4_18  and  O1_20 
ROOT
HETATM    1  C4  UNL     1       1.087  37.006  47.268  1.00  0.00     0.088 C 
HETATM    2  C5  UNL     1       1.590  36.050  48.281  1.00  0.00     0.025 C 
HETATM    3  C6  UNL     1       0.717  35.712  49.424  1.00  0.00     0.002 C 
HETATM    4  C7  UNL     1       1.375  36.014  50.743  1.00  0.00     0.000 C 
HETATM    5  C8  UNL     1       1.895  37.408  50.864  1.00  0.00     0.000 C 
HETATM    6  C9  UNL     1       0.830  38.415  51.187  1.00  0.00     0.007 C 
HETATM    7  C10 UNL     1       0.145  38.973  49.984  1.00  0.00     0.078 C 
HETATM    8  C11 UNL     1       1.011  39.094  48.784  1.00  0.00     0.097 C 
HETATM    9  N4  UNL     1       1.929  40.033  48.901  1.00  0.00    -0.257 N 
ATOM     10  H4  UNL     1       2.562  40.173  48.113  1.00  0.00     0.195 HD
HETATM   11  N5  UNL     1       0.973  38.377  47.594  1.00  0.00    -0.373 N 
ATOM     12  H5  UNL     1       0.834  38.970  46.775  1.00  0.00     0.161 HD
ENDROOT
BRANCH   1  13
HETATM   13  C3  UNL     1      -0.226  36.527  46.710  1.00  0.00     0.086 C 
BRANCH  13  14
HETATM   14  C2  UNL     1      -0.079  36.152  45.242  1.00  0.00     0.061 C 
HETATM   15  N3  UNL     1       0.104  37.080  44.404  1.00  0.00    -0.300 N 
ATOM     16  H3  UNL     1       0.140  38.025  44.786  1.00  0.00     0.186 HD
BRANCH  15  17
HETATM   17  N2  UNL     1       0.258  36.977  43.063  1.00  0.00    -0.278 N 
ATOM     18  H2  UNL     1       1.120  36.610  42.662  1.00  0.00     0.189 HD
BRANCH  17  19
HETATM   19  C1  UNL     1      -0.829  37.399  42.219  1.00  0.00     0.199 C 
HETATM   20  N1  UNL     1      -1.695  38.432  42.664  1.00  0.00    -0.068 NA
HETATM   21  S1  UNL     1      -1.013  36.668  40.785  1.00  0.00    -0.043 SA
ENDBRANCH  17  19
ENDBRANCH  15  17
BRANCH  14  22
HETATM   22  C12 UNL     1      -0.130  34.746  44.919  1.00  0.00     0.099 A 
HETATM   23  C13 UNL     1       0.154  33.644  45.696  1.00  0.00     0.041 A 
HETATM   24  C14 UNL     1      -0.053  32.535  44.890  1.00  0.00     0.027 A 
HETATM   25  C15 UNL     1      -0.453  32.996  43.660  1.00  0.00     0.142 A 
HETATM   26  O2  UNL     1      -0.483  34.291  43.726  1.00  0.00    -0.321 OA
ENDBRANCH  14  22
ENDBRANCH  13  14
ENDBRANCH   1  13
BRANCH   9  27
HETATM   27  O1  UNL     1       2.098  40.822  49.980  1.00  0.00    -0.288 OA
ATOM     28  H1  UNL     1       1.798  40.619  50.858  1.00  0.00     0.244 HD
ENDBRANCH   9  27
TORSDOF 6
ENDMDL
MODEL 2
REMARK VINA RESULT: -8.333928768      3.262      6.880
REMARK  6 active torsions:
REMARK  status: ('A' for Active; 'I' for Inactive)
REMARK    1  A    between atoms: C1_2  and  N2_4 
REMARK    2  A    between atoms: N2_4  and  N3_6 
REMARK    3  A    between atoms: C2_8  and  C3_9 
REMARK    4  A    between atoms: C2_8  and  C12_24 
REMARK    5  A    between atoms: C3_9  and  C4_10 
REMARK    6  A    between atoms: N4_18  and  O1_20 
ROOT
HETATM    1  C4  UNL     1       0.437  36.495  45.574  1.00  0.00     0.088 C 
HETATM    2  C5  UNL     1      -0.150  37.224  44.425  1.00  0.00     0.025 C 
HETATM    3  C6  UNL     1      -1.619  37.227  44.271  1.00  0.00     0.002 C 
HETATM    4  C7  UNL     1      -2.045  36.674  42.937  1.00  0.00     0.000 C 
HETATM    5  C8  UNL     1      -1.479  35.330  42.620  1.00  0.00     0.000 C 
HETATM    6  C9  UNL     1      -2.205  34.204  43.297  1.00  0.00     0.007 C 
HETATM    7  C10 UNL     1      -1.692  33.892  44.664  1.00  0.00     0.078 C 
HETATM    8  C11 UNL     1      -0.234  34.112  44.839  1.00  0.00     0.097 C 
HETATM    9  N4  UNL     1       0.503  33.238  44.182  1.00  0.00    -0.257 N 
ATOM     10  H4  UNL     1       1.517  33.329  44.256  1.00  0.00     0.195 HD
HETATM   11  N5  UNL     1       0.428  35.081  45.585  1.00  0.00    -0.373 N 
ATOM     12  H5  UNL     1       1.042  34.685  46.296  1.00  0.00     0.161 HD
ENDROOT
BRANCH   1  13
HETATM   13  C3  UNL     1      -0.154  36.996  46.863  1.00  0.00     0.086 C 
BRANCH  13  14
HETATM   14  C2  UNL     1       0.927  37.147  47.925  1.00  0.00     0.061 C 
HETATM   15  N3  UNL     1       1.521  38.258  48.018  1.00  0.00    -0.300 N 
ATOM     16  H3  UNL     1       1.223  38.979  47.362  1.00  0.00     0.186 HD
BRANCH  15  17
HETATM   17  N2  UNL     1       2.505  38.610  48.878  1.00  0.00    -0.278 N 
ATOM     18  H2  UNL     1       3.427  38.178  48.824  1.00  0.00     0.189 HD
BRANCH  17  19
HETATM   19  C1  UNL     1       2.214  39.610  49.872  1.00  0.00     0.199 C 
HETATM   20  N1  UNL     1       1.760  40.889  49.459  1.00  0.00    -0.068 NA
HETATM   21  S1  UNL     1       2.421  39.222  51.432  1.00  0.00    -0.043 SA
ENDBRANCH  17  19
ENDBRANCH  15  17
BRANCH  14  22
HETATM   22  C12 UNL     1       1.171  36.006  48.774  1.00  0.00     0.099 A 
HETATM   23  C13 UNL     1       1.022  35.863  50.137  1.00  0.00     0.041 A 
HETATM   24  C14 UNL     1       1.401  34.563  50.437  1.00  0.00     0.027 A 
HETATM   25  C15 UNL     1       1.764  33.964  49.255  1.00  0.00     0.142 A 
HETATM   26  O2  UNL     1       1.612  34.845  48.315  1.00  0.00    -0.321 OA
ENDBRANCH  14  22
ENDBRANCH  13  14
ENDBRANCH   1  13
BRANCH   9  27
HETATM   27  O1  UNL     1       0.024  32.235  43.422  1.00  0.00    -0.288 OA
ATOM     28  H1  UNL     1      -0.074  32.264  42.478  1.00  0.00     0.244 HD
ENDBRANCH   9  27
TORSDOF 6
ENDMDL
MODEL 3
REMARK VINA RESULT: -8.235302211      2.869      6.442
REMARK  6 active torsions:
REMARK  status: ('A' for Active; 'I' for Inactive)
REMARK    1  A    between atoms: C1_2  and  N2_4 
REMARK    2  A    between atoms: N2_4  and  N3_6 
REMARK    3  A    between atoms: C2_8  and  C3_9 
REMARK    4  A    between atoms: C2_8  and  C12_24 
REMARK    5  A    between atoms: C3_9  and  C4_10 
REMARK    6  A    between atoms: N4_18  and  O1_20 
ROOT
HETATM    1  C4  UNL     1      -0.148  35.895  46.529  1.00  0.00     0.088 C 
HETATM    2  C5  UNL     1      -0.461  34.583  45.917  1.00  0.00     0.025 C 
HETATM    3  C6  UNL     1       0.211  34.218  44.652  1.00  0.00     0.002 C 
HETATM    4  C7  UNL     1      -0.777  33.914  43.558  1.00  0.00     0.000 C 
HETATM    5  C8  UNL     1      -1.793  34.984  43.332  1.00  0.00     0.000 C 
HETATM    6  C9  UNL     1      -1.275  36.133  42.518  1.00  0.00     0.007 C 
HETATM    7  C10 UNL     1      -0.609  37.194  43.330  1.00  0.00     0.078 C 
HETATM    8  C11 UNL     1      -1.181  37.381  44.687  1.00  0.00     0.097 C 
HETATM    9  N4  UNL     1      -2.386  37.917  44.672  1.00  0.00    -0.257 N 
ATOM     10  H4  UNL     1      -2.842  38.074  45.570  1.00  0.00     0.195 HD
HETATM   11  N5  UNL     1      -0.627  37.081  45.927  1.00  0.00    -0.373 N 
ATOM     12  H5  UNL     1      -0.548  37.896  46.535  1.00  0.00     0.161 HD
ENDROOT
BRANCH   1  13
HETATM   13  C3  UNL     1       1.334  36.024  46.749  1.00  0.00     0.086 C 
BRANCH  13  14
HETATM   14  C2  UNL     1       1.621  36.699  48.084  1.00  0.00     0.061 C 
HETATM   15  N3  UNL     1       1.850  37.941  48.087  1.00  0.00    -0.300 N 
ATOM     16  H3  UNL     1       1.824  38.402  47.178  1.00  0.00     0.186 HD
BRANCH  15  17
HETATM   17  N2  UNL     1       2.127  38.737  49.146  1.00  0.00    -0.278 N 
ATOM     18  H2  UNL     1       2.965  38.588  49.708  1.00  0.00     0.189 HD
BRANCH  17  19
HETATM   19  C1  UNL     1       1.208  39.800  49.457  1.00  0.00     0.199 C 
HETATM   20  N1  UNL     1       1.410  41.083  48.887  1.00  0.00    -0.068 NA
HETATM   21  S1  UNL     1      -0.027  39.476  50.455  1.00  0.00    -0.043 SA
ENDBRANCH  17  19
ENDBRANCH  15  17
BRANCH  14  22
HETATM   22  C12 UNL     1       1.577  35.864  49.260  1.00  0.00     0.099 A 
HETATM   23  C13 UNL     1       1.468  34.496  49.376  1.00  0.00     0.041 A 
HETATM   24  C14 UNL     1       1.468  34.218  50.735  1.00  0.00     0.027 A 
HETATM   25  C15 UNL     1       1.575  35.418  51.394  1.00  0.00     0.142 A 
HETATM   26  O2  UNL     1       1.637  36.348  50.491  1.00  0.00    -0.321 OA
ENDBRANCH  14  22
ENDBRANCH  13  14
ENDBRANCH   1  13
BRANCH   9  27
HETATM   27  O1  UNL     1      -3.062  38.273  43.562  1.00  0.00    -0.288 OA
ATOM     28  H1  UNL     1      -3.878  38.759  43.551  1.00  0.00     0.244 HD
ENDBRANCH   9  27
TORSDOF 6
ENDMDL
MODEL 4
REMARK VINA RESULT: -8.188655053      2.894      6.689
REMARK  6 active torsions:
REMARK  status: ('A' for Active; 'I' for Inactive)
REMARK    1  A    between atoms: C1_2  and  N2_4 
REMARK    2  A    between atoms: N2_4  and  N3_6 
REMARK    3  A    between atoms: C2_8  and  C3_9 
REMARK    4  A    between atoms: C2_8  and  C12_24 
REMARK    5  A    between atoms: C3_9  and  C4_10 
REMARK    6  A    between atoms: N4_18  and  O1_20 
ROOT
HETATM    1  C4  UNL     1      -0.881  36.970  45.571  1.00  0.00     0.088 C 
HETATM    2  C5  UNL     1      -1.957  35.970  45.378  1.00  0.00     0.025 C 
HETATM    3  C6  UNL     1      -1.634  34.719  44.662  1.00  0.00     0.002 C 
HETATM    4  C7  UNL     1      -2.512  34.519  43.456  1.00  0.00     0.000 C 
HETATM    5  C8  UNL     1      -2.540  35.678  42.516  1.00  0.00     0.000 C 
HETATM    6  C9  UNL     1      -1.344  35.739  41.611  1.00  0.00     0.007 C 
HETATM    7  C10 UNL     1      -0.184  36.476  42.194  1.00  0.00     0.078 C 
HETATM    8  C11 UNL     1      -0.557  37.601  43.089  1.00  0.00     0.097 C 
HETATM    9  N4  UNL     1      -1.093  38.619  42.444  1.00  0.00    -0.257 N 
ATOM     10  H4  UNL     1      -1.375  39.429  42.996  1.00  0.00     0.195 HD
HETATM   11  N5  UNL     1      -0.412  37.717  44.467  1.00  0.00    -0.373 N 
ATOM     12  H5  UNL     1       0.158  38.517  44.741  1.00  0.00     0.161 HD
ENDROOT
BRANCH   1  13
HETATM   13  C3  UNL     1       0.294  36.339  46.267  1.00  0.00     0.086 C 
BRANCH  13  14
HETATM   14  C2  UNL     1       0.418  36.863  47.692  1.00  0.00     0.061 C 
HETATM   15  N3  UNL     1       0.142  38.077  47.907  1.00  0.00    -0.300 N 
ATOM     16  H3  UNL     1      -0.149  38.619  47.093  1.00  0.00     0.186 HD
BRANCH  15  17
HETATM   17  N2  UNL     1       0.183  38.748  49.081  1.00  0.00    -0.278 N 
ATOM     18  H2  UNL     1      -0.537  38.608  49.789  1.00  0.00     0.189 HD
BRANCH  17  19
HETATM   19  C1  UNL     1       1.271  39.663  49.304  1.00  0.00     0.199 C 
HETATM   20  N1  UNL     1       2.580  39.154  49.500  1.00  0.00    -0.068 NA
HETATM   21  S1  UNL     1       0.945  41.251  49.320  1.00  0.00    -0.043 SA
ENDBRANCH  17  19
ENDBRANCH  15  17
BRANCH  14  22
HETATM   22  C12 UNL     1       0.815  35.915  48.704  1.00  0.00     0.099 A 
HETATM   23  C13 UNL     1       1.165  34.587  48.591  1.00  0.00     0.041 A 
HETATM   24  C14 UNL     1       1.454  34.148  49.875  1.00  0.00     0.027 A 
HETATM   25  C15 UNL     1       1.271  35.216  50.718  1.00  0.00     0.142 A 
HETATM   26  O2  UNL     1       0.899  36.223  49.989  1.00  0.00    -0.321 OA
ENDBRANCH  14  22
ENDBRANCH  13  14
ENDBRANCH   1  13
BRANCH   9  27
HETATM   27  O1  UNL     1      -1.297  38.673  41.114  1.00  0.00    -0.288 OA
ATOM     28  H1  UNL     1      -0.613  38.722  40.457  1.00  0.00     0.244 HD
ENDBRANCH   9  27
TORSDOF 6
ENDMDL
MODEL 5
REMARK VINA RESULT: -8.030532079      2.025      2.901
REMARK  6 active torsions:
REMARK  status: ('A' for Active; 'I' for Inactive)
REMARK    1  A    between atoms: C1_2  and  N2_4 
REMARK    2  A    between atoms: N2_4  and  N3_6 
REMARK    3  A    between atoms: C2_8  and  C3_9 
REMARK    4  A    between atoms: C2_8  and  C12_24 
REMARK    5  A    between atoms: C3_9  and  C4_10 
REMARK    6  A    between atoms: N4_18  and  O1_20 
ROOT
HETATM    1  C4  UNL     1       0.991  37.008  47.468  1.00  0.00     0.088 C 
HETATM    2  C5  UNL     1       1.587  36.149  48.517  1.00  0.00     0.025 C 
HETATM    3  C6  UNL     1       0.792  35.866  49.730  1.00  0.00     0.002 C 
HETATM    4  C7  UNL     1       1.508  36.291  50.984  1.00  0.00     0.000 C 
HETATM    5  C8  UNL     1       1.976  37.708  50.974  1.00  0.00     0.000 C 
HETATM    6  C9  UNL     1       0.890  38.696  51.282  1.00  0.00     0.007 C 
HETATM    7  C10 UNL     1       0.118  39.137  50.083  1.00  0.00     0.078 C 
HETATM    8  C11 UNL     1       0.912  39.200  48.830  1.00  0.00     0.097 C 
HETATM    9  N4  UNL     1       1.796  40.178  48.826  1.00  0.00    -0.257 N 
ATOM     10  H4  UNL     1       2.379  40.282  47.995  1.00  0.00     0.195 HD
HETATM   11  N5  UNL     1       0.839  38.394  47.699  1.00  0.00    -0.373 N 
ATOM     12  H5  UNL     1       0.631  38.919  46.849  1.00  0.00     0.161 HD
ENDROOT
BRANCH   1  13
HETATM   13  C3  UNL     1      -0.329  36.441  47.022  1.00  0.00     0.086 C 
BRANCH  13  14
HETATM   14  C2  UNL     1      -0.234  35.919  45.595  1.00  0.00     0.061 C 
HETATM   15  N3  UNL     1       0.200  34.746  45.416  1.00  0.00    -0.300 N 
ATOM     16  H3  UNL     1       0.456  34.232  46.259  1.00  0.00     0.186 HD
BRANCH  15  17
HETATM   17  N2  UNL     1       0.369  34.086  44.247  1.00  0.00    -0.278 N 
ATOM     18  H2  UNL     1       1.211  34.220  43.687  1.00  0.00     0.189 HD
BRANCH  17  19
HETATM   19  C1  UNL     1      -0.671  33.191  43.814  1.00  0.00     0.199 C 
HETATM   20  N1  UNL     1      -1.824  33.719  43.177  1.00  0.00    -0.068 NA
HETATM   21  S1  UNL     1      -0.475  31.604  44.077  1.00  0.00    -0.043 SA
ENDBRANCH  17  19
ENDBRANCH  15  17
BRANCH  14  22
HETATM   22  C12 UNL     1      -0.681  36.803  44.545  1.00  0.00     0.099 A 
HETATM   23  C13 UNL     1      -1.903  37.410  44.355  1.00  0.00     0.041 A 
HETATM   24  C14 UNL     1      -1.793  38.150  43.186  1.00  0.00     0.027 A 
HETATM   25  C15 UNL     1      -0.518  37.967  42.710  1.00  0.00     0.142 A 
HETATM   26  O2  UNL     1       0.092  37.175  43.537  1.00  0.00    -0.321 OA
ENDBRANCH  14  22
ENDBRANCH  13  14
ENDBRANCH   1  13
BRANCH   9  27
HETATM   27  O1  UNL     1       1.990  41.051  49.833  1.00  0.00    -0.288 OA
ATOM     28  H1  UNL     1       2.766  41.092  50.380  1.00  0.00     0.244 HD
ENDBRANCH   9  27
TORSDOF 6
ENDMDL
