MODEL 1
REMARK VINA RESULT: -8.538261950      0.000      0.000
REMARK  5 active torsions:
REMARK  status: ('A' for Active; 'I' for Inactive)
REMARK    1  A    between atoms: C4_7  and  C5_8 
REMARK    2  A    between atoms: C5_8  and  N2_9 
REMARK    3  A    between atoms: C8_12  and  N3_13 
REMARK    4  A    between atoms: C19_27  and  C20_28 
REMARK    5  A    between atoms: C20_28  and  C21_29 
ROOT
HETATM    1  N2  UNL     1      31.052  12.705  -8.395  1.00  0.00    -0.382 N 
HETATM    2  C6  UNL     1      32.211  12.348  -7.643  1.00  0.00     0.128 C 
HETATM    3  C7  UNL     1      33.526  12.391  -8.464  1.00  0.00     0.073 C 
HETATM    4  C8  UNL     1      33.498  13.717  -9.099  1.00  0.00     0.006 C 
HETATM    5  C18 UNL     1      32.355  13.810 -10.093  1.00  0.00     0.105 C 
HETATM    6  C19 UNL     1      31.073  13.810  -9.210  1.00  0.00    -0.010 C 
ENDROOT
BRANCH   4   7
HETATM    7  N3  UNL     1      34.649  14.496  -9.347  1.00  0.00    -0.266 N 
HETATM    8  C9  UNL     1      35.710  14.812  -8.561  1.00  0.00     0.112 A 
HETATM    9  C10 UNL     1      36.579  15.630  -9.305  1.00  0.00     0.050 A 
HETATM   10  C17 UNL     1      36.036  14.436  -7.202  1.00  0.00     0.178 C 
HETATM   11  N4  UNL     1      36.070  15.802 -10.504  1.00  0.00    -0.305 N 
HETATM   12  C13 UNL     1      37.808  16.124  -8.657  1.00  0.00     0.035 C 
HETATM   13  C11 UNL     1      36.624  16.566 -11.600  1.00  0.00     0.161 C 
HETATM   14  C12 UNL     1      34.936  15.144 -10.550  1.00  0.00     0.333 A 
HETATM   15  O2  UNL     1      34.154  15.072 -11.537  1.00  0.00    -0.246 OA
HETATM   16  C14 UNL     1      39.035  15.324  -8.940  1.00  0.00     0.016 C 
HETATM   17  C15 UNL     1      37.630  16.299  -7.185  1.00  0.00     0.018 C 
HETATM   18  C16 UNL     1      37.181  15.047  -6.492  1.00  0.00     0.086 C 
HETATM   19  O3  UNL     1      35.359  13.580  -6.586  1.00  0.00    -0.291 OA
ENDBRANCH   4   7
BRANCH   6  20
HETATM   20  C20 UNL     1      29.949  14.327  -9.968  1.00  0.00     0.057 C 
BRANCH  20  21
HETATM   21  C21 UNL     1      30.294  14.932 -11.302  1.00  0.00    -0.009 A 
HETATM   22  C22 UNL     1      29.176  15.017 -12.331  1.00  0.00     0.005 A 
HETATM   23  C23 UNL     1      29.814  16.245 -11.780  1.00  0.00     0.005 A 
ENDBRANCH  20  21
ENDBRANCH   6  20
BRANCH   1  24
HETATM   24  C5  UNL     1      30.157  11.622  -8.601  1.00  0.00     0.167 C 
BRANCH  24  25
HETATM   25  C4  UNL     1      29.914  11.407 -10.056  1.00  0.00     0.035 A 
HETATM   26  C3  UNL     1      30.926  10.827 -10.793  1.00  0.00     0.254 A 
HETATM   27  N1  UNL     1      30.732  10.619 -12.102  1.00  0.00    -0.325 N 
HETATM   28  O1  UNL     1      32.034  10.472 -10.331  1.00  0.00    -0.268 OA
HETATM   29  C2  UNL     1      29.567  10.976 -12.676  1.00  0.00     0.030 A 
ATOM     30  H1  UNL     1      31.467  10.190 -12.664  1.00  0.00     0.169 HD
HETATM   31  C1  UNL     1      29.402  10.758 -14.140  1.00  0.00     0.070 C 
HETATM   32  C26 UNL     1      28.538  11.553 -11.970  1.00  0.00     0.062 A 
HETATM   33  C24 UNL     1      28.716  11.774 -10.619  1.00  0.00    -0.025 A 
HETATM   34 CL1  UNL     1      27.013  12.035 -12.694  1.00  0.00    -0.082 Cl
HETATM   35  C25 UNL     1      27.600  12.363  -9.833  1.00  0.00     0.050 C 
ENDBRANCH  24  25
ENDBRANCH   1  24
TORSDOF 5
ENDMDL
MODEL 2
REMARK VINA RESULT: -8.257507031      1.775      3.214
REMARK  5 active torsions:
REMARK  status: ('A' for Active; 'I' for Inactive)
REMARK    1  A    between atoms: C4_7  and  C5_8 
REMARK    2  A    between atoms: C5_8  and  N2_9 
REMARK    3  A    between atoms: C8_12  and  N3_13 
REMARK    4  A    between atoms: C19_27  and  C20_28 
REMARK    5  A    between atoms: C20_28  and  C21_29 
ROOT
HETATM    1  N2  UNL     1      32.212  13.061  -8.576  1.00  0.00    -0.382 N 
HETATM    2  C6  UNL     1      33.041  13.269  -7.432  1.00  0.00     0.128 C 
HETATM    3  C7  UNL     1      34.559  13.209  -7.743  1.00  0.00     0.073 C 
HETATM    4  C8  UNL     1      34.718  14.122  -8.884  1.00  0.00     0.006 C 
HETATM    5  C18 UNL     1      33.998  13.581 -10.106  1.00  0.00     0.105 C 
HETATM    6  C19 UNL     1      32.487  13.711  -9.753  1.00  0.00    -0.010 C 
ENDROOT
BRANCH   4   7
HETATM    7  N3  UNL     1      35.861  14.925  -9.097  1.00  0.00    -0.266 N 
HETATM    8  C9  UNL     1      36.181  15.789 -10.094  1.00  0.00     0.112 A 
HETATM    9  C10 UNL     1      37.452  16.324  -9.819  1.00  0.00     0.050 A 
HETATM   10  C17 UNL     1      35.447  16.201 -11.271  1.00  0.00     0.178 C 
HETATM   11  N4  UNL     1      37.889  15.809  -8.692  1.00  0.00    -0.305 N 
HETATM   12  C13 UNL     1      38.033  17.283 -10.776  1.00  0.00     0.035 C 
HETATM   13  C11 UNL     1      39.145  16.076  -8.025  1.00  0.00     0.161 C 
HETATM   14  C12 UNL     1      36.969  14.985  -8.251  1.00  0.00     0.333 A 
HETATM   15  O2  UNL     1      37.025  14.299  -7.194  1.00  0.00    -0.246 OA
HETATM   16  C14 UNL     1      37.843  18.720 -10.422  1.00  0.00     0.016 C 
HETATM   17  C15 UNL     1      37.573  17.027 -12.172  1.00  0.00     0.018 C 
HETATM   18  C16 UNL     1      36.080  17.040 -12.314  1.00  0.00     0.086 C 
HETATM   19  O3  UNL     1      34.253  15.862 -11.444  1.00  0.00    -0.291 OA
ENDBRANCH   4   7
BRANCH   6  20
HETATM   20  C20 UNL     1      31.689  13.650 -10.963  1.00  0.00     0.057 C 
BRANCH  20  21
HETATM   21  C21 UNL     1      31.001  14.932 -11.347  1.00  0.00    -0.009 A 
HETATM   22  C22 UNL     1      29.686  14.810 -12.103  1.00  0.00     0.005 A 
HETATM   23  C23 UNL     1      29.743  15.425 -10.748  1.00  0.00     0.005 A 
ENDBRANCH  20  21
ENDBRANCH   6  20
BRANCH   1  24
HETATM   24  C5  UNL     1      31.480  11.846  -8.528  1.00  0.00     0.167 C 
BRANCH  24  25
HETATM   25  C4  UNL     1      30.097  12.041  -9.050  1.00  0.00     0.035 A 
HETATM   26  C3  UNL     1      29.304  12.978  -8.421  1.00  0.00     0.254 A 
HETATM   27  N1  UNL     1      28.058  13.176  -8.872  1.00  0.00    -0.325 N 
HETATM   28  O1  UNL     1      29.659  13.675  -7.443  1.00  0.00    -0.268 OA
HETATM   29  C2  UNL     1      27.600  12.464  -9.919  1.00  0.00     0.030 A 
ATOM     30  H1  UNL     1      27.457  13.865  -8.422  1.00  0.00     0.169 HD
HETATM   31  C1  UNL     1      26.198  12.689 -10.370  1.00  0.00     0.070 C 
HETATM   32  C26 UNL     1      28.364  11.524 -10.570  1.00  0.00     0.062 A 
HETATM   33  C24 UNL     1      29.653  11.307 -10.123  1.00  0.00    -0.025 A 
HETATM   34 CL1  UNL     1      27.790  10.577 -11.932  1.00  0.00    -0.082 Cl
HETATM   35  C25 UNL     1      30.506  10.321 -10.838  1.00  0.00     0.050 C 
ENDBRANCH  24  25
ENDBRANCH   1  24
TORSDOF 5
ENDMDL
MODEL 3
REMARK VINA RESULT: -8.235753181      1.992      2.536
REMARK  5 active torsions:
REMARK  status: ('A' for Active; 'I' for Inactive)
REMARK    1  A    between atoms: C4_7  and  C5_8 
REMARK    2  A    between atoms: C5_8  and  N2_9 
REMARK    3  A    between atoms: C8_12  and  N3_13 
REMARK    4  A    between atoms: C19_27  and  C20_28 
REMARK    5  A    between atoms: C20_28  and  C21_29 
ROOT
HETATM    1  N2  UNL     1      32.291  12.858  -8.408  1.00  0.00    -0.382 N 
HETATM    2  C6  UNL     1      33.089  12.995  -7.231  1.00  0.00     0.128 C 
HETATM    3  C7  UNL     1      34.607  12.799  -7.481  1.00  0.00     0.073 C 
HETATM    4  C8  UNL     1      34.892  13.691  -8.614  1.00  0.00     0.006 C 
HETATM    5  C18 UNL     1      34.177  13.212  -9.865  1.00  0.00     0.105 C 
HETATM    6  C19 UNL     1      32.670  13.477  -9.572  1.00  0.00    -0.010 C 
ENDROOT
BRANCH   4   7
HETATM    7  N3  UNL     1      36.109  14.389  -8.781  1.00  0.00    -0.266 N 
HETATM    8  C9  UNL     1      36.639  15.446  -8.115  1.00  0.00     0.112 A 
HETATM    9  C10 UNL     1      37.883  15.752  -8.696  1.00  0.00     0.050 A 
HETATM   10  C17 UNL     1      36.147  16.206  -6.986  1.00  0.00     0.178 C 
HETATM   11  N4  UNL     1      38.105  14.908  -9.679  1.00  0.00    -0.305 N 
HETATM   12  C13 UNL     1      38.653  16.886  -8.154  1.00  0.00     0.035 C 
HETATM   13  C11 UNL     1      39.259  14.847 -10.549  1.00  0.00     0.161 C 
HETATM   14  C12 UNL     1      37.075  14.098  -9.745  1.00  0.00     0.333 A 
HETATM   15  O2  UNL     1      36.921  13.151 -10.564  1.00  0.00    -0.246 OA
HETATM   16  C14 UNL     1      39.708  16.517  -7.166  1.00  0.00     0.016 C 
HETATM   17  C15 UNL     1      37.765  17.947  -7.594  1.00  0.00     0.018 C 
HETATM   18  C16 UNL     1      36.834  17.438  -6.534  1.00  0.00     0.086 C 
HETATM   19  O3  UNL     1      35.126  15.845  -6.356  1.00  0.00    -0.291 OA
ENDBRANCH   4   7
BRANCH   6  20
HETATM   20  C20 UNL     1      31.919  13.484 -10.814  1.00  0.00     0.057 C 
BRANCH  20  21
HETATM   21  C21 UNL     1      31.315  14.807 -11.195  1.00  0.00    -0.009 A 
HETATM   22  C22 UNL     1      29.987  14.771 -11.938  1.00  0.00     0.005 A 
HETATM   23  C23 UNL     1      30.099  15.385 -10.585  1.00  0.00     0.005 A 
ENDBRANCH  20  21
ENDBRANCH   6  20
BRANCH   1  24
HETATM   24  C5  UNL     1      31.453  11.713  -8.390  1.00  0.00     0.167 C 
BRANCH  24  25
HETATM   25  C4  UNL     1      30.100  12.040  -8.925  1.00  0.00     0.035 A 
HETATM   26  C3  UNL     1      29.386  13.034  -8.290  1.00  0.00     0.254 A 
HETATM   27  N1  UNL     1      28.169  13.350  -8.752  1.00  0.00    -0.325 N 
HETATM   28  O1  UNL     1      29.788  13.679  -7.295  1.00  0.00    -0.268 OA
HETATM   29  C2  UNL     1      27.663  12.699  -9.817  1.00  0.00     0.030 A 
ATOM     30  H1  UNL     1      27.626  14.083  -8.297  1.00  0.00     0.169 HD
HETATM   31  C1  UNL     1      26.293  13.057 -10.281  1.00  0.00     0.070 C 
HETATM   32  C26 UNL     1      28.349  11.706 -10.475  1.00  0.00     0.062 A 
HETATM   33  C24 UNL     1      29.607  11.366 -10.016  1.00  0.00    -0.025 A 
HETATM   34 CL1  UNL     1      27.710  10.836 -11.860  1.00  0.00    -0.082 Cl
HETATM   35  C25 UNL     1      30.377  10.320 -10.738  1.00  0.00     0.050 C 
ENDBRANCH  24  25
ENDBRANCH   1  24
TORSDOF 5
ENDMDL
MODEL 4
REMARK VINA RESULT: -8.210052373      2.991      7.999
REMARK  5 active torsions:
REMARK  status: ('A' for Active; 'I' for Inactive)
REMARK    1  A    between atoms: C4_7  and  C5_8 
REMARK    2  A    between atoms: C5_8  and  N2_9 
REMARK    3  A    between atoms: C8_12  and  N3_13 
REMARK    4  A    between atoms: C19_27  and  C20_28 
REMARK    5  A    between atoms: C20_28  and  C21_29 
ROOT
HETATM    1  N2  UNL     1      34.753  13.808  -8.693  1.00  0.00    -0.382 N 
HETATM    2  C6  UNL     1      34.092  12.882  -7.831  1.00  0.00     0.128 C 
HETATM    3  C7  UNL     1      32.546  12.980  -7.877  1.00  0.00     0.073 C 
HETATM    4  C8  UNL     1      32.235  12.927  -9.313  1.00  0.00     0.006 C 
HETATM    5  C18 UNL     1      32.775  14.155 -10.023  1.00  0.00     0.105 C 
HETATM    6  C19 UNL     1      34.321  13.974  -9.985  1.00  0.00    -0.010 C 
ENDROOT
BRANCH   4   7
HETATM    7  N3  UNL     1      31.079  12.315  -9.847  1.00  0.00    -0.266 N 
HETATM    8  C9  UNL     1      29.785  12.723  -9.896  1.00  0.00     0.112 A 
HETATM    9  C10 UNL     1      29.035  11.722 -10.538  1.00  0.00     0.050 A 
HETATM   10  C17 UNL     1      29.151  13.941  -9.438  1.00  0.00     0.178 C 
HETATM   11  N4  UNL     1      29.842  10.741 -10.872  1.00  0.00    -0.305 N 
HETATM   12  C13 UNL     1      27.583  11.925 -10.698  1.00  0.00     0.035 C 
HETATM   13  C11 UNL     1      29.505   9.510 -11.553  1.00  0.00     0.161 C 
HETATM   14  C12 UNL     1      31.049  11.070 -10.475  1.00  0.00     0.333 A 
HETATM   15  O2  UNL     1      32.095  10.380 -10.617  1.00  0.00    -0.246 OA
HETATM   16  C14 UNL     1      27.165  12.465 -12.024  1.00  0.00     0.016 C 
HETATM   17  C15 UNL     1      27.011  12.754  -9.596  1.00  0.00     0.018 C 
HETATM   18  C16 UNL     1      27.678  14.089  -9.453  1.00  0.00     0.086 C 
HETATM   19  O3  UNL     1      29.829  14.907  -9.017  1.00  0.00    -0.291 OA
ENDBRANCH   4   7
BRANCH   6  20
HETATM   20  C20 UNL     1      34.943  14.821 -10.986  1.00  0.00     0.057 C 
BRANCH  20  21
HETATM   21  C21 UNL     1      34.157  16.043 -11.377  1.00  0.00    -0.009 A 
HETATM   22  C22 UNL     1      34.932  17.344 -11.529  1.00  0.00     0.005 A 
HETATM   23  C23 UNL     1      34.243  16.715 -12.690  1.00  0.00     0.005 A 
ENDBRANCH  20  21
ENDBRANCH   6  20
BRANCH   1  24
HETATM   24  C5  UNL     1      35.478  14.810  -7.995  1.00  0.00     0.167 C 
BRANCH  24  25
HETATM   25  C4  UNL     1      36.763  15.112  -8.688  1.00  0.00     0.035 A 
HETATM   26  C3  UNL     1      37.451  14.055  -9.246  1.00  0.00     0.254 A 
HETATM   27  N1  UNL     1      38.607  14.299  -9.877  1.00  0.00    -0.325 N 
HETATM   28  O1  UNL     1      37.078  12.860  -9.212  1.00  0.00    -0.268 OA
HETATM   29  C2  UNL     1      39.078  15.558  -9.956  1.00  0.00     0.030 A 
ATOM     30  H1  UNL     1      39.130  13.532 -10.299  1.00  0.00     0.169 HD
HETATM   31  C1  UNL     1      40.384  15.784 -10.638  1.00  0.00     0.070 C 
HETATM   32  C26 UNL     1      38.417  16.634  -9.413  1.00  0.00     0.062 A 
HETATM   33  C24 UNL     1      37.222  16.405  -8.760  1.00  0.00    -0.025 A 
HETATM   34 CL1  UNL     1      39.013  18.283  -9.494  1.00  0.00    -0.082 Cl
HETATM   35  C25 UNL     1      36.475  17.561  -8.199  1.00  0.00     0.050 C 
ENDBRANCH  24  25
ENDBRANCH   1  24
TORSDOF 5
ENDMDL
MODEL 5
REMARK VINA RESULT: -8.201806858      5.013      7.872
REMARK  5 active torsions:
REMARK  status: ('A' for Active; 'I' for Inactive)
REMARK    1  A    between atoms: C4_7  and  C5_8 
REMARK    2  A    between atoms: C5_8  and  N2_9 
REMARK    3  A    between atoms: C8_12  and  N3_13 
REMARK    4  A    between atoms: C19_27  and  C20_28 
REMARK    5  A    between atoms: C20_28  and  C21_29 
ROOT
HETATM    1  N2  UNL     1      36.925  15.946  -9.374  1.00  0.00    -0.382 N 
HETATM    2  C6  UNL     1      37.781  17.074  -9.193  1.00  0.00     0.128 C 
HETATM    3  C7  UNL     1      37.420  17.940  -7.959  1.00  0.00     0.073 C 
HETATM    4  C8  UNL     1      37.324  16.965  -6.863  1.00  0.00     0.006 C 
HETATM    5  C18 UNL     1      36.161  16.017  -7.091  1.00  0.00     0.105 C 
HETATM    6  C19 UNL     1      36.602  15.148  -8.305  1.00  0.00    -0.010 C 
ENDROOT
BRANCH   4   7
HETATM    7  N3  UNL     1      37.695  17.241  -5.529  1.00  0.00    -0.266 N 
HETATM    8  C9  UNL     1      38.755  16.832  -4.786  1.00  0.00     0.112 A 
HETATM    9  C10 UNL     1      38.637  17.400  -3.504  1.00  0.00     0.050 A 
HETATM   10  C17 UNL     1      39.886  15.992  -5.118  1.00  0.00     0.178 C 
HETATM   11  N4  UNL     1      37.547  18.131  -3.468  1.00  0.00    -0.305 N 
HETATM   12  C13 UNL     1      39.669  17.087  -2.499  1.00  0.00     0.035 C 
HETATM   13  C11 UNL     1      37.032  18.900  -2.356  1.00  0.00     0.161 C 
HETATM   14  C12 UNL     1      36.978  18.052  -4.648  1.00  0.00     0.333 A 
HETATM   15  O2  UNL     1      35.908  18.619  -5.001  1.00  0.00    -0.246 OA
HETATM   16  C14 UNL     1      40.748  18.108  -2.365  1.00  0.00     0.016 C 
HETATM   17  C15 UNL     1      40.260  15.732  -2.708  1.00  0.00     0.018 C 
HETATM   18  C16 UNL     1      40.841  15.547  -4.078  1.00  0.00     0.086 C 
HETATM   19  O3  UNL     1      40.091  15.616  -6.296  1.00  0.00    -0.291 OA
ENDBRANCH   4   7
BRANCH   6  20
HETATM   20  C20 UNL     1      35.808  13.935  -8.360  1.00  0.00     0.057 C 
BRANCH  20  21
HETATM   21  C21 UNL     1      34.648  13.878  -7.404  1.00  0.00    -0.009 A 
HETATM   22  C22 UNL     1      33.610  12.791  -7.640  1.00  0.00     0.005 A 
HETATM   23  C23 UNL     1      34.435  12.815  -6.400  1.00  0.00     0.005 A 
ENDBRANCH  20  21
ENDBRANCH   6  20
BRANCH   1  24
HETATM   24  C5  UNL     1      36.109  16.038 -10.532  1.00  0.00     0.167 C 
BRANCH  24  25
HETATM   25  C4  UNL     1      36.820  16.760 -11.625  1.00  0.00     0.035 A 
HETATM   26  C3  UNL     1      37.868  16.110 -12.242  1.00  0.00     0.254 A 
HETATM   27  N1  UNL     1      38.523  16.735 -13.230  1.00  0.00    -0.325 N 
HETATM   28  O1  UNL     1      38.269  14.960 -11.949  1.00  0.00    -0.268 OA
HETATM   29  C2  UNL     1      38.155  17.975 -13.602  1.00  0.00     0.030 A 
ATOM     30  H1  UNL     1      39.300  16.271 -13.700  1.00  0.00     0.169 HD
HETATM   31  C1  UNL     1      38.928  18.650 -14.682  1.00  0.00     0.070 C 
HETATM   32  C26 UNL     1      37.113  18.651 -13.010  1.00  0.00     0.062 A 
HETATM   33  C24 UNL     1      36.424  18.023 -11.991  1.00  0.00    -0.025 A 
HETATM   34 CL1  UNL     1      36.618  20.271 -13.470  1.00  0.00    -0.082 Cl
HETATM   35  C25 UNL     1      35.272  18.723 -11.365  1.00  0.00     0.050 C 
ENDBRANCH  24  25
ENDBRANCH   1  24
TORSDOF 5
ENDMDL
