MODEL 1
REMARK VINA RESULT: -8.419089885      0.000      0.000
REMARK  5 active torsions:
REMARK  status: ('A' for Active; 'I' for Inactive)
REMARK    1  A    between atoms: O1_2  and  C2_3 
REMARK    2  A    between atoms: C7_8  and  C8_9 
REMARK    3  A    between atoms: C8_9  and  C12_15 
REMARK    4  A    between atoms: C15_18  and  S1_19 
REMARK    5  A    between atoms: S1_19  and  N3_22 
ROOT
HETATM    1  C8  UNL     1      33.121  12.854  -9.022  1.00  0.00     0.018 C 
HETATM    2  C9  UNL     1      32.888  12.699  -7.689  1.00  0.00     0.136 C 
HETATM    3  C10 UNL     1      31.575  12.396  -7.193  1.00  0.00     0.111 C 
HETATM    4  N1  UNL     1      30.509  12.139  -6.806  1.00  0.00    -0.191 NA
HETATM    5  C11 UNL     1      33.954  12.813  -6.759  1.00  0.00     0.111 C 
HETATM    6  N2  UNL     1      34.823  12.914  -5.975  1.00  0.00    -0.191 NA
ENDROOT
BRANCH   1   7
HETATM    7  C7  UNL     1      31.970  12.694  -9.904  1.00  0.00     0.011 A 
HETATM    8  C2  UNL     1      31.491  11.509 -10.357  1.00  0.00     0.080 A 
HETATM    9  C3  UNL     1      30.399  11.520 -11.242  1.00  0.00     0.050 A 
HETATM   10  C4  UNL     1      29.818  12.699 -11.647  1.00  0.00    -0.012 A 
HETATM   11  C5  UNL     1      30.287  13.916 -11.203  1.00  0.00    -0.045 A 
HETATM   12  C24 UNL     1      28.615  12.722 -12.498  1.00  0.00     0.039 A 
HETATM   13  C6  UNL     1      31.369  13.894 -10.324  1.00  0.00     0.023 A 
HETATM   14  C20 UNL     1      29.746  15.205 -11.672  1.00  0.00     0.045 C 
HETATM   15  C21 UNL     1      28.382  15.175 -12.225  1.00  0.00     0.064 C 
HETATM   16  C22 UNL     1      27.989  13.900 -12.816  1.00  0.00     0.040 A 
HETATM   17  N4  UNL     1      26.963  13.595 -13.679  1.00  0.00    -0.303 N 
HETATM   18  N5  UNL     1      26.969  12.299 -13.867  1.00  0.00    -0.289 N 
ATOM     19  H4  UNL     1      26.312  14.260 -14.097  1.00  0.00     0.186 HD
HETATM   20  C23 UNL     1      27.968  11.701 -13.162  1.00  0.00     0.131 A 
ATOM     21  H5  UNL     1      26.309  11.801 -14.465  1.00  0.00     0.188 HD
HETATM   22 CL1  UNL     1      28.315   9.993 -13.146  1.00  0.00    -0.062 Cl
BRANCH   8  23
HETATM   23  O1  UNL     1      32.038  10.298  -9.971  1.00  0.00    -0.355 OA
HETATM   24  C1  UNL     1      31.265   9.219  -9.497  1.00  0.00     0.210 C 
ENDBRANCH   8  23
ENDBRANCH   1   7
BRANCH   1  25
HETATM   25  C12 UNL     1      34.448  13.308  -9.352  1.00  0.00    -0.023 A 
HETATM   26  C13 UNL     1      35.572  12.574  -9.518  1.00  0.00     0.014 A 
HETATM   27  C14 UNL     1      36.789  13.159  -9.883  1.00  0.00     0.025 A 
HETATM   28  C15 UNL     1      36.899  14.503 -10.090  1.00  0.00     0.074 A 
HETATM   29  C18 UNL     1      35.759  15.279  -9.925  1.00  0.00     0.025 A 
HETATM   30  C19 UNL     1      34.574  14.694  -9.567  1.00  0.00     0.014 A 
BRANCH  28  31
HETATM   31  S1  UNL     1      38.448  15.169 -10.544  1.00  0.00     0.242 S 
HETATM   32  O2  UNL     1      39.532  14.521  -9.720  1.00  0.00    -0.206 OA
HETATM   33  O3  UNL     1      38.433  16.627 -10.138  1.00  0.00    -0.206 OA
BRANCH  31  34
HETATM   34  N3  UNL     1      38.788  14.991 -12.211  1.00  0.00    -0.215 NA
HETATM   35  C16 UNL     1      40.200  14.847 -12.413  1.00  0.00     0.129 C 
HETATM   36  C17 UNL     1      38.331  16.171 -12.906  1.00  0.00     0.129 C 
ENDBRANCH  31  34
ENDBRANCH  28  31
ENDBRANCH   1  25
TORSDOF 5
ENDMDL
MODEL 2
REMARK VINA RESULT: -6.147939599      6.069     10.928
REMARK  5 active torsions:
REMARK  status: ('A' for Active; 'I' for Inactive)
REMARK    1  A    between atoms: O1_2  and  C2_3 
REMARK    2  A    between atoms: C7_8  and  C8_9 
REMARK    3  A    between atoms: C8_9  and  C12_15 
REMARK    4  A    between atoms: C15_18  and  S1_19 
REMARK    5  A    between atoms: S1_19  and  N3_22 
ROOT
HETATM    1  C8  UNL     1      37.744  15.645  -7.388  1.00  0.00     0.018 C 
HETATM    2  C9  UNL     1      38.723  15.812  -8.319  1.00  0.00     0.136 C 
HETATM    3  C10 UNL     1      39.909  16.567  -8.025  1.00  0.00     0.111 C 
HETATM    4  N1  UNL     1      40.870  17.171  -7.768  1.00  0.00    -0.191 NA
HETATM    5  C11 UNL     1      38.599  15.219  -9.602  1.00  0.00     0.111 C 
HETATM    6  N2  UNL     1      38.508  14.743 -10.672  1.00  0.00    -0.191 NA
ENDROOT
BRANCH   1   7
HETATM    7  C7  UNL     1      37.969  16.269  -6.089  1.00  0.00     0.011 A 
HETATM    8  C2  UNL     1      37.431  17.446  -5.684  1.00  0.00     0.080 A 
HETATM    9  C3  UNL     1      37.781  17.944  -4.417  1.00  0.00     0.050 A 
HETATM   10  C4  UNL     1      38.647  17.262  -3.595  1.00  0.00    -0.012 A 
HETATM   11  C5  UNL     1      39.208  16.065  -3.983  1.00  0.00    -0.045 A 
HETATM   12  C24 UNL     1      38.949  17.723  -2.228  1.00  0.00     0.039 A 
HETATM   13  C6  UNL     1      38.854  15.579  -5.241  1.00  0.00     0.023 A 
HETATM   14  C20 UNL     1      40.201  15.341  -3.168  1.00  0.00     0.045 C 
HETATM   15  C21 UNL     1      40.206  15.645  -1.728  1.00  0.00     0.064 C 
HETATM   16  C22 UNL     1      39.738  16.985  -1.384  1.00  0.00     0.040 A 
HETATM   17  N4  UNL     1      39.893  17.715  -0.229  1.00  0.00    -0.303 N 
HETATM   18  N5  UNL     1      39.228  18.834  -0.370  1.00  0.00    -0.289 N 
ATOM     19  H4  UNL     1      40.431  17.435   0.591  1.00  0.00     0.186 HD
HETATM   20  C23 UNL     1      38.621  18.899  -1.586  1.00  0.00     0.131 A 
ATOM     21  H5  UNL     1      39.173  19.564   0.341  1.00  0.00     0.188 HD
HETATM   22 CL1  UNL     1      37.645  20.223  -2.163  1.00  0.00    -0.062 Cl
BRANCH   8  23
HETATM   23  O1  UNL     1      36.550  18.163  -6.474  1.00  0.00    -0.355 OA
HETATM   24  C1  UNL     1      35.918  19.348  -6.044  1.00  0.00     0.210 C 
ENDBRANCH   8  23
ENDBRANCH   1   7
BRANCH   1  25
HETATM   25  C12 UNL     1      36.551  15.001  -7.879  1.00  0.00    -0.023 A 
HETATM   26  C13 UNL     1      35.931  15.173  -9.068  1.00  0.00     0.014 A 
HETATM   27  C14 UNL     1      34.796  14.437  -9.422  1.00  0.00     0.025 A 
HETATM   28  C15 UNL     1      34.259  13.507  -8.581  1.00  0.00     0.074 A 
HETATM   29  C18 UNL     1      34.878  13.312  -7.353  1.00  0.00     0.025 A 
HETATM   30  C19 UNL     1      35.988  14.039  -7.018  1.00  0.00     0.014 A 
BRANCH  28  31
HETATM   31  S1  UNL     1      32.840  12.622  -9.085  1.00  0.00     0.242 S 
HETATM   32  O2  UNL     1      33.264  11.360  -9.792  1.00  0.00    -0.206 OA
HETATM   33  O3  UNL     1      32.145  13.470 -10.128  1.00  0.00    -0.206 OA
BRANCH  31  34
HETATM   34  N3  UNL     1      31.792  12.247  -7.786  1.00  0.00    -0.215 NA
HETATM   35  C16 UNL     1      30.653  11.519  -8.267  1.00  0.00     0.129 C 
HETATM   36  C17 UNL     1      31.343  13.479  -7.183  1.00  0.00     0.129 C 
ENDBRANCH  31  34
ENDBRANCH  28  31
ENDBRANCH   1  25
TORSDOF 5
ENDMDL
MODEL 3
REMARK VINA RESULT: -6.142047844      6.196     11.098
REMARK  5 active torsions:
REMARK  status: ('A' for Active; 'I' for Inactive)
REMARK    1  A    between atoms: O1_2  and  C2_3 
REMARK    2  A    between atoms: C7_8  and  C8_9 
REMARK    3  A    between atoms: C8_9  and  C12_15 
REMARK    4  A    between atoms: C15_18  and  S1_19 
REMARK    5  A    between atoms: S1_19  and  N3_22 
ROOT
HETATM    1  C8  UNL     1      37.601  15.721  -7.249  1.00  0.00     0.018 C 
HETATM    2  C9  UNL     1      38.091  16.564  -8.200  1.00  0.00     0.136 C 
HETATM    3  C10 UNL     1      39.100  17.537  -7.884  1.00  0.00     0.111 C 
HETATM    4  N1  UNL     1      39.927  18.310  -7.616  1.00  0.00    -0.191 NA
HETATM    5  C11 UNL     1      37.625  16.483  -9.537  1.00  0.00     0.111 C 
HETATM    6  N2  UNL     1      37.243  16.435 -10.647  1.00  0.00    -0.191 NA
ENDROOT
BRANCH   1   7
HETATM    7  C7  UNL     1      38.157  15.861  -5.908  1.00  0.00     0.011 A 
HETATM    8  C2  UNL     1      37.773  16.787  -4.995  1.00  0.00     0.080 A 
HETATM    9  C3  UNL     1      38.437  16.827  -3.758  1.00  0.00     0.050 A 
HETATM   10  C4  UNL     1      39.456  15.950  -3.464  1.00  0.00    -0.012 A 
HETATM   11  C5  UNL     1      39.866  15.001  -4.374  1.00  0.00    -0.045 A 
HETATM   12  C24 UNL     1      40.097  15.918  -2.138  1.00  0.00     0.039 A 
HETATM   13  C6  UNL     1      39.200  14.969  -5.598  1.00  0.00     0.023 A 
HETATM   14  C20 UNL     1      41.004  14.095  -4.132  1.00  0.00     0.045 C 
HETATM   15  C21 UNL     1      41.371  13.873  -2.724  1.00  0.00     0.064 C 
HETATM   16  C22 UNL     1      41.044  14.977  -1.826  1.00  0.00     0.040 A 
HETATM   17  N4  UNL     1      41.501  15.262  -0.561  1.00  0.00    -0.303 N 
HETATM   18  N5  UNL     1      40.858  16.320  -0.132  1.00  0.00    -0.289 N 
ATOM     19  H4  UNL     1      42.213  14.743  -0.048  1.00  0.00     0.186 HD
HETATM   20  C23 UNL     1      39.974  16.773  -1.062  1.00  0.00     0.131 A 
ATOM     21  H5  UNL     1      41.002  16.749   0.783  1.00  0.00     0.188 HD
HETATM   22 CL1  UNL     1      38.931  18.157  -0.880  1.00  0.00    -0.062 Cl
BRANCH   8  23
HETATM   23  O1  UNL     1      36.749  17.684  -5.244  1.00  0.00    -0.355 OA
HETATM   24  C1  UNL     1      36.330  18.653  -4.309  1.00  0.00     0.210 C 
ENDBRANCH   8  23
ENDBRANCH   1   7
BRANCH   1  25
HETATM   25  C12 UNL     1      36.487  14.914  -7.679  1.00  0.00    -0.023 A 
HETATM   26  C13 UNL     1      36.439  14.015  -8.688  1.00  0.00     0.014 A 
HETATM   27  C14 UNL     1      35.287  13.269  -8.959  1.00  0.00     0.025 A 
HETATM   28  C15 UNL     1      34.153  13.415  -8.215  1.00  0.00     0.074 A 
HETATM   29  C18 UNL     1      34.178  14.333  -7.172  1.00  0.00     0.025 A 
HETATM   30  C19 UNL     1      35.311  15.056  -6.918  1.00  0.00     0.014 A 
BRANCH  28  31
HETATM   31  S1  UNL     1      32.749  12.454  -8.606  1.00  0.00     0.242 S 
HETATM   32  O2  UNL     1      32.324  11.672  -7.389  1.00  0.00    -0.206 OA
HETATM   33  O3  UNL     1      33.193  11.427  -9.625  1.00  0.00    -0.206 OA
BRANCH  31  34
HETATM   34  N3  UNL     1      31.442  13.389  -9.192  1.00  0.00    -0.215 NA
HETATM   35  C16 UNL     1      30.463  13.568  -8.159  1.00  0.00     0.129 C 
HETATM   36  C17 UNL     1      30.835  12.693 -10.301  1.00  0.00     0.129 C 
ENDBRANCH  31  34
ENDBRANCH  28  31
ENDBRANCH   1  25
TORSDOF 5
ENDMDL
MODEL 4
REMARK VINA RESULT: -6.124217485      6.195     10.546
REMARK  5 active torsions:
REMARK  status: ('A' for Active; 'I' for Inactive)
REMARK    1  A    between atoms: O1_2  and  C2_3 
REMARK    2  A    between atoms: C7_8  and  C8_9 
REMARK    3  A    between atoms: C8_9  and  C12_15 
REMARK    4  A    between atoms: C15_18  and  S1_19 
REMARK    5  A    between atoms: S1_19  and  N3_22 
ROOT
HETATM    1  C8  UNL     1      37.706  15.865  -7.282  1.00  0.00     0.018 C 
HETATM    2  C9  UNL     1      38.760  15.930  -8.142  1.00  0.00     0.136 C 
HETATM    3  C10 UNL     1      39.930  16.704  -7.829  1.00  0.00     0.111 C 
HETATM    4  N1  UNL     1      40.875  17.324  -7.557  1.00  0.00    -0.191 NA
HETATM    5  C11 UNL     1      38.731  15.211  -9.364  1.00  0.00     0.111 C 
HETATM    6  N2  UNL     1      38.720  14.629 -10.385  1.00  0.00    -0.191 NA
ENDROOT
BRANCH   1   7
HETATM    7  C7  UNL     1      37.835  16.617  -6.039  1.00  0.00     0.011 A 
HETATM    8  C2  UNL     1      38.511  16.201  -4.940  1.00  0.00     0.080 A 
HETATM    9  C3  UNL     1      38.506  17.020  -3.798  1.00  0.00     0.050 A 
HETATM   10  C4  UNL     1      37.836  18.221  -3.782  1.00  0.00    -0.012 A 
HETATM   11  C5  UNL     1      37.141  18.667  -4.885  1.00  0.00    -0.045 A 
HETATM   12  C24 UNL     1      37.900  19.133  -2.626  1.00  0.00     0.039 A 
HETATM   13  C6  UNL     1      37.154  17.848  -6.013  1.00  0.00     0.023 A 
HETATM   14  C20 UNL     1      36.345  19.908  -4.885  1.00  0.00     0.045 C 
HETATM   15  C21 UNL     1      36.707  20.913  -3.873  1.00  0.00     0.064 C 
HETATM   16  C22 UNL     1      37.308  20.369  -2.659  1.00  0.00     0.040 A 
HETATM   17  N4  UNL     1      37.475  20.934  -1.416  1.00  0.00    -0.303 N 
HETATM   18  N5  UNL     1      38.137  20.081  -0.674  1.00  0.00    -0.289 N 
ATOM     19  H4  UNL     1      37.141  21.852  -1.124  1.00  0.00     0.186 HD
HETATM   20  C23 UNL     1      38.430  18.947  -1.366  1.00  0.00     0.131 A 
ATOM     21  H5  UNL     1      38.399  20.247   0.298  1.00  0.00     0.188 HD
HETATM   22 CL1  UNL     1      39.296  17.571  -0.737  1.00  0.00    -0.062 Cl
BRANCH   8  23
HETATM   23  O1  UNL     1      39.204  15.004  -4.912  1.00  0.00    -0.355 OA
HETATM   24  C1  UNL     1      40.570  14.912  -4.574  1.00  0.00     0.210 C 
ENDBRANCH   8  23
ENDBRANCH   1   7
BRANCH   1  25
HETATM   25  C12 UNL     1      36.548  15.182  -7.801  1.00  0.00    -0.023 A 
HETATM   26  C13 UNL     1      35.973  15.308  -9.019  1.00  0.00     0.014 A 
HETATM   27  C14 UNL     1      34.868  14.538  -9.397  1.00  0.00     0.025 A 
HETATM   28  C15 UNL     1      34.317  13.621  -8.551  1.00  0.00     0.074 A 
HETATM   29  C18 UNL     1      34.889  13.474  -7.294  1.00  0.00     0.025 A 
HETATM   30  C19 UNL     1      35.970  14.233  -6.937  1.00  0.00     0.014 A 
BRANCH  28  31
HETATM   31  S1  UNL     1      32.938  12.693  -9.086  1.00  0.00     0.242 S 
HETATM   32  O2  UNL     1      33.416  11.433  -9.763  1.00  0.00    -0.206 OA
HETATM   33  O3  UNL     1      32.252  13.508 -10.161  1.00  0.00    -0.206 OA
BRANCH  31  34
HETATM   34  N3  UNL     1      31.860  12.307  -7.815  1.00  0.00    -0.215 NA
HETATM   35  C16 UNL     1      30.794  11.483  -8.306  1.00  0.00     0.129 C 
HETATM   36  C17 UNL     1      31.306  13.531  -7.289  1.00  0.00     0.129 C 
ENDBRANCH  31  34
ENDBRANCH  28  31
ENDBRANCH   1  25
TORSDOF 5
ENDMDL
MODEL 5
REMARK VINA RESULT: -6.004632317      1.702      2.478
REMARK  5 active torsions:
REMARK  status: ('A' for Active; 'I' for Inactive)
REMARK    1  A    between atoms: O1_2  and  C2_3 
REMARK    2  A    between atoms: C7_8  and  C8_9 
REMARK    3  A    between atoms: C8_9  and  C12_15 
REMARK    4  A    between atoms: C15_18  and  S1_19 
REMARK    5  A    between atoms: S1_19  and  N3_22 
ROOT
HETATM    1  C8  UNL     1      33.026  12.635  -8.659  1.00  0.00     0.018 C 
HETATM    2  C9  UNL     1      32.791  12.253  -7.373  1.00  0.00     0.136 C 
HETATM    3  C10 UNL     1      31.484  11.836  -6.948  1.00  0.00     0.111 C 
HETATM    4  N1  UNL     1      30.424  11.488  -6.621  1.00  0.00    -0.191 NA
HETATM    5  C11 UNL     1      33.848  12.241  -6.426  1.00  0.00     0.111 C 
HETATM    6  N2  UNL     1      34.709  12.233  -5.628  1.00  0.00    -0.191 NA
ENDROOT
BRANCH   1   7
HETATM    7  C7  UNL     1      31.886  12.593  -9.568  1.00  0.00     0.011 A 
HETATM    8  C2  UNL     1      30.827  13.439  -9.532  1.00  0.00     0.080 A 
HETATM    9  C3  UNL     1      29.779  13.242 -10.448  1.00  0.00     0.050 A 
HETATM   10  C4  UNL     1      29.815  12.219 -11.367  1.00  0.00    -0.012 A 
HETATM   11  C5  UNL     1      30.879  11.346 -11.423  1.00  0.00    -0.045 A 
HETATM   12  C24 UNL     1      28.770  12.058 -12.393  1.00  0.00     0.039 A 
HETATM   13  C6  UNL     1      31.913  11.551 -10.512  1.00  0.00     0.023 A 
HETATM   14  C20 UNL     1      30.922  10.190 -12.338  1.00  0.00     0.045 C 
HETATM   15  C21 UNL     1      30.059  10.270 -13.528  1.00  0.00     0.064 C 
HETATM   16  C22 UNL     1      28.865  11.094 -13.363  1.00  0.00     0.040 A 
HETATM   17  N4  UNL     1      27.710  11.148 -14.107  1.00  0.00    -0.303 N 
HETATM   18  N5  UNL     1      26.959  12.100 -13.611  1.00  0.00    -0.289 N 
ATOM     19  H4  UNL     1      27.479  10.553 -14.903  1.00  0.00     0.186 HD
HETATM   20  C23 UNL     1      27.559  12.702 -12.549  1.00  0.00     0.131 A 
ATOM     21  H5  UNL     1      26.041  12.357 -13.975  1.00  0.00     0.188 HD
HETATM   22 CL1  UNL     1      26.888  14.009 -11.611  1.00  0.00    -0.062 Cl
BRANCH   8  23
HETATM   23  O1  UNL     1      30.750  14.485  -8.631  1.00  0.00    -0.355 OA
HETATM   24  C1  UNL     1      29.586  14.785  -7.894  1.00  0.00     0.210 C 
ENDBRANCH   8  23
ENDBRANCH   1   7
BRANCH   1  25
HETATM   25  C12 UNL     1      34.341  13.176  -8.895  1.00  0.00    -0.023 A 
HETATM   26  C13 UNL     1      35.336  12.667  -9.658  1.00  0.00     0.014 A 
HETATM   27  C14 UNL     1      36.553  13.335  -9.825  1.00  0.00     0.025 A 
HETATM   28  C15 UNL     1      36.796  14.535  -9.225  1.00  0.00     0.074 A 
HETATM   29  C18 UNL     1      35.790  15.078  -8.435  1.00  0.00     0.025 A 
HETATM   30  C19 UNL     1      34.603  14.415  -8.279  1.00  0.00     0.014 A 
BRANCH  28  31
HETATM   31  S1  UNL     1      38.337  15.316  -9.475  1.00  0.00     0.242 S 
HETATM   32  O2  UNL     1      39.331  14.306  -9.991  1.00  0.00    -0.206 OA
HETATM   33  O3  UNL     1      38.841  15.736  -8.112  1.00  0.00    -0.206 OA
BRANCH  31  34
HETATM   34  N3  UNL     1      38.244  16.650 -10.543  1.00  0.00    -0.215 NA
HETATM   35  C16 UNL     1      37.832  16.210 -11.844  1.00  0.00     0.129 C 
HETATM   36  C17 UNL     1      39.550  17.256 -10.641  1.00  0.00     0.129 C 
ENDBRANCH  31  34
ENDBRANCH  28  31
ENDBRANCH   1  25
TORSDOF 5
ENDMDL
