MODEL 1
REMARK VINA RESULT: -9.822601535      0.000      0.000
REMARK  6 active torsions:
REMARK  status: ('A' for Active; 'I' for Inactive)
REMARK    1  A    between atoms: C2_2  and  C3_3 
REMARK    2  A    between atoms: C3_3  and  S1_4 
REMARK    3  A    between atoms: S1_4  and  N1_7 
REMARK    4  A    between atoms: C6_10  and  C7_11 
REMARK       I    between atoms: C7_11  and  N2_13 
REMARK    5  A    between atoms: N2_13  and  C8_15 
REMARK    6  A    between atoms: C12_19  and  C13_20 
ROOT
HETATM    1  C7  UNL     1     169.055  28.347 182.534  1.00  0.00     0.222 C 
HETATM    2  O3  UNL     1     169.950  28.080 183.404  1.00  0.00    -0.273 OA
HETATM    3  N2  UNL     1     169.410  28.968 181.307  1.00  0.00    -0.356 N 
ATOM      4  H2  UNL     1     168.678  29.173 180.627  1.00  0.00     0.162 HD
ENDROOT
BRANCH   1   5
HETATM    5  C6  UNL     1     167.669  27.979 182.880  1.00  0.00     0.080 C 
HETATM    6  C5  UNL     1     167.579  26.997 184.023  1.00  0.00     0.029 C 
HETATM    7  C4  UNL     1     166.673  27.490 185.138  1.00  0.00     0.108 C 
HETATM    8  N1  UNL     1     165.374  27.888 184.689  1.00  0.00    -0.211 NA
HETATM    9  C20 UNL     1     165.405  28.619 183.464  1.00  0.00     0.108 C 
HETATM   10  C19 UNL     1     166.815  29.171 183.213  1.00  0.00     0.029 C 
BRANCH   8  11
HETATM   11  S1  UNL     1     164.317  26.552 184.672  1.00  0.00     0.211 S 
HETATM   12  O1  UNL     1     164.288  25.844 183.359  1.00  0.00    -0.211 OA
HETATM   13  O2  UNL     1     164.807  25.548 185.701  1.00  0.00    -0.211 OA
BRANCH  11  14
HETATM   14  C3  UNL     1     162.665  26.990 185.138  1.00  0.00     0.157 C 
BRANCH  14  15
HETATM   15  C2  UNL     1     162.650  28.056 186.210  1.00  0.00     0.012 C 
HETATM   16  C1  UNL     1     161.240  28.140 186.755  1.00  0.00     0.006 C 
ENDBRANCH  14  15
ENDBRANCH  11  14
ENDBRANCH   8  11
ENDBRANCH   1   5
BRANCH   3  17
HETATM   17  C8  UNL     1     170.773  29.319 180.991  1.00  0.00     0.088 C 
HETATM   18  C9  UNL     1     171.492  28.212 180.261  1.00  0.00     0.026 C 
HETATM   19  C10 UNL     1     172.256  28.904 179.180  1.00  0.00     0.002 C 
HETATM   20  C11 UNL     1     171.378  30.049 178.792  1.00  0.00     0.007 C 
HETATM   21  C12 UNL     1     170.866  30.562 180.143  1.00  0.00     0.012 C 
BRANCH  21  22
HETATM   22  C13 UNL     1     171.897  31.547 180.636  1.00  0.00    -0.009 C 
HETATM   23  C14 UNL     1     172.162  31.457 182.106  1.00  0.00     0.005 C 
HETATM   24  C15 UNL     1     173.137  32.589 182.446  1.00  0.00     0.000 C 
HETATM   25  C16 UNL     1     172.548  33.937 182.180  1.00  0.00     0.000 C 
HETATM   26  C17 UNL     1     171.212  33.805 181.508  1.00  0.00     0.000 C 
HETATM   27  C18 UNL     1     171.409  32.928 180.286  1.00  0.00     0.005 C 
ENDBRANCH  21  22
ENDBRANCH   3  17
TORSDOF 6
ENDMDL
MODEL 2
REMARK VINA RESULT: -9.795080461      3.888      8.999
REMARK  6 active torsions:
REMARK  status: ('A' for Active; 'I' for Inactive)
REMARK    1  A    between atoms: C2_2  and  C3_3 
REMARK    2  A    between atoms: C3_3  and  S1_4 
REMARK    3  A    between atoms: S1_4  and  N1_7 
REMARK    4  A    between atoms: C6_10  and  C7_11 
REMARK       I    between atoms: C7_11  and  N2_13 
REMARK    5  A    between atoms: N2_13  and  C8_15 
REMARK    6  A    between atoms: C12_19  and  C13_20 
ROOT
HETATM    1  C7  UNL     1     169.734  29.089 181.033  1.00  0.00     0.222 C 
HETATM    2  O3  UNL     1     170.433  28.265 181.713  1.00  0.00    -0.273 OA
HETATM    3  N2  UNL     1     168.446  29.481 181.487  1.00  0.00    -0.356 N 
ATOM      4  H2  UNL     1     167.905  30.140 180.927  1.00  0.00     0.162 HD
ENDROOT
BRANCH   1   5
HETATM    5  C6  UNL     1     170.335  29.589 179.783  1.00  0.00     0.080 C 
HETATM    6  C5  UNL     1     170.885  28.491 178.904  1.00  0.00     0.029 C 
HETATM    7  C4  UNL     1     170.329  28.549 177.492  1.00  0.00     0.108 C 
HETATM    8  N1  UNL     1     170.465  29.832 176.873  1.00  0.00    -0.211 NA
HETATM    9  C20 UNL     1     170.185  30.914 177.758  1.00  0.00     0.108 C 
HETATM   10  C19 UNL     1     169.380  30.413 178.966  1.00  0.00     0.029 C 
BRANCH   8  11
HETATM   11  S1  UNL     1     171.971  29.953 176.085  1.00  0.00     0.211 S 
HETATM   12  O1  UNL     1     172.629  28.631 175.870  1.00  0.00    -0.211 OA
HETATM   13  O2  UNL     1     171.739  30.556 174.711  1.00  0.00    -0.211 OA
BRANCH  11  14
HETATM   14  C3  UNL     1     173.092  31.033 176.930  1.00  0.00     0.157 C 
BRANCH  14  15
HETATM   15  C2  UNL     1     173.893  30.298 177.981  1.00  0.00     0.012 C 
HETATM   16  C1  UNL     1     173.543  30.895 179.328  1.00  0.00     0.006 C 
ENDBRANCH  14  15
ENDBRANCH  11  14
ENDBRANCH   8  11
ENDBRANCH   1   5
BRANCH   3  17
HETATM   17  C8  UNL     1     167.879  28.979 182.714  1.00  0.00     0.088 C 
HETATM   18  C9  UNL     1     168.222  29.846 183.898  1.00  0.00     0.026 C 
HETATM   19  C10 UNL     1     166.952  29.946 184.677  1.00  0.00     0.002 C 
HETATM   20  C11 UNL     1     165.884  29.936 183.631  1.00  0.00     0.007 C 
HETATM   21  C12 UNL     1     166.377  28.865 182.650  1.00  0.00     0.012 C 
BRANCH  21  22
HETATM   22  C13 UNL     1     165.852  27.549 183.168  1.00  0.00    -0.009 C 
HETATM   23  C14 UNL     1     164.869  27.691 184.287  1.00  0.00     0.005 C 
HETATM   24  C15 UNL     1     164.531  26.273 184.758  1.00  0.00     0.000 C 
HETATM   25  C16 UNL     1     165.728  25.563 185.304  1.00  0.00     0.000 C 
HETATM   26  C17 UNL     1     166.967  26.385 185.100  1.00  0.00     0.000 C 
HETATM   27  C18 UNL     1     167.036  26.738 183.626  1.00  0.00     0.005 C 
ENDBRANCH  21  22
ENDBRANCH   3  17
TORSDOF 6
ENDMDL
MODEL 3
REMARK VINA RESULT: -9.737559925      1.599      2.940
REMARK  6 active torsions:
REMARK  status: ('A' for Active; 'I' for Inactive)
REMARK    1  A    between atoms: C2_2  and  C3_3 
REMARK    2  A    between atoms: C3_3  and  S1_4 
REMARK    3  A    between atoms: S1_4  and  N1_7 
REMARK    4  A    between atoms: C6_10  and  C7_11 
REMARK       I    between atoms: C7_11  and  N2_13 
REMARK    5  A    between atoms: N2_13  and  C8_15 
REMARK    6  A    between atoms: C12_19  and  C13_20 
ROOT
HETATM    1  C7  UNL     1     168.296  29.338 182.703  1.00  0.00     0.222 C 
HETATM    2  O3  UNL     1     168.038  29.142 181.468  1.00  0.00    -0.273 OA
HETATM    3  N2  UNL     1     169.356  30.204 183.084  1.00  0.00    -0.356 N 
ATOM      4  H2  UNL     1     169.545  30.346 184.077  1.00  0.00     0.162 HD
ENDROOT
BRANCH   1   5
HETATM    5  C6  UNL     1     167.446  28.628 183.675  1.00  0.00     0.080 C 
HETATM    6  C5  UNL     1     165.997  28.553 183.260  1.00  0.00     0.029 C 
HETATM    7  C4  UNL     1     165.469  27.129 183.259  1.00  0.00     0.108 C 
HETATM    8  N1  UNL     1     165.696  26.430 184.486  1.00  0.00    -0.211 NA
HETATM    9  C20 UNL     1     166.988  26.675 185.039  1.00  0.00     0.108 C 
HETATM   10  C19 UNL     1     167.928  27.232 183.960  1.00  0.00     0.029 C 
BRANCH   8  11
HETATM   11  S1  UNL     1     164.413  26.708 185.573  1.00  0.00     0.211 S 
HETATM   12  O1  UNL     1     163.079  26.749 184.907  1.00  0.00    -0.211 OA
HETATM   13  O2  UNL     1     164.375  25.557 186.563  1.00  0.00    -0.211 OA
BRANCH  11  14
HETATM   14  C3  UNL     1     164.638  28.185 186.523  1.00  0.00     0.157 C 
BRANCH  14  15
HETATM   15  C2  UNL     1     163.558  29.204 186.238  1.00  0.00     0.012 C 
HETATM   16  C1  UNL     1     164.238  30.495 185.831  1.00  0.00     0.006 C 
ENDBRANCH  14  15
ENDBRANCH  11  14
ENDBRANCH   8  11
ENDBRANCH   1   5
BRANCH   3  17
HETATM   17  C8  UNL     1     170.174  30.889 182.114  1.00  0.00     0.088 C 
HETATM   18  C9  UNL     1     170.217  32.378 182.352  1.00  0.00     0.026 C 
HETATM   19  C10 UNL     1     171.648  32.754 182.150  1.00  0.00     0.002 C 
HETATM   20  C11 UNL     1     172.408  31.567 182.646  1.00  0.00     0.007 C 
HETATM   21  C12 UNL     1     171.596  30.387 182.102  1.00  0.00     0.012 C 
BRANCH  21  22
HETATM   22  C13 UNL     1     172.125  30.118 180.715  1.00  0.00    -0.009 C 
HETATM   23  C14 UNL     1     173.065  31.170 180.215  1.00  0.00     0.005 C 
HETATM   24  C15 UNL     1     173.411  30.798 178.769  1.00  0.00     0.000 C 
HETATM   25  C16 UNL     1     172.208  30.817 177.882  1.00  0.00     0.000 C 
HETATM   26  C17 UNL     1     170.962  31.048 178.686  1.00  0.00     0.000 C 
HETATM   27  C18 UNL     1     170.940  30.008 179.791  1.00  0.00     0.005 C 
ENDBRANCH  21  22
ENDBRANCH   3  17
TORSDOF 6
ENDMDL
MODEL 4
REMARK VINA RESULT: -9.716979396      3.851      9.106
REMARK  6 active torsions:
REMARK  status: ('A' for Active; 'I' for Inactive)
REMARK    1  A    between atoms: C2_2  and  C3_3 
REMARK    2  A    between atoms: C3_3  and  S1_4 
REMARK    3  A    between atoms: S1_4  and  N1_7 
REMARK    4  A    between atoms: C6_10  and  C7_11 
REMARK       I    between atoms: C7_11  and  N2_13 
REMARK    5  A    between atoms: N2_13  and  C8_15 
REMARK    6  A    between atoms: C12_19  and  C13_20 
ROOT
HETATM    1  C7  UNL     1     169.847  29.249 181.625  1.00  0.00     0.222 C 
HETATM    2  O3  UNL     1     170.242  28.263 182.332  1.00  0.00    -0.273 OA
HETATM    3  N2  UNL     1     168.863  30.143 182.128  1.00  0.00    -0.356 N 
ATOM      4  H2  UNL     1     168.562  30.924 181.545  1.00  0.00     0.162 HD
ENDROOT
BRANCH   1   5
HETATM    5  C6  UNL     1     170.460  29.392 180.293  1.00  0.00     0.080 C 
HETATM    6  C5  UNL     1     170.629  30.830 179.864  1.00  0.00     0.029 C 
HETATM    7  C4  UNL     1     172.058  31.150 179.462  1.00  0.00     0.108 C 
HETATM    8  N1  UNL     1     172.596  30.249 178.489  1.00  0.00    -0.211 NA
HETATM    9  C20 UNL     1     172.247  28.888 178.732  1.00  0.00     0.108 C 
HETATM   10  C19 UNL     1     171.796  28.710 180.189  1.00  0.00     0.029 C 
BRANCH   8  11
HETATM   11  S1  UNL     1     172.229  30.789 176.915  1.00  0.00     0.211 S 
HETATM   12  O1  UNL     1     173.325  30.530 175.936  1.00  0.00    -0.211 OA
HETATM   13  O2  UNL     1     171.012  30.024 176.425  1.00  0.00    -0.211 OA
BRANCH  11  14
HETATM   14  C3  UNL     1     171.799  32.506 176.871  1.00  0.00     0.157 C 
BRANCH  14  15
HETATM   15  C2  UNL     1     171.798  33.047 175.459  1.00  0.00     0.012 C 
HETATM   16  C1  UNL     1     171.797  34.559 175.544  1.00  0.00     0.006 C 
ENDBRANCH  14  15
ENDBRANCH  11  14
ENDBRANCH   8  11
ENDBRANCH   1   5
BRANCH   3  17
HETATM   17  C8  UNL     1     168.277  29.982 183.436  1.00  0.00     0.088 C 
HETATM   18  C9  UNL     1     168.280  31.267 184.225  1.00  0.00     0.026 C 
HETATM   19  C10 UNL     1     166.935  31.319 184.871  1.00  0.00     0.002 C 
HETATM   20  C11 UNL     1     166.028  30.678 183.871  1.00  0.00     0.007 C 
HETATM   21  C12 UNL     1     166.855  29.488 183.372  1.00  0.00     0.012 C 
BRANCH  21  22
HETATM   22  C13 UNL     1     166.571  28.352 184.325  1.00  0.00    -0.009 C 
HETATM   23  C14 UNL     1     167.277  27.081 183.973  1.00  0.00     0.005 C 
HETATM   24  C15 UNL     1     166.793  26.020 184.967  1.00  0.00     0.000 C 
HETATM   25  C16 UNL     1     165.325  25.764 184.845  1.00  0.00     0.000 C 
HETATM   26  C17 UNL     1     164.700  26.730 183.881  1.00  0.00     0.000 C 
HETATM   27  C18 UNL     1     165.082  28.127 184.332  1.00  0.00     0.005 C 
ENDBRANCH  21  22
ENDBRANCH   3  17
TORSDOF 6
ENDMDL
MODEL 5
REMARK VINA RESULT: -9.640253078      1.522      2.870
REMARK  6 active torsions:
REMARK  status: ('A' for Active; 'I' for Inactive)
REMARK    1  A    between atoms: C2_2  and  C3_3 
REMARK    2  A    between atoms: C3_3  and  S1_4 
REMARK    3  A    between atoms: S1_4  and  N1_7 
REMARK    4  A    between atoms: C6_10  and  C7_11 
REMARK       I    between atoms: C7_11  and  N2_13 
REMARK    5  A    between atoms: N2_13  and  C8_15 
REMARK    6  A    between atoms: C12_19  and  C13_20 
ROOT
HETATM    1  C7  UNL     1     168.375  29.386 182.824  1.00  0.00     0.222 C 
HETATM    2  O3  UNL     1     168.020  29.239 181.607  1.00  0.00    -0.273 OA
HETATM    3  N2  UNL     1     169.477  30.221 183.154  1.00  0.00    -0.356 N 
ATOM      4  H2  UNL     1     169.743  30.323 184.133  1.00  0.00     0.162 HD
ENDROOT
BRANCH   1   5
HETATM    5  C6  UNL     1     167.589  28.653 183.833  1.00  0.00     0.080 C 
HETATM    6  C5  UNL     1     166.101  28.877 183.710  1.00  0.00     0.029 C 
HETATM    7  C4  UNL     1     165.327  27.574 183.608  1.00  0.00     0.108 C 
HETATM    8  N1  UNL     1     165.630  26.641 184.649  1.00  0.00    -0.211 NA
HETATM    9  C20 UNL     1     167.021  26.583 184.962  1.00  0.00     0.108 C 
HETATM   10  C19 UNL     1     167.847  27.171 183.809  1.00  0.00     0.029 C 
BRANCH   8  11
HETATM   11  S1  UNL     1     164.627  26.915 186.000  1.00  0.00     0.211 S 
HETATM   12  O1  UNL     1     164.264  25.662 186.723  1.00  0.00    -0.211 OA
HETATM   13  O2  UNL     1     165.386  27.786 186.984  1.00  0.00    -0.211 OA
BRANCH  11  14
HETATM   14  C3  UNL     1     163.150  27.796 185.578  1.00  0.00     0.157 C 
BRANCH  14  15
HETATM   15  C2  UNL     1     161.958  26.872 185.468  1.00  0.00     0.012 C 
HETATM   16  C1  UNL     1     160.939  27.310 186.499  1.00  0.00     0.006 C 
ENDBRANCH  14  15
ENDBRANCH  11  14
ENDBRANCH   8  11
ENDBRANCH   1   5
BRANCH   3  17
HETATM   17  C8  UNL     1     170.230  30.929 182.149  1.00  0.00     0.088 C 
HETATM   18  C9  UNL     1     170.271  32.414 182.406  1.00  0.00     0.026 C 
HETATM   19  C10 UNL     1     171.684  32.809 182.128  1.00  0.00     0.002 C 
HETATM   20  C11 UNL     1     172.484  31.625 182.563  1.00  0.00     0.007 C 
HETATM   21  C12 UNL     1     171.654  30.443 182.048  1.00  0.00     0.012 C 
BRANCH  21  22
HETATM   22  C13 UNL     1     172.106  30.200 180.629  1.00  0.00    -0.009 C 
HETATM   23  C14 UNL     1     173.139  31.171 180.152  1.00  0.00     0.005 C 
HETATM   24  C15 UNL     1     173.396  30.849 178.676  1.00  0.00     0.000 C 
HETATM   25  C16 UNL     1     172.175  31.050 177.837  1.00  0.00     0.000 C 
HETATM   26  C17 UNL     1     170.989  31.367 178.701  1.00  0.00     0.000 C 
HETATM   27  C18 UNL     1     170.887  30.273 179.747  1.00  0.00     0.005 C 
ENDBRANCH  21  22
ENDBRANCH   3  17
TORSDOF 6
ENDMDL
