MODEL 1
REMARK VINA RESULT: -9.749764166      0.000      0.000
REMARK  6 active torsions:
REMARK  status: ('A' for Active; 'I' for Inactive)
REMARK    1  A    between atoms: C1_2  and  C2_3 
REMARK       I    between atoms: C1_2  and  N2_13 
REMARK    2  A    between atoms: C2_3  and  C3_4 
REMARK    3  A    between atoms: C3_4  and  C4_5 
REMARK    4  A    between atoms: C4_5  and  C5_6 
REMARK    5  A    between atoms: C5_6  and  N1_7 
REMARK       I    between atoms: N3_18  and  C14_19 
REMARK    6  A    between atoms: C14_19  and  C15_21 
ROOT
HETATM    1  O1  UNL     1     172.396  32.476 182.083  1.00  0.00    -0.273 OA
HETATM    2  C1  UNL     1     171.392  33.220 182.095  1.00  0.00     0.223 C 
HETATM    3  N2  UNL     1     170.207  32.962 182.798  1.00  0.00    -0.317 N 
ATOM      4  H2  UNL     1     169.658  33.794 183.013  1.00  0.00     0.170 HD
HETATM    5  C11 UNL     1     169.701  31.892 183.208  1.00  0.00     0.082 C 
HETATM    6  C12 UNL     1     170.221  30.528 183.071  1.00  0.00     0.096 C 
HETATM    7  C13 UNL     1     169.099  29.672 182.501  1.00  0.00     0.135 C 
HETATM    8  N3  UNL     1     168.046  29.676 183.508  1.00  0.00    -0.335 N 
HETATM    9  C14 UNL     1     167.621  28.441 184.038  1.00  0.00     0.225 C 
HETATM   10  O2  UNL     1     168.179  27.349 183.649  1.00  0.00    -0.273 OA
HETATM   11  C21 UNL     1     167.485  30.903 183.949  1.00  0.00     0.250 C 
HETATM   12  N4  UNL     1     168.449  32.004 183.907  1.00  0.00    -0.363 N 
ATOM     13  H4  UNL     1     168.226  32.876 184.388  1.00  0.00     0.162 HD
ENDROOT
BRANCH   2  14
HETATM   14  C2  UNL     1     171.444  34.469 181.311  1.00  0.00     0.103 C 
BRANCH  14  15
HETATM   15  C3  UNL     1     170.322  34.527 180.332  1.00  0.00     0.011 C 
BRANCH  15  16
HETATM   16  C4  UNL     1     169.998  33.257 179.616  1.00  0.00     0.031 C 
BRANCH  16  17
HETATM   17  C5  UNL     1     170.891  33.139 178.394  1.00  0.00     0.272 C 
BRANCH  17  18
HETATM   18  N1  UNL     1     171.020  31.766 177.978  1.00  0.00     0.088 N 
HETATM   19  C6  UNL     1     172.424  31.469 177.765  1.00  0.00     0.272 C 
HETATM   20  C7  UNL     1     173.024  31.056 179.089  1.00  0.00     0.030 C 
HETATM   21  C8  UNL     1     172.494  29.682 179.490  1.00  0.00     0.003 C 
HETATM   22  C9  UNL     1     171.034  29.557 179.091  1.00  0.00     0.030 C 
HETATM   23  C10 UNL     1     170.391  30.921 178.951  1.00  0.00     0.272 C 
ENDBRANCH  17  18
ENDBRANCH  16  17
ENDBRANCH  15  16
ENDBRANCH  14  15
ENDBRANCH   2  14
BRANCH   9  24
HETATM   24  C15 UNL     1     166.532  28.348 185.047  1.00  0.00     0.078 C 
HETATM   25  C16 UNL     1     166.469  26.924 185.580  1.00  0.00     0.014 C 
HETATM   26  C17 UNL     1     165.901  25.931 184.634  1.00  0.00     0.001 C 
HETATM   27  C18 UNL     1     164.805  26.416 183.751  1.00  0.00     0.000 C 
HETATM   28  C19 UNL     1     164.974  27.815 183.246  1.00  0.00     0.001 C 
HETATM   29  C20 UNL     1     165.193  28.718 184.430  1.00  0.00     0.014 C 
ENDBRANCH   9  24
TORSDOF 6
ENDMDL
MODEL 2
REMARK VINA RESULT: -9.715944508      1.188      1.576
REMARK  6 active torsions:
REMARK  status: ('A' for Active; 'I' for Inactive)
REMARK    1  A    between atoms: C1_2  and  C2_3 
REMARK       I    between atoms: C1_2  and  N2_13 
REMARK    2  A    between atoms: C2_3  and  C3_4 
REMARK    3  A    between atoms: C3_4  and  C4_5 
REMARK    4  A    between atoms: C4_5  and  C5_6 
REMARK    5  A    between atoms: C5_6  and  N1_7 
REMARK       I    between atoms: N3_18  and  C14_19 
REMARK    6  A    between atoms: C14_19  and  C15_21 
ROOT
HETATM    1  O1  UNL     1     172.490  31.205 181.795  1.00  0.00    -0.273 OA
HETATM    2  C1  UNL     1     171.586  32.065 181.732  1.00  0.00     0.223 C 
HETATM    3  N2  UNL     1     170.392  32.034 182.467  1.00  0.00    -0.317 N 
ATOM      4  H2  UNL     1     169.955  32.946 182.594  1.00  0.00     0.170 HD
HETATM    5  C11 UNL     1     169.768  31.086 182.996  1.00  0.00     0.082 C 
HETATM    6  C12 UNL     1     170.112  29.661 183.006  1.00  0.00     0.096 C 
HETATM    7  C13 UNL     1     168.883  28.894 182.542  1.00  0.00     0.135 C 
HETATM    8  N3  UNL     1     167.860  29.139 183.550  1.00  0.00    -0.335 N 
HETATM    9  C14 UNL     1     167.296  28.030 184.215  1.00  0.00     0.225 C 
HETATM   10  O2  UNL     1     167.707  26.842 183.944  1.00  0.00    -0.273 OA
HETATM   11  C21 UNL     1     167.462  30.467 183.858  1.00  0.00     0.250 C 
HETATM   12  N4  UNL     1     168.554  31.428 183.688  1.00  0.00    -0.363 N 
ATOM     13  H4  UNL     1     168.450  32.367 184.072  1.00  0.00     0.162 HD
ENDROOT
BRANCH   2  14
HETATM   14  C2  UNL     1     171.775  33.205 180.815  1.00  0.00     0.103 C 
BRANCH  14  15
HETATM   15  C3  UNL     1     170.577  33.392 179.949  1.00  0.00     0.011 C 
BRANCH  15  16
HETATM   16  C4  UNL     1     170.368  32.376 178.875  1.00  0.00     0.031 C 
BRANCH  16  17
HETATM   17  C5  UNL     1     171.650  32.234 178.075  1.00  0.00     0.272 C 
BRANCH  17  18
HETATM   18  N1  UNL     1     172.065  30.857 178.001  1.00  0.00     0.088 N 
HETATM   19  C6  UNL     1     171.838  30.368 176.653  1.00  0.00     0.272 C 
HETATM   20  C7  UNL     1     173.051  30.710 175.819  1.00  0.00     0.030 C 
HETATM   21  C8  UNL     1     174.233  29.845 176.246  1.00  0.00     0.003 C 
HETATM   22  C9  UNL     1     174.210  29.649 177.752  1.00  0.00     0.030 C 
HETATM   23  C10 UNL     1     173.430  30.755 178.431  1.00  0.00     0.272 C 
ENDBRANCH  17  18
ENDBRANCH  16  17
ENDBRANCH  15  16
ENDBRANCH  14  15
ENDBRANCH   2  14
BRANCH   9  24
HETATM   24  C15 UNL     1     166.225  28.184 185.237  1.00  0.00     0.078 C 
HETATM   25  C16 UNL     1     166.041  26.861 185.965  1.00  0.00     0.014 C 
HETATM   26  C17 UNL     1     165.363  25.805 185.173  1.00  0.00     0.001 C 
HETATM   27  C18 UNL     1     164.298  26.264 184.240  1.00  0.00     0.000 C 
HETATM   28  C19 UNL     1     164.586  27.556 183.541  1.00  0.00     0.001 C 
HETATM   29  C20 UNL     1     164.914  28.590 184.584  1.00  0.00     0.014 C 
ENDBRANCH   9  24
TORSDOF 6
ENDMDL
MODEL 3
REMARK VINA RESULT: -9.495703631      1.467      2.084
REMARK  6 active torsions:
REMARK  status: ('A' for Active; 'I' for Inactive)
REMARK    1  A    between atoms: C1_2  and  C2_3 
REMARK       I    between atoms: C1_2  and  N2_13 
REMARK    2  A    between atoms: C2_3  and  C3_4 
REMARK    3  A    between atoms: C3_4  and  C4_5 
REMARK    4  A    between atoms: C4_5  and  C5_6 
REMARK    5  A    between atoms: C5_6  and  N1_7 
REMARK       I    between atoms: N3_18  and  C14_19 
REMARK    6  A    between atoms: C14_19  and  C15_21 
ROOT
HETATM    1  O1  UNL     1     172.516  30.976 181.708  1.00  0.00    -0.273 OA
HETATM    2  C1  UNL     1     171.608  31.820 181.560  1.00  0.00     0.223 C 
HETATM    3  N2  UNL     1     170.397  31.832 182.268  1.00  0.00    -0.317 N 
ATOM      4  H2  UNL     1     169.949  32.747 182.315  1.00  0.00     0.170 HD
HETATM    5  C11 UNL     1     169.768  30.921 182.851  1.00  0.00     0.082 C 
HETATM    6  C12 UNL     1     170.123  29.504 182.976  1.00  0.00     0.096 C 
HETATM    7  C13 UNL     1     168.911  28.693 182.542  1.00  0.00     0.135 C 
HETATM    8  N3  UNL     1     167.862  29.003 183.505  1.00  0.00    -0.335 N 
HETATM    9  C14 UNL     1     167.292  27.941 184.238  1.00  0.00     0.225 C 
HETATM   10  O2  UNL     1     167.719  26.740 184.067  1.00  0.00    -0.273 OA
HETATM   11  C21 UNL     1     167.447  30.346 183.703  1.00  0.00     0.250 C 
HETATM   12  N4  UNL     1     168.534  31.302 183.487  1.00  0.00    -0.363 N 
ATOM     13  H4  UNL     1     168.414  32.266 183.797  1.00  0.00     0.162 HD
ENDROOT
BRANCH   2  14
HETATM   14  C2  UNL     1     171.809  32.890 180.564  1.00  0.00     0.103 C 
BRANCH  14  15
HETATM   15  C3  UNL     1     171.382  32.441 179.210  1.00  0.00     0.011 C 
BRANCH  15  16
HETATM   16  C4  UNL     1     172.146  31.306 178.614  1.00  0.00     0.031 C 
BRANCH  16  17
HETATM   17  C5  UNL     1     171.341  30.715 177.471  1.00  0.00     0.272 C 
BRANCH  17  18
HETATM   18  N1  UNL     1     170.984  29.346 177.742  1.00  0.00     0.088 N 
HETATM   19  C6  UNL     1     170.414  29.263 179.074  1.00  0.00     0.272 C 
HETATM   20  C7  UNL     1     168.936  29.561 178.973  1.00  0.00     0.030 C 
HETATM   21  C8  UNL     1     168.222  28.404 178.279  1.00  0.00     0.003 C 
HETATM   22  C9  UNL     1     169.101  27.847 177.172  1.00  0.00     0.030 C 
HETATM   23  C10 UNL     1     170.107  28.878 176.707  1.00  0.00     0.272 C 
ENDBRANCH  17  18
ENDBRANCH  16  17
ENDBRANCH  15  16
ENDBRANCH  14  15
ENDBRANCH   2  14
BRANCH   9  24
HETATM   24  C15 UNL     1     166.195  28.161 185.221  1.00  0.00     0.078 C 
HETATM   25  C16 UNL     1     165.971  26.878 186.008  1.00  0.00     0.014 C 
HETATM   26  C17 UNL     1     165.297  25.794 185.249  1.00  0.00     0.001 C 
HETATM   27  C18 UNL     1     164.267  26.222 184.264  1.00  0.00     0.000 C 
HETATM   28  C19 UNL     1     164.594  27.474 183.512  1.00  0.00     0.001 C 
HETATM   29  C20 UNL     1     164.910  28.553 184.512  1.00  0.00     0.014 C 
ENDBRANCH   9  24
TORSDOF 6
ENDMDL
MODEL 4
REMARK VINA RESULT: -9.417409077      2.645      8.996
REMARK  6 active torsions:
REMARK  status: ('A' for Active; 'I' for Inactive)
REMARK    1  A    between atoms: C1_2  and  C2_3 
REMARK       I    between atoms: C1_2  and  N2_13 
REMARK    2  A    between atoms: C2_3  and  C3_4 
REMARK    3  A    between atoms: C3_4  and  C4_5 
REMARK    4  A    between atoms: C4_5  and  C5_6 
REMARK    5  A    between atoms: C5_6  and  N1_7 
REMARK       I    between atoms: N3_18  and  C14_19 
REMARK    6  A    between atoms: C14_19  and  C15_21 
ROOT
HETATM    1  O1  UNL     1     166.875  27.958 182.461  1.00  0.00    -0.273 OA
HETATM    2  C1  UNL     1     167.942  27.874 183.106  1.00  0.00     0.223 C 
HETATM    3  N2  UNL     1     169.117  28.580 182.812  1.00  0.00    -0.317 N 
ATOM      4  H2  UNL     1     169.745  28.698 183.607  1.00  0.00     0.170 HD
HETATM    5  C11 UNL     1     169.535  29.092 181.748  1.00  0.00     0.082 C 
HETATM    6  C12 UNL     1     168.890  29.107 180.431  1.00  0.00     0.096 C 
HETATM    7  C13 UNL     1     169.914  28.612 179.420  1.00  0.00     0.135 C 
HETATM    8  N3  UNL     1     170.989  29.595 179.431  1.00  0.00    -0.335 N 
HETATM    9  C14 UNL     1     171.315  30.244 178.222  1.00  0.00     0.225 C 
HETATM   10  O2  UNL     1     170.651  29.982 177.153  1.00  0.00    -0.273 OA
HETATM   11  C21 UNL     1     171.671  29.896 180.639  1.00  0.00     0.250 C 
HETATM   12  N4  UNL     1     170.810  29.754 181.815  1.00  0.00    -0.363 N 
ATOM     13  H4  UNL     1     171.123  30.137 182.707  1.00  0.00     0.162 HD
ENDROOT
BRANCH   2  14
HETATM   14  C2  UNL     1     167.982  26.964 184.266  1.00  0.00     0.103 C 
BRANCH  14  15
HETATM   15  C3  UNL     1     166.835  26.014 184.235  1.00  0.00     0.011 C 
BRANCH  15  16
HETATM   16  C4  UNL     1     165.946  26.005 185.434  1.00  0.00     0.031 C 
BRANCH  16  17
HETATM   17  C5  UNL     1     164.746  26.894 185.164  1.00  0.00     0.272 C 
BRANCH  17  18
HETATM   18  N1  UNL     1     164.530  27.817 186.249  1.00  0.00     0.088 N 
HETATM   19  C6  UNL     1     165.607  28.790 186.260  1.00  0.00     0.272 C 
HETATM   20  C7  UNL     1     165.236  29.912 185.318  1.00  0.00     0.030 C 
HETATM   21  C8  UNL     1     164.096  30.733 185.915  1.00  0.00     0.003 C 
HETATM   22  C9  UNL     1     163.127  29.815 186.640  1.00  0.00     0.030 C 
HETATM   23  C10 UNL     1     163.226  28.399 186.117  1.00  0.00     0.272 C 
ENDBRANCH  17  18
ENDBRANCH  16  17
ENDBRANCH  15  16
ENDBRANCH  14  15
ENDBRANCH   2  14
BRANCH   9  24
HETATM   24  C15 UNL     1     172.418  31.240 178.134  1.00  0.00     0.078 C 
HETATM   25  C16 UNL     1     172.472  31.794 176.718  1.00  0.00     0.014 C 
HETATM   26  C17 UNL     1     173.016  30.856 175.704  1.00  0.00     0.001 C 
HETATM   27  C18 UNL     1     174.104  29.950 176.162  1.00  0.00     0.000 C 
HETATM   28  C19 UNL     1     173.943  29.425 177.555  1.00  0.00     0.001 C 
HETATM   29  C20 UNL     1     173.751  30.597 178.479  1.00  0.00     0.014 C 
ENDBRANCH   9  24
TORSDOF 6
ENDMDL
MODEL 5
REMARK VINA RESULT: -9.380031506      2.353      3.627
REMARK  6 active torsions:
REMARK  status: ('A' for Active; 'I' for Inactive)
REMARK    1  A    between atoms: C1_2  and  C2_3 
REMARK       I    between atoms: C1_2  and  N2_13 
REMARK    2  A    between atoms: C2_3  and  C3_4 
REMARK    3  A    between atoms: C3_4  and  C4_5 
REMARK    4  A    between atoms: C4_5  and  C5_6 
REMARK    5  A    between atoms: C5_6  and  N1_7 
REMARK       I    between atoms: N3_18  and  C14_19 
REMARK    6  A    between atoms: C14_19  and  C15_21 
ROOT
HETATM    1  O1  UNL     1     169.400  31.700 182.490  1.00  0.00    -0.273 OA
HETATM    2  C1  UNL     1     169.965  30.608 182.710  1.00  0.00     0.223 C 
HETATM    3  N2  UNL     1     169.305  29.388 182.921  1.00  0.00    -0.317 N 
ATOM      4  H2  UNL     1     169.869  28.565 182.713  1.00  0.00     0.170 HD
HETATM    5  C11 UNL     1     168.146  29.130 183.319  1.00  0.00     0.082 C 
HETATM    6  C12 UNL     1     167.084  30.065 183.700  1.00  0.00     0.096 C 
HETATM    7  C13 UNL     1     166.571  29.636 185.067  1.00  0.00     0.135 C 
HETATM    8  N3  UNL     1     165.988  28.314 184.873  1.00  0.00    -0.335 N 
HETATM    9  C14 UNL     1     164.631  28.126 185.208  1.00  0.00     0.225 C 
HETATM   10  O2  UNL     1     163.934  29.114 185.645  1.00  0.00    -0.273 OA
HETATM   11  C21 UNL     1     166.774  27.257 184.344  1.00  0.00     0.250 C 
HETATM   12  N4  UNL     1     167.800  27.736 183.416  1.00  0.00    -0.363 N 
ATOM     13  H4  UNL     1     168.284  27.063 182.822  1.00  0.00     0.162 HD
ENDROOT
BRANCH   2  14
HETATM   14  C2  UNL     1     171.439  30.585 182.758  1.00  0.00     0.103 C 
BRANCH  14  15
HETATM   15  C3  UNL     1     172.008  30.296 181.412  1.00  0.00     0.011 C 
BRANCH  15  16
HETATM   16  C4  UNL     1     172.748  31.411 180.750  1.00  0.00     0.031 C 
BRANCH  16  17
HETATM   17  C5  UNL     1     172.200  31.601 179.347  1.00  0.00     0.272 C 
BRANCH  17  18
HETATM   18  N1  UNL     1     172.443  30.437 178.534  1.00  0.00     0.088 N 
HETATM   19  C6  UNL     1     171.578  30.487 177.370  1.00  0.00     0.272 C 
HETATM   20  C7  UNL     1     172.273  31.299 176.302  1.00  0.00     0.030 C 
HETATM   21  C8  UNL     1     173.460  30.515 175.748  1.00  0.00     0.003 C 
HETATM   22  C9  UNL     1     174.136  29.744 176.869  1.00  0.00     0.030 C 
HETATM   23  C10 UNL     1     173.840  30.372 178.214  1.00  0.00     0.272 C 
ENDBRANCH  17  18
ENDBRANCH  16  17
ENDBRANCH  15  16
ENDBRANCH  14  15
ENDBRANCH   2  14
BRANCH   9  24
HETATM   24  C15 UNL     1     163.962  26.804 185.071  1.00  0.00     0.078 C 
HETATM   25  C16 UNL     1     162.454  27.009 185.074  1.00  0.00     0.014 C 
HETATM   26  C17 UNL     1     161.876  27.350 186.398  1.00  0.00     0.001 C 
HETATM   27  C18 UNL     1     162.515  26.710 187.580  1.00  0.00     0.000 C 
HETATM   28  C19 UNL     1     164.005  26.586 187.501  1.00  0.00     0.001 C 
HETATM   29  C20 UNL     1     164.351  25.884 186.217  1.00  0.00     0.014 C 
ENDBRANCH   9  24
TORSDOF 6
ENDMDL
