MODEL 1
REMARK VINA RESULT: -9.885183862      0.000      0.000
REMARK  6 active torsions:
REMARK  status: ('A' for Active; 'I' for Inactive)
REMARK    1  A    between atoms: C2_2  and  C3_3 
REMARK    2  A    between atoms: C2_2  and  N2_7 
REMARK    3  A    between atoms: C3_3  and  N1_4 
REMARK       I    between atoms: N2_7  and  C6_9 
REMARK    4  A    between atoms: C6_9  and  C7_11 
REMARK    5  A    between atoms: C7_11  and  N3_12 
REMARK    6  A    between atoms: C10_15  and  C11_16 
ROOT
HETATM    1  N3  UNL     1     170.020  30.822 181.480  1.00  0.00    -0.385 N 
HETATM    2  C8  UNL     1     170.082  31.074 182.881  1.00  0.00     0.122 C 
HETATM    3  C9  UNL     1     168.896  30.466 183.640  1.00  0.00     0.025 C 
HETATM    4  C10 UNL     1     168.353  29.359 182.729  1.00  0.00     0.001 C 
HETATM    5  C21 UNL     1     169.454  28.552 182.138  1.00  0.00     0.004 C 
HETATM    6  C22 UNL     1     170.531  28.166 183.112  1.00  0.00     0.012 C 
HETATM    7  C23 UNL     1     170.124  29.461 181.083  1.00  0.00     0.127 C 
ENDROOT
BRANCH   1   8
HETATM    8  C7  UNL     1     170.774  31.735 180.727  1.00  0.00     0.160 C 
BRANCH   8   9
HETATM    9  C6  UNL     1     170.556  31.786 179.284  1.00  0.00     0.256 C 
HETATM   10  N2  UNL     1     171.618  31.557 178.384  1.00  0.00    -0.350 N 
ATOM     11  H2  UNL     1     172.550  31.338 178.736  1.00  0.00     0.163 HD
HETATM   12  O1  UNL     1     169.420  32.036 178.829  1.00  0.00    -0.267 OA
BRANCH  10  13
HETATM   13  C2  UNL     1     171.375  31.635 176.949  1.00  0.00     0.109 C 
HETATM   14  C1  UNL     1     171.710  30.408 176.200  1.00  0.00     0.034 C 
BRANCH  13  15
HETATM   15  C3  UNL     1     172.013  32.913 176.494  1.00  0.00     0.296 C 
BRANCH  15  16
HETATM   16  N1  UNL     1     171.063  33.780 175.829  1.00  0.00     0.081 N 
HETATM   17  C4  UNL     1     171.883  34.803 175.069  1.00  0.00     0.309 C 
HETATM   18  C5  UNL     1     170.484  34.639 176.876  1.00  0.00     0.309 C 
ENDBRANCH  15  16
ENDBRANCH  13  15
ENDBRANCH  10  13
ENDBRANCH   8   9
ENDBRANCH   1   8
BRANCH   4  19
HETATM   19  C11 UNL     1     167.225  28.620 183.348  1.00  0.00    -0.035 C 
HETATM   20  C12 UNL     1     167.017  29.116 184.759  1.00  0.00     0.014 C 
HETATM   21  C13 UNL     1     166.079  28.223 185.549  1.00  0.00    -0.013 C 
HETATM   22  C14 UNL     1     164.735  28.309 184.853  1.00  0.00     0.009 C 
HETATM   23  C18 UNL     1     166.548  26.800 185.522  1.00  0.00     0.009 C 
HETATM   24  C15 UNL     1     164.877  27.921 183.420  1.00  0.00    -0.013 C 
HETATM   25  C16 UNL     1     165.255  26.452 183.377  1.00  0.00     0.009 C 
HETATM   26  C20 UNL     1     165.899  28.743 182.651  1.00  0.00     0.014 C 
HETATM   27  C17 UNL     1     166.574  26.303 184.100  1.00  0.00    -0.013 C 
HETATM   28  C19 UNL     1     167.623  27.155 183.384  1.00  0.00     0.014 C 
ENDBRANCH   4  19
TORSDOF 6
ENDMDL
MODEL 2
REMARK VINA RESULT: -9.824985854      2.693      7.942
REMARK  6 active torsions:
REMARK  status: ('A' for Active; 'I' for Inactive)
REMARK    1  A    between atoms: C2_2  and  C3_3 
REMARK    2  A    between atoms: C2_2  and  N2_7 
REMARK    3  A    between atoms: C3_3  and  N1_4 
REMARK       I    between atoms: N2_7  and  C6_9 
REMARK    4  A    between atoms: C6_9  and  C7_11 
REMARK    5  A    between atoms: C7_11  and  N3_12 
REMARK    6  A    between atoms: C10_15  and  C11_16 
ROOT
HETATM    1  N3  UNL     1     169.508  32.623 182.853  1.00  0.00    -0.385 N 
HETATM    2  C8  UNL     1     170.561  31.781 183.315  1.00  0.00     0.122 C 
HETATM    3  C9  UNL     1     171.231  31.001 182.176  1.00  0.00     0.025 C 
HETATM    4  C10 UNL     1     170.908  31.786 180.900  1.00  0.00     0.001 C 
HETATM    5  C21 UNL     1     171.074  33.249 181.105  1.00  0.00     0.004 C 
HETATM    6  C22 UNL     1     172.325  33.634 181.844  1.00  0.00     0.012 C 
HETATM    7  C23 UNL     1     169.889  33.688 181.994  1.00  0.00     0.127 C 
ENDROOT
BRANCH   1   8
HETATM    8  C7  UNL     1     168.591  32.953 183.863  1.00  0.00     0.160 C 
BRANCH   8   9
HETATM    9  C6  UNL     1     167.411  32.108 184.027  1.00  0.00     0.256 C 
HETATM   10  N2  UNL     1     167.482  30.902 184.756  1.00  0.00    -0.350 N 
ATOM     11  H2  UNL     1     168.359  30.615 185.189  1.00  0.00     0.163 HD
HETATM   12  O1  UNL     1     166.321  32.446 183.520  1.00  0.00    -0.267 OA
BRANCH  10  13
HETATM   13  C2  UNL     1     166.293  30.068 184.885  1.00  0.00     0.109 C 
HETATM   14  C1  UNL     1     166.019  29.595 186.256  1.00  0.00     0.034 C 
BRANCH  13  15
HETATM   15  C3  UNL     1     166.401  29.030 183.809  1.00  0.00     0.296 C 
BRANCH  15  16
HETATM   16  N1  UNL     1     167.757  28.541 183.672  1.00  0.00     0.081 N 
HETATM   17  C4  UNL     1     168.042  28.495 182.184  1.00  0.00     0.309 C 
HETATM   18  C5  UNL     1     167.709  27.099 183.970  1.00  0.00     0.309 C 
ENDBRANCH  15  16
ENDBRANCH  13  15
ENDBRANCH  10  13
ENDBRANCH   8   9
ENDBRANCH   1   8
BRANCH   4  19
HETATM   19  C11 UNL     1     171.540  31.191 179.696  1.00  0.00    -0.035 C 
HETATM   20  C12 UNL     1     171.132  31.980 178.474  1.00  0.00     0.014 C 
HETATM   21  C13 UNL     1     171.502  31.272 177.185  1.00  0.00    -0.013 C 
HETATM   22  C14 UNL     1     173.016  31.196 177.169  1.00  0.00     0.009 C 
HETATM   23  C18 UNL     1     170.946  29.880 177.161  1.00  0.00     0.009 C 
HETATM   24  C15 UNL     1     173.504  30.508 178.398  1.00  0.00    -0.013 C 
HETATM   25  C16 UNL     1     173.031  29.066 178.337  1.00  0.00     0.009 C 
HETATM   26  C20 UNL     1     173.042  31.150 179.697  1.00  0.00     0.014 C 
HETATM   27  C17 UNL     1     171.520  29.087 178.306  1.00  0.00    -0.013 C 
HETATM   28  C19 UNL     1     171.013  29.771 179.577  1.00  0.00     0.014 C 
ENDBRANCH   4  19
TORSDOF 6
ENDMDL
MODEL 3
REMARK VINA RESULT: -9.682697060      1.884      2.734
REMARK  6 active torsions:
REMARK  status: ('A' for Active; 'I' for Inactive)
REMARK    1  A    between atoms: C2_2  and  C3_3 
REMARK    2  A    between atoms: C2_2  and  N2_7 
REMARK    3  A    between atoms: C3_3  and  N1_4 
REMARK       I    between atoms: N2_7  and  C6_9 
REMARK    4  A    between atoms: C6_9  and  C7_11 
REMARK    5  A    between atoms: C7_11  and  N3_12 
REMARK    6  A    between atoms: C10_15  and  C11_16 
ROOT
HETATM    1  N3  UNL     1     170.251  28.469 181.398  1.00  0.00    -0.385 N 
HETATM    2  C8  UNL     1     169.134  29.125 180.805  1.00  0.00     0.122 C 
HETATM    3  C9  UNL     1     167.797  28.664 181.400  1.00  0.00     0.025 C 
HETATM    4  C10 UNL     1     168.145  28.071 182.771  1.00  0.00     0.001 C 
HETATM    5  C21 UNL     1     169.120  28.924 183.501  1.00  0.00     0.004 C 
HETATM    6  C22 UNL     1     168.818  30.395 183.450  1.00  0.00     0.012 C 
HETATM    7  C23 UNL     1     170.472  28.731 182.777  1.00  0.00     0.127 C 
ENDROOT
BRANCH   1   8
HETATM    8  C7  UNL     1     171.393  28.490 180.583  1.00  0.00     0.160 C 
BRANCH   8   9
HETATM    9  C6  UNL     1     171.883  29.785 180.117  1.00  0.00     0.256 C 
HETATM   10  N2  UNL     1     171.569  30.254 178.824  1.00  0.00    -0.350 N 
ATOM     11  H2  UNL     1     170.981  29.695 178.205  1.00  0.00     0.163 HD
HETATM   12  O1  UNL     1     172.591  30.494 180.863  1.00  0.00    -0.267 OA
BRANCH  10  13
HETATM   13  C2  UNL     1     172.090  31.540 178.378  1.00  0.00     0.109 C 
HETATM   14  C1  UNL     1     171.158  32.673 178.547  1.00  0.00     0.034 C 
BRANCH  13  15
HETATM   15  C3  UNL     1     172.643  31.305 177.004  1.00  0.00     0.296 C 
BRANCH  15  16
HETATM   16  N1  UNL     1     172.697  29.894 176.684  1.00  0.00     0.081 N 
HETATM   17  C4  UNL     1     174.091  29.634 176.150  1.00  0.00     0.309 C 
HETATM   18  C5  UNL     1     171.911  29.720 175.450  1.00  0.00     0.309 C 
ENDBRANCH  15  16
ENDBRANCH  13  15
ENDBRANCH  10  13
ENDBRANCH   8   9
ENDBRANCH   1   8
BRANCH   4  19
HETATM   19  C11 UNL     1     166.941  27.626 183.515  1.00  0.00    -0.035 C 
HETATM   20  C12 UNL     1     165.951  28.765 183.593  1.00  0.00     0.014 C 
HETATM   21  C13 UNL     1     164.828  28.483 184.573  1.00  0.00    -0.013 C 
HETATM   22  C14 UNL     1     164.077  27.289 184.017  1.00  0.00     0.009 C 
HETATM   23  C18 UNL     1     165.375  28.126 185.922  1.00  0.00     0.009 C 
HETATM   24  C15 UNL     1     165.013  26.144 183.823  1.00  0.00    -0.013 C 
HETATM   25  C16 UNL     1     165.496  25.708 185.194  1.00  0.00     0.009 C 
HETATM   26  C20 UNL     1     166.202  26.456 182.928  1.00  0.00     0.014 C 
HETATM   27  C17 UNL     1     166.218  26.882 185.814  1.00  0.00    -0.013 C 
HETATM   28  C19 UNL     1     167.398  27.262 184.917  1.00  0.00     0.014 C 
ENDBRANCH   4  19
TORSDOF 6
ENDMDL
MODEL 4
REMARK VINA RESULT: -9.633334094      3.107      8.842
REMARK  6 active torsions:
REMARK  status: ('A' for Active; 'I' for Inactive)
REMARK    1  A    between atoms: C2_2  and  C3_3 
REMARK    2  A    between atoms: C2_2  and  N2_7 
REMARK    3  A    between atoms: C3_3  and  N1_4 
REMARK       I    between atoms: N2_7  and  C6_9 
REMARK    4  A    between atoms: C6_9  and  C7_11 
REMARK    5  A    between atoms: C7_11  and  N3_12 
REMARK    6  A    between atoms: C10_15  and  C11_16 
ROOT
HETATM    1  N3  UNL     1     167.708  29.663 182.739  1.00  0.00    -0.385 N 
HETATM    2  C8  UNL     1     167.693  28.557 181.841  1.00  0.00     0.122 C 
HETATM    3  C9  UNL     1     168.668  28.739 180.670  1.00  0.00     0.025 C 
HETATM    4  C10 UNL     1     169.693  29.774 181.150  1.00  0.00     0.001 C 
HETATM    5  C21 UNL     1     170.125  29.504 182.547  1.00  0.00     0.004 C 
HETATM    6  C22 UNL     1     170.428  28.060 182.835  1.00  0.00     0.012 C 
HETATM    7  C23 UNL     1     168.923  29.885 183.441  1.00  0.00     0.127 C 
ENDROOT
BRANCH   1   8
HETATM    8  C7  UNL     1     166.536  29.759 183.505  1.00  0.00     0.160 C 
BRANCH   8   9
HETATM    9  C6  UNL     1     166.265  28.711 184.486  1.00  0.00     0.256 C 
HETATM   10  N2  UNL     1     165.704  27.478 184.089  1.00  0.00    -0.350 N 
ATOM     11  H2  UNL     1     165.495  27.303 183.106  1.00  0.00     0.163 HD
HETATM   12  O1  UNL     1     166.527  28.896 185.693  1.00  0.00    -0.267 OA
BRANCH  10  13
HETATM   13  C2  UNL     1     165.425  26.458 185.092  1.00  0.00     0.109 C 
HETATM   14  C1  UNL     1     166.397  25.347 185.127  1.00  0.00     0.034 C 
BRANCH  13  15
HETATM   15  C3  UNL     1     163.979  26.101 184.921  1.00  0.00     0.296 C 
BRANCH  15  16
HETATM   16  N1  UNL     1     163.108  27.180 185.336  1.00  0.00     0.081 N 
HETATM   17  C4  UNL     1     163.338  27.363 186.823  1.00  0.00     0.309 C 
HETATM   18  C5  UNL     1     161.743  26.627 185.352  1.00  0.00     0.309 C 
ENDBRANCH  15  16
ENDBRANCH  13  15
ENDBRANCH  10  13
ENDBRANCH   8   9
ENDBRANCH   1   8
BRANCH   4  19
HETATM   19  C11 UNL     1     170.756  30.023 180.145  1.00  0.00    -0.035 C 
HETATM   20  C12 UNL     1     171.644  31.147 180.624  1.00  0.00     0.014 C 
HETATM   21  C13 UNL     1     172.573  31.649 179.535  1.00  0.00    -0.013 C 
HETATM   22  C14 UNL     1     173.484  30.486 179.194  1.00  0.00     0.009 C 
HETATM   23  C18 UNL     1     171.799  32.034 178.311  1.00  0.00     0.009 C 
HETATM   24  C15 UNL     1     172.671  29.301 178.797  1.00  0.00    -0.013 C 
HETATM   25  C16 UNL     1     171.959  29.644 177.501  1.00  0.00     0.009 C 
HETATM   26  C20 UNL     1     171.659  28.861 179.843  1.00  0.00     0.014 C 
HETATM   27  C17 UNL     1     171.066  30.832 177.776  1.00  0.00    -0.013 C 
HETATM   28  C19 UNL     1     170.060  30.446 178.862  1.00  0.00     0.014 C 
ENDBRANCH   4  19
TORSDOF 6
ENDMDL
MODEL 5
REMARK VINA RESULT: -9.629455799      3.131      8.856
REMARK  6 active torsions:
REMARK  status: ('A' for Active; 'I' for Inactive)
REMARK    1  A    between atoms: C2_2  and  C3_3 
REMARK    2  A    between atoms: C2_2  and  N2_7 
REMARK    3  A    between atoms: C3_3  and  N1_4 
REMARK       I    between atoms: N2_7  and  C6_9 
REMARK    4  A    between atoms: C6_9  and  C7_11 
REMARK    5  A    between atoms: C7_11  and  N3_12 
REMARK    6  A    between atoms: C10_15  and  C11_16 
ROOT
HETATM    1  N3  UNL     1     168.640  28.163 182.982  1.00  0.00    -0.385 N 
HETATM    2  C8  UNL     1     170.001  27.836 183.252  1.00  0.00     0.122 C 
HETATM    3  C9  UNL     1     170.928  28.162 182.074  1.00  0.00     0.025 C 
HETATM    4  C10 UNL     1     170.175  29.204 181.239  1.00  0.00     0.001 C 
HETATM    5  C21 UNL     1     169.544  30.239 182.101  1.00  0.00     0.004 C 
HETATM    6  C22 UNL     1     170.430  30.756 183.199  1.00  0.00     0.012 C 
HETATM    7  C23 UNL     1     168.352  29.541 182.793  1.00  0.00     0.127 C 
ENDROOT
BRANCH   1   8
HETATM    8  C7  UNL     1     167.738  27.457 183.793  1.00  0.00     0.160 C 
BRANCH   8   9
HETATM    9  C6  UNL     1     166.376  27.969 183.917  1.00  0.00     0.256 C 
HETATM   10  N2  UNL     1     165.908  28.488 185.143  1.00  0.00    -0.350 N 
ATOM     11  H2  UNL     1     166.525  28.524 185.954  1.00  0.00     0.163 HD
HETATM   12  O1  UNL     1     165.606  27.951 182.934  1.00  0.00    -0.267 OA
BRANCH  10  13
HETATM   13  C2  UNL     1     164.536  28.972 185.242  1.00  0.00     0.109 C 
HETATM   14  C1  UNL     1     164.405  30.342 185.778  1.00  0.00     0.034 C 
BRANCH  13  15
HETATM   15  C3  UNL     1     163.768  27.887 185.936  1.00  0.00     0.296 C 
BRANCH  15  16
HETATM   16  N1  UNL     1     162.813  27.257 185.048  1.00  0.00     0.081 N 
HETATM   17  C4  UNL     1     161.623  26.879 185.907  1.00  0.00     0.309 C 
HETATM   18  C5  UNL     1     163.349  25.919 184.746  1.00  0.00     0.309 C 
ENDBRANCH  15  16
ENDBRANCH  13  15
ENDBRANCH  10  13
ENDBRANCH   8   9
ENDBRANCH   1   8
BRANCH   4  19
HETATM   19  C11 UNL     1     170.968  29.677 180.078  1.00  0.00    -0.035 C 
HETATM   20  C12 UNL     1     172.215  30.372 180.573  1.00  0.00     0.014 C 
HETATM   21  C13 UNL     1     172.928  31.127 179.467  1.00  0.00    -0.013 C 
HETATM   22  C14 UNL     1     173.379  30.079 178.469  1.00  0.00     0.009 C 
HETATM   23  C18 UNL     1     171.994  32.078 178.783  1.00  0.00     0.009 C 
HETATM   24  C15 UNL     1     172.209  29.284 178.001  1.00  0.00    -0.013 C 
HETATM   25  C16 UNL     1     171.302  30.217 177.218  1.00  0.00     0.009 C 
HETATM   26  C20 UNL     1     171.423  28.614 179.117  1.00  0.00     0.014 C 
HETATM   27  C17 UNL     1     170.857  31.311 178.160  1.00  0.00    -0.013 C 
HETATM   28  C19 UNL     1     170.102  30.674 179.328  1.00  0.00     0.014 C 
ENDBRANCH   4  19
TORSDOF 6
ENDMDL
