MODEL 1
REMARK VINA RESULT: -10.153772948      0.000      0.000
REMARK  6 active torsions:
REMARK  status: ('A' for Active; 'I' for Inactive)
REMARK    1  A    between atoms: C1_2  and  C2_3 
REMARK       I    between atoms: C1_2  and  N3_20 
REMARK    2  A    between atoms: C2_3  and  C3_4 
REMARK    3  A    between atoms: C3_4  and  C4_5 
REMARK    4  A    between atoms: C4_5  and  N1_6 
REMARK    5  A    between atoms: C7_9  and  C8_10 
REMARK       I    between atoms: C8_10  and  N2_12 
REMARK    6  A    between atoms: N3_20  and  C16_22 
ROOT
HETATM    1  N1  UNL     1     168.448  28.404 183.605  1.00  0.00    -0.393 N 
HETATM    2  C5  UNL     1     167.359  29.317 183.878  1.00  0.00     0.122 C 
HETATM    3  C6  UNL     1     166.073  28.641 183.375  1.00  0.00     0.034 C 
HETATM    4  C7  UNL     1     165.868  27.485 184.367  1.00  0.00     0.084 C 
HETATM    5  C14 UNL     1     166.946  26.491 183.989  1.00  0.00     0.058 C 
HETATM    6  C15 UNL     1     168.297  27.125 184.162  1.00  0.00     0.059 C 
ENDROOT
BRANCH   1   7
HETATM    7  C4  UNL     1     168.926  28.510 182.262  1.00  0.00     0.122 C 
BRANCH   7   8
HETATM    8  C3  UNL     1     170.424  28.468 182.129  1.00  0.00     0.029 C 
BRANCH   8   9
HETATM    9  C2  UNL     1     171.136  29.726 182.468  1.00  0.00     0.104 C 
BRANCH   9  10
HETATM   10  C1  UNL     1     171.927  30.344 181.408  1.00  0.00     0.217 C 
HETATM   11  O1  UNL     1     172.632  31.359 181.617  1.00  0.00    -0.274 OA
HETATM   12  N3  UNL     1     171.922  29.809 180.095  1.00  0.00    -0.356 N 
ATOM     13  H3  UNL     1     171.353  28.983 179.907  1.00  0.00     0.162 HD
BRANCH  12  14
HETATM   14  C16 UNL     1     172.689  30.384 179.013  1.00  0.00     0.084 C 
HETATM   15  C17 UNL     1     171.878  31.344 178.186  1.00  0.00     0.025 C 
HETATM   16  C18 UNL     1     171.717  30.936 176.752  1.00  0.00     0.002 C 
HETATM   17  C19 UNL     1     172.932  31.199 175.917  1.00  0.00     0.000 C 
HETATM   18  C20 UNL     1     173.923  30.071 175.913  1.00  0.00     0.000 C 
HETATM   19  C21 UNL     1     174.433  29.826 177.315  1.00  0.00     0.002 C 
HETATM   20  C22 UNL     1     173.326  29.292 178.214  1.00  0.00     0.025 C 
ENDBRANCH  12  14
ENDBRANCH   9  10
ENDBRANCH   8   9
ENDBRANCH   7   8
ENDBRANCH   1   7
BRANCH   4  21
HETATM   21  C8  UNL     1     164.523  26.920 184.263  1.00  0.00     0.224 C 
HETATM   22  O2  UNL     1     164.292  26.215 183.217  1.00  0.00    -0.273 OA
HETATM   23  N2  UNL     1     163.483  27.080 185.199  1.00  0.00    -0.352 N 
HETATM   24  C9  UNL     1     163.676  27.880 186.377  1.00  0.00     0.125 C 
HETATM   25  C13 UNL     1     162.210  26.442 184.996  1.00  0.00     0.125 C 
HETATM   26  C10 UNL     1     162.447  28.792 186.501  1.00  0.00     0.020 C 
HETATM   27  C11 UNL     1     161.176  28.022 186.640  1.00  0.00     0.003 C 
HETATM   28  C12 UNL     1     161.291  26.596 186.177  1.00  0.00     0.020 C 
ENDBRANCH   4  21
TORSDOF 6
ENDMDL
MODEL 2
REMARK VINA RESULT: -10.128172689      1.915      2.804
REMARK  6 active torsions:
REMARK  status: ('A' for Active; 'I' for Inactive)
REMARK    1  A    between atoms: C1_2  and  C2_3 
REMARK       I    between atoms: C1_2  and  N3_20 
REMARK    2  A    between atoms: C2_3  and  C3_4 
REMARK    3  A    between atoms: C3_4  and  C4_5 
REMARK    4  A    between atoms: C4_5  and  N1_6 
REMARK    5  A    between atoms: C7_9  and  C8_10 
REMARK       I    between atoms: C8_10  and  N2_12 
REMARK    6  A    between atoms: N3_20  and  C16_22 
ROOT
HETATM    1  N1  UNL     1     170.752  28.771 182.028  1.00  0.00    -0.393 N 
HETATM    2  C5  UNL     1     170.303  27.839 183.040  1.00  0.00     0.122 C 
HETATM    3  C6  UNL     1     168.946  28.354 183.550  1.00  0.00     0.034 C 
HETATM    4  C7  UNL     1     168.005  28.116 182.359  1.00  0.00     0.084 C 
HETATM    5  C14 UNL     1     168.418  29.175 181.358  1.00  0.00     0.058 C 
HETATM    6  C15 UNL     1     169.853  28.967 180.969  1.00  0.00     0.059 C 
ENDROOT
BRANCH   1   7
HETATM    7  C4  UNL     1     171.404  29.913 182.589  1.00  0.00     0.122 C 
BRANCH   7   8
HETATM    8  C3  UNL     1     170.511  31.108 182.779  1.00  0.00     0.029 C 
BRANCH   8   9
HETATM    9  C2  UNL     1     170.857  32.306 181.972  1.00  0.00     0.104 C 
BRANCH   9  10
HETATM   10  C1  UNL     1     171.895  32.144 180.960  1.00  0.00     0.217 C 
HETATM   11  O1  UNL     1     173.105  32.346 181.218  1.00  0.00    -0.274 OA
HETATM   12  N3  UNL     1     171.565  31.748 179.640  1.00  0.00    -0.356 N 
ATOM     13  H3  UNL     1     170.584  31.580 179.412  1.00  0.00     0.162 HD
BRANCH  12  14
HETATM   14  C16 UNL     1     172.557  31.573 178.603  1.00  0.00     0.084 C 
HETATM   15  C17 UNL     1     172.089  32.093 177.272  1.00  0.00     0.025 C 
HETATM   16  C18 UNL     1     171.991  31.047 176.203  1.00  0.00     0.002 C 
HETATM   17  C19 UNL     1     173.317  30.663 175.620  1.00  0.00     0.000 C 
HETATM   18  C20 UNL     1     174.008  29.554 176.357  1.00  0.00     0.000 C 
HETATM   19  C21 UNL     1     174.292  29.977 177.780  1.00  0.00     0.002 C 
HETATM   20  C22 UNL     1     173.001  30.145 178.569  1.00  0.00     0.025 C 
ENDBRANCH  12  14
ENDBRANCH   9  10
ENDBRANCH   8   9
ENDBRANCH   7   8
ENDBRANCH   1   7
BRANCH   4  21
HETATM   21  C8  UNL     1     166.601  28.232 182.751  1.00  0.00     0.224 C 
HETATM   22  O2  UNL     1     166.010  29.315 182.400  1.00  0.00    -0.273 OA
HETATM   23  N2  UNL     1     165.859  27.272 183.466  1.00  0.00    -0.352 N 
HETATM   24  C9  UNL     1     166.476  26.052 183.907  1.00  0.00     0.125 C 
HETATM   25  C13 UNL     1     164.469  27.493 183.762  1.00  0.00     0.125 C 
HETATM   26  C10 UNL     1     166.069  25.853 185.374  1.00  0.00     0.020 C 
HETATM   27  C11 UNL     1     164.591  25.741 185.547  1.00  0.00     0.003 C 
HETATM   28  C12 UNL     1     163.812  26.290 184.383  1.00  0.00     0.020 C 
ENDBRANCH   4  21
TORSDOF 6
ENDMDL
MODEL 3
REMARK VINA RESULT: -10.016066273      2.542      3.755
REMARK  6 active torsions:
REMARK  status: ('A' for Active; 'I' for Inactive)
REMARK    1  A    between atoms: C1_2  and  C2_3 
REMARK       I    between atoms: C1_2  and  N3_20 
REMARK    2  A    between atoms: C2_3  and  C3_4 
REMARK    3  A    between atoms: C3_4  and  C4_5 
REMARK    4  A    between atoms: C4_5  and  N1_6 
REMARK    5  A    between atoms: C7_9  and  C8_10 
REMARK       I    between atoms: C8_10  and  N2_12 
REMARK    6  A    between atoms: N3_20  and  C16_22 
ROOT
HETATM    1  N1  UNL     1     169.282  32.790 183.591  1.00  0.00    -0.393 N 
HETATM    2  C5  UNL     1     168.145  32.396 184.396  1.00  0.00     0.122 C 
HETATM    3  C6  UNL     1     167.403  31.300 183.614  1.00  0.00     0.034 C 
HETATM    4  C7  UNL     1     168.362  30.101 183.684  1.00  0.00     0.084 C 
HETATM    5  C14 UNL     1     169.488  30.486 182.747  1.00  0.00     0.058 C 
HETATM    6  C15 UNL     1     170.147  31.742 183.242  1.00  0.00     0.059 C 
ENDROOT
BRANCH   1   7
HETATM    7  C4  UNL     1     168.935  33.749 182.589  1.00  0.00     0.122 C 
BRANCH   7   8
HETATM    8  C3  UNL     1     170.054  34.096 181.646  1.00  0.00     0.029 C 
BRANCH   8   9
HETATM    9  C2  UNL     1     169.689  34.159 180.208  1.00  0.00     0.104 C 
BRANCH   9  10
HETATM   10  C1  UNL     1     170.038  33.006 179.385  1.00  0.00     0.217 C 
HETATM   11  O1  UNL     1     169.177  32.387 178.718  1.00  0.00    -0.274 OA
HETATM   12  N3  UNL     1     171.377  32.547 179.313  1.00  0.00    -0.356 N 
ATOM     13  H3  UNL     1     172.092  33.040 179.850  1.00  0.00     0.162 HD
BRANCH  12  14
HETATM   14  C16 UNL     1     171.774  31.411 178.512  1.00  0.00     0.084 C 
HETATM   15  C17 UNL     1     172.779  30.540 179.214  1.00  0.00     0.025 C 
HETATM   16  C18 UNL     1     174.102  30.443 178.516  1.00  0.00     0.002 C 
HETATM   17  C19 UNL     1     174.087  29.522 177.334  1.00  0.00     0.000 C 
HETATM   18  C20 UNL     1     173.689  30.188 176.049  1.00  0.00     0.000 C 
HETATM   19  C21 UNL     1     172.284  30.733 176.163  1.00  0.00     0.002 C 
HETATM   20  C22 UNL     1     172.221  31.879 177.163  1.00  0.00     0.025 C 
ENDBRANCH  12  14
ENDBRANCH   9  10
ENDBRANCH   8   9
ENDBRANCH   7   8
ENDBRANCH   1   7
BRANCH   4  21
HETATM   21  C8  UNL     1     167.701  28.859 183.286  1.00  0.00     0.224 C 
HETATM   22  O2  UNL     1     168.073  28.363 182.163  1.00  0.00    -0.273 OA
HETATM   23  N2  UNL     1     166.711  28.176 184.019  1.00  0.00    -0.352 N 
HETATM   24  C9  UNL     1     166.237  28.699 185.271  1.00  0.00     0.125 C 
HETATM   25  C13 UNL     1     166.161  26.940 183.531  1.00  0.00     0.125 C 
HETATM   26  C10 UNL     1     164.704  28.623 185.232  1.00  0.00     0.020 C 
HETATM   27  C11 UNL     1     164.206  27.225 185.069  1.00  0.00     0.003 C 
HETATM   28  C12 UNL     1     165.244  26.282 184.527  1.00  0.00     0.020 C 
ENDBRANCH   4  21
TORSDOF 6
ENDMDL
MODEL 4
REMARK VINA RESULT: -9.866631620      2.411     10.251
REMARK  6 active torsions:
REMARK  status: ('A' for Active; 'I' for Inactive)
REMARK    1  A    between atoms: C1_2  and  C2_3 
REMARK       I    between atoms: C1_2  and  N3_20 
REMARK    2  A    between atoms: C2_3  and  C3_4 
REMARK    3  A    between atoms: C3_4  and  C4_5 
REMARK    4  A    between atoms: C4_5  and  N1_6 
REMARK    5  A    between atoms: C7_9  and  C8_10 
REMARK       I    between atoms: C8_10  and  N2_12 
REMARK    6  A    between atoms: N3_20  and  C16_22 
ROOT
HETATM    1  N1  UNL     1     170.779  30.265 182.753  1.00  0.00    -0.393 N 
HETATM    2  C5  UNL     1     171.179  29.740 181.466  1.00  0.00     0.122 C 
HETATM    3  C6  UNL     1     170.368  30.501 180.403  1.00  0.00     0.034 C 
HETATM    4  C7  UNL     1     170.965  31.917 180.447  1.00  0.00     0.084 C 
HETATM    5  C14 UNL     1     170.441  32.487 181.748  1.00  0.00     0.058 C 
HETATM    6  C15 UNL     1     170.932  31.652 182.897  1.00  0.00     0.059 C 
ENDROOT
BRANCH   1   7
HETATM    7  C4  UNL     1     169.581  29.657 183.242  1.00  0.00     0.122 C 
BRANCH   7   8
HETATM    8  C3  UNL     1     169.547  28.159 183.117  1.00  0.00     0.029 C 
BRANCH   8   9
HETATM    9  C2  UNL     1     168.334  27.494 183.656  1.00  0.00     0.104 C 
BRANCH   9  10
HETATM   10  C1  UNL     1     167.109  28.287 183.699  1.00  0.00     0.217 C 
HETATM   11  O1  UNL     1     166.410  28.477 182.676  1.00  0.00    -0.274 OA
HETATM   12  N3  UNL     1     166.668  28.871 184.912  1.00  0.00    -0.356 N 
ATOM     13  H3  UNL     1     167.225  28.726 185.755  1.00  0.00     0.162 HD
BRANCH  12  14
HETATM   14  C16 UNL     1     165.462  29.663 185.007  1.00  0.00     0.084 C 
HETATM   15  C17 UNL     1     165.725  31.130 184.802  1.00  0.00     0.025 C 
HETATM   16  C18 UNL     1     165.389  31.986 185.986  1.00  0.00     0.002 C 
HETATM   17  C19 UNL     1     163.922  32.241 186.141  1.00  0.00     0.000 C 
HETATM   18  C20 UNL     1     163.205  31.200 186.949  1.00  0.00     0.000 C 
HETATM   19  C21 UNL     1     163.317  29.852 186.273  1.00  0.00     0.002 C 
HETATM   20  C22 UNL     1     164.755  29.352 186.288  1.00  0.00     0.025 C 
ENDBRANCH  12  14
ENDBRANCH   9  10
ENDBRANCH   8   9
ENDBRANCH   7   8
ENDBRANCH   1   7
BRANCH   4  21
HETATM   21  C8  UNL     1     170.560  32.707 179.285  1.00  0.00     0.224 C 
HETATM   22  O2  UNL     1     169.502  33.417 179.433  1.00  0.00    -0.273 OA
HETATM   23  N2  UNL     1     171.224  32.755 178.044  1.00  0.00    -0.352 N 
HETATM   24  C9  UNL     1     172.399  31.962 177.813  1.00  0.00     0.125 C 
HETATM   25  C13 UNL     1     170.740  33.602 176.987  1.00  0.00     0.125 C 
HETATM   26  C10 UNL     1     172.216  31.283 176.448  1.00  0.00     0.020 C 
HETATM   27  C11 UNL     1     172.067  32.268 175.336  1.00  0.00     0.003 C 
HETATM   28  C12 UNL     1     171.671  33.640 175.805  1.00  0.00     0.020 C 
ENDBRANCH   4  21
TORSDOF 6
ENDMDL
MODEL 5
REMARK VINA RESULT: -9.856201694      2.529     10.110
REMARK  6 active torsions:
REMARK  status: ('A' for Active; 'I' for Inactive)
REMARK    1  A    between atoms: C1_2  and  C2_3 
REMARK       I    between atoms: C1_2  and  N3_20 
REMARK    2  A    between atoms: C2_3  and  C3_4 
REMARK    3  A    between atoms: C3_4  and  C4_5 
REMARK    4  A    between atoms: C4_5  and  N1_6 
REMARK    5  A    between atoms: C7_9  and  C8_10 
REMARK       I    between atoms: C8_10  and  N2_12 
REMARK    6  A    between atoms: N3_20  and  C16_22 
ROOT
HETATM    1  N1  UNL     1     170.856  32.038 182.846  1.00  0.00    -0.393 N 
HETATM    2  C5  UNL     1     171.577  30.896 182.329  1.00  0.00     0.122 C 
HETATM    3  C6  UNL     1     171.006  30.603 180.932  1.00  0.00     0.034 C 
HETATM    4  C7  UNL     1     171.502  31.789 180.089  1.00  0.00     0.084 C 
HETATM    5  C14 UNL     1     170.654  32.949 180.568  1.00  0.00     0.058 C 
HETATM    6  C15 UNL     1     170.899  33.180 182.032  1.00  0.00     0.059 C 
ENDROOT
BRANCH   1   7
HETATM    7  C4  UNL     1     169.608  31.672 183.441  1.00  0.00     0.122 C 
BRANCH   7   8
HETATM    8  C3  UNL     1     168.786  32.834 183.927  1.00  0.00     0.029 C 
BRANCH   8   9
HETATM    9  C2  UNL     1     167.570  32.483 184.704  1.00  0.00     0.104 C 
BRANCH   9  10
HETATM   10  C1  UNL     1     166.848  31.283 184.296  1.00  0.00     0.217 C 
HETATM   11  O1  UNL     1     166.092  31.276 183.296  1.00  0.00    -0.274 OA
HETATM   12  N3  UNL     1     166.981  30.074 185.025  1.00  0.00    -0.356 N 
ATOM     13  H3  UNL     1     167.592  30.062 185.842  1.00  0.00     0.162 HD
BRANCH  12  14
HETATM   14  C16 UNL     1     166.288  28.859 184.660  1.00  0.00     0.084 C 
HETATM   15  C17 UNL     1     165.375  28.373 185.751  1.00  0.00     0.025 C 
HETATM   16  C18 UNL     1     165.732  27.023 186.296  1.00  0.00     0.002 C 
HETATM   17  C19 UNL     1     165.318  25.891 185.406  1.00  0.00     0.000 C 
HETATM   18  C20 UNL     1     166.344  25.521 184.375  1.00  0.00     0.000 C 
HETATM   19  C21 UNL     1     166.601  26.694 183.456  1.00  0.00     0.002 C 
HETATM   20  C22 UNL     1     167.278  27.835 184.202  1.00  0.00     0.025 C 
ENDBRANCH  12  14
ENDBRANCH   9  10
ENDBRANCH   8   9
ENDBRANCH   7   8
ENDBRANCH   1   7
BRANCH   4  21
HETATM   21  C8  UNL     1     171.346  31.533 178.658  1.00  0.00     0.224 C 
HETATM   22  O2  UNL     1     170.173  31.733 178.178  1.00  0.00    -0.273 OA
HETATM   23  N2  UNL     1     172.357  31.098 177.780  1.00  0.00    -0.352 N 
HETATM   24  C9  UNL     1     173.683  30.833 178.265  1.00  0.00     0.125 C 
HETATM   25  C13 UNL     1     172.082  30.914 176.379  1.00  0.00     0.125 C 
HETATM   26  C10 UNL     1     174.111  29.482 177.675  1.00  0.00     0.020 C 
HETATM   27  C11 UNL     1     174.133  29.492 176.182  1.00  0.00     0.003 C 
HETATM   28  C12 UNL     1     173.321  30.607 175.583  1.00  0.00     0.020 C 
ENDBRANCH   4  21
TORSDOF 6
ENDMDL
