MODEL 1
REMARK VINA RESULT: -9.341766150      0.000      0.000
REMARK  5 active torsions:
REMARK  status: ('A' for Active; 'I' for Inactive)
REMARK    1  A    between atoms: C5_6  and  C6_7 
REMARK    2  A    between atoms: C6_7  and  C7_8 
REMARK    3  A    between atoms: C7_8  and  C8_9 
REMARK    4  A    between atoms: C8_9  and  C9_10 
REMARK    5  A    between atoms: C9_10  and  C10_11 
ROOT
HETATM    1  C1  UNL     1     112.837 131.741 180.971  1.00  0.00     0.013 C 
HETATM    2  C2  UNL     1     113.852 131.120 180.843  1.00  0.00    -0.098 C 
HETATM    3  C3  UNL     1     115.080 130.340 180.684  1.00  0.00     0.195 C 
HETATM    4  C4  UNL     1     115.048 129.171 181.593  1.00  0.00     0.155 C 
HETATM    5  O1  UNL     1     114.152 129.020 182.393  1.00  0.00    -0.296 OA
HETATM    6  C5  UNL     1     116.136 128.134 181.550  1.00  0.00     0.080 C 
HETATM    7  C12 UNL     1     116.187 127.606 180.158  1.00  0.00     0.099 C 
HETATM    8  C13 UNL     1     117.607 127.620 179.609  1.00  0.00     0.050 C 
HETATM    9  C14 UNL     1     117.737 126.682 178.427  1.00  0.00     0.082 C 
HETATM   10  C15 UNL     1     119.164 126.401 178.111  1.00  0.00     0.032 C 
HETATM   11  N1  UNL     1     117.036 127.215 177.261  1.00  0.00    -0.355 N 
ATOM     12  H1  UNL     1     117.633 127.369 176.449  1.00  0.00     0.162 HD
HETATM   13  C16 UNL     1     115.680 127.556 177.056  1.00  0.00     0.240 C 
HETATM   14  O2  UNL     1     115.328 127.695 175.873  1.00  0.00    -0.271 OA
HETATM   15  C17 UNL     1     114.655 127.762 178.087  1.00  0.00     0.173 C 
HETATM   16  C18 UNL     1     113.382 128.365 177.664  1.00  0.00     0.042 C 
HETATM   17  N2  UNL     1     115.330 128.352 179.217  1.00  0.00    -0.355 N 
HETATM   18  C19 UNL     1     115.121 129.747 179.300  1.00  0.00     0.100 C 
HETATM   19  S1  UNL     1     114.957 130.637 177.955  1.00  0.00    -0.064 SA
ENDROOT
BRANCH   6  20
HETATM   20  C6  UNL     1     115.715 127.014 182.482  1.00  0.00     0.014 C 
BRANCH  20  21
HETATM   21  C7  UNL     1     115.303 125.751 181.837  1.00  0.00     0.001 C 
BRANCH  21  22
HETATM   22  C8  UNL     1     114.607 124.756 182.696  1.00  0.00     0.000 C 
BRANCH  22  23
HETATM   23  C9  UNL     1     113.197 125.174 183.057  1.00  0.00    -0.000 C 
BRANCH  23  24
HETATM   24  C10 UNL     1     112.318 125.292 181.835  1.00  0.00    -0.005 C 
HETATM   25  C11 UNL     1     110.906 125.576 182.344  1.00  0.00     0.005 C 
ENDBRANCH  23  24
ENDBRANCH  22  23
ENDBRANCH  21  22
ENDBRANCH  20  21
ENDBRANCH   6  20
TORSDOF 5
ENDMDL
MODEL 2
REMARK VINA RESULT: -8.718826065      2.576      5.325
REMARK  5 active torsions:
REMARK  status: ('A' for Active; 'I' for Inactive)
REMARK    1  A    between atoms: C5_6  and  C6_7 
REMARK    2  A    between atoms: C6_7  and  C7_8 
REMARK    3  A    between atoms: C7_8  and  C8_9 
REMARK    4  A    between atoms: C8_9  and  C9_10 
REMARK    5  A    between atoms: C9_10  and  C10_11 
ROOT
HETATM    1  C1  UNL     1     113.685 133.418 179.203  1.00  0.00     0.013 C 
HETATM    2  C2  UNL     1     113.792 132.236 179.047  1.00  0.00    -0.098 C 
HETATM    3  C3  UNL     1     113.949 130.794 178.858  1.00  0.00     0.195 C 
HETATM    4  C4  UNL     1     114.915 130.537 177.764  1.00  0.00     0.155 C 
HETATM    5  O1  UNL     1     115.375 131.443 177.106  1.00  0.00    -0.296 OA
HETATM    6  C5  UNL     1     115.352 129.136 177.437  1.00  0.00     0.080 C 
HETATM    7  C12 UNL     1     115.931 128.553 178.679  1.00  0.00     0.099 C 
HETATM    8  C13 UNL     1     115.333 127.186 178.984  1.00  0.00     0.050 C 
HETATM    9  C14 UNL     1     116.221 126.410 179.934  1.00  0.00     0.082 C 
HETATM   10  C15 UNL     1     115.860 124.966 179.957  1.00  0.00     0.032 C 
HETATM   11  N1  UNL     1     116.173 126.984 181.277  1.00  0.00    -0.355 N 
ATOM     12  H1  UNL     1     115.846 126.340 181.995  1.00  0.00     0.162 HD
HETATM   13  C16 UNL     1     116.499 128.272 181.759  1.00  0.00     0.240 C 
HETATM   14  O2  UNL     1     116.647 128.371 182.987  1.00  0.00    -0.271 OA
HETATM   15  C17 UNL     1     116.678 129.494 180.964  1.00  0.00     0.173 C 
HETATM   16  C18 UNL     1     116.755 130.769 181.692  1.00  0.00     0.042 C 
HETATM   17  N2  UNL     1     115.743 129.406 179.869  1.00  0.00    -0.355 N 
HETATM   18  C19 UNL     1     114.590 130.194 180.082  1.00  0.00     0.100 C 
HETATM   19  S1  UNL     1     114.002 130.406 181.577  1.00  0.00    -0.064 SA
ENDROOT
BRANCH   6  20
HETATM   20  C6  UNL     1     116.446 129.247 176.393  1.00  0.00     0.014 C 
BRANCH  20  21
HETATM   21  C7  UNL     1     116.203 128.542 175.118  1.00  0.00     0.001 C 
BRANCH  21  22
HETATM   22  C8  UNL     1     117.185 127.492 174.736  1.00  0.00     0.000 C 
BRANCH  22  23
HETATM   23  C9  UNL     1     117.289 126.382 175.761  1.00  0.00    -0.000 C 
BRANCH  23  24
HETATM   24  C10 UNL     1     118.724 126.110 176.146  1.00  0.00    -0.005 C 
HETATM   25  C11 UNL     1     118.851 126.478 177.624  1.00  0.00     0.005 C 
ENDBRANCH  23  24
ENDBRANCH  22  23
ENDBRANCH  21  22
ENDBRANCH  20  21
ENDBRANCH   6  20
TORSDOF 5
ENDMDL
MODEL 3
REMARK VINA RESULT: -8.639093463      2.586      5.701
REMARK  5 active torsions:
REMARK  status: ('A' for Active; 'I' for Inactive)
REMARK    1  A    between atoms: C5_6  and  C6_7 
REMARK    2  A    between atoms: C6_7  and  C7_8 
REMARK    3  A    between atoms: C7_8  and  C8_9 
REMARK    4  A    between atoms: C8_9  and  C9_10 
REMARK    5  A    between atoms: C9_10  and  C10_11 
ROOT
HETATM    1  C1  UNL     1     118.047 129.685 182.491  1.00  0.00     0.013 C 
HETATM    2  C2  UNL     1     117.309 129.322 181.621  1.00  0.00    -0.098 C 
HETATM    3  C3  UNL     1     116.414 128.854 180.562  1.00  0.00     0.195 C 
HETATM    4  C4  UNL     1     117.167 127.998 179.616  1.00  0.00     0.155 C 
HETATM    5  O1  UNL     1     118.364 127.850 179.718  1.00  0.00    -0.296 OA
HETATM    6  C5  UNL     1     116.462 127.287 178.494  1.00  0.00     0.080 C 
HETATM    7  C12 UNL     1     115.404 126.437 179.107  1.00  0.00     0.099 C 
HETATM    8  C13 UNL     1     114.056 126.653 178.431  1.00  0.00     0.050 C 
HETATM    9  C14 UNL     1     113.120 125.497 178.715  1.00  0.00     0.082 C 
HETATM   10  C15 UNL     1     111.956 125.501 177.788  1.00  0.00     0.032 C 
HETATM   11  N1  UNL     1     112.682 125.512 180.108  1.00  0.00    -0.355 N 
ATOM     12  H1  UNL     1     111.672 125.586 180.228  1.00  0.00     0.162 HD
HETATM   13  C16 UNL     1     113.404 125.442 181.321  1.00  0.00     0.240 C 
HETATM   14  O2  UNL     1     112.741 125.171 182.334  1.00  0.00    -0.271 OA
HETATM   15  C17 UNL     1     114.846 125.656 181.503  1.00  0.00     0.173 C 
HETATM   16  C18 UNL     1     115.339 125.793 182.882  1.00  0.00     0.042 C 
HETATM   17  N2  UNL     1     115.228 126.672 180.554  1.00  0.00    -0.355 N 
HETATM   18  C19 UNL     1     115.370 127.943 181.154  1.00  0.00     0.100 C 
HETATM   19  S1  UNL     1     114.430 128.375 182.401  1.00  0.00    -0.064 SA
ENDROOT
BRANCH   6  20
HETATM   20  C6  UNL     1     117.486 126.387 177.830  1.00  0.00     0.014 C 
BRANCH  20  21
HETATM   21  C7  UNL     1     117.820 126.707 176.426  1.00  0.00     0.001 C 
BRANCH  21  22
HETATM   22  C8  UNL     1     116.684 127.047 175.529  1.00  0.00     0.000 C 
BRANCH  22  23
HETATM   23  C9  UNL     1     116.766 128.456 174.981  1.00  0.00    -0.000 C 
BRANCH  23  24
HETATM   24  C10 UNL     1     116.021 129.440 175.852  1.00  0.00    -0.005 C 
HETATM   25  C11 UNL     1     116.042 130.775 175.110  1.00  0.00     0.005 C 
ENDBRANCH  23  24
ENDBRANCH  22  23
ENDBRANCH  21  22
ENDBRANCH  20  21
ENDBRANCH   6  20
TORSDOF 5
ENDMDL
MODEL 4
REMARK VINA RESULT: -8.532369788      2.469      5.242
REMARK  5 active torsions:
REMARK  status: ('A' for Active; 'I' for Inactive)
REMARK    1  A    between atoms: C5_6  and  C6_7 
REMARK    2  A    between atoms: C6_7  and  C7_8 
REMARK    3  A    between atoms: C7_8  and  C8_9 
REMARK    4  A    between atoms: C8_9  and  C9_10 
REMARK    5  A    between atoms: C9_10  and  C10_11 
ROOT
HETATM    1  C1  UNL     1     115.726 127.429 182.949  1.00  0.00     0.013 C 
HETATM    2  C2  UNL     1     115.929 127.734 181.809  1.00  0.00    -0.098 C 
HETATM    3  C3  UNL     1     116.152 128.110 180.413  1.00  0.00     0.195 C 
HETATM    4  C4  UNL     1     115.322 127.258 179.530  1.00  0.00     0.155 C 
HETATM    5  O1  UNL     1     114.671 126.339 179.973  1.00  0.00    -0.296 OA
HETATM    6  C5  UNL     1     115.269 127.508 178.048  1.00  0.00     0.080 C 
HETATM    7  C12 UNL     1     114.813 128.914 177.855  1.00  0.00     0.099 C 
HETATM    8  C13 UNL     1     115.728 129.669 176.901  1.00  0.00     0.050 C 
HETATM    9  C14 UNL     1     115.034 130.896 176.348  1.00  0.00     0.082 C 
HETATM   10  C15 UNL     1     115.750 131.436 175.159  1.00  0.00     0.032 C 
HETATM   11  N1  UNL     1     114.886 131.920 177.380  1.00  0.00    -0.355 N 
ATOM     12  H1  UNL     1     115.341 132.805 177.159  1.00  0.00     0.162 HD
HETATM   13  C16 UNL     1     114.226 131.904 178.630  1.00  0.00     0.240 C 
HETATM   14  O2  UNL     1     114.014 133.012 179.147  1.00  0.00    -0.271 OA
HETATM   15  C17 UNL     1     113.770 130.722 179.373  1.00  0.00     0.173 C 
HETATM   16  C18 UNL     1     113.346 130.922 180.766  1.00  0.00     0.042 C 
HETATM   17  N2  UNL     1     114.735 129.682 179.112  1.00  0.00    -0.355 N 
HETATM   18  C19 UNL     1     115.642 129.509 180.182  1.00  0.00     0.100 C 
HETATM   19  S1  UNL     1     116.103 130.774 181.084  1.00  0.00    -0.064 SA
ENDROOT
BRANCH   6  20
HETATM   20  C6  UNL     1     114.220 126.572 177.479  1.00  0.00     0.014 C 
BRANCH  20  21
HETATM   21  C7  UNL     1     114.669 125.672 176.398  1.00  0.00     0.001 C 
BRANCH  21  22
HETATM   22  C8  UNL     1     115.660 126.223 175.436  1.00  0.00     0.000 C 
BRANCH  22  23
HETATM   23  C9  UNL     1     117.066 125.720 175.685  1.00  0.00    -0.000 C 
BRANCH  23  24
HETATM   24  C10 UNL     1     118.016 126.850 176.005  1.00  0.00    -0.005 C 
HETATM   25  C11 UNL     1     118.719 126.467 177.306  1.00  0.00     0.005 C 
ENDBRANCH  23  24
ENDBRANCH  22  23
ENDBRANCH  21  22
ENDBRANCH  20  21
ENDBRANCH   6  20
TORSDOF 5
ENDMDL
MODEL 5
REMARK VINA RESULT: -8.479077373      2.050      4.798
REMARK  5 active torsions:
REMARK  status: ('A' for Active; 'I' for Inactive)
REMARK    1  A    between atoms: C5_6  and  C6_7 
REMARK    2  A    between atoms: C6_7  and  C7_8 
REMARK    3  A    between atoms: C7_8  and  C8_9 
REMARK    4  A    between atoms: C8_9  and  C9_10 
REMARK    5  A    between atoms: C9_10  and  C10_11 
ROOT
HETATM    1  C1  UNL     1     115.000 124.598 182.059  1.00  0.00     0.013 C 
HETATM    2  C2  UNL     1     114.836 125.568 181.377  1.00  0.00    -0.098 C 
HETATM    3  C3  UNL     1     114.660 126.757 180.542  1.00  0.00     0.195 C 
HETATM    4  C4  UNL     1     115.421 127.889 181.122  1.00  0.00     0.155 C 
HETATM    5  O1  UNL     1     115.986 127.787 182.187  1.00  0.00    -0.296 OA
HETATM    6  C5  UNL     1     115.511 129.205 180.400  1.00  0.00     0.080 C 
HETATM    7  C12 UNL     1     116.088 128.931 179.054  1.00  0.00     0.099 C 
HETATM    8  C13 UNL     1     115.252 129.564 177.950  1.00  0.00     0.050 C 
HETATM    9  C14 UNL     1     116.055 129.693 176.673  1.00  0.00     0.082 C 
HETATM   10  C15 UNL     1     115.401 130.622 175.711  1.00  0.00     0.032 C 
HETATM   11  N1  UNL     1     116.282 128.383 176.066  1.00  0.00    -0.355 N 
ATOM     12  H1  UNL     1     115.908 128.290 175.122  1.00  0.00     0.162 HD
HETATM   13  C16 UNL     1     116.925 127.223 176.551  1.00  0.00     0.240 C 
HETATM   14  O2  UNL     1     117.228 126.372 175.699  1.00  0.00    -0.271 OA
HETATM   15  C17 UNL     1     117.270 126.921 177.947  1.00  0.00     0.173 C 
HETATM   16  C18 UNL     1     117.696 125.549 178.256  1.00  0.00     0.042 C 
HETATM   17  N2  UNL     1     116.220 127.492 178.755  1.00  0.00    -0.355 N 
HETATM   18  C19 UNL     1     115.292 126.522 179.195  1.00  0.00     0.100 C 
HETATM   19  S1  UNL     1     114.933 125.244 178.266  1.00  0.00    -0.064 SA
ENDROOT
BRANCH   6  20
HETATM   20  C6  UNL     1     116.480 130.072 181.180  1.00  0.00     0.014 C 
BRANCH  20  21
HETATM   21  C7  UNL     1     116.088 131.484 181.363  1.00  0.00     0.001 C 
BRANCH  21  22
HETATM   22  C8  UNL     1     115.031 132.008 180.458  1.00  0.00     0.000 C 
BRANCH  22  23
HETATM   23  C9  UNL     1     113.634 131.821 181.013  1.00  0.00    -0.000 C 
BRANCH  23  24
HETATM   24  C10 UNL     1     112.626 132.687 180.295  1.00  0.00    -0.005 C 
HETATM   25  C11 UNL     1     113.394 133.421 179.195  1.00  0.00     0.005 C 
ENDBRANCH  23  24
ENDBRANCH  22  23
ENDBRANCH  21  22
ENDBRANCH  20  21
ENDBRANCH   6  20
TORSDOF 5
ENDMDL
