MODEL 1
REMARK VINA RESULT: -6.040429457      0.000      0.000
REMARK  1 active torsions:
REMARK  status: ('A' for Active; 'I' for Inactive)
REMARK    1  A    between atoms: C12_12  and  N1_13 
ROOT
HETATM    1  C1  UNL     1      16.061 -39.371  -0.661  1.00  0.00     0.015 C 
HETATM    2  C2  UNL     1      15.742 -37.922  -0.254  1.00  0.00    -0.043 C 
HETATM    3  C3  UNL     1      17.120 -37.228  -0.343  1.00  0.00     0.015 C 
HETATM    4  C4  UNL     1      14.950 -37.323  -1.349  1.00  0.00     0.009 C 
HETATM    5  C5  UNL     1      13.822 -36.438  -0.800  1.00  0.00     0.002 C 
HETATM    6  C6  UNL     1      12.993 -37.408   0.017  1.00  0.00     0.010 C 
HETATM    7  C7  UNL     1      13.729 -37.817   1.307  1.00  0.00    -0.030 C 
HETATM    8  C8  UNL     1      13.261 -39.288   1.445  1.00  0.00     0.016 C 
HETATM    9  C9  UNL     1      15.191 -37.853   1.129  1.00  0.00     0.002 C 
HETATM   10  C10 UNL     1      15.975 -36.775   1.851  1.00  0.00     0.008 C 
HETATM   11  C11 UNL     1      15.562 -36.905   3.321  1.00  0.00     0.040 C 
HETATM   12  C12 UNL     1      14.172 -36.373   3.358  1.00  0.00     0.131 C 
HETATM   13  C13 UNL     1      14.250 -34.882   3.015  1.00  0.00     0.039 C 
HETATM   14  C14 UNL     1      13.011 -34.268   3.663  1.00  0.00     0.002 C 
HETATM   15  C15 UNL     1      11.846 -35.118   3.285  1.00  0.00     0.001 C 
HETATM   16  C16 UNL     1      12.111 -36.082   2.154  1.00  0.00     0.012 C 
HETATM   17  C17 UNL     1      13.194 -37.107   2.503  1.00  0.00    -0.003 C 
HETATM   18  C18 UNL     1      12.475 -38.062   3.480  1.00  0.00     0.018 C 
ENDROOT
BRANCH  12  19
HETATM   19  N1  UNL     1      13.795 -36.382   4.784  1.00  0.00    -0.070 N 
ATOM     20  H13 UNL     1      12.903 -35.926   4.978  1.00  0.00     0.275 HD
ATOM     21  H12 UNL     1      13.534 -37.304   5.135  1.00  0.00     0.275 HD
ATOM     22  H11 UNL     1      14.588 -35.964   5.272  1.00  0.00     0.275 HD
ENDBRANCH  12  19
TORSDOF 1
ENDMDL
MODEL 2
REMARK VINA RESULT: -5.879551179      1.991      3.777
REMARK  1 active torsions:
REMARK  status: ('A' for Active; 'I' for Inactive)
REMARK    1  A    between atoms: C12_12  and  N1_13 
ROOT
HETATM    1  C1  UNL     1      17.505 -40.114   3.090  1.00  0.00     0.015 C 
HETATM    2  C2  UNL     1      16.766 -39.109   3.990  1.00  0.00    -0.043 C 
HETATM    3  C3  UNL     1      16.337 -39.976   5.195  1.00  0.00     0.015 C 
HETATM    4  C4  UNL     1      17.780 -38.183   4.537  1.00  0.00     0.009 C 
HETATM    5  C5  UNL     1      17.256 -36.740   4.567  1.00  0.00     0.002 C 
HETATM    6  C6  UNL     1      16.970 -36.449   3.107  1.00  0.00     0.010 C 
HETATM    7  C7  UNL     1      15.731 -37.225   2.620  1.00  0.00    -0.030 C 
HETATM    8  C8  UNL     1      16.145 -37.528   1.157  1.00  0.00     0.016 C 
HETATM    9  C9  UNL     1      15.583 -38.525   3.296  1.00  0.00     0.002 C 
HETATM   10  C10 UNL     1      14.418 -38.645   4.258  1.00  0.00     0.008 C 
HETATM   11  C11 UNL     1      13.184 -38.274   3.430  1.00  0.00     0.040 C 
HETATM   12  C12 UNL     1      13.298 -36.800   3.245  1.00  0.00     0.131 C 
HETATM   13  C13 UNL     1      13.155 -36.158   4.628  1.00  0.00     0.039 C 
HETATM   14  C14 UNL     1      12.645 -34.746   4.351  1.00  0.00     0.002 C 
HETATM   15  C15 UNL     1      13.507 -34.165   3.282  1.00  0.00     0.001 C 
HETATM   16  C16 UNL     1      14.786 -34.924   3.023  1.00  0.00     0.012 C 
HETATM   17  C17 UNL     1      14.528 -36.351   2.528  1.00  0.00    -0.003 C 
HETATM   18  C18 UNL     1      14.064 -36.140   1.070  1.00  0.00     0.018 C 
ENDROOT
BRANCH  12  19
HETATM   19  N1  UNL     1      12.061 -36.403   2.547  1.00  0.00    -0.070 N 
ATOM     20  H13 UNL     1      12.127 -35.505   2.069  1.00  0.00     0.275 HD
ATOM     21  H12 UNL     1      11.857 -36.963   1.719  1.00  0.00     0.275 HD
ATOM     22  H11 UNL     1      11.330 -36.440   3.260  1.00  0.00     0.275 HD
ENDBRANCH  12  19
TORSDOF 1
ENDMDL
MODEL 3
REMARK VINA RESULT: -5.784463175      1.742      3.181
REMARK  1 active torsions:
REMARK  status: ('A' for Active; 'I' for Inactive)
REMARK    1  A    between atoms: C12_12  and  N1_13 
ROOT
HETATM    1  C1  UNL     1      14.946 -40.991   0.349  1.00  0.00     0.015 C 
HETATM    2  C2  UNL     1      13.757 -40.146   0.836  1.00  0.00    -0.043 C 
HETATM    3  C3  UNL     1      12.857 -40.061  -0.418  1.00  0.00     0.015 C 
HETATM    4  C4  UNL     1      12.991 -40.976   1.790  1.00  0.00     0.009 C 
HETATM    5  C5  UNL     1      12.504 -40.144   2.985  1.00  0.00     0.002 C 
HETATM    6  C6  UNL     1      13.794 -39.641   3.600  1.00  0.00     0.010 C 
HETATM    7  C7  UNL     1      14.449 -38.564   2.712  1.00  0.00    -0.030 C 
HETATM    8  C8  UNL     1      15.948 -38.873   2.954  1.00  0.00     0.016 C 
HETATM    9  C9  UNL     1      14.196 -38.792   1.279  1.00  0.00     0.002 C 
HETATM   10  C10 UNL     1      13.274 -37.798   0.601  1.00  0.00     0.008 C 
HETATM   11  C11 UNL     1      13.904 -36.428   0.872  1.00  0.00     0.040 C 
HETATM   12  C12 UNL     1      13.636 -36.183   2.317  1.00  0.00     0.131 C 
HETATM   13  C13 UNL     1      12.119 -36.050   2.479  1.00  0.00     0.039 C 
HETATM   14  C14 UNL     1      11.934 -35.205   3.737  1.00  0.00     0.002 C 
HETATM   15  C15 UNL     1      12.806 -35.789   4.796  1.00  0.00     0.001 C 
HETATM   16  C16 UNL     1      13.330 -37.171   4.488  1.00  0.00     0.012 C 
HETATM   17  C17 UNL     1      14.226 -37.192   3.245  1.00  0.00    -0.003 C 
HETATM   18  C18 UNL     1      15.533 -36.534   3.742  1.00  0.00     0.018 C 
ENDROOT
BRANCH  12  19
HETATM   19  N1  UNL     1      14.134 -34.819   2.574  1.00  0.00    -0.070 N 
ATOM     20  H13 UNL     1      13.669 -34.350   3.351  1.00  0.00     0.275 HD
ATOM     21  H12 UNL     1      15.076 -34.790   2.966  1.00  0.00     0.275 HD
ATOM     22  H11 UNL     1      14.043 -34.330   1.682  1.00  0.00     0.275 HD
ENDBRANCH  12  19
TORSDOF 1
ENDMDL
MODEL 4
REMARK VINA RESULT: -5.767054887      2.408      4.975
REMARK  1 active torsions:
REMARK  status: ('A' for Active; 'I' for Inactive)
REMARK    1  A    between atoms: C12_12  and  N1_13 
ROOT
HETATM    1  C1  UNL     1      11.869 -35.692   2.796  1.00  0.00     0.015 C 
HETATM    2  C2  UNL     1      12.598 -36.581   3.818  1.00  0.00    -0.043 C 
HETATM    3  C3  UNL     1      13.027 -35.573   4.907  1.00  0.00     0.015 C 
HETATM    4  C4  UNL     1      11.576 -37.425   4.473  1.00  0.00     0.009 C 
HETATM    5  C5  UNL     1      12.089 -38.856   4.686  1.00  0.00     0.002 C 
HETATM    6  C6  UNL     1      12.379 -39.329   3.276  1.00  0.00     0.010 C 
HETATM    7  C7  UNL     1      13.626 -38.629   2.701  1.00  0.00    -0.030 C 
HETATM    8  C8  UNL     1      13.219 -38.509   1.210  1.00  0.00     0.016 C 
HETATM    9  C9  UNL     1      13.779 -37.255   3.209  1.00  0.00     0.002 C 
HETATM   10  C10 UNL     1      14.941 -37.022   4.154  1.00  0.00     0.008 C 
HETATM   11  C11 UNL     1      16.176 -37.502   3.385  1.00  0.00     0.040 C 
HETATM   12  C12 UNL     1      16.053 -38.987   3.385  1.00  0.00     0.131 C 
HETATM   13  C13 UNL     1      16.186 -39.451   4.839  1.00  0.00     0.039 C 
HETATM   14  C14 UNL     1      16.687 -40.890   4.744  1.00  0.00     0.002 C 
HETATM   15  C15 UNL     1      15.826 -41.595   3.752  1.00  0.00     0.001 C 
HETATM   16  C16 UNL     1      14.553 -40.866   3.394  1.00  0.00     0.012 C 
HETATM   17  C17 UNL     1      14.823 -39.515   2.725  1.00  0.00    -0.003 C 
HETATM   18  C18 UNL     1      15.291 -39.910   1.307  1.00  0.00     0.018 C 
ENDROOT
BRANCH  12  19
HETATM   19  N1  UNL     1      17.290 -39.476   2.749  1.00  0.00    -0.070 N 
ATOM     20  H13 UNL     1      17.910 -38.732   2.428  1.00  0.00     0.275 HD
ATOM     21  H12 UNL     1      17.948 -39.903   3.401  1.00  0.00     0.275 HD
ATOM     22  H11 UNL     1      16.978 -40.103   2.007  1.00  0.00     0.275 HD
ENDBRANCH  12  19
TORSDOF 1
ENDMDL
MODEL 5
REMARK VINA RESULT: -5.681801647      1.420      2.373
REMARK  1 active torsions:
REMARK  status: ('A' for Active; 'I' for Inactive)
REMARK    1  A    between atoms: C12_12  and  N1_13 
ROOT
HETATM    1  C1  UNL     1      15.735 -37.690  -1.972  1.00  0.00     0.015 C 
HETATM    2  C2  UNL     1      14.499 -37.344  -1.125  1.00  0.00    -0.043 C 
HETATM    3  C3  UNL     1      14.208 -35.880  -1.522  1.00  0.00     0.015 C 
HETATM    4  C4  UNL     1      13.362 -38.113  -1.674  1.00  0.00     0.009 C 
HETATM    5  C5  UNL     1      12.469 -38.663  -0.553  1.00  0.00     0.002 C 
HETATM    6  C6  UNL     1      13.412 -39.552   0.232  1.00  0.00     0.010 C 
HETATM    7  C7  UNL     1      14.434 -38.714   1.025  1.00  0.00    -0.030 C 
HETATM    8  C8  UNL     1      15.678 -39.634   0.943  1.00  0.00     0.016 C 
HETATM    9  C9  UNL     1      14.787 -37.462   0.333  1.00  0.00     0.002 C 
HETATM   10  C10 UNL     1      14.286 -36.184   0.974  1.00  0.00     0.008 C 
HETATM   11  C11 UNL     1      14.819 -36.228   2.410  1.00  0.00     0.040 C 
HETATM   12  C12 UNL     1      13.989 -37.271   3.076  1.00  0.00     0.131 C 
HETATM   13  C13 UNL     1      12.551 -36.744   3.118  1.00  0.00     0.039 C 
HETATM   14  C14 UNL     1      11.906 -37.467   4.299  1.00  0.00     0.002 C 
HETATM   15  C15 UNL     1      12.227 -38.917   4.160  1.00  0.00     0.001 C 
HETATM   16  C16 UNL     1      12.756 -39.317   2.804  1.00  0.00     0.012 C 
HETATM   17  C17 UNL     1      14.084 -38.631   2.470  1.00  0.00    -0.003 C 
HETATM   18  C18 UNL     1      15.100 -39.376   3.364  1.00  0.00     0.018 C 
ENDROOT
BRANCH  12  19
HETATM   19  N1  UNL     1      14.408 -37.251   4.490  1.00  0.00    -0.070 N 
ATOM     20  H13 UNL     1      15.381 -37.521   4.635  1.00  0.00     0.275 HD
ATOM     21  H12 UNL     1      14.487 -36.313   4.883  1.00  0.00     0.275 HD
ATOM     22  H11 UNL     1      13.736 -37.847   4.975  1.00  0.00     0.275 HD
ENDBRANCH  12  19
TORSDOF 1
ENDMDL
