MODEL 1
REMARK VINA RESULT: -6.203404870      0.000      0.000
REMARK  0 active torsions:
REMARK  status: ('A' for Active; 'I' for Inactive)
ROOT
HETATM    1  C1  UNL     1      11.877 -36.144   5.154  1.00  0.00     0.015 C 
HETATM    2  C2  UNL     1      12.638 -36.087   3.804  1.00  0.00    -0.043 C 
HETATM    3  C3  UNL     1      11.877 -34.983   3.091  1.00  0.00     0.015 C 
HETATM    4  C4  UNL     1      14.018 -35.651   4.197  1.00  0.00     0.009 C 
HETATM    5  C5  UNL     1      15.058 -36.408   3.447  1.00  0.00     0.002 C 
HETATM    6  C6  UNL     1      14.579 -36.792   2.069  1.00  0.00     0.012 C 
HETATM    7  C7  UNL     1      13.417 -37.745   2.024  1.00  0.00    -0.015 C 
HETATM    8  C8  UNL     1      12.606 -37.249   0.797  1.00  0.00     0.018 C 
HETATM    9  C9  UNL     1      12.530 -37.424   3.183  1.00  0.00     0.005 C 
HETATM   10  C10 UNL     1      12.671 -38.415   4.324  1.00  0.00     0.026 C 
HETATM   11  C11 UNL     1      12.307 -39.750   3.649  1.00  0.00     0.119 C 
HETATM   12  N1  UNL     1      13.293 -40.116   2.712  1.00  0.00    -0.395 N 
HETATM   13  C12 UNL     1      13.167 -41.477   2.427  1.00  0.00     0.021 C 
HETATM   14  C13 UNL     1      11.979 -42.137   3.166  1.00  0.00     0.038 C 
HETATM   15  C14 UNL     1      14.350 -42.340   2.892  1.00  0.00     0.038 C 
HETATM   16  C15 UNL     1      12.809 -41.816   0.991  1.00  0.00     0.030 C 
HETATM   17  C16 UNL     1      13.611 -41.033   0.058  1.00  0.00     0.005 C 
HETATM   18  C17 UNL     1      13.396 -39.566   0.322  1.00  0.00     0.031 C 
HETATM   19  C18 UNL     1      13.749 -39.176   1.775  1.00  0.00     0.032 C 
HETATM   20  C19 UNL     1      15.284 -39.329   1.689  1.00  0.00     0.039 C 
ENDROOT
TORSDOF 0
ENDMDL
MODEL 2
REMARK VINA RESULT: -6.000692674      2.748      5.327
REMARK  0 active torsions:
REMARK  status: ('A' for Active; 'I' for Inactive)
ROOT
HETATM    1  C1  UNL     1      16.683 -41.082   5.706  1.00  0.00     0.015 C 
HETATM    2  C2  UNL     1      17.498 -39.973   4.991  1.00  0.00    -0.043 C 
HETATM    3  C3  UNL     1      18.528 -39.640   6.057  1.00  0.00     0.015 C 
HETATM    4  C4  UNL     1      18.112 -40.688   3.825  1.00  0.00     0.009 C 
HETATM    5  C5  UNL     1      18.057 -39.854   2.591  1.00  0.00     0.002 C 
HETATM    6  C6  UNL     1      18.146 -38.382   2.912  1.00  0.00     0.012 C 
HETATM    7  C7  UNL     1      17.004 -37.819   3.711  1.00  0.00    -0.015 C 
HETATM    8  C8  UNL     1      17.700 -36.777   4.628  1.00  0.00     0.018 C 
HETATM    9  C9  UNL     1      16.558 -38.880   4.664  1.00  0.00     0.005 C 
HETATM   10  C10 UNL     1      15.276 -39.563   4.227  1.00  0.00     0.026 C 
HETATM   11  C11 UNL     1      14.287 -38.386   4.143  1.00  0.00     0.119 C 
HETATM   12  N1  UNL     1      14.631 -37.525   3.084  1.00  0.00    -0.395 N 
HETATM   13  C12 UNL     1      13.529 -36.727   2.770  1.00  0.00     0.021 C 
HETATM   14  C13 UNL     1      12.316 -36.989   3.694  1.00  0.00     0.038 C 
HETATM   15  C14 UNL     1      12.930 -36.983   1.378  1.00  0.00     0.038 C 
HETATM   16  C15 UNL     1      13.714 -35.236   2.989  1.00  0.00     0.030 C 
HETATM   17  C16 UNL     1      15.003 -34.792   2.468  1.00  0.00     0.005 C 
HETATM   18  C17 UNL     1      16.107 -35.565   3.140  1.00  0.00     0.031 C 
HETATM   19  C18 UNL     1      15.957 -37.090   2.941  1.00  0.00     0.032 C 
HETATM   20  C19 UNL     1      16.299 -37.162   1.436  1.00  0.00     0.039 C 
ENDROOT
TORSDOF 0
ENDMDL
MODEL 3
REMARK VINA RESULT: -5.926041620      2.382      4.518
REMARK  0 active torsions:
REMARK  status: ('A' for Active; 'I' for Inactive)
ROOT
HETATM    1  C1  UNL     1      12.938 -34.410   3.711  1.00  0.00     0.015 C 
HETATM    2  C2  UNL     1      12.862 -35.944   3.493  1.00  0.00    -0.043 C 
HETATM    3  C3  UNL     1      11.889 -36.343   4.589  1.00  0.00     0.015 C 
HETATM    4  C4  UNL     1      12.252 -36.074   2.129  1.00  0.00     0.009 C 
HETATM    5  C5  UNL     1      12.923 -37.144   1.338  1.00  0.00     0.002 C 
HETATM    6  C6  UNL     1      13.427 -38.256   2.224  1.00  0.00     0.012 C 
HETATM    7  C7  UNL     1      14.508 -37.875   3.198  1.00  0.00    -0.015 C 
HETATM    8  C8  UNL     1      14.169 -38.732   4.448  1.00  0.00     0.018 C 
HETATM    9  C9  UNL     1      14.233 -36.476   3.647  1.00  0.00     0.005 C 
HETATM   10  C10 UNL     1      15.142 -35.457   2.988  1.00  0.00     0.026 C 
HETATM   11  C11 UNL     1      16.543 -35.949   3.399  1.00  0.00     0.119 C 
HETATM   12  N1  UNL     1      16.840 -37.174   2.774  1.00  0.00    -0.395 N 
HETATM   13  C12 UNL     1      18.219 -37.387   2.822  1.00  0.00     0.021 C 
HETATM   14  C13 UNL     1      18.973 -36.267   3.578  1.00  0.00     0.038 C 
HETATM   15  C14 UNL     1      18.917 -37.374   1.453  1.00  0.00     0.038 C 
HETATM   16  C15 UNL     1      18.668 -38.597   3.622  1.00  0.00     0.030 C 
HETATM   17  C16 UNL     1      17.846 -39.760   3.308  1.00  0.00     0.005 C 
HETATM   18  C17 UNL     1      16.402 -39.445   3.596  1.00  0.00     0.031 C 
HETATM   19  C18 UNL     1      15.903 -38.218   2.801  1.00  0.00     0.032 C 
HETATM   20  C19 UNL     1      15.883 -38.848   1.390  1.00  0.00     0.039 C 
ENDROOT
TORSDOF 0
ENDMDL
MODEL 4
REMARK VINA RESULT: -5.818687761      2.760      4.378
REMARK  0 active torsions:
REMARK  status: ('A' for Active; 'I' for Inactive)
ROOT
HETATM    1  C1  UNL     1      14.226 -34.623   2.956  1.00  0.00     0.015 C 
HETATM    2  C2  UNL     1      13.839 -36.096   2.664  1.00  0.00    -0.043 C 
HETATM    3  C3  UNL     1      12.357 -36.076   2.996  1.00  0.00     0.015 C 
HETATM    4  C4  UNL     1      14.079 -36.236   1.190  1.00  0.00     0.009 C 
HETATM    5  C5  UNL     1      14.727 -37.538   0.869  1.00  0.00     0.002 C 
HETATM    6  C6  UNL     1      14.305 -38.619   1.833  1.00  0.00     0.012 C 
HETATM    7  C7  UNL     1      14.722 -38.416   3.264  1.00  0.00    -0.015 C 
HETATM    8  C8  UNL     1      13.516 -38.983   4.062  1.00  0.00     0.018 C 
HETATM    9  C9  UNL     1      14.667 -36.949   3.542  1.00  0.00     0.005 C 
HETATM   10  C10 UNL     1      16.039 -36.302   3.561  1.00  0.00     0.026 C 
HETATM   11  C11 UNL     1      16.761 -37.091   4.669  1.00  0.00     0.119 C 
HETATM   12  N1  UNL     1      16.981 -38.422   4.267  1.00  0.00    -0.395 N 
HETATM   13  C12 UNL     1      17.968 -38.986   5.078  1.00  0.00     0.021 C 
HETATM   14  C13 UNL     1      18.465 -38.018   6.177  1.00  0.00     0.038 C 
HETATM   15  C14 UNL     1      19.273 -39.336   4.347  1.00  0.00     0.038 C 
HETATM   16  C15 UNL     1      17.523 -40.157   5.935  1.00  0.00     0.030 C 
HETATM   17  C16 UNL     1      16.715 -41.091   5.158  1.00  0.00     0.005 C 
HETATM   18  C17 UNL     1      15.521 -40.368   4.592  1.00  0.00     0.031 C 
HETATM   19  C18 UNL     1      15.929 -39.167   3.711  1.00  0.00     0.032 C 
HETATM   20  C19 UNL     1      16.510 -39.947   2.510  1.00  0.00     0.039 C 
ENDROOT
TORSDOF 0
ENDMDL
MODEL 5
REMARK VINA RESULT: -5.723403883      2.894      4.058
REMARK  0 active torsions:
REMARK  status: ('A' for Active; 'I' for Inactive)
ROOT
HETATM    1  C1  UNL     1      11.512 -35.251   2.976  1.00  0.00     0.015 C 
HETATM    2  C2  UNL     1      13.026 -35.244   3.315  1.00  0.00    -0.043 C 
HETATM    3  C3  UNL     1      13.206 -33.817   3.802  1.00  0.00     0.015 C 
HETATM    4  C4  UNL     1      13.138 -36.235   4.435  1.00  0.00     0.009 C 
HETATM    5  C5  UNL     1      14.342 -37.098   4.274  1.00  0.00     0.002 C 
HETATM    6  C6  UNL     1      15.466 -36.360   3.591  1.00  0.00     0.012 C 
HETATM    7  C7  UNL     1      15.201 -35.938   2.172  1.00  0.00    -0.015 C 
HETATM    8  C8  UNL     1      15.923 -34.566   2.076  1.00  0.00     0.018 C 
HETATM    9  C9  UNL     1      13.754 -35.580   2.074  1.00  0.00     0.005 C 
HETATM   10  C10 UNL     1      12.927 -36.654   1.394  1.00  0.00     0.026 C 
HETATM   11  C11 UNL     1      13.605 -36.772   0.016  1.00  0.00     0.119 C 
HETATM   12  N1  UNL     1      14.896 -37.319   0.145  1.00  0.00    -0.395 N 
HETATM   13  C12 UNL     1      15.316 -37.791  -1.100  1.00  0.00     0.021 C 
HETATM   14  C13 UNL     1      14.285 -37.524  -2.222  1.00  0.00     0.038 C 
HETATM   15  C14 UNL     1      15.489 -39.316  -1.181  1.00  0.00     0.038 C 
HETATM   16  C15 UNL     1      16.533 -37.099  -1.687  1.00  0.00     0.030 C 
HETATM   17  C16 UNL     1      17.572 -36.930  -0.676  1.00  0.00     0.005 C 
HETATM   18  C17 UNL     1      17.021 -36.137   0.480  1.00  0.00     0.031 C 
HETATM   19  C18 UNL     1      15.779 -36.808   1.108  1.00  0.00     0.032 C 
HETATM   20  C19 UNL     1      16.478 -38.016   1.771  1.00  0.00     0.039 C 
ENDROOT
TORSDOF 0
ENDMDL
