MODEL 1
REMARK VINA RESULT: -6.366162077      0.000      0.000
REMARK  0 active torsions:
REMARK  status: ('A' for Active; 'I' for Inactive)
ROOT
HETATM    1  C1  UNL     1      13.163 -33.403   3.746  1.00  0.00     0.014 C 
HETATM    2  C2  UNL     1      12.950 -34.617   3.316  1.00  0.00    -0.084 C 
HETATM    3  C3  UNL     1      11.586 -35.204   3.425  1.00  0.00     0.034 C 
HETATM    4  C4  UNL     1      11.711 -36.384   4.384  1.00  0.00     0.005 C 
HETATM    5  C5  UNL     1      13.133 -36.802   4.572  1.00  0.00     0.010 C 
HETATM    6  C6  UNL     1      13.896 -36.903   3.244  1.00  0.00    -0.032 C 
HETATM    7  C7  UNL     1      13.095 -37.800   2.357  1.00  0.00     0.016 C 
HETATM    8  C8  UNL     1      13.994 -35.488   2.706  1.00  0.00     0.022 C 
HETATM    9  C9  UNL     1      15.329 -34.860   2.935  1.00  0.00     0.010 C 
HETATM   10  C10 UNL     1      16.488 -35.638   2.411  1.00  0.00     0.012 C 
HETATM   11  C11 UNL     1      16.309 -37.107   2.557  1.00  0.00    -0.022 C 
HETATM   12  C12 UNL     1      16.094 -37.741   1.237  1.00  0.00     0.017 C 
HETATM   13  C13 UNL     1      15.253 -37.375   3.578  1.00  0.00     0.004 C 
HETATM   14  C14 UNL     1      15.401 -38.822   3.868  1.00  0.00     0.008 C 
HETATM   15  C15 UNL     1      16.878 -39.114   3.632  1.00  0.00     0.022 C 
HETATM   16  C16 UNL     1      17.504 -37.793   3.216  1.00  0.00     0.022 C 
HETATM   17  C17 UNL     1      18.628 -38.009   2.238  1.00  0.00     0.028 C 
HETATM   18  S1  UNL     1      17.974 -36.831   4.649  1.00  0.00    -0.086 SA
ENDROOT
TORSDOF 0
ENDMDL
MODEL 2
REMARK VINA RESULT: -6.246028802      2.656      4.140
REMARK  0 active torsions:
REMARK  status: ('A' for Active; 'I' for Inactive)
ROOT
HETATM    1  C1  UNL     1      11.366 -38.516   4.767  1.00  0.00     0.014 C 
HETATM    2  C2  UNL     1      12.262 -37.658   4.362  1.00  0.00    -0.084 C 
HETATM    3  C3  UNL     1      12.268 -36.281   4.929  1.00  0.00     0.034 C 
HETATM    4  C4  UNL     1      11.953 -35.345   3.766  1.00  0.00     0.005 C 
HETATM    5  C5  UNL     1      12.136 -36.016   2.445  1.00  0.00     0.010 C 
HETATM    6  C6  UNL     1      13.449 -36.806   2.364  1.00  0.00    -0.032 C 
HETATM    7  C7  UNL     1      14.543 -35.860   2.738  1.00  0.00     0.016 C 
HETATM    8  C8  UNL     1      13.311 -37.955   3.346  1.00  0.00     0.022 C 
HETATM    9  C9  UNL     1      12.983 -39.256   2.691  1.00  0.00     0.010 C 
HETATM   10  C10 UNL     1      13.928 -39.675   1.617  1.00  0.00     0.012 C 
HETATM   11  C11 UNL     1      14.429 -38.530   0.811  1.00  0.00    -0.022 C 
HETATM   12  C12 UNL     1      15.859 -38.275   1.098  1.00  0.00     0.017 C 
HETATM   13  C13 UNL     1      13.518 -37.361   0.998  1.00  0.00     0.004 C 
HETATM   14  C14 UNL     1      13.919 -36.425  -0.080  1.00  0.00     0.008 C 
HETATM   15  C15 UNL     1      14.430 -37.323  -1.201  1.00  0.00     0.022 C 
HETATM   16  C16 UNL     1      14.286 -38.748  -0.693  1.00  0.00     0.022 C 
HETATM   17  C17 UNL     1      15.381 -39.630  -1.233  1.00  0.00     0.028 C 
HETATM   18  S1  UNL     1      12.639 -39.374  -1.008  1.00  0.00    -0.086 SA
ENDROOT
TORSDOF 0
ENDMDL
MODEL 3
REMARK VINA RESULT: -6.236791450      2.276      3.600
REMARK  0 active torsions:
REMARK  status: ('A' for Active; 'I' for Inactive)
ROOT
HETATM    1  C1  UNL     1      10.790 -37.262   5.324  1.00  0.00     0.014 C 
HETATM    2  C2  UNL     1      11.861 -36.688   4.849  1.00  0.00    -0.084 C 
HETATM    3  C3  UNL     1      11.943 -35.201   4.814  1.00  0.00     0.034 C 
HETATM    4  C4  UNL     1      12.009 -34.818   3.339  1.00  0.00     0.005 C 
HETATM    5  C5  UNL     1      12.365 -35.982   2.475  1.00  0.00     0.010 C 
HETATM    6  C6  UNL     1      13.543 -36.791   3.035  1.00  0.00    -0.032 C 
HETATM    7  C7  UNL     1      14.658 -35.822   3.265  1.00  0.00     0.016 C 
HETATM    8  C8  UNL     1      13.046 -37.423   4.322  1.00  0.00     0.022 C 
HETATM    9  C9  UNL     1      12.682 -38.863   4.171  1.00  0.00     0.010 C 
HETATM   10  C10 UNL     1      13.760 -39.729   3.614  1.00  0.00     0.012 C 
HETATM   11  C11 UNL     1      14.572 -39.042   2.574  1.00  0.00    -0.022 C 
HETATM   12  C12 UNL     1      15.933 -38.753   3.080  1.00  0.00     0.017 C 
HETATM   13  C13 UNL     1      13.815 -37.863   2.058  1.00  0.00     0.004 C 
HETATM   14  C14 UNL     1      14.557 -37.475   0.834  1.00  0.00     0.008 C 
HETATM   15  C15 UNL     1      15.157 -38.777   0.317  1.00  0.00     0.022 C 
HETATM   16  C16 UNL     1      14.713 -39.857   1.291  1.00  0.00     0.022 C 
HETATM   17  C17 UNL     1      15.762 -40.929   1.426  1.00  0.00     0.028 C 
HETATM   18  S1  UNL     1      13.097 -40.486   0.852  1.00  0.00    -0.086 SA
ENDROOT
TORSDOF 0
ENDMDL
MODEL 4
REMARK VINA RESULT: -6.184224691      2.873      4.450
REMARK  0 active torsions:
REMARK  status: ('A' for Active; 'I' for Inactive)
ROOT
HETATM    1  C1  UNL     1      12.779 -32.066   7.357  1.00  0.00     0.014 C 
HETATM    2  C2  UNL     1      11.786 -32.833   7.000  1.00  0.00    -0.084 C 
HETATM    3  C3  UNL     1      10.649 -33.048   7.938  1.00  0.00     0.034 C 
HETATM    4  C4  UNL     1      10.670 -34.532   8.290  1.00  0.00     0.005 C 
HETATM    5  C5  UNL     1      11.500 -35.322   7.333  1.00  0.00     0.010 C 
HETATM    6  C6  UNL     1      11.213 -34.960   5.869  1.00  0.00    -0.032 C 
HETATM    7  C7  UNL     1       9.738 -35.098   5.674  1.00  0.00     0.016 C 
HETATM    8  C8  UNL     1      11.695 -33.532   5.687  1.00  0.00     0.022 C 
HETATM    9  C9  UNL     1      13.020 -33.438   5.005  1.00  0.00     0.010 C 
HETATM   10  C10 UNL     1      13.099 -34.127   3.686  1.00  0.00     0.012 C 
HETATM   11  C11 UNL     1      12.320 -35.393   3.649  1.00  0.00    -0.022 C 
HETATM   12  C12 UNL     1      11.123 -35.246   2.791  1.00  0.00     0.017 C 
HETATM   13  C13 UNL     1      12.056 -35.849   5.047  1.00  0.00     0.004 C 
HETATM   14  C14 UNL     1      11.584 -37.245   4.880  1.00  0.00     0.008 C 
HETATM   15  C15 UNL     1      12.279 -37.740   3.616  1.00  0.00     0.022 C 
HETATM   16  C16 UNL     1      13.128 -36.578   3.125  1.00  0.00     0.022 C 
HETATM   17  C17 UNL     1      13.216 -36.569   1.622  1.00  0.00     0.028 C 
HETATM   18  S1  UNL     1      14.722 -36.565   3.938  1.00  0.00    -0.086 SA
ENDROOT
TORSDOF 0
ENDMDL
MODEL 5
REMARK VINA RESULT: -5.896001400      1.599      2.924
REMARK  0 active torsions:
REMARK  status: ('A' for Active; 'I' for Inactive)
ROOT
HETATM    1  C1  UNL     1      11.509 -38.139   4.833  1.00  0.00     0.014 C 
HETATM    2  C2  UNL     1      12.196 -37.081   4.499  1.00  0.00    -0.084 C 
HETATM    3  C3  UNL     1      11.500 -35.774   4.344  1.00  0.00     0.034 C 
HETATM    4  C4  UNL     1      11.644 -35.393   2.874  1.00  0.00     0.005 C 
HETATM    5  C5  UNL     1      12.713 -36.184   2.194  1.00  0.00     0.010 C 
HETATM    6  C6  UNL     1      14.004 -36.260   3.021  1.00  0.00    -0.032 C 
HETATM    7  C7  UNL     1      14.385 -34.853   3.350  1.00  0.00     0.016 C 
HETATM    8  C8  UNL     1      13.666 -37.076   4.254  1.00  0.00     0.022 C 
HETATM    9  C9  UNL     1      14.139 -38.491   4.174  1.00  0.00     0.010 C 
HETATM   10  C10 UNL     1      15.594 -38.653   3.894  1.00  0.00     0.012 C 
HETATM   11  C11 UNL     1      16.117 -37.627   2.952  1.00  0.00    -0.022 C 
HETATM   12  C12 UNL     1      17.002 -36.672   3.657  1.00  0.00     0.017 C 
HETATM   13  C13 UNL     1      14.976 -37.015   2.207  1.00  0.00     0.004 C 
HETATM   14  C14 UNL     1      15.631 -36.278   1.100  1.00  0.00     0.008 C 
HETATM   15  C15 UNL     1      16.907 -37.063   0.815  1.00  0.00     0.022 C 
HETATM   16  C16 UNL     1      16.907 -38.228   1.791  1.00  0.00     0.022 C 
HETATM   17  C17 UNL     1      18.309 -38.590   2.203  1.00  0.00     0.028 C 
HETATM   18  S1  UNL     1      15.972 -39.607   1.139  1.00  0.00    -0.086 SA
ENDROOT
TORSDOF 0
ENDMDL
