MODEL 1
REMARK VINA RESULT: -4.901155315      0.000      0.000
REMARK  3 active torsions:
REMARK  status: ('A' for Active; 'I' for Inactive)
REMARK    1  A    between atoms: C3_7  and  N2_8 
REMARK    2  A    between atoms: N2_8  and  N3_9 
REMARK    3  A    between atoms: N3_9  and  C4_11 
ROOT
HETATM    1  N3  UNL     1     -49.893 -20.991  13.411  1.00  0.00    -0.289 N 
ATOM      2  H3  UNL     1     -50.096 -19.993  13.352  1.00  0.00     0.183 HD
ENDROOT
BRANCH   1   3
HETATM    3  N2  UNL     1     -48.834 -21.542  12.717  1.00  0.00    -0.104 NA
BRANCH   3   4
HETATM    4  C3  UNL     1     -48.924 -21.344  11.289  1.00  0.00     0.293 C 
HETATM    5  C2  UNL     1     -48.309 -20.102  10.824  1.00  0.00     0.266 C 
HETATM    6  N1  UNL     1     -47.596 -20.391   9.634  1.00  0.00    -0.276 N 
HETATM    7  O2  UNL     1     -48.402 -18.988  11.381  1.00  0.00    -0.269 OA
HETATM    8  C1  UNL     1     -47.522 -21.806   9.530  1.00  0.00     0.324 C 
ATOM      9  H1  UNL     1     -47.209 -19.714   8.978  1.00  0.00     0.173 HD
HETATM   10  O1  UNL     1     -46.950 -22.454   8.583  1.00  0.00    -0.247 OA
HETATM   11  N6  UNL     1     -48.179 -22.403  10.638  1.00  0.00    -0.315 N 
ATOM     12  H6  UNL     1     -48.136 -23.383  10.918  1.00  0.00     0.166 HD
ENDBRANCH   3   4
ENDBRANCH   1   3
BRANCH   1  13
HETATM   13  C4  UNL     1     -50.694 -21.849  14.208  1.00  0.00     0.114 C 
HETATM   14  N4  UNL     1     -50.762 -23.088  13.870  1.00  0.00    -0.376 N 
HETATM   15  C5  UNL     1     -51.569 -23.995  14.659  1.00  0.00     0.148 C 
ATOM     16  H4  UNL     1     -50.252 -23.429  13.055  1.00  0.00     0.160 HD
HETATM   17  C6  UNL     1     -51.400 -23.556  16.115  1.00  0.00     0.252 C 
HETATM   18  N5  UNL     1     -52.006 -22.252  16.222  1.00  0.00    -0.067 N 
HETATM   19  C7  UNL     1     -51.394 -21.284  15.362  1.00  0.00     0.309 C 
ATOM     20  H52 UNL     1     -53.012 -22.302  16.058  1.00  0.00     0.277 HD
ATOM     21  H51 UNL     1     -52.012 -21.930  17.189  1.00  0.00     0.277 HD
ENDBRANCH   1  13
TORSDOF 3
ENDMDL
MODEL 2
REMARK VINA RESULT: -4.732697177      3.106      7.095
REMARK  3 active torsions:
REMARK  status: ('A' for Active; 'I' for Inactive)
REMARK    1  A    between atoms: C3_7  and  N2_8 
REMARK    2  A    between atoms: N2_8  and  N3_9 
REMARK    3  A    between atoms: N3_9  and  C4_11 
ROOT
HETATM    1  N3  UNL     1     -47.994 -21.306   8.573  1.00  0.00    -0.289 N 
ATOM      2  H3  UNL     1     -48.990 -21.100   8.652  1.00  0.00     0.183 HD
ENDROOT
BRANCH   1   3
HETATM    3  N2  UNL     1     -47.315 -21.925   9.604  1.00  0.00    -0.104 NA
BRANCH   3   4
HETATM    4  C3  UNL     1     -47.678 -21.420  10.908  1.00  0.00     0.293 C 
HETATM    5  C2  UNL     1     -47.896 -19.975  10.944  1.00  0.00     0.266 C 
HETATM    6  N1  UNL     1     -49.043 -19.730  11.739  1.00  0.00    -0.276 N 
HETATM    7  O2  UNL     1     -47.191 -19.116  10.374  1.00  0.00    -0.269 OA
HETATM    8  C1  UNL     1     -49.683 -20.982  11.938  1.00  0.00     0.324 C 
ATOM      9  H1  UNL     1     -49.351 -18.827  12.099  1.00  0.00     0.173 HD
HETATM   10  O1  UNL     1     -50.759 -21.170  12.610  1.00  0.00    -0.247 OA
HETATM   11  N6  UNL     1     -48.951 -22.005  11.280  1.00  0.00    -0.315 N 
ATOM     12  H6  UNL     1     -49.260 -22.961  11.105  1.00  0.00     0.166 HD
ENDBRANCH   3   4
ENDBRANCH   1   3
BRANCH   1  13
HETATM   13  C4  UNL     1     -47.273 -20.966   7.400  1.00  0.00     0.114 C 
HETATM   14  N4  UNL     1     -46.540 -19.908   7.436  1.00  0.00    -0.376 N 
HETATM   15  C5  UNL     1     -45.788 -19.528   6.259  1.00  0.00     0.148 C 
ATOM     16  H4  UNL     1     -46.489 -19.345   8.284  1.00  0.00     0.160 HD
HETATM   17  C6  UNL     1     -45.305 -20.833   5.623  1.00  0.00     0.252 C 
HETATM   18  N5  UNL     1     -46.483 -21.525   5.163  1.00  0.00    -0.067 N 
HETATM   19  C7  UNL     1     -47.398 -21.826   6.224  1.00  0.00     0.309 C 
ATOM     20  H52 UNL     1     -46.946 -21.004   4.418  1.00  0.00     0.277 HD
ATOM     21  H51 UNL     1     -46.234 -22.367   4.646  1.00  0.00     0.277 HD
ENDBRANCH   1  13
TORSDOF 3
ENDMDL
MODEL 3
REMARK VINA RESULT: -4.634994946      2.797      6.036
REMARK  3 active torsions:
REMARK  status: ('A' for Active; 'I' for Inactive)
REMARK    1  A    between atoms: C3_7  and  N2_8 
REMARK    2  A    between atoms: N2_8  and  N3_9 
REMARK    3  A    between atoms: N3_9  and  C4_11 
ROOT
HETATM    1  N3  UNL     1     -49.574 -22.025  13.161  1.00  0.00    -0.289 N 
ATOM      2  H3  UNL     1     -49.294 -21.971  14.141  1.00  0.00     0.183 HD
ENDROOT
BRANCH   1   3
HETATM    3  N2  UNL     1     -50.831 -22.474  12.807  1.00  0.00    -0.104 NA
BRANCH   3   4
HETATM    4  C3  UNL     1     -51.816 -22.288  13.847  1.00  0.00     0.293 C 
HETATM    5  C2  UNL     1     -51.405 -22.807  15.151  1.00  0.00     0.266 C 
HETATM    6  N1  UNL     1     -51.789 -21.861  16.134  1.00  0.00    -0.276 N 
HETATM    7  O2  UNL     1     -50.820 -23.892  15.354  1.00  0.00    -0.269 OA
HETATM    8  C1  UNL     1     -52.152 -20.674  15.445  1.00  0.00     0.324 C 
ATOM      9  H1  UNL     1     -51.803 -22.006  17.143  1.00  0.00     0.173 HD
HETATM   10  O1  UNL     1     -52.557 -19.588  15.995  1.00  0.00    -0.247 OA
HETATM   11  N6  UNL     1     -52.000 -20.864  14.046  1.00  0.00    -0.315 N 
ATOM     12  H6  UNL     1     -52.017 -20.143  13.326  1.00  0.00     0.166 HD
ENDBRANCH   3   4
ENDBRANCH   1   3
BRANCH   1  13
HETATM   13  C4  UNL     1     -48.681 -21.640  12.129  1.00  0.00     0.114 C 
HETATM   14  N4  UNL     1     -48.801 -22.222  10.987  1.00  0.00    -0.376 N 
HETATM   15  C5  UNL     1     -47.908 -21.856   9.908  1.00  0.00     0.148 C 
ATOM     16  H4  UNL     1     -49.518 -22.933  10.844  1.00  0.00     0.160 HD
HETATM   17  C6  UNL     1     -47.685 -20.347  10.034  1.00  0.00     0.252 C 
HETATM   18  N5  UNL     1     -46.964 -20.142  11.265  1.00  0.00    -0.067 N 
HETATM   19  C7  UNL     1     -47.680 -20.612  12.413  1.00  0.00     0.309 C 
ATOM     20  H52 UNL     1     -46.034 -20.560  11.218  1.00  0.00     0.277 HD
ATOM     21  H51 UNL     1     -46.699 -19.164  11.374  1.00  0.00     0.277 HD
ENDBRANCH   1  13
TORSDOF 3
ENDMDL
MODEL 4
REMARK VINA RESULT: -4.622102730      2.794      6.642
REMARK  3 active torsions:
REMARK  status: ('A' for Active; 'I' for Inactive)
REMARK    1  A    between atoms: C3_7  and  N2_8 
REMARK    2  A    between atoms: N2_8  and  N3_9 
REMARK    3  A    between atoms: N3_9  and  C4_11 
ROOT
HETATM    1  N3  UNL     1     -47.279 -21.290   8.688  1.00  0.00    -0.289 N 
ATOM      2  H3  UNL     1     -46.915 -20.337   8.670  1.00  0.00     0.183 HD
ENDROOT
BRANCH   1   3
HETATM    3  N2  UNL     1     -48.358 -21.622   9.483  1.00  0.00    -0.104 NA
BRANCH   3   4
HETATM    4  C3  UNL     1     -48.042 -21.640  10.893  1.00  0.00     0.293 C 
HETATM    5  C2  UNL     1     -47.805 -20.315  11.463  1.00  0.00     0.266 C 
HETATM    6  N1  UNL     1     -48.445 -20.266  12.726  1.00  0.00    -0.276 N 
HETATM    7  O2  UNL     1     -47.152 -19.395  10.926  1.00  0.00    -0.269 OA
HETATM    8  C1  UNL     1     -49.292 -21.404  12.804  1.00  0.00     0.324 C 
ATOM      9  H1  UNL     1     -48.322 -19.551  13.443  1.00  0.00     0.173 HD
HETATM   10  O1  UNL     1     -50.041 -21.708  13.800  1.00  0.00    -0.247 OA
HETATM   11  N6  UNL     1     -49.190 -22.161  11.608  1.00  0.00    -0.315 N 
ATOM     12  H6  UNL     1     -49.802 -22.921  11.311  1.00  0.00     0.166 HD
ENDBRANCH   3   4
ENDBRANCH   1   3
BRANCH   1  13
HETATM   13  C4  UNL     1     -46.688 -22.308   7.896  1.00  0.00     0.114 C 
HETATM   14  N4  UNL     1     -45.630 -22.007   7.228  1.00  0.00    -0.376 N 
HETATM   15  C5  UNL     1     -44.999 -23.018   6.408  1.00  0.00     0.148 C 
ATOM     16  H4  UNL     1     -45.240 -21.066   7.276  1.00  0.00     0.160 HD
HETATM   17  C6  UNL     1     -45.128 -24.334   7.180  1.00  0.00     0.252 C 
HETATM   18  N5  UNL     1     -46.535 -24.645   7.223  1.00  0.00    -0.067 N 
HETATM   19  C7  UNL     1     -47.308 -23.633   7.879  1.00  0.00     0.309 C 
ATOM     20  H52 UNL     1     -46.897 -24.831   6.287  1.00  0.00     0.277 HD
ATOM     21  H51 UNL     1     -46.694 -25.558   7.647  1.00  0.00     0.277 HD
ENDBRANCH   1  13
TORSDOF 3
ENDMDL
MODEL 5
REMARK VINA RESULT: -4.608348772      3.636      5.656
REMARK  3 active torsions:
REMARK  status: ('A' for Active; 'I' for Inactive)
REMARK    1  A    between atoms: C3_7  and  N2_8 
REMARK    2  A    between atoms: N2_8  and  N3_9 
REMARK    3  A    between atoms: N3_9  and  C4_11 
ROOT
HETATM    1  N3  UNL     1     -47.320 -20.581   8.235  1.00  0.00    -0.289 N 
ATOM      2  H3  UNL     1     -47.315 -19.608   7.928  1.00  0.00     0.183 HD
ENDROOT
BRANCH   1   3
HETATM    3  N2  UNL     1     -47.035 -21.605   7.353  1.00  0.00    -0.104 NA
BRANCH   3   4
HETATM    4  C3  UNL     1     -46.229 -21.181   6.232  1.00  0.00     0.293 C 
HETATM    5  C2  UNL     1     -46.632 -19.895   5.664  1.00  0.00     0.266 C 
HETATM    6  N1  UNL     1     -45.455 -19.158   5.383  1.00  0.00    -0.276 N 
HETATM    7  O2  UNL     1     -47.807 -19.521   5.466  1.00  0.00    -0.269 OA
HETATM    8  C1  UNL     1     -44.382 -19.833   6.023  1.00  0.00     0.324 C 
ATOM      9  H1  UNL     1     -45.391 -18.306   4.827  1.00  0.00     0.173 HD
HETATM   10  O1  UNL     1     -43.153 -19.467   5.999  1.00  0.00    -0.247 OA
HETATM   11  N6  UNL     1     -44.872 -20.980   6.700  1.00  0.00    -0.315 N 
ATOM     12  H6  UNL     1     -44.369 -21.550   7.381  1.00  0.00     0.166 HD
ENDBRANCH   3   4
ENDBRANCH   1   3
BRANCH   1  13
HETATM   13  C4  UNL     1     -47.621 -20.916   9.580  1.00  0.00     0.114 C 
HETATM   14  N4  UNL     1     -47.212 -20.117  10.501  1.00  0.00    -0.376 N 
HETATM   15  C5  UNL     1     -47.499 -20.424  11.886  1.00  0.00     0.148 C 
ATOM     16  H4  UNL     1     -46.690 -19.274  10.258  1.00  0.00     0.160 HD
HETATM   17  C6  UNL     1     -48.902 -21.036  11.903  1.00  0.00     0.252 C 
HETATM   18  N5  UNL     1     -48.807 -22.294  11.204  1.00  0.00    -0.067 N 
HETATM   19  C7  UNL     1     -48.374 -22.142   9.847  1.00  0.00     0.309 C 
ATOM     20  H52 UNL     1     -48.209 -22.948  11.707  1.00  0.00     0.277 HD
ATOM     21  H51 UNL     1     -49.688 -22.805  11.250  1.00  0.00     0.277 HD
ENDBRANCH   1  13
TORSDOF 3
ENDMDL
