MODEL 1
REMARK VINA RESULT: -4.820887033      0.000      0.000
REMARK  5 active torsions:
REMARK  status: ('A' for Active; 'I' for Inactive)
REMARK    1  A    between atoms: N1_1  and  C1_4 
REMARK    2  A    between atoms: C2_7  and  O1_8 
REMARK    3  A    between atoms: O1_8  and  S1_9 
REMARK    4  A    between atoms: S1_9  and  N3_10 
REMARK    5  A    between atoms: C3_15  and  O4_16 
ROOT
HETATM    1  C1  UNL     1     -49.338 -21.733   9.880  1.00  0.00     0.680 A 
HETATM    2  N2  UNL     1     -49.530 -22.100  11.166  1.00  0.00    -0.167 N 
ATOM      3  H2  UNL     1     -50.170 -22.868  11.368  1.00  0.00     0.186 HD
HETATM    4  C2  UNL     1     -48.909 -21.492  12.190  1.00  0.00     0.215 A 
HETATM    5  C3  UNL     1     -48.037 -20.451  11.962  1.00  0.00     0.188 A 
HETATM    6  C4  UNL     1     -47.844 -20.080  10.645  1.00  0.00     0.297 A 
HETATM    7  O5  UNL     1     -47.060 -19.138  10.374  1.00  0.00    -0.264 OA
HETATM    8  N4  UNL     1     -48.490 -20.720   9.633  1.00  0.00    -0.154 N 
ATOM      9  H4  UNL     1     -48.328 -20.426   8.670  1.00  0.00     0.187 HD
ENDROOT
BRANCH   4  10
HETATM   10  O1  UNL     1     -49.121 -21.884  13.500  1.00  0.00    -0.195 OA
BRANCH  10  11
HETATM   11  S1  UNL     1     -50.671 -22.065  14.169  1.00  0.00     0.362 S 
HETATM   12  O2  UNL     1     -50.868 -23.398  14.814  1.00  0.00    -0.176 OA
HETATM   13  O3  UNL     1     -51.754 -21.891  13.132  1.00  0.00    -0.176 OA
BRANCH  11  14
HETATM   14  N3  UNL     1     -50.915 -20.845  15.366  1.00  0.00    -0.305 N 
ATOM     15  H32 UNL     1     -50.363 -20.748  16.217  1.00  0.00     0.171 HD
ATOM     16  H31 UNL     1     -51.693 -20.249  15.080  1.00  0.00     0.171 HD
ENDBRANCH  11  14
ENDBRANCH  10  11
ENDBRANCH   4  10
BRANCH   5  17
HETATM   17  O4  UNL     1     -47.361 -19.777  12.972  1.00  0.00    -0.352 OA
ATOM     18  H4  UNL     1     -47.743 -19.073  13.483  1.00  0.00     0.218 HD
ENDBRANCH   5  17
BRANCH   1  19
HETATM   19  N1  UNL     1     -49.952 -22.340   8.908  1.00  0.00    -0.234 N 
ATOM     20  H12 UNL     1     -50.872 -22.028   8.595  1.00  0.00     0.174 HD
ATOM     21  H11 UNL     1     -49.531 -23.140   8.434  1.00  0.00     0.174 HD
ENDBRANCH   1  19
TORSDOF 5
ENDMDL
MODEL 2
REMARK VINA RESULT: -4.637493388      3.049      4.340
REMARK  5 active torsions:
REMARK  status: ('A' for Active; 'I' for Inactive)
REMARK    1  A    between atoms: N1_1  and  C1_4 
REMARK    2  A    between atoms: C2_7  and  O1_8 
REMARK    3  A    between atoms: O1_8  and  S1_9 
REMARK    4  A    between atoms: S1_9  and  N3_10 
REMARK    5  A    between atoms: C3_15  and  O4_16 
ROOT
HETATM    1  C1  UNL     1     -49.586 -21.242  12.901  1.00  0.00     0.680 A 
HETATM    2  N2  UNL     1     -49.770 -22.148  11.915  1.00  0.00    -0.167 N 
ATOM      3  H2  UNL     1     -50.576 -22.770  11.964  1.00  0.00     0.186 HD
HETATM    4  C2  UNL     1     -48.929 -22.259  10.874  1.00  0.00     0.215 A 
HETATM    5  C3  UNL     1     -47.829 -21.439  10.769  1.00  0.00     0.188 A 
HETATM    6  C4  UNL     1     -47.646 -20.514  11.779  1.00  0.00     0.297 A 
HETATM    7  O5  UNL     1     -46.661 -19.737  11.739  1.00  0.00    -0.264 OA
HETATM    8  N4  UNL     1     -48.518 -20.429  12.819  1.00  0.00    -0.154 N 
ATOM      9  H4  UNL     1     -48.360 -19.736  13.551  1.00  0.00     0.187 HD
ENDROOT
BRANCH   4  10
HETATM   10  O1  UNL     1     -49.136 -23.196   9.875  1.00  0.00    -0.195 OA
BRANCH  10  11
HETATM   11  S1  UNL     1     -49.972 -22.844   8.440  1.00  0.00     0.362 S 
HETATM   12  O2  UNL     1     -51.117 -21.908   8.655  1.00  0.00    -0.176 OA
HETATM   13  O3  UNL     1     -50.515 -24.091   7.785  1.00  0.00    -0.176 OA
BRANCH  11  14
HETATM   14  N3  UNL     1     -48.882 -22.115   7.316  1.00  0.00    -0.305 N 
ATOM     15  H32 UNL     1     -48.606 -21.134   7.329  1.00  0.00     0.171 HD
ATOM     16  H31 UNL     1     -48.569 -22.821   6.650  1.00  0.00     0.171 HD
ENDBRANCH  11  14
ENDBRANCH  10  11
ENDBRANCH   4  10
BRANCH   5  17
HETATM   17  O4  UNL     1     -46.919 -21.500   9.720  1.00  0.00    -0.352 OA
ATOM     18  H4  UNL     1     -46.631 -20.740   9.229  1.00  0.00     0.218 HD
ENDBRANCH   5  17
BRANCH   1  19
HETATM   19  N1  UNL     1     -50.416 -21.154  13.898  1.00  0.00    -0.234 N 
ATOM     20  H12 UNL     1     -50.118 -21.382  14.847  1.00  0.00     0.174 HD
ATOM     21  H11 UNL     1     -51.381 -20.856  13.758  1.00  0.00     0.174 HD
ENDBRANCH   1  19
TORSDOF 5
ENDMDL
MODEL 3
REMARK VINA RESULT: -4.617999715      2.941      4.403
REMARK  5 active torsions:
REMARK  status: ('A' for Active; 'I' for Inactive)
REMARK    1  A    between atoms: N1_1  and  C1_4 
REMARK    2  A    between atoms: C2_7  and  O1_8 
REMARK    3  A    between atoms: O1_8  and  S1_9 
REMARK    4  A    between atoms: S1_9  and  N3_10 
REMARK    5  A    between atoms: C3_15  and  O4_16 
ROOT
HETATM    1  C1  UNL     1     -49.574 -21.229  12.904  1.00  0.00     0.680 A 
HETATM    2  N2  UNL     1     -49.758 -22.136  11.920  1.00  0.00    -0.167 N 
ATOM      3  H2  UNL     1     -50.561 -22.761  11.972  1.00  0.00     0.186 HD
HETATM    4  C2  UNL     1     -48.921 -22.245  10.875  1.00  0.00     0.215 A 
HETATM    5  C3  UNL     1     -47.824 -21.420  10.766  1.00  0.00     0.188 A 
HETATM    6  C4  UNL     1     -47.642 -20.494  11.775  1.00  0.00     0.297 A 
HETATM    7  O5  UNL     1     -46.660 -19.713  11.730  1.00  0.00    -0.264 OA
HETATM    8  N4  UNL     1     -48.510 -20.412  12.818  1.00  0.00    -0.154 N 
ATOM      9  H4  UNL     1     -48.351 -19.718  13.549  1.00  0.00     0.187 HD
ENDROOT
BRANCH   4  10
HETATM   10  O1  UNL     1     -49.128 -23.183   9.878  1.00  0.00    -0.195 OA
BRANCH  10  11
HETATM   11  S1  UNL     1     -49.853 -22.802   8.391  1.00  0.00     0.362 S 
HETATM   12  O2  UNL     1     -48.927 -22.078   7.467  1.00  0.00    -0.176 OA
HETATM   13  O3  UNL     1     -51.086 -21.949   8.568  1.00  0.00    -0.176 OA
BRANCH  11  14
HETATM   14  N3  UNL     1     -50.354 -24.262   7.617  1.00  0.00    -0.305 N 
ATOM     15  H32 UNL     1     -49.726 -25.014   7.333  1.00  0.00     0.171 HD
ATOM     16  H31 UNL     1     -51.366 -24.244   7.494  1.00  0.00     0.171 HD
ENDBRANCH  11  14
ENDBRANCH  10  11
ENDBRANCH   4  10
BRANCH   5  17
HETATM   17  O4  UNL     1     -46.919 -21.477   9.713  1.00  0.00    -0.352 OA
ATOM     18  H4  UNL     1     -46.657 -22.285   9.287  1.00  0.00     0.218 HD
ENDBRANCH   5  17
BRANCH   1  19
HETATM   19  N1  UNL     1     -50.400 -21.145  13.905  1.00  0.00    -0.234 N 
ATOM     20  H12 UNL     1     -51.240 -21.722  13.940  1.00  0.00     0.174 HD
ATOM     21  H11 UNL     1     -50.228 -20.502  14.679  1.00  0.00     0.174 HD
ENDBRANCH   1  19
TORSDOF 5
ENDMDL
MODEL 4
REMARK VINA RESULT: -4.327217275      2.651      4.864
REMARK  5 active torsions:
REMARK  status: ('A' for Active; 'I' for Inactive)
REMARK    1  A    between atoms: N1_1  and  C1_4 
REMARK    2  A    between atoms: C2_7  and  O1_8 
REMARK    3  A    between atoms: O1_8  and  S1_9 
REMARK    4  A    between atoms: S1_9  and  N3_10 
REMARK    5  A    between atoms: C3_15  and  O4_16 
ROOT
HETATM    1  C1  UNL     1     -52.420 -19.860  12.728  1.00  0.00     0.680 A 
HETATM    2  N2  UNL     1     -51.390 -20.248  11.945  1.00  0.00    -0.167 N 
ATOM      3  H2  UNL     1     -51.252 -19.782  11.048  1.00  0.00     0.186 HD
HETATM    4  C2  UNL     1     -50.541 -21.225  12.303  1.00  0.00     0.215 A 
HETATM    5  C3  UNL     1     -50.691 -21.880  13.504  1.00  0.00     0.188 A 
HETATM    6  C4  UNL     1     -51.746 -21.478  14.302  1.00  0.00     0.297 A 
HETATM    7  O5  UNL     1     -51.934 -22.037  15.410  1.00  0.00    -0.264 OA
HETATM    8  N4  UNL     1     -52.586 -20.484  13.907  1.00  0.00    -0.154 N 
ATOM      9  H4  UNL     1     -53.356 -20.207  14.516  1.00  0.00     0.187 HD
ENDROOT
BRANCH   4  10
HETATM   10  O1  UNL     1     -49.493 -21.607  11.483  1.00  0.00    -0.195 OA
BRANCH  10  11
HETATM   11  S1  UNL     1     -48.093 -20.669  11.279  1.00  0.00     0.362 S 
HETATM   12  O2  UNL     1     -47.061 -20.937  12.326  1.00  0.00    -0.176 OA
HETATM   13  O3  UNL     1     -48.399 -19.191  11.302  1.00  0.00    -0.176 OA
BRANCH  11  14
HETATM   14  N3  UNL     1     -47.399 -21.019   9.736  1.00  0.00    -0.305 N 
ATOM     15  H32 UNL     1     -47.054 -21.934   9.450  1.00  0.00     0.171 HD
ATOM     16  H31 UNL     1     -47.394 -20.168   9.173  1.00  0.00     0.171 HD
ENDBRANCH  11  14
ENDBRANCH  10  11
ENDBRANCH   4  10
BRANCH   5  17
HETATM   17  O4  UNL     1     -49.851 -22.898  13.938  1.00  0.00    -0.352 OA
ATOM     18  H4  UNL     1     -50.092 -23.817  13.935  1.00  0.00     0.218 HD
ENDBRANCH   5  17
BRANCH   1  19
HETATM   19  N1  UNL     1     -53.228 -18.911  12.357  1.00  0.00    -0.234 N 
ATOM     20  H12 UNL     1     -53.583 -18.870  11.402  1.00  0.00     0.174 HD
ATOM     21  H11 UNL     1     -53.527 -18.186  13.010  1.00  0.00     0.174 HD
ENDBRANCH   1  19
TORSDOF 5
ENDMDL
MODEL 5
REMARK VINA RESULT: -4.324276675      2.488      5.260
REMARK  5 active torsions:
REMARK  status: ('A' for Active; 'I' for Inactive)
REMARK    1  A    between atoms: N1_1  and  C1_4 
REMARK    2  A    between atoms: C2_7  and  O1_8 
REMARK    3  A    between atoms: O1_8  and  S1_9 
REMARK    4  A    between atoms: S1_9  and  N3_10 
REMARK    5  A    between atoms: C3_15  and  O4_16 
ROOT
HETATM    1  C1  UNL     1     -50.947 -21.294  14.736  1.00  0.00     0.680 A 
HETATM    2  N2  UNL     1     -50.230 -21.069  13.614  1.00  0.00    -0.167 N 
ATOM      3  H2  UNL     1     -49.657 -20.227  13.559  1.00  0.00     0.186 HD
HETATM    4  C2  UNL     1     -50.243 -21.911  12.569  1.00  0.00     0.215 A 
HETATM    5  C3  UNL     1     -51.003 -23.059  12.602  1.00  0.00     0.188 A 
HETATM    6  C4  UNL     1     -51.734 -23.285  13.752  1.00  0.00     0.297 A 
HETATM    7  O5  UNL     1     -52.446 -24.316  13.843  1.00  0.00    -0.264 OA
HETATM    8  N4  UNL     1     -51.696 -22.410  14.792  1.00  0.00    -0.154 N 
ATOM      9  H4  UNL     1     -52.245 -22.602  15.630  1.00  0.00     0.187 HD
ENDROOT
BRANCH   4  10
HETATM   10  O1  UNL     1     -49.501 -21.659  11.428  1.00  0.00    -0.195 OA
BRANCH  10  11
HETATM   11  S1  UNL     1     -48.157 -20.621  11.413  1.00  0.00     0.362 S 
HETATM   12  O2  UNL     1     -47.250 -20.837  12.580  1.00  0.00    -0.176 OA
HETATM   13  O3  UNL     1     -48.569 -19.169  11.412  1.00  0.00    -0.176 OA
BRANCH  11  14
HETATM   14  N3  UNL     1     -47.251 -20.892   9.968  1.00  0.00    -0.305 N 
ATOM     15  H32 UNL     1     -47.143 -21.797   9.511  1.00  0.00     0.171 HD
ATOM     16  H31 UNL     1     -46.849 -20.007   9.656  1.00  0.00     0.171 HD
ENDBRANCH  11  14
ENDBRANCH  10  11
ENDBRANCH   4  10
BRANCH   5  17
HETATM   17  O4  UNL     1     -51.063 -23.974  11.558  1.00  0.00    -0.352 OA
ATOM     18  H4  UNL     1     -50.529 -24.758  11.513  1.00  0.00     0.218 HD
ENDBRANCH   5  17
BRANCH   1  19
HETATM   19  N1  UNL     1     -50.916 -20.462  15.735  1.00  0.00    -0.234 N 
ATOM     20  H12 UNL     1     -50.882 -20.801  16.697  1.00  0.00     0.174 HD
ATOM     21  H11 UNL     1     -50.925 -19.453  15.583  1.00  0.00     0.174 HD
ENDBRANCH   1  19
TORSDOF 5
ENDMDL
