MODEL 1
REMARK VINA RESULT: -5.044824441      0.000      0.000
REMARK  3 active torsions:
REMARK  status: ('A' for Active; 'I' for Inactive)
REMARK    1  A    between atoms: N3_4  and  N4_6 
REMARK       I    between atoms: C2_8  and  N5_9 
REMARK       I    between atoms: C2_8  and  N8_18 
REMARK    2  A    between atoms: N5_9  and  C3_11 
REMARK    3  A    between atoms: N8_18  and  N9_20 
ROOT
HETATM    1  N4  UNL     1     -49.309 -22.212  11.460  1.00  0.00    -0.128 N 
ATOM      2  H4  UNL     1     -48.643 -21.838  10.783  1.00  0.00     0.205 HD
HETATM    3  C2  UNL     1     -49.312 -21.745  12.662  1.00  0.00     0.719 C 
HETATM    4  N5  UNL     1     -50.217 -22.233  13.638  1.00  0.00    -0.159 N 
ATOM      5  H5  UNL     1     -50.204 -23.219  13.897  1.00  0.00     0.187 HD
HETATM    6  N8  UNL     1     -48.386 -20.722  13.001  1.00  0.00    -0.070 N 
ATOM      7  H8  UNL     1     -48.094 -20.619  13.972  1.00  0.00     0.212 HD
ENDROOT
BRANCH   1   8
HETATM    8  N3  UNL     1     -50.193 -23.217  11.060  1.00  0.00    -0.262 N 
HETATM    9  C1  UNL     1     -50.821 -23.151   9.916  1.00  0.00     0.216 C 
HETATM   10  N1  UNL     1     -51.714 -24.197   9.548  1.00  0.00    -0.065 NA
HETATM   11  N2  UNL     1     -50.579 -22.028   9.090  1.00  0.00    -0.065 NA
ATOM     12  H3  UNL     1     -50.352 -24.017  11.674  1.00  0.00     0.190 HD
ENDBRANCH   1   8
BRANCH   4  13
HETATM   13  C3  UNL     1     -51.154 -21.334  14.266  1.00  0.00     0.190 C 
HETATM   14  N6  UNL     1     -52.200 -20.879  13.709  1.00  0.00    -0.360 N 
HETATM   15  C4  UNL     1     -52.964 -20.004  14.548  1.00  0.00     0.142 C 
ATOM     16  H6  UNL     1     -52.471 -21.113  12.754  1.00  0.00     0.162 HD
HETATM   17  C5  UNL     1     -52.347 -20.206  15.937  1.00  0.00     0.142 C 
HETATM   18  N7  UNL     1     -51.083 -20.815  15.567  1.00  0.00    -0.360 N 
ATOM     19  H7  UNL     1     -50.259 -20.859  16.167  1.00  0.00     0.162 HD
ENDBRANCH   4  13
BRANCH   6  20
HETATM   20  N9  UNL     1     -47.869 -19.858  12.044  1.00  0.00    -0.024 N 
HETATM   21  O1  UNL     1     -46.646 -19.787  11.883  1.00  0.00    -0.516 OA
HETATM   22  O2  UNL     1     -48.717 -19.095  11.290  1.00  0.00    -0.516 OA
ENDBRANCH   6  20
TORSDOF 3
ENDMDL
MODEL 2
REMARK VINA RESULT: -4.743018943      0.996      1.404
REMARK  3 active torsions:
REMARK  status: ('A' for Active; 'I' for Inactive)
REMARK    1  A    between atoms: N3_4  and  N4_6 
REMARK       I    between atoms: C2_8  and  N5_9 
REMARK       I    between atoms: C2_8  and  N8_18 
REMARK    2  A    between atoms: N5_9  and  C3_11 
REMARK    3  A    between atoms: N8_18  and  N9_20 
ROOT
HETATM    1  N4  UNL     1     -49.330 -22.284  11.365  1.00  0.00    -0.128 N 
ATOM      2  H4  UNL     1     -48.447 -22.065  10.901  1.00  0.00     0.205 HD
HETATM    3  C2  UNL     1     -49.689 -21.589  12.391  1.00  0.00     0.719 C 
HETATM    4  N5  UNL     1     -50.905 -21.856  13.069  1.00  0.00    -0.159 N 
ATOM      5  H5  UNL     1     -51.066 -22.772  13.486  1.00  0.00     0.187 HD
HETATM    6  N8  UNL     1     -48.842 -20.541  12.838  1.00  0.00    -0.070 N 
ATOM      7  H8  UNL     1     -48.880 -20.256  13.817  1.00  0.00     0.212 HD
ENDROOT
BRANCH   1   8
HETATM    8  N3  UNL     1     -50.117 -23.327  10.872  1.00  0.00    -0.262 N 
HETATM    9  C1  UNL     1     -50.690 -23.248   9.700  1.00  0.00     0.216 C 
HETATM   10  N1  UNL     1     -51.484 -24.335   9.236  1.00  0.00    -0.065 NA
HETATM   11  N2  UNL     1     -50.491 -22.070   8.941  1.00  0.00    -0.065 NA
ATOM     12  H3  UNL     1     -50.247 -24.166  11.437  1.00  0.00     0.190 HD
ENDBRANCH   1   8
BRANCH   4  13
HETATM   13  C3  UNL     1     -51.915 -20.830  13.168  1.00  0.00     0.190 C 
HETATM   14  N6  UNL     1     -52.368 -20.166  12.187  1.00  0.00    -0.360 N 
HETATM   15  C4  UNL     1     -53.366 -19.205  12.553  1.00  0.00     0.142 C 
ATOM     16  H6  UNL     1     -52.052 -20.303  11.227  1.00  0.00     0.162 HD
HETATM   17  C5  UNL     1     -53.715 -19.581  13.998  1.00  0.00     0.142 C 
HETATM   18  N7  UNL     1     -52.560 -20.393  14.335  1.00  0.00    -0.360 N 
ATOM     19  H7  UNL     1     -52.261 -20.615  15.285  1.00  0.00     0.162 HD
ENDBRANCH   4  13
BRANCH   6  20
HETATM   20  N9  UNL     1     -47.963 -19.894  11.979  1.00  0.00    -0.024 N 
HETATM   21  O1  UNL     1     -48.390 -19.032  11.203  1.00  0.00    -0.516 OA
HETATM   22  O2  UNL     1     -46.634 -20.217  11.999  1.00  0.00    -0.516 OA
ENDBRANCH   6  20
TORSDOF 3
ENDMDL
MODEL 3
REMARK VINA RESULT: -4.658344062      1.634      4.668
REMARK  3 active torsions:
REMARK  status: ('A' for Active; 'I' for Inactive)
REMARK    1  A    between atoms: N3_4  and  N4_6 
REMARK       I    between atoms: C2_8  and  N5_9 
REMARK       I    between atoms: C2_8  and  N8_18 
REMARK    2  A    between atoms: N5_9  and  C3_11 
REMARK    3  A    between atoms: N8_18  and  N9_20 
ROOT
HETATM    1  N4  UNL     1     -50.063 -20.635  12.677  1.00  0.00    -0.128 N 
ATOM      2  H4  UNL     1     -49.344 -20.306  13.321  1.00  0.00     0.205 HD
HETATM    3  C2  UNL     1     -49.776 -20.759  11.426  1.00  0.00     0.719 C 
HETATM    4  N5  UNL     1     -50.742 -21.210  10.491  1.00  0.00    -0.159 N 
ATOM      5  H5  UNL     1     -51.608 -20.687  10.361  1.00  0.00     0.187 HD
HETATM    6  N8  UNL     1     -48.464 -20.435  10.989  1.00  0.00    -0.070 N 
ATOM      7  H8  UNL     1     -48.320 -20.145  10.022  1.00  0.00     0.212 HD
ENDROOT
BRANCH   1   8
HETATM    8  N3  UNL     1     -51.334 -20.937  13.173  1.00  0.00    -0.262 N 
HETATM    9  C1  UNL     1     -51.530 -21.970  13.949  1.00  0.00     0.216 C 
HETATM   10  N1  UNL     1     -52.841 -22.243  14.432  1.00  0.00    -0.065 NA
HETATM   11  N2  UNL     1     -50.414 -22.777  14.274  1.00  0.00    -0.065 NA
ATOM     12  H3  UNL     1     -52.124 -20.342  12.923  1.00  0.00     0.190 HD
ENDBRANCH   1   8
BRANCH   4  13
HETATM   13  C3  UNL     1     -50.501 -22.408   9.725  1.00  0.00     0.190 C 
HETATM   14  N6  UNL     1     -50.534 -22.473   8.458  1.00  0.00    -0.360 N 
HETATM   15  C4  UNL     1     -50.259 -23.780   7.941  1.00  0.00     0.142 C 
ATOM     16  H6  UNL     1     -50.738 -21.669   7.863  1.00  0.00     0.162 HD
HETATM   17  C5  UNL     1     -49.724 -24.543   9.158  1.00  0.00     0.142 C 
HETATM   18  N7  UNL     1     -50.196 -23.682  10.226  1.00  0.00    -0.360 N 
ATOM     19  H7  UNL     1     -50.292 -23.963  11.202  1.00  0.00     0.162 HD
ENDBRANCH   4  13
BRANCH   6  20
HETATM   20  N9  UNL     1     -47.372 -20.503  11.844  1.00  0.00    -0.024 N 
HETATM   21  O1  UNL     1     -46.532 -19.597  11.836  1.00  0.00    -0.516 OA
HETATM   22  O2  UNL     1     -47.236 -21.572  12.687  1.00  0.00    -0.516 OA
ENDBRANCH   6  20
TORSDOF 3
ENDMDL
MODEL 4
REMARK VINA RESULT: -4.617301577      5.058      6.720
REMARK  3 active torsions:
REMARK  status: ('A' for Active; 'I' for Inactive)
REMARK    1  A    between atoms: N3_4  and  N4_6 
REMARK       I    between atoms: C2_8  and  N5_9 
REMARK       I    between atoms: C2_8  and  N8_18 
REMARK    2  A    between atoms: N5_9  and  C3_11 
REMARK    3  A    between atoms: N8_18  and  N9_20 
ROOT
HETATM    1  N4  UNL     1     -46.019 -20.818   6.875  1.00  0.00    -0.128 N 
ATOM      2  H4  UNL     1     -45.271 -21.266   6.347  1.00  0.00     0.205 HD
HETATM    3  C2  UNL     1     -46.864 -21.554   7.515  1.00  0.00     0.719 C 
HETATM    4  N5  UNL     1     -47.922 -20.978   8.262  1.00  0.00    -0.159 N 
ATOM      5  H5  UNL     1     -48.611 -20.387   7.797  1.00  0.00     0.187 HD
HETATM    6  N8  UNL     1     -46.719 -22.966   7.461  1.00  0.00    -0.070 N 
ATOM      7  H8  UNL     1     -47.540 -23.555   7.600  1.00  0.00     0.212 HD
ENDROOT
BRANCH   1   8
HETATM    8  N3  UNL     1     -46.104 -19.423   6.887  1.00  0.00    -0.262 N 
HETATM    9  C1  UNL     1     -45.110 -18.682   6.476  1.00  0.00     0.216 C 
HETATM   10  N1  UNL     1     -45.237 -17.263   6.505  1.00  0.00    -0.065 NA
HETATM   11  N2  UNL     1     -43.940 -19.333   6.017  1.00  0.00    -0.065 NA
ATOM     12  H3  UNL     1     -46.957 -18.977   7.223  1.00  0.00     0.190 HD
ENDBRANCH   1   8
BRANCH   4  13
HETATM   13  C3  UNL     1     -48.025 -21.229   9.678  1.00  0.00     0.190 C 
HETATM   14  N6  UNL     1     -47.162 -20.874  10.539  1.00  0.00    -0.360 N 
HETATM   15  C4  UNL     1     -47.500 -21.244  11.880  1.00  0.00     0.142 C 
ATOM     16  H6  UNL     1     -46.307 -20.371  10.297  1.00  0.00     0.162 HD
HETATM   17  C5  UNL     1     -48.967 -21.679  11.776  1.00  0.00     0.142 C 
HETATM   18  N7  UNL     1     -49.067 -21.893  10.344  1.00  0.00    -0.360 N 
ATOM     19  H7  UNL     1     -49.791 -22.447   9.886  1.00  0.00     0.162 HD
ENDBRANCH   4  13
BRANCH   6  20
HETATM   20  N9  UNL     1     -45.489 -23.566   7.226  1.00  0.00    -0.024 N 
HETATM   21  O1  UNL     1     -45.069 -24.426   8.007  1.00  0.00    -0.516 OA
HETATM   22  O2  UNL     1     -44.755 -23.200   6.131  1.00  0.00    -0.516 OA
ENDBRANCH   6  20
TORSDOF 3
ENDMDL
MODEL 5
REMARK VINA RESULT: -4.559788078      3.161      4.555
REMARK  3 active torsions:
REMARK  status: ('A' for Active; 'I' for Inactive)
REMARK    1  A    between atoms: N3_4  and  N4_6 
REMARK       I    between atoms: C2_8  and  N5_9 
REMARK       I    between atoms: C2_8  and  N8_18 
REMARK    2  A    between atoms: N5_9  and  C3_11 
REMARK    3  A    between atoms: N8_18  and  N9_20 
ROOT
HETATM    1  N4  UNL     1     -49.784 -21.129  13.153  1.00  0.00    -0.128 N 
ATOM      2  H4  UNL     1     -49.387 -21.534  14.001  1.00  0.00     0.205 HD
HETATM    3  C2  UNL     1     -51.001 -21.412  12.832  1.00  0.00     0.719 C 
HETATM    4  N5  UNL     1     -51.597 -20.875  11.663  1.00  0.00    -0.159 N 
ATOM      5  H5  UNL     1     -51.187 -21.066  10.748  1.00  0.00     0.187 HD
HETATM    6  N8  UNL     1     -51.746 -22.279  13.674  1.00  0.00    -0.070 N 
ATOM      7  H8  UNL     1     -52.514 -22.820  13.275  1.00  0.00     0.212 HD
ENDROOT
BRANCH   1   8
HETATM    8  N3  UNL     1     -48.996 -20.281  12.369  1.00  0.00    -0.262 N 
HETATM    9  C1  UNL     1     -47.728 -20.527  12.171  1.00  0.00     0.216 C 
HETATM   10  N1  UNL     1     -46.961 -19.638  11.366  1.00  0.00    -0.065 NA
HETATM   11  N2  UNL     1     -47.173 -21.680  12.776  1.00  0.00    -0.065 NA
ATOM     12  H3  UNL     1     -49.419 -19.456  11.945  1.00  0.00     0.190 HD
ENDBRANCH   1   8
BRANCH   4  13
HETATM   13  C3  UNL     1     -52.782 -20.060  11.766  1.00  0.00     0.190 C 
HETATM   14  N6  UNL     1     -52.953 -19.141  12.626  1.00  0.00    -0.360 N 
HETATM   15  C4  UNL     1     -54.219 -18.479  12.517  1.00  0.00     0.142 C 
ATOM     16  H6  UNL     1     -52.254 -18.897  13.328  1.00  0.00     0.162 HD
HETATM   17  C5  UNL     1     -54.764 -18.964  11.168  1.00  0.00     0.142 C 
HETATM   18  N7  UNL     1     -53.928 -20.132  10.961  1.00  0.00    -0.360 N 
ATOM     19  H7  UNL     1     -54.144 -20.897  10.321  1.00  0.00     0.162 HD
ENDBRANCH   4  13
BRANCH   6  20
HETATM   20  N9  UNL     1     -51.457 -22.412  15.026  1.00  0.00    -0.024 N 
HETATM   21  O1  UNL     1     -51.620 -21.448  15.783  1.00  0.00    -0.516 OA
HETATM   22  O2  UNL     1     -50.996 -23.606  15.507  1.00  0.00    -0.516 OA
ENDBRANCH   6  20
TORSDOF 3
ENDMDL
