MODEL 1
REMARK VINA RESULT: -5.279060088      0.000      0.000
REMARK  3 active torsions:
REMARK  status: ('A' for Active; 'I' for Inactive)
REMARK    1  A    between atoms: N1_1  and  C1_4 
REMARK    2  A    between atoms: C2_11  and  C3_12 
REMARK    3  A    between atoms: C3_12  and  C4_14 
ROOT
HETATM    1  C3  UNL     1     -51.112 -20.985  12.495  1.00  0.00     0.230 C 
HETATM    2  O1  UNL     1     -52.175 -20.737  11.878  1.00  0.00    -0.283 OA
ENDROOT
BRANCH   1   3
HETATM    3  C2  UNL     1     -51.201 -21.371  13.889  1.00  0.00     0.147 A 
HETATM    4  C1  UNL     1     -51.118 -22.663  14.420  1.00  0.00     0.147 A 
HETATM    5  N2  UNL     1     -51.268 -22.565  15.755  1.00  0.00    -0.269 N 
HETATM    6  N3  UNL     1     -51.438 -21.302  16.086  1.00  0.00    -0.240 N 
ATOM      7  H2  UNL     1     -51.252 -23.349  16.408  1.00  0.00     0.190 HD
HETATM    8  N4  UNL     1     -51.398 -20.601  14.971  1.00  0.00    -0.279 N 
ATOM      9  H3  UNL     1     -51.576 -20.935  17.027  1.00  0.00     0.208 HD
ATOM     10  H4  UNL     1     -51.503 -19.587  14.934  1.00  0.00     0.189 HD
BRANCH   4  11
HETATM   11  N1  UNL     1     -50.933 -23.758  13.799  1.00  0.00    -0.382 N 
ATOM     12  H12 UNL     1     -50.155 -24.015  13.193  1.00  0.00     0.157 HD
ATOM     13  H11 UNL     1     -51.573 -24.552  13.835  1.00  0.00     0.157 HD
ENDBRANCH   4  11
ENDBRANCH   1   3
BRANCH   1  14
HETATM   14  C4  UNL     1     -49.867 -20.862  11.752  1.00  0.00     0.094 A 
HETATM   15  C5  UNL     1     -49.778 -21.331  10.442  1.00  0.00     0.108 A 
HETATM   16  C6  UNL     1     -48.613 -21.234   9.731  1.00  0.00     0.251 A 
HETATM   17  O2  UNL     1     -48.546 -21.664   8.542  1.00  0.00    -0.268 OA
HETATM   18  N5  UNL     1     -47.550 -20.674  10.320  1.00  0.00    -0.275 N 
HETATM   19  C7  UNL     1     -47.644 -20.226  11.576  1.00  0.00     0.327 A 
ATOM     20  H5  UNL     1     -46.669 -20.588   9.812  1.00  0.00     0.173 HD
HETATM   21  O3  UNL     1     -46.645 -19.689  12.163  1.00  0.00    -0.247 OA
HETATM   22  N6  UNL     1     -48.779 -20.307  12.308  1.00  0.00    -0.305 N 
ATOM     23  H6  UNL     1     -48.807 -19.953  13.265  1.00  0.00     0.171 HD
ENDBRANCH   1  14
TORSDOF 3
ENDMDL
MODEL 2
REMARK VINA RESULT: -5.230248811      1.695      2.855
REMARK  3 active torsions:
REMARK  status: ('A' for Active; 'I' for Inactive)
REMARK    1  A    between atoms: N1_1  and  C1_4 
REMARK    2  A    between atoms: C2_11  and  C3_12 
REMARK    3  A    between atoms: C3_12  and  C4_14 
ROOT
HETATM    1  C3  UNL     1     -50.473 -21.956  13.585  1.00  0.00     0.230 C 
HETATM    2  O1  UNL     1     -50.395 -23.013  14.255  1.00  0.00    -0.283 OA
ENDROOT
BRANCH   1   3
HETATM    3  C2  UNL     1     -51.517 -21.008  13.917  1.00  0.00     0.147 A 
HETATM    4  C1  UNL     1     -52.027 -20.714  15.186  1.00  0.00     0.147 A 
HETATM    5  N2  UNL     1     -52.993 -19.789  15.034  1.00  0.00    -0.269 N 
HETATM    6  N3  UNL     1     -53.117 -19.491  13.757  1.00  0.00    -0.240 N 
ATOM      7  H2  UNL     1     -53.544 -19.383  15.790  1.00  0.00     0.190 HD
HETATM    8  N4  UNL     1     -52.237 -20.220  13.102  1.00  0.00    -0.279 N 
ATOM      9  H3  UNL     1     -53.771 -18.821  13.352  1.00  0.00     0.208 HD
ATOM     10  H4  UNL     1     -52.116 -20.189  12.090  1.00  0.00     0.189 HD
BRANCH   4  11
HETATM   11  N1  UNL     1     -51.674 -21.201  16.308  1.00  0.00    -0.382 N 
ATOM     12  H12 UNL     1     -52.184 -21.186  17.190  1.00  0.00     0.157 HD
ATOM     13  H11 UNL     1     -50.794 -21.692  16.468  1.00  0.00     0.157 HD
ENDBRANCH   4  11
ENDBRANCH   1   3
BRANCH   1  14
HETATM   14  C4  UNL     1     -49.498 -21.770  12.521  1.00  0.00     0.094 A 
HETATM   15  C5  UNL     1     -48.451 -20.863  12.674  1.00  0.00     0.108 A 
HETATM   16  C6  UNL     1     -47.531 -20.667  11.680  1.00  0.00     0.251 A 
HETATM   17  O2  UNL     1     -46.585 -19.840  11.832  1.00  0.00    -0.268 OA
HETATM   18  N5  UNL     1     -47.654 -21.370  10.548  1.00  0.00    -0.275 N 
HETATM   19  C7  UNL     1     -48.661 -22.239  10.410  1.00  0.00     0.327 A 
ATOM     20  H5  UNL     1     -46.981 -21.244   9.792  1.00  0.00     0.173 HD
HETATM   21  O3  UNL     1     -48.802 -22.922   9.341  1.00  0.00    -0.247 OA
HETATM   22  N6  UNL     1     -49.588 -22.456  11.371  1.00  0.00    -0.305 N 
ATOM     23  H6  UNL     1     -50.341 -23.128  11.224  1.00  0.00     0.171 HD
ENDBRANCH   1  14
TORSDOF 3
ENDMDL
MODEL 3
REMARK VINA RESULT: -5.208399628      1.908      5.458
REMARK  3 active torsions:
REMARK  status: ('A' for Active; 'I' for Inactive)
REMARK    1  A    between atoms: N1_1  and  C1_4 
REMARK    2  A    between atoms: C2_11  and  C3_12 
REMARK    3  A    between atoms: C3_12  and  C4_14 
ROOT
HETATM    1  C3  UNL     1     -47.871 -21.280  11.314  1.00  0.00     0.230 C 
HETATM    2  O1  UNL     1     -46.843 -21.271  12.031  1.00  0.00    -0.283 OA
ENDROOT
BRANCH   1   3
HETATM    3  C2  UNL     1     -47.709 -21.181   9.879  1.00  0.00     0.147 A 
HETATM    4  C1  UNL     1     -48.052 -22.137   8.916  1.00  0.00     0.147 A 
HETATM    5  N2  UNL     1     -47.715 -21.641   7.710  1.00  0.00    -0.269 N 
HETATM    6  N3  UNL     1     -47.187 -20.444   7.860  1.00  0.00    -0.240 N 
ATOM      7  H2  UNL     1     -47.849 -22.119   6.819  1.00  0.00     0.190 HD
HETATM    8  N4  UNL     1     -47.187 -20.180   9.151  1.00  0.00    -0.279 N 
ATOM      9  H3  UNL     1     -46.843 -19.836   7.117  1.00  0.00     0.208 HD
ATOM     10  H4  UNL     1     -46.832 -19.313   9.552  1.00  0.00     0.189 HD
BRANCH   4  11
HETATM   11  N1  UNL     1     -48.587 -23.277   9.096  1.00  0.00    -0.382 N 
ATOM     12  H12 UNL     1     -48.546 -24.096   8.490  1.00  0.00     0.157 HD
ATOM     13  H11 UNL     1     -49.150 -23.524   9.910  1.00  0.00     0.157 HD
ENDBRANCH   4  11
ENDBRANCH   1   3
BRANCH   1  14
HETATM   14  C4  UNL     1     -49.153 -21.390  11.994  1.00  0.00     0.094 A 
HETATM   15  C5  UNL     1     -50.269 -20.709  11.511  1.00  0.00     0.108 A 
HETATM   16  C6  UNL     1     -51.481 -20.793  12.143  1.00  0.00     0.251 A 
HETATM   17  O2  UNL     1     -52.486 -20.169  11.693  1.00  0.00    -0.268 OA
HETATM   18  N5  UNL     1     -51.576 -21.548  13.244  1.00  0.00    -0.275 N 
HETATM   19  C7  UNL     1     -50.500 -22.197  13.700  1.00  0.00     0.327 A 
ATOM     20  H5  UNL     1     -52.467 -21.627  13.734  1.00  0.00     0.173 HD
HETATM   21  O3  UNL     1     -50.563 -22.924  14.749  1.00  0.00    -0.247 OA
HETATM   22  N6  UNL     1     -49.289 -22.137  13.102  1.00  0.00    -0.305 N 
ATOM     23  H6  UNL     1     -48.493 -22.648  13.484  1.00  0.00     0.171 HD
ENDBRANCH   1  14
TORSDOF 3
ENDMDL
MODEL 4
REMARK VINA RESULT: -5.168533072      1.666      1.983
REMARK  3 active torsions:
REMARK  status: ('A' for Active; 'I' for Inactive)
REMARK    1  A    between atoms: N1_1  and  C1_4 
REMARK    2  A    between atoms: C2_11  and  C3_12 
REMARK    3  A    between atoms: C3_12  and  C4_14 
ROOT
HETATM    1  C3  UNL     1     -50.679 -22.224  13.633  1.00  0.00     0.230 C 
HETATM    2  O1  UNL     1     -50.646 -23.388  14.098  1.00  0.00    -0.283 OA
ENDROOT
BRANCH   1   3
HETATM    3  C2  UNL     1     -51.589 -21.271  14.233  1.00  0.00     0.147 A 
HETATM    4  C1  UNL     1     -52.053 -21.253  15.553  1.00  0.00     0.147 A 
HETATM    5  N2  UNL     1     -52.890 -20.206  15.678  1.00  0.00    -0.269 N 
HETATM    6  N3  UNL     1     -52.975 -19.573  14.525  1.00  0.00    -0.240 N 
ATOM      7  H2  UNL     1     -53.382 -19.943  16.532  1.00  0.00     0.190 HD
HETATM    8  N4  UNL     1     -52.200 -20.214  13.674  1.00  0.00    -0.279 N 
ATOM      9  H3  UNL     1     -53.536 -18.745  14.329  1.00  0.00     0.208 HD
ATOM     10  H4  UNL     1     -52.077 -19.937  12.700  1.00  0.00     0.189 HD
BRANCH   4  11
HETATM   11  N1  UNL     1     -51.766 -22.055  16.499  1.00  0.00    -0.382 N 
ATOM     12  H12 UNL     1     -52.398 -22.647  17.037  1.00  0.00     0.157 HD
ATOM     13  H11 UNL     1     -50.821 -22.212  16.850  1.00  0.00     0.157 HD
ENDBRANCH   4  11
ENDBRANCH   1   3
BRANCH   1  14
HETATM   14  C4  UNL     1     -49.790 -21.929  12.519  1.00  0.00     0.094 A 
HETATM   15  C5  UNL     1     -50.251 -22.017  11.206  1.00  0.00     0.108 A 
HETATM   16  C6  UNL     1     -49.427 -21.753  10.146  1.00  0.00     0.251 A 
HETATM   17  O2  UNL     1     -49.859 -21.837   8.958  1.00  0.00    -0.268 OA
HETATM   18  N5  UNL     1     -48.158 -21.405  10.393  1.00  0.00    -0.275 N 
HETATM   19  C7  UNL     1     -47.725 -21.323  11.655  1.00  0.00     0.327 A 
ATOM     20  H5  UNL     1     -47.524 -21.203   9.621  1.00  0.00     0.173 HD
HETATM   21  O3  UNL     1     -46.520 -20.994  11.920  1.00  0.00    -0.247 OA
HETATM   22  N6  UNL     1     -48.512 -21.578  12.727  1.00  0.00    -0.305 N 
ATOM     23  H6  UNL     1     -48.140 -21.503  13.674  1.00  0.00     0.171 HD
ENDBRANCH   1  14
TORSDOF 3
ENDMDL
MODEL 5
REMARK VINA RESULT: -5.137316260      2.734      6.573
REMARK  3 active torsions:
REMARK  status: ('A' for Active; 'I' for Inactive)
REMARK    1  A    between atoms: N1_1  and  C1_4 
REMARK    2  A    between atoms: C2_11  and  C3_12 
REMARK    3  A    between atoms: C3_12  and  C4_14 
ROOT
HETATM    1  C3  UNL     1     -47.320 -21.821   8.481  1.00  0.00     0.230 C 
HETATM    2  O1  UNL     1     -46.535 -22.795   8.572  1.00  0.00    -0.283 OA
ENDROOT
BRANCH   1   3
HETATM    3  C2  UNL     1     -47.560 -21.253   7.171  1.00  0.00     0.147 A 
HETATM    4  C1  UNL     1     -46.949 -20.128   6.606  1.00  0.00     0.147 A 
HETATM    5  N2  UNL     1     -47.479 -19.946   5.382  1.00  0.00    -0.269 N 
HETATM    6  N3  UNL     1     -48.377 -20.881   5.150  1.00  0.00    -0.240 N 
ATOM      7  H2  UNL     1     -47.225 -19.199   4.735  1.00  0.00     0.190 HD
HETATM    8  N4  UNL     1     -48.418 -21.652   6.218  1.00  0.00    -0.279 N 
ATOM      9  H3  UNL     1     -48.935 -20.988   4.303  1.00  0.00     0.208 HD
ATOM     10  H4  UNL     1     -49.032 -22.460   6.310  1.00  0.00     0.189 HD
BRANCH   4  11
HETATM   11  N1  UNL     1     -46.051 -19.382   7.115  1.00  0.00    -0.382 N 
ATOM     12  H12 UNL     1     -45.133 -19.652   7.467  1.00  0.00     0.157 HD
ATOM     13  H11 UNL     1     -46.145 -18.374   7.238  1.00  0.00     0.157 HD
ENDBRANCH   4  11
ENDBRANCH   1   3
BRANCH   1  14
HETATM   14  C4  UNL     1     -47.928 -21.341   9.713  1.00  0.00     0.094 A 
HETATM   15  C5  UNL     1     -49.306 -21.429   9.902  1.00  0.00     0.108 A 
HETATM   16  C6  UNL     1     -49.896 -20.973  11.049  1.00  0.00     0.251 A 
HETATM   17  O2  UNL     1     -51.149 -21.061  11.207  1.00  0.00    -0.268 OA
HETATM   18  N5  UNL     1     -49.119 -20.435  11.997  1.00  0.00    -0.275 N 
HETATM   19  C7  UNL     1     -47.798 -20.354  11.808  1.00  0.00     0.327 A 
ATOM     20  H5  UNL     1     -49.534 -20.088  12.862  1.00  0.00     0.173 HD
HETATM   21  O3  UNL     1     -47.034 -19.845  12.695  1.00  0.00    -0.247 OA
HETATM   22  N6  UNL     1     -47.182 -20.794  10.686  1.00  0.00    -0.305 N 
ATOM     23  H6  UNL     1     -46.171 -20.712  10.583  1.00  0.00     0.171 HD
ENDBRANCH   1  14
TORSDOF 3
ENDMDL
