MODEL 1
REMARK VINA RESULT: -4.919025553      0.000      0.000
REMARK  6 active torsions:
REMARK  status: ('A' for Active; 'I' for Inactive)
REMARK    1  A    between atoms: N1_1  and  N2_4 
REMARK    2  A    between atoms: N2_4  and  C1_6 
REMARK    3  A    between atoms: C2_9  and  N4_10 
REMARK    4  A    between atoms: N4_10  and  C3_12 
REMARK    5  A    between atoms: C3_12  and  N5_13 
REMARK    6  A    between atoms: N5_13  and  O1_15 
ROOT
HETATM    1  C1  UNL     1     -48.096 -20.628  10.001  1.00  0.00     0.699 C 
HETATM    2  N3  UNL     1     -47.197 -20.314   9.037  1.00  0.00    -0.171 N 
ATOM      3  H3  UNL     1     -46.747 -19.404   9.131  1.00  0.00     0.186 HD
HETATM    4  C2  UNL     1     -46.814 -21.057   7.954  1.00  0.00     0.175 C 
HETATM    5  C4  UNL     1     -46.914 -22.426   7.909  1.00  0.00     0.246 C 
HETATM    6  O2  UNL     1     -46.068 -23.001   7.218  1.00  0.00    -0.282 OA
HETATM    7  C5  UNL     1     -47.840 -23.277   8.532  1.00  0.00     0.133 A 
HETATM    8  N6  UNL     1     -48.069 -24.563   8.228  1.00  0.00    -0.346 N 
ATOM      9  H6  UNL     1     -47.594 -25.094   7.497  1.00  0.00     0.167 HD
HETATM   10  C6  UNL     1     -49.033 -25.042   9.052  1.00  0.00     0.182 A 
HETATM   11  N7  UNL     1     -49.421 -24.060   9.882  1.00  0.00    -0.336 N 
ATOM     12  H7  UNL     1     -50.132 -24.130  10.609  1.00  0.00     0.168 HD
HETATM   13  C7  UNL     1     -48.698 -22.967   9.577  1.00  0.00     0.153 A 
HETATM   14  N8  UNL     1     -48.793 -21.764  10.189  1.00  0.00    -0.173 N 
ATOM     15  H8  UNL     1     -49.510 -21.708  10.913  1.00  0.00     0.186 HD
ENDROOT
BRANCH   4  16
HETATM   16  N4  UNL     1     -46.360 -20.377   7.001  1.00  0.00    -0.333 N 
ATOM     17  H4  UNL     1     -45.948 -20.950   6.265  1.00  0.00     0.168 HD
BRANCH  16  18
HETATM   18  C3  UNL     1     -46.293 -19.000   6.724  1.00  0.00     0.205 C 
BRANCH  18  19
HETATM   19  N5  UNL     1     -45.018 -18.380   7.068  1.00  0.00    -0.265 N 
ATOM     20  H5  UNL     1     -44.213 -18.402   6.443  1.00  0.00     0.194 HD
BRANCH  19  21
HETATM   21  O1  UNL     1     -44.988 -17.844   8.142  1.00  0.00    -0.289 OA
ATOM     22  H1  UNL     1     -45.473 -17.029   8.198  1.00  0.00     0.244 HD
ENDBRANCH  19  21
ENDBRANCH  18  19
ENDBRANCH  16  18
ENDBRANCH   4  16
BRANCH   1  23
HETATM   23  N2  UNL     1     -48.346 -19.725  10.886  1.00  0.00    -0.138 N 
ATOM     24  H2  UNL     1     -48.546 -18.783  10.550  1.00  0.00     0.205 HD
BRANCH  23  25
HETATM   25  N1  UNL     1     -48.366 -19.925  12.246  1.00  0.00    -0.331 N 
ATOM     26  H12 UNL     1     -49.196 -19.594  12.737  1.00  0.00     0.177 HD
ATOM     27  H11 UNL     1     -47.628 -20.372  12.790  1.00  0.00     0.177 HD
ENDBRANCH  23  25
ENDBRANCH   1  23
TORSDOF 6
ENDMDL
MODEL 2
REMARK VINA RESULT: -4.771498721      2.401      3.962
REMARK  6 active torsions:
REMARK  status: ('A' for Active; 'I' for Inactive)
REMARK    1  A    between atoms: N1_1  and  N2_4 
REMARK    2  A    between atoms: N2_4  and  C1_6 
REMARK    3  A    between atoms: C2_9  and  N4_10 
REMARK    4  A    between atoms: N4_10  and  C3_12 
REMARK    5  A    between atoms: C3_12  and  N5_13 
REMARK    6  A    between atoms: N5_13  and  O1_15 
ROOT
HETATM    1  C1  UNL     1     -46.509 -22.693   7.628  1.00  0.00     0.699 C 
HETATM    2  N3  UNL     1     -46.785 -21.579   8.348  1.00  0.00    -0.171 N 
ATOM      3  H3  UNL     1     -46.296 -20.732   8.058  1.00  0.00     0.186 HD
HETATM    4  C2  UNL     1     -47.633 -21.440   9.413  1.00  0.00     0.175 C 
HETATM    5  C4  UNL     1     -48.696 -22.278   9.640  1.00  0.00     0.246 C 
HETATM    6  O2  UNL     1     -49.665 -21.768  10.211  1.00  0.00    -0.282 OA
HETATM    7  C5  UNL     1     -48.851 -23.635   9.321  1.00  0.00     0.133 A 
HETATM    8  N6  UNL     1     -49.778 -24.469   9.815  1.00  0.00    -0.346 N 
ATOM      9  H6  UNL     1     -50.498 -24.220  10.495  1.00  0.00     0.167 HD
HETATM   10  C6  UNL     1     -49.603 -25.694   9.265  1.00  0.00     0.182 A 
HETATM   11  N7  UNL     1     -48.561 -25.645   8.418  1.00  0.00    -0.336 N 
ATOM     12  H7  UNL     1     -48.198 -26.418   7.862  1.00  0.00     0.168 HD
HETATM   13  C7  UNL     1     -48.087 -24.386   8.440  1.00  0.00     0.153 A 
HETATM   14  N8  UNL     1     -47.036 -23.928   7.720  1.00  0.00    -0.173 N 
ATOM     15  H8  UNL     1     -46.566 -24.634   7.153  1.00  0.00     0.186 HD
ENDROOT
BRANCH   4  16
HETATM   16  N4  UNL     1     -47.353 -20.476  10.168  1.00  0.00    -0.333 N 
ATOM     17  H4  UNL     1     -47.294 -19.587   9.671  1.00  0.00     0.168 HD
BRANCH  16  18
HETATM   18  C3  UNL     1     -47.102 -20.350  11.546  1.00  0.00     0.205 C 
BRANCH  18  19
HETATM   19  N5  UNL     1     -48.238 -19.863  12.319  1.00  0.00    -0.265 N 
ATOM     20  H5  UNL     1     -48.379 -20.109  13.300  1.00  0.00     0.194 HD
BRANCH  19  21
HETATM   21  O1  UNL     1     -48.996 -19.152  11.717  1.00  0.00    -0.289 OA
ATOM     22  H1  UNL     1     -49.692 -18.771  12.241  1.00  0.00     0.244 HD
ENDBRANCH  19  21
ENDBRANCH  18  19
ENDBRANCH  16  18
ENDBRANCH   4  16
BRANCH   1  23
HETATM   23  N2  UNL     1     -45.611 -22.590   6.710  1.00  0.00    -0.138 N 
ATOM     24  H2  UNL     1     -45.525 -23.365   6.051  1.00  0.00     0.205 HD
BRANCH  23  25
HETATM   25  N1  UNL     1     -44.757 -21.525   6.543  1.00  0.00    -0.331 N 
ATOM     26  H12 UNL     1     -43.799 -21.753   6.277  1.00  0.00     0.177 HD
ATOM     27  H11 UNL     1     -45.006 -20.543   6.663  1.00  0.00     0.177 HD
ENDBRANCH  23  25
ENDBRANCH   1  23
TORSDOF 6
ENDMDL
MODEL 3
REMARK VINA RESULT: -4.659943390      2.126      4.590
REMARK  6 active torsions:
REMARK  status: ('A' for Active; 'I' for Inactive)
REMARK    1  A    between atoms: N1_1  and  N2_4 
REMARK    2  A    between atoms: N2_4  and  C1_6 
REMARK    3  A    between atoms: C2_9  and  N4_10 
REMARK    4  A    between atoms: N4_10  and  C3_12 
REMARK    5  A    between atoms: C3_12  and  N5_13 
REMARK    6  A    between atoms: N5_13  and  O1_15 
ROOT
HETATM    1  C1  UNL     1     -48.763 -24.477   9.370  1.00  0.00     0.699 C 
HETATM    2  N3  UNL     1     -49.243 -23.407  10.048  1.00  0.00    -0.171 N 
ATOM      3  H3  UNL     1     -49.880 -23.620  10.815  1.00  0.00     0.186 HD
HETATM    4  C2  UNL     1     -48.987 -22.079   9.839  1.00  0.00     0.175 C 
HETATM    5  C4  UNL     1     -47.848 -21.623   9.223  1.00  0.00     0.246 C 
HETATM    6  O2  UNL     1     -47.453 -20.511   9.588  1.00  0.00    -0.282 OA
HETATM    7  C5  UNL     1     -47.060 -22.230   8.233  1.00  0.00     0.133 A 
HETATM    8  N6  UNL     1     -46.137 -21.627   7.469  1.00  0.00    -0.346 N 
ATOM      9  H6  UNL     1     -45.888 -20.638   7.509  1.00  0.00     0.167 HD
HETATM   10  C6  UNL     1     -45.592 -22.545   6.636  1.00  0.00     0.182 A 
HETATM   11  N7  UNL     1     -46.167 -23.737   6.867  1.00  0.00    -0.336 N 
ATOM     12  H7  UNL     1     -45.956 -24.612   6.388  1.00  0.00     0.168 HD
HETATM   13  C7  UNL     1     -47.072 -23.562   7.846  1.00  0.00     0.153 A 
HETATM   14  N8  UNL     1     -47.865 -24.527   8.368  1.00  0.00    -0.173 N 
ATOM     15  H8  UNL     1     -47.766 -25.444   7.931  1.00  0.00     0.186 HD
ENDROOT
BRANCH   4  16
HETATM   16  N4  UNL     1     -49.887 -21.312  10.260  1.00  0.00    -0.333 N 
ATOM     17  H4  UNL     1     -50.546 -21.036   9.533  1.00  0.00     0.168 HD
BRANCH  16  18
HETATM   18  C3  UNL     1     -50.187 -20.748  11.513  1.00  0.00     0.205 C 
BRANCH  18  19
HETATM   19  N5  UNL     1     -49.072 -20.045  12.137  1.00  0.00    -0.265 N 
ATOM     20  H5  UNL     1     -48.590 -20.405  12.961  1.00  0.00     0.194 HD
BRANCH  19  21
HETATM   21  O1  UNL     1     -48.763 -19.012  11.608  1.00  0.00    -0.289 OA
ATOM     22  H1  UNL     1     -48.427 -18.345  12.196  1.00  0.00     0.244 HD
ENDBRANCH  19  21
ENDBRANCH  18  19
ENDBRANCH  16  18
ENDBRANCH   4  16
BRANCH   1  23
HETATM   23  N2  UNL     1     -49.212 -25.637   9.708  1.00  0.00    -0.138 N 
ATOM     24  H2  UNL     1     -50.223 -25.774   9.677  1.00  0.00     0.205 HD
BRANCH  23  25
HETATM   25  N1  UNL     1     -48.444 -26.704  10.109  1.00  0.00    -0.331 N 
ATOM     26  H12 UNL     1     -47.836 -26.545  10.912  1.00  0.00     0.177 HD
ATOM     27  H11 UNL     1     -48.437 -27.625   9.671  1.00  0.00     0.177 HD
ENDBRANCH  23  25
ENDBRANCH   1  23
TORSDOF 6
ENDMDL
MODEL 4
REMARK VINA RESULT: -4.620563119      2.111      4.138
REMARK  6 active torsions:
REMARK  status: ('A' for Active; 'I' for Inactive)
REMARK    1  A    between atoms: N1_1  and  N2_4 
REMARK    2  A    between atoms: N2_4  and  C1_6 
REMARK    3  A    between atoms: C2_9  and  N4_10 
REMARK    4  A    between atoms: N4_10  and  C3_12 
REMARK    5  A    between atoms: C3_12  and  N5_13 
REMARK    6  A    between atoms: N5_13  and  O1_15 
ROOT
HETATM    1  C1  UNL     1     -46.309 -20.334   7.331  1.00  0.00     0.699 C 
HETATM    2  N3  UNL     1     -47.271 -20.383   8.283  1.00  0.00    -0.171 N 
ATOM      3  H3  UNL     1     -47.756 -19.506   8.468  1.00  0.00     0.186 HD
HETATM    4  C2  UNL     1     -47.678 -21.456   9.030  1.00  0.00     0.175 C 
HETATM    5  C4  UNL     1     -47.519 -22.757   8.622  1.00  0.00     0.246 C 
HETATM    6  O2  UNL     1     -48.374 -23.551   9.026  1.00  0.00    -0.282 OA
HETATM    7  C5  UNL     1     -46.524 -23.327   7.813  1.00  0.00     0.133 A 
HETATM    8  N6  UNL     1     -46.254 -24.635   7.686  1.00  0.00    -0.346 N 
ATOM      9  H6  UNL     1     -46.742 -25.391   8.165  1.00  0.00     0.167 HD
HETATM   10  C6  UNL     1     -45.227 -24.786   6.815  1.00  0.00     0.182 A 
HETATM   11  N7  UNL     1     -44.839 -23.573   6.386  1.00  0.00    -0.336 N 
ATOM     12  H7  UNL     1     -44.088 -23.378   5.725  1.00  0.00     0.168 HD
HETATM   13  C7  UNL     1     -45.626 -22.664   6.989  1.00  0.00     0.153 A 
HETATM   14  N8  UNL     1     -45.553 -21.323   6.821  1.00  0.00    -0.173 N 
ATOM     15  H8  UNL     1     -44.802 -21.011   6.205  1.00  0.00     0.186 HD
ENDROOT
BRANCH   4  16
HETATM   16  N4  UNL     1     -48.212 -21.146  10.123  1.00  0.00    -0.333 N 
ATOM     17  H4  UNL     1     -49.201 -20.911  10.029  1.00  0.00     0.168 HD
BRANCH  16  18
HETATM   18  C3  UNL     1     -47.750 -21.049  11.447  1.00  0.00     0.205 C 
BRANCH  18  19
HETATM   19  N5  UNL     1     -48.374 -19.984  12.224  1.00  0.00    -0.265 N 
ATOM     20  H5  UNL     1     -48.531 -20.059  13.229  1.00  0.00     0.194 HD
BRANCH  19  21
HETATM   21  O1  UNL     1     -48.691 -19.013  11.592  1.00  0.00    -0.289 OA
ATOM     22  H1  UNL     1     -49.071 -18.307  12.103  1.00  0.00     0.244 HD
ENDBRANCH  19  21
ENDBRANCH  18  19
ENDBRANCH  16  18
ENDBRANCH   4  16
BRANCH   1  23
HETATM   23  N2  UNL     1     -46.053 -19.180   6.815  1.00  0.00    -0.138 N 
ATOM     24  H2  UNL     1     -46.658 -18.862   6.057  1.00  0.00     0.205 HD
BRANCH  23  25
HETATM   25  N1  UNL     1     -45.033 -18.343   7.200  1.00  0.00    -0.331 N 
ATOM     26  H12 UNL     1     -44.151 -18.448   6.698  1.00  0.00     0.177 HD
ATOM     27  H11 UNL     1     -45.090 -17.639   7.935  1.00  0.00     0.177 HD
ENDBRANCH  23  25
ENDBRANCH   1  23
TORSDOF 6
ENDMDL
MODEL 5
REMARK VINA RESULT: -4.605897126      2.090      3.661
REMARK  6 active torsions:
REMARK  status: ('A' for Active; 'I' for Inactive)
REMARK    1  A    between atoms: N1_1  and  N2_4 
REMARK    2  A    between atoms: N2_4  and  C1_6 
REMARK    3  A    between atoms: C2_9  and  N4_10 
REMARK    4  A    between atoms: N4_10  and  C3_12 
REMARK    5  A    between atoms: C3_12  and  N5_13 
REMARK    6  A    between atoms: N5_13  and  O1_15 
ROOT
HETATM    1  C1  UNL     1     -49.776 -22.469   9.025  1.00  0.00     0.699 C 
HETATM    2  N3  UNL     1     -48.832 -21.685   8.453  1.00  0.00    -0.171 N 
ATOM      3  H3  UNL     1     -48.819 -21.680   7.434  1.00  0.00     0.186 HD
HETATM    4  C2  UNL     1     -47.892 -20.898   9.063  1.00  0.00     0.175 C 
HETATM    5  C4  UNL     1     -48.041 -20.400  10.334  1.00  0.00     0.246 C 
HETATM    6  O2  UNL     1     -47.492 -19.315  10.549  1.00  0.00    -0.282 OA
HETATM    7  C5  UNL     1     -48.726 -20.940  11.433  1.00  0.00     0.133 A 
HETATM    8  N6  UNL     1     -48.600 -20.562  12.714  1.00  0.00    -0.346 N 
ATOM      9  H6  UNL     1     -47.983 -19.825  13.057  1.00  0.00     0.167 HD
HETATM   10  C6  UNL     1     -49.426 -21.318  13.476  1.00  0.00     0.182 A 
HETATM   11  N7  UNL     1     -50.080 -22.181  12.683  1.00  0.00    -0.336 N 
ATOM     12  H7  UNL     1     -50.767 -22.874  12.980  1.00  0.00     0.168 HD
HETATM   13  C7  UNL     1     -49.663 -21.963  11.423  1.00  0.00     0.153 A 
HETATM   14  N8  UNL     1     -50.087 -22.632  10.325  1.00  0.00    -0.173 N 
ATOM     15  H8  UNL     1     -50.751 -23.383  10.513  1.00  0.00     0.186 HD
ENDROOT
BRANCH   4  16
HETATM   16  N4  UNL     1     -46.880 -20.671   8.358  1.00  0.00    -0.333 N 
ATOM     17  H4  UNL     1     -46.027 -21.076   8.745  1.00  0.00     0.168 HD
BRANCH  16  18
HETATM   18  C3  UNL     1     -46.659 -19.980   7.152  1.00  0.00     0.205 C 
BRANCH  18  19
HETATM   19  N5  UNL     1     -45.769 -18.831   7.274  1.00  0.00    -0.265 N 
ATOM     20  H5  UNL     1     -45.107 -18.571   6.543  1.00  0.00     0.194 HD
BRANCH  19  21
HETATM   21  O1  UNL     1     -45.874 -18.213   8.299  1.00  0.00    -0.289 OA
ATOM     22  H1  UNL     1     -46.476 -18.586   8.933  1.00  0.00     0.244 HD
ENDBRANCH  19  21
ENDBRANCH  18  19
ENDBRANCH  16  18
ENDBRANCH   4  16
BRANCH   1  23
HETATM   23  N2  UNL     1     -50.505 -23.182   8.236  1.00  0.00    -0.138 N 
ATOM     24  H2  UNL     1     -50.704 -24.141   8.522  1.00  0.00     0.205 HD
BRANCH  23  25
HETATM   25  N1  UNL     1     -51.035 -22.758   7.040  1.00  0.00    -0.331 N 
ATOM     26  H12 UNL     1     -50.792 -21.810   6.751  1.00  0.00     0.177 HD
ATOM     27  H11 UNL     1     -51.641 -23.309   6.433  1.00  0.00     0.177 HD
ENDBRANCH  23  25
ENDBRANCH   1  23
TORSDOF 6
ENDMDL
