MODEL 1
REMARK VINA RESULT: -5.138754564      0.000      0.000
REMARK  2 active torsions:
REMARK  status: ('A' for Active; 'I' for Inactive)
REMARK    1  A    between atoms: N3_4  and  N4_6 
REMARK    2  A    between atoms: C2_8  and  C3_9 
ROOT
HETATM    1  C3  UNL     1     -48.456 -20.861  10.650  1.00  0.00     0.090 A 
HETATM    2  C4  UNL     1     -49.697 -21.458  10.565  1.00  0.00     0.137 A 
HETATM    3  N5  UNL     1     -50.152 -21.880   9.292  1.00  0.00    -0.081 NA
HETATM    4  N6  UNL     1     -50.401 -21.604  11.690  1.00  0.00    -0.296 N 
ATOM      5  H6  UNL     1     -51.322 -22.042  11.657  1.00  0.00     0.171 HD
HETATM    6  C5  UNL     1     -49.908 -21.180  12.868  1.00  0.00     0.328 A 
HETATM    7  O1  UNL     1     -50.607 -21.335  13.926  1.00  0.00    -0.247 OA
HETATM    8  N7  UNL     1     -48.702 -20.593  12.991  1.00  0.00    -0.275 N 
ATOM      9  H7  UNL     1     -48.354 -20.279  13.898  1.00  0.00     0.173 HD
HETATM   10  C6  UNL     1     -47.978 -20.436  11.867  1.00  0.00     0.264 A 
HETATM   11  O2  UNL     1     -46.847 -19.891  11.953  1.00  0.00    -0.267 OA
ENDROOT
BRANCH   1  12
HETATM   12  C2  UNL     1     -47.653 -20.681   9.448  1.00  0.00     0.127 C 
HETATM   13  N4  UNL     1     -47.208 -21.660   8.766  1.00  0.00    -0.309 N 
ATOM     14  H4  UNL     1     -47.420 -22.610   9.070  1.00  0.00     0.186 HD
BRANCH  13  15
HETATM   15  N3  UNL     1     -46.440 -21.476   7.616  1.00  0.00    -0.276 N 
HETATM   16  C1  UNL     1     -45.682 -22.384   7.117  1.00  0.00     0.215 C 
HETATM   17  N1  UNL     1     -45.551 -23.677   7.691  1.00  0.00    -0.065 NA
HETATM   18  N2  UNL     1     -44.954 -22.050   5.932  1.00  0.00    -0.065 NA
ATOM     19  H3  UNL     1     -46.483 -20.572   7.146  1.00  0.00     0.189 HD
ENDBRANCH  13  15
ENDBRANCH   1  12
TORSDOF 2
ENDMDL
MODEL 2
REMARK VINA RESULT: -5.056727213      1.370      2.110
REMARK  2 active torsions:
REMARK  status: ('A' for Active; 'I' for Inactive)
REMARK    1  A    between atoms: N3_4  and  N4_6 
REMARK    2  A    between atoms: C2_8  and  C3_9 
ROOT
HETATM    1  C3  UNL     1     -48.607 -20.957  10.708  1.00  0.00     0.090 A 
HETATM    2  C4  UNL     1     -48.057 -20.500  11.888  1.00  0.00     0.137 A 
HETATM    3  N5  UNL     1     -46.786 -19.876  11.839  1.00  0.00    -0.081 NA
HETATM    4  N6  UNL     1     -48.756 -20.673  13.013  1.00  0.00    -0.296 N 
ATOM      5  H6  UNL     1     -48.373 -20.345  13.901  1.00  0.00     0.171 HD
HETATM    6  C5  UNL     1     -49.959 -21.274  12.988  1.00  0.00     0.328 A 
HETATM    7  O1  UNL     1     -50.601 -21.423  14.082  1.00  0.00    -0.247 OA
HETATM    8  N7  UNL     1     -50.528 -21.733  11.857  1.00  0.00    -0.275 N 
ATOM      9  H7  UNL     1     -51.442 -22.187  11.868  1.00  0.00     0.173 HD
HETATM   10  C6  UNL     1     -49.838 -21.569  10.713  1.00  0.00     0.264 A 
HETATM   11  O2  UNL     1     -50.347 -21.987   9.640  1.00  0.00    -0.267 OA
ENDROOT
BRANCH   1  12
HETATM   12  C2  UNL     1     -47.881 -20.790   9.457  1.00  0.00     0.127 C 
HETATM   13  N4  UNL     1     -47.162 -21.710   8.950  1.00  0.00    -0.309 N 
ATOM     14  H4  UNL     1     -47.089 -22.603   9.437  1.00  0.00     0.186 HD
BRANCH  13  15
HETATM   15  N3  UNL     1     -46.471 -21.539   7.750  1.00  0.00    -0.276 N 
HETATM   16  C1  UNL     1     -45.766 -22.459   7.200  1.00  0.00     0.215 C 
HETATM   17  N1  UNL     1     -45.619 -23.755   7.764  1.00  0.00    -0.065 NA
HETATM   18  N2  UNL     1     -45.114 -22.137   5.969  1.00  0.00    -0.065 NA
ATOM     19  H3  UNL     1     -46.530 -20.634   7.284  1.00  0.00     0.189 HD
ENDBRANCH  13  15
ENDBRANCH   1  12
TORSDOF 2
ENDMDL
MODEL 3
REMARK VINA RESULT: -5.030931409      2.302      5.870
REMARK  2 active torsions:
REMARK  status: ('A' for Active; 'I' for Inactive)
REMARK    1  A    between atoms: N3_4  and  N4_6 
REMARK    2  A    between atoms: C2_8  and  C3_9 
ROOT
HETATM    1  C3  UNL     1     -49.294 -20.967  10.626  1.00  0.00     0.090 A 
HETATM    2  C4  UNL     1     -49.618 -21.859   9.625  1.00  0.00     0.137 A 
HETATM    3  N5  UNL     1     -50.814 -22.607   9.754  1.00  0.00    -0.081 NA
HETATM    4  N6  UNL     1     -48.784 -21.968   8.588  1.00  0.00    -0.296 N 
ATOM      5  H6  UNL     1     -48.998 -22.620   7.833  1.00  0.00     0.171 HD
HETATM    6  C5  UNL     1     -47.663 -21.225   8.529  1.00  0.00     0.328 A 
HETATM    7  O1  UNL     1     -46.886 -21.354   7.522  1.00  0.00    -0.247 OA
HETATM    8  N7  UNL     1     -47.312 -20.345   9.485  1.00  0.00    -0.275 N 
ATOM      9  H7  UNL     1     -46.455 -19.796   9.415  1.00  0.00     0.173 HD
HETATM   10  C6  UNL     1     -48.141 -20.222  10.539  1.00  0.00     0.264 A 
HETATM   11  O2  UNL     1     -47.840 -19.406  11.449  1.00  0.00    -0.267 OA
ENDROOT
BRANCH   1  12
HETATM   12  C2  UNL     1     -50.175 -20.815  11.776  1.00  0.00     0.127 C 
HETATM   13  N4  UNL     1     -49.804 -21.073  12.966  1.00  0.00    -0.309 N 
ATOM     14  H4  UNL     1     -48.852 -21.401  13.126  1.00  0.00     0.186 HD
BRANCH  13  15
HETATM   15  N3  UNL     1     -50.657 -20.923  14.060  1.00  0.00    -0.276 N 
HETATM   16  C1  UNL     1     -51.080 -21.905  14.770  1.00  0.00     0.215 C 
HETATM   17  N1  UNL     1     -50.715 -23.254  14.510  1.00  0.00    -0.065 NA
HETATM   18  N2  UNL     1     -51.950 -21.597  15.862  1.00  0.00    -0.065 NA
ATOM     19  H3  UNL     1     -50.962 -19.982  14.309  1.00  0.00     0.189 HD
ENDBRANCH  13  15
ENDBRANCH   1  12
TORSDOF 2
ENDMDL
MODEL 4
REMARK VINA RESULT: -4.998016999      1.193      1.371
REMARK  2 active torsions:
REMARK  status: ('A' for Active; 'I' for Inactive)
REMARK    1  A    between atoms: N3_4  and  N4_6 
REMARK    2  A    between atoms: C2_8  and  C3_9 
ROOT
HETATM    1  C3  UNL     1     -48.399 -21.297  10.675  1.00  0.00     0.090 A 
HETATM    2  C4  UNL     1     -49.698 -21.763  10.639  1.00  0.00     0.137 A 
HETATM    3  N5  UNL     1     -50.367 -21.788   9.390  1.00  0.00    -0.081 NA
HETATM    4  N6  UNL     1     -50.253 -22.162  11.786  1.00  0.00    -0.296 N 
ATOM      5  H6  UNL     1     -51.212 -22.510  11.789  1.00  0.00     0.171 HD
HETATM    6  C5  UNL     1     -49.559 -22.111  12.938  1.00  0.00     0.328 A 
HETATM    7  O1  UNL     1     -50.120 -22.502  14.017  1.00  0.00    -0.247 OA
HETATM    8  N7  UNL     1     -48.291 -21.665  13.014  1.00  0.00    -0.275 N 
ATOM      9  H7  UNL     1     -47.790 -21.636  13.901  1.00  0.00     0.173 HD
HETATM   10  C6  UNL     1     -47.715 -21.257  11.867  1.00  0.00     0.264 A 
HETATM   11  O2  UNL     1     -46.530 -20.834  11.908  1.00  0.00    -0.267 OA
ENDROOT
BRANCH   1  12
HETATM   12  C2  UNL     1     -47.754 -20.852   9.448  1.00  0.00     0.127 C 
HETATM   13  N4  UNL     1     -47.133 -21.645   8.670  1.00  0.00    -0.309 N 
ATOM     14  H4  UNL     1     -47.084 -22.635   8.912  1.00  0.00     0.186 HD
BRANCH  13  15
HETATM   15  N3  UNL     1     -46.519 -21.207   7.496  1.00  0.00    -0.276 N 
HETATM   16  C1  UNL     1     -47.073 -21.268   6.340  1.00  0.00     0.215 C 
HETATM   17  N1  UNL     1     -48.379 -21.791   6.141  1.00  0.00    -0.065 NA
HETATM   18  N2  UNL     1     -46.320 -20.780   5.227  1.00  0.00    -0.065 NA
ATOM     19  H3  UNL     1     -45.579 -20.817   7.560  1.00  0.00     0.189 HD
ENDBRANCH  13  15
ENDBRANCH   1  12
TORSDOF 2
ENDMDL
MODEL 5
REMARK VINA RESULT: -4.945755085      2.618      6.217
REMARK  2 active torsions:
REMARK  status: ('A' for Active; 'I' for Inactive)
REMARK    1  A    between atoms: N3_4  and  N4_6 
REMARK    2  A    between atoms: C2_8  and  C3_9 
ROOT
HETATM    1  C3  UNL     1     -49.307 -21.036  10.566  1.00  0.00     0.090 A 
HETATM    2  C4  UNL     1     -48.113 -20.346  10.512  1.00  0.00     0.137 A 
HETATM    3  N5  UNL     1     -47.789 -19.482  11.587  1.00  0.00    -0.081 NA
HETATM    4  N6  UNL     1     -47.329 -20.533   9.447  1.00  0.00    -0.296 N 
ATOM      5  H6  UNL     1     -46.440 -20.035   9.381  1.00  0.00     0.171 HD
HETATM    6  C5  UNL     1     -47.699 -21.370   8.462  1.00  0.00     0.328 A 
HETATM    7  O1  UNL     1     -46.925 -21.526   7.457  1.00  0.00    -0.247 OA
HETATM    8  N7  UNL     1     -48.855 -22.060   8.477  1.00  0.00    -0.275 N 
ATOM      9  H7  UNL     1     -49.110 -22.687   7.715  1.00  0.00     0.173 HD
HETATM   10  C6  UNL     1     -49.659 -21.885   9.543  1.00  0.00     0.264 A 
HETATM   11  O2  UNL     1     -50.747 -22.517   9.585  1.00  0.00    -0.267 OA
ENDROOT
BRANCH   1  12
HETATM   12  C2  UNL     1     -50.194 -20.864  11.708  1.00  0.00     0.127 C 
HETATM   13  N4  UNL     1     -49.825 -21.094  12.905  1.00  0.00    -0.309 N 
ATOM     14  H4  UNL     1     -48.871 -21.412  13.075  1.00  0.00     0.186 HD
BRANCH  13  15
HETATM   15  N3  UNL     1     -50.683 -20.925  13.993  1.00  0.00    -0.276 N 
HETATM   16  C1  UNL     1     -51.086 -21.891  14.735  1.00  0.00     0.215 C 
HETATM   17  N1  UNL     1     -50.693 -23.240  14.520  1.00  0.00    -0.065 NA
HETATM   18  N2  UNL     1     -51.964 -21.565  15.815  1.00  0.00    -0.065 NA
ATOM     19  H3  UNL     1     -51.007 -19.983  14.210  1.00  0.00     0.189 HD
ENDBRANCH  13  15
ENDBRANCH   1  12
TORSDOF 2
ENDMDL
