MODEL 1
REMARK VINA RESULT: -4.897840982      0.000      0.000
REMARK  5 active torsions:
REMARK  status: ('A' for Active; 'I' for Inactive)
REMARK    1  A    between atoms: N1_1  and  C1_4 
REMARK    2  A    between atoms: C5_19  and  N7_20 
REMARK    3  A    between atoms: N7_20  and  C6_22 
REMARK    4  A    between atoms: C6_22  and  C7_23 
REMARK    5  A    between atoms: C7_23  and  N8_24 
ROOT
HETATM    1  C1  UNL     1     -50.423 -20.630  11.811  1.00  0.00     0.146 C 
HETATM    2  N2  UNL     1     -49.368 -19.822  11.486  1.00  0.00    -0.305 N 
ATOM      3  H2  UNL     1     -49.387 -18.888  11.895  1.00  0.00     0.171 HD
HETATM    4  C2  UNL     1     -48.298 -20.091  10.694  1.00  0.00     0.279 C 
HETATM    5  O1  UNL     1     -47.378 -19.243  10.598  1.00  0.00    -0.265 OA
HETATM    6  C3  UNL     1     -48.092 -21.245   9.943  1.00  0.00     0.163 A 
HETATM    7  N3  UNL     1     -47.161 -21.359   8.984  1.00  0.00    -0.278 N 
ATOM      8  H3  UNL     1     -46.501 -20.640   8.688  1.00  0.00     0.189 HD
HETATM    9  N4  UNL     1     -47.260 -22.569   8.502  1.00  0.00    -0.240 N 
ATOM     10  H4  UNL     1     -46.672 -22.939   7.755  1.00  0.00     0.208 HD
HETATM   11  N5  UNL     1     -48.219 -23.256   9.105  1.00  0.00    -0.269 N 
ATOM     12  H5  UNL     1     -48.483 -24.219   8.902  1.00  0.00     0.190 HD
HETATM   13  C4  UNL     1     -48.783 -22.461  10.034  1.00  0.00     0.157 A 
HETATM   14  N6  UNL     1     -49.793 -22.798  10.854  1.00  0.00    -0.322 N 
ATOM     15  H6  UNL     1     -50.183 -23.732  10.733  1.00  0.00     0.169 HD
HETATM   16  C5  UNL     1     -50.363 -22.012  11.850  1.00  0.00     0.151 C 
ENDROOT
BRANCH  16  17
HETATM   17  N7  UNL     1     -50.820 -22.623  12.836  1.00  0.00    -0.351 N 
ATOM     18  H7  UNL     1     -51.593 -23.236  12.580  1.00  0.00     0.166 HD
BRANCH  17  19
HETATM   19  C6  UNL     1     -50.542 -22.679  14.191  1.00  0.00     0.089 C 
BRANCH  19  20
HETATM   20  C7  UNL     1     -51.571 -21.987  15.080  1.00  0.00     0.274 C 
BRANCH  20  21
HETATM   21  N8  UNL     1     -50.996 -20.747  15.532  1.00  0.00    -0.075 N 
ATOM     22  H83 UNL     1     -50.286 -20.879  16.253  1.00  0.00     0.274 HD
ATOM     23  H82 UNL     1     -50.398 -20.310  14.832  1.00  0.00     0.274 HD
ATOM     24  H81 UNL     1     -51.760 -20.143  15.835  1.00  0.00     0.274 HD
ENDBRANCH  20  21
ENDBRANCH  19  20
ENDBRANCH  17  19
ENDBRANCH  16  17
BRANCH   1  25
HETATM   25  N1  UNL     1     -51.513 -20.032  12.072  1.00  0.00    -0.382 N 
ATOM     26  H12 UNL     1     -51.545 -19.327  12.807  1.00  0.00     0.157 HD
ATOM     27  H11 UNL     1     -52.317 -20.319  11.513  1.00  0.00     0.157 HD
ENDBRANCH   1  25
TORSDOF 5
ENDMDL
MODEL 2
REMARK VINA RESULT: -4.838902919      1.819      2.467
REMARK  5 active torsions:
REMARK  status: ('A' for Active; 'I' for Inactive)
REMARK    1  A    between atoms: N1_1  and  C1_4 
REMARK    2  A    between atoms: C5_19  and  N7_20 
REMARK    3  A    between atoms: N7_20  and  C6_22 
REMARK    4  A    between atoms: C6_22  and  C7_23 
REMARK    5  A    between atoms: C7_23  and  N8_24 
ROOT
HETATM    1  C1  UNL     1     -50.184 -21.254  12.702  1.00  0.00     0.146 C 
HETATM    2  N2  UNL     1     -49.005 -20.576  12.851  1.00  0.00    -0.305 N 
ATOM      3  H2  UNL     1     -48.838 -20.181  13.776  1.00  0.00     0.171 HD
HETATM    4  C2  UNL     1     -48.025 -20.358  11.937  1.00  0.00     0.279 C 
HETATM    5  O1  UNL     1     -46.965 -19.791  12.299  1.00  0.00    -0.265 OA
HETATM    6  C3  UNL     1     -48.057 -20.700  10.588  1.00  0.00     0.163 A 
HETATM    7  N3  UNL     1     -47.188 -20.239   9.676  1.00  0.00    -0.278 N 
ATOM      8  H3  UNL     1     -46.413 -19.597   9.844  1.00  0.00     0.189 HD
HETATM    9  N4  UNL     1     -47.524 -20.769   8.531  1.00  0.00    -0.240 N 
ATOM     10  H4  UNL     1     -47.035 -20.596   7.652  1.00  0.00     0.208 HD
HETATM   11  N5  UNL     1     -48.579 -21.561   8.652  1.00  0.00    -0.269 N 
ATOM     12  H5  UNL     1     -49.024 -22.084   7.899  1.00  0.00     0.190 HD
HETATM   13  C4  UNL     1     -48.961 -21.555   9.943  1.00  0.00     0.157 A 
HETATM   14  N6  UNL     1     -49.995 -22.237  10.464  1.00  0.00    -0.322 N 
ATOM     15  H6  UNL     1     -50.556 -22.781   9.808  1.00  0.00     0.169 HD
HETATM   16  C5  UNL     1     -50.383 -22.283  11.799  1.00  0.00     0.151 C 
ENDROOT
BRANCH  16  17
HETATM   17  N7  UNL     1     -50.921 -23.342  12.177  1.00  0.00    -0.351 N 
ATOM     18  H7  UNL     1     -50.442 -23.748  12.981  1.00  0.00     0.166 HD
BRANCH  17  19
HETATM   19  C6  UNL     1     -52.005 -24.107  11.781  1.00  0.00     0.089 C 
BRANCH  19  20
HETATM   20  C7  UNL     1     -51.662 -25.544  11.399  1.00  0.00     0.274 C 
BRANCH  20  21
HETATM   21  N8  UNL     1     -50.953 -26.135  12.503  1.00  0.00    -0.075 N 
ATOM     22  H83 UNL     1     -49.961 -25.895  12.510  1.00  0.00     0.274 HD
ATOM     23  H82 UNL     1     -51.199 -25.717  13.400  1.00  0.00     0.274 HD
ATOM     24  H81 UNL     1     -51.117 -27.141  12.475  1.00  0.00     0.274 HD
ENDBRANCH  20  21
ENDBRANCH  19  20
ENDBRANCH  17  19
ENDBRANCH  16  17
BRANCH   1  25
HETATM   25  N1  UNL     1     -51.136 -20.871  13.451  1.00  0.00    -0.382 N 
ATOM     26  H12 UNL     1     -51.760 -21.557  13.875  1.00  0.00     0.157 HD
ATOM     27  H11 UNL     1     -51.221 -19.862  13.573  1.00  0.00     0.157 HD
ENDBRANCH   1  25
TORSDOF 5
ENDMDL
MODEL 3
REMARK VINA RESULT: -4.738557636      1.793      2.308
REMARK  5 active torsions:
REMARK  status: ('A' for Active; 'I' for Inactive)
REMARK    1  A    between atoms: N1_1  and  C1_4 
REMARK    2  A    between atoms: C5_19  and  N7_20 
REMARK    3  A    between atoms: N7_20  and  C6_22 
REMARK    4  A    between atoms: C6_22  and  C7_23 
REMARK    5  A    between atoms: C7_23  and  N8_24 
ROOT
HETATM    1  C1  UNL     1     -48.132 -20.658  11.910  1.00  0.00     0.146 C 
HETATM    2  N2  UNL     1     -47.358 -21.168  10.903  1.00  0.00    -0.305 N 
ATOM      3  H2  UNL     1     -46.350 -21.089  11.041  1.00  0.00     0.171 HD
HETATM    4  C2  UNL     1     -47.746 -21.764   9.747  1.00  0.00     0.279 C 
HETATM    5  O1  UNL     1     -46.875 -22.257   8.990  1.00  0.00    -0.265 OA
HETATM    6  C3  UNL     1     -49.050 -21.898   9.280  1.00  0.00     0.163 A 
HETATM    7  N3  UNL     1     -49.365 -22.257   8.026  1.00  0.00    -0.278 N 
ATOM      8  H3  UNL     1     -48.712 -22.473   7.273  1.00  0.00     0.189 HD
HETATM    9  N4  UNL     1     -50.669 -22.278   7.954  1.00  0.00    -0.240 N 
ATOM     10  H4  UNL     1     -51.193 -22.519   7.112  1.00  0.00     0.208 HD
HETATM   11  N5  UNL     1     -51.225 -21.947   9.109  1.00  0.00    -0.269 N 
ATOM     12  H5  UNL     1     -52.226 -21.893   9.297  1.00  0.00     0.190 HD
HETATM   13  C4  UNL     1     -50.240 -21.695   9.992  1.00  0.00     0.157 A 
HETATM   14  N6  UNL     1     -50.403 -21.328  11.274  1.00  0.00    -0.322 N 
ATOM     15  H6  UNL     1     -51.364 -21.200  11.590  1.00  0.00     0.169 HD
HETATM   16  C5  UNL     1     -49.405 -21.105  12.217  1.00  0.00     0.151 C 
ENDROOT
BRANCH  16  17
HETATM   17  N7  UNL     1     -49.704 -21.355  13.401  1.00  0.00    -0.351 N 
ATOM     18  H7  UNL     1     -49.144 -20.813  14.059  1.00  0.00     0.166 HD
BRANCH  17  19
HETATM   19  C6  UNL     1     -50.605 -22.183  14.049  1.00  0.00     0.089 C 
BRANCH  19  20
HETATM   20  C7  UNL     1     -51.652 -21.452  14.885  1.00  0.00     0.274 C 
BRANCH  20  21
HETATM   21  N8  UNL     1     -50.966 -20.483  15.697  1.00  0.00    -0.075 N 
ATOM     22  H83 UNL     1     -51.545 -19.673  15.921  1.00  0.00     0.274 HD
ATOM     23  H82 UNL     1     -50.809 -20.805  16.651  1.00  0.00     0.274 HD
ATOM     24  H81 UNL     1     -50.102 -20.231  15.217  1.00  0.00     0.274 HD
ENDBRANCH  20  21
ENDBRANCH  19  20
ENDBRANCH  17  19
ENDBRANCH  16  17
BRANCH   1  25
HETATM   25  N1  UNL     1     -47.616 -19.704  12.571  1.00  0.00    -0.382 N 
ATOM     26  H12 UNL     1     -47.791 -19.622  13.572  1.00  0.00     0.157 HD
ATOM     27  H11 UNL     1     -47.047 -19.053  12.031  1.00  0.00     0.157 HD
ENDBRANCH   1  25
TORSDOF 5
ENDMDL
MODEL 4
REMARK VINA RESULT: -4.701924817      1.686      2.074
REMARK  5 active torsions:
REMARK  status: ('A' for Active; 'I' for Inactive)
REMARK    1  A    between atoms: N1_1  and  C1_4 
REMARK    2  A    between atoms: C5_19  and  N7_20 
REMARK    3  A    between atoms: N7_20  and  C6_22 
REMARK    4  A    between atoms: C6_22  and  C7_23 
REMARK    5  A    between atoms: C7_23  and  N8_24 
ROOT
HETATM    1  C1  UNL     1     -50.161 -21.245  12.704  1.00  0.00     0.146 C 
HETATM    2  N2  UNL     1     -48.982 -20.563  12.840  1.00  0.00    -0.305 N 
ATOM      3  H2  UNL     1     -48.810 -20.162  13.762  1.00  0.00     0.171 HD
HETATM    4  C2  UNL     1     -48.010 -20.347  11.917  1.00  0.00     0.279 C 
HETATM    5  O1  UNL     1     -46.949 -19.776  12.268  1.00  0.00    -0.265 OA
HETATM    6  C3  UNL     1     -48.052 -20.696  10.570  1.00  0.00     0.163 A 
HETATM    7  N3  UNL     1     -47.192 -20.238   9.649  1.00  0.00    -0.278 N 
ATOM      8  H3  UNL     1     -46.417 -19.594   9.808  1.00  0.00     0.189 HD
HETATM    9  N4  UNL     1     -47.535 -20.775   8.509  1.00  0.00    -0.240 N 
ATOM     10  H4  UNL     1     -47.053 -20.605   7.626  1.00  0.00     0.208 HD
HETATM   11  N5  UNL     1     -48.587 -21.568   8.643  1.00  0.00    -0.269 N 
ATOM     12  H5  UNL     1     -49.037 -22.096   7.896  1.00  0.00     0.190 HD
HETATM   13  C4  UNL     1     -48.959 -21.557   9.937  1.00  0.00     0.157 A 
HETATM   14  N6  UNL     1     -49.987 -22.238  10.469  1.00  0.00    -0.322 N 
ATOM     15  H6  UNL     1     -50.552 -22.787   9.821  1.00  0.00     0.169 HD
HETATM   16  C5  UNL     1     -50.365 -22.279  11.808  1.00  0.00     0.151 C 
ENDROOT
BRANCH  16  17
HETATM   17  N7  UNL     1     -50.897 -23.337  12.195  1.00  0.00    -0.351 N 
ATOM     18  H7  UNL     1     -50.430 -23.721  13.016  1.00  0.00     0.166 HD
BRANCH  17  19
HETATM   19  C6  UNL     1     -51.964 -24.123  11.793  1.00  0.00     0.089 C 
BRANCH  19  20
HETATM   20  C7  UNL     1     -53.296 -23.385  11.695  1.00  0.00     0.274 C 
BRANCH  20  21
HETATM   21  N8  UNL     1     -53.780 -23.176  13.034  1.00  0.00    -0.075 N 
ATOM     22  H83 UNL     1     -53.339 -23.793  13.716  1.00  0.00     0.274 HD
ATOM     23  H82 UNL     1     -53.471 -22.290  13.433  1.00  0.00     0.274 HD
ATOM     24  H81 UNL     1     -54.796 -23.269  13.014  1.00  0.00     0.274 HD
ENDBRANCH  20  21
ENDBRANCH  19  20
ENDBRANCH  17  19
ENDBRANCH  16  17
BRANCH   1  25
HETATM   25  N1  UNL     1     -51.108 -20.860  13.458  1.00  0.00    -0.382 N 
ATOM     26  H12 UNL     1     -51.233 -19.867  13.656  1.00  0.00     0.157 HD
ATOM     27  H11 UNL     1     -51.695 -21.601  13.840  1.00  0.00     0.157 HD
ENDBRANCH   1  25
TORSDOF 5
ENDMDL
MODEL 5
REMARK VINA RESULT: -4.576110686      2.840      6.265
REMARK  5 active torsions:
REMARK  status: ('A' for Active; 'I' for Inactive)
REMARK    1  A    between atoms: N1_1  and  C1_4 
REMARK    2  A    between atoms: C5_19  and  N7_20 
REMARK    3  A    between atoms: N7_20  and  C6_22 
REMARK    4  A    between atoms: C6_22  and  C7_23 
REMARK    5  A    between atoms: C7_23  and  N8_24 
ROOT
HETATM    1  C1  UNL     1     -50.793 -22.786  12.943  1.00  0.00     0.146 C 
HETATM    2  N2  UNL     1     -50.856 -23.820  13.839  1.00  0.00    -0.305 N 
ATOM      3  H2  UNL     1     -50.600 -24.736  13.471  1.00  0.00     0.171 HD
HETATM    4  C2  UNL     1     -51.213 -23.794  15.148  1.00  0.00     0.279 C 
HETATM    5  O1  UNL     1     -51.112 -24.841  15.832  1.00  0.00    -0.265 OA
HETATM    6  C3  UNL     1     -51.701 -22.697  15.853  1.00  0.00     0.163 A 
HETATM    7  N3  UNL     1     -52.279 -22.778  17.061  1.00  0.00    -0.278 N 
ATOM      8  H3  UNL     1     -52.434 -23.627  17.605  1.00  0.00     0.189 HD
HETATM    9  N4  UNL     1     -52.607 -21.562  17.407  1.00  0.00    -0.240 N 
ATOM     10  H4  UNL     1     -53.067 -21.319  18.285  1.00  0.00     0.208 HD
HETATM   11  N5  UNL     1     -52.267 -20.684  16.476  1.00  0.00    -0.269 N 
ATOM     12  H5  UNL     1     -52.420 -19.677  16.519  1.00  0.00     0.190 HD
HETATM   13  C4  UNL     1     -51.685 -21.351  15.462  1.00  0.00     0.157 A 
HETATM   14  N6  UNL     1     -51.203 -20.808  14.331  1.00  0.00    -0.322 N 
ATOM     15  H6  UNL     1     -51.324 -19.800  14.225  1.00  0.00     0.169 HD
HETATM   16  C5  UNL     1     -50.558 -21.468  13.290  1.00  0.00     0.151 C 
ENDROOT
BRANCH  16  17
HETATM   17  N7  UNL     1     -49.706 -20.806  12.667  1.00  0.00    -0.351 N 
ATOM     18  H7  UNL     1     -50.134 -20.156  12.008  1.00  0.00     0.166 HD
BRANCH  17  19
HETATM   19  C6  UNL     1     -48.324 -20.731  12.642  1.00  0.00     0.089 C 
BRANCH  19  20
HETATM   20  C7  UNL     1     -47.682 -21.251  11.358  1.00  0.00     0.274 C 
BRANCH  20  21
HETATM   21  N8  UNL     1     -47.100 -20.128  10.673  1.00  0.00    -0.075 N 
ATOM     22  H83 UNL     1     -46.134 -20.294  10.388  1.00  0.00     0.274 HD
ATOM     23  H82 UNL     1     -47.492 -19.985   9.743  1.00  0.00     0.274 HD
ATOM     24  H81 UNL     1     -47.200 -19.311  11.275  1.00  0.00     0.274 HD
ENDBRANCH  20  21
ENDBRANCH  19  20
ENDBRANCH  17  19
ENDBRANCH  16  17
BRANCH   1  25
HETATM   25  N1  UNL     1     -50.981 -23.101  11.727  1.00  0.00    -0.382 N 
ATOM     26  H12 UNL     1     -51.928 -23.138  11.350  1.00  0.00     0.157 HD
ATOM     27  H11 UNL     1     -50.140 -23.316  11.193  1.00  0.00     0.157 HD
ENDBRANCH   1  25
TORSDOF 5
ENDMDL
