MODEL 1
REMARK VINA RESULT: -5.878919702      0.000      0.000
REMARK  3 active torsions:
REMARK  status: ('A' for Active; 'I' for Inactive)
REMARK    1  A    between atoms: C3_6  and  C4_7 
REMARK    2  A    between atoms: C4_7  and  O1_8 
REMARK    3  A    between atoms: C11_19  and  N4_20 
ROOT
HETATM    1  C1  UNL     1      12.066 -43.201 -48.281  1.00  0.00     0.197 C 
HETATM    2  N1  UNL     1      12.775 -42.547 -47.190  1.00  0.00    -0.126 N 
HETATM    3  N2  UNL     1      12.718 -42.833 -45.908  1.00  0.00    -0.267 N 
ATOM      4  H2  UNL     1      12.151 -43.574 -45.497  1.00  0.00     0.189 HD
HETATM    5  C2  UNL     1      13.535 -41.985 -45.206  1.00  0.00     0.162 A 
HETATM    6  C3  UNL     1      13.843 -41.846 -43.874  1.00  0.00     0.066 A 
HETATM    7  S1  UNL     1      14.944 -40.538 -43.905  1.00  0.00    -0.057 SA
HETATM    8  C10 UNL     1      14.944 -40.251 -45.591  1.00  0.00     0.168 A 
HETATM    9  S2  UNL     1      15.811 -39.094 -46.362  1.00  0.00    -0.051 SA
HETATM   10  N3  UNL     1      14.096 -41.177 -46.052  1.00  0.00    -0.112 N 
HETATM   11  C11 UNL     1      13.631 -41.516 -47.297  1.00  0.00     0.702 A 
ENDROOT
BRANCH   6  12
HETATM   12  C4  UNL     1      13.380 -42.598 -42.678  1.00  0.00     0.095 C 
HETATM   13  C5  UNL     1      14.147 -42.147 -41.457  1.00  0.00     0.043 C 
HETATM   14  C6  UNL     1      13.303 -42.311 -40.198  1.00  0.00     0.003 C 
HETATM   15  C7  UNL     1      12.086 -41.412 -40.260  1.00  0.00     0.000 C 
HETATM   16  C8  UNL     1      11.690 -41.098 -41.690  1.00  0.00     0.003 C 
HETATM   17  C9  UNL     1      11.919 -42.390 -42.484  1.00  0.00     0.043 C 
BRANCH  12  18
HETATM   18  O1  UNL     1      13.602 -43.976 -42.835  1.00  0.00    -0.384 OA
ATOM     19  H1  UNL     1      14.078 -44.329 -42.092  1.00  0.00     0.211 HD
ENDBRANCH  12  18
ENDBRANCH   6  12
BRANCH  11  20
HETATM   20  N4  UNL     1      13.903 -40.998 -48.445  1.00  0.00    -0.233 N 
ATOM     21  H42 UNL     1      13.488 -40.191 -48.910  1.00  0.00     0.174 HD
ATOM     22  H41 UNL     1      14.628 -41.398 -49.041  1.00  0.00     0.174 HD
ENDBRANCH  11  20
TORSDOF 3
ENDMDL
MODEL 2
REMARK VINA RESULT: -5.793943435      3.043      4.237
REMARK  3 active torsions:
REMARK  status: ('A' for Active; 'I' for Inactive)
REMARK    1  A    between atoms: C3_6  and  C4_7 
REMARK    2  A    between atoms: C4_7  and  O1_8 
REMARK    3  A    between atoms: C11_19  and  N4_20 
ROOT
HETATM    1  C1  UNL     1      14.237 -45.756 -41.696  1.00  0.00     0.197 C 
HETATM    2  N1  UNL     1      13.824 -44.513 -42.330  1.00  0.00    -0.126 N 
HETATM    3  N2  UNL     1      13.986 -43.287 -41.881  1.00  0.00    -0.267 N 
ATOM      4  H2  UNL     1      14.438 -43.040 -41.001  1.00  0.00     0.189 HD
HETATM    5  C2  UNL     1      13.457 -42.391 -42.774  1.00  0.00     0.162 A 
HETATM    6  C3  UNL     1      13.357 -41.021 -42.801  1.00  0.00     0.066 A 
HETATM    7  S1  UNL     1      12.553 -40.758 -44.286  1.00  0.00    -0.057 SA
HETATM    8  C10 UNL     1      12.394 -42.390 -44.775  1.00  0.00     0.168 A 
HETATM    9  S2  UNL     1      11.690 -42.905 -46.162  1.00  0.00    -0.051 SA
HETATM   10  N3  UNL     1      12.969 -43.061 -43.771  1.00  0.00    -0.112 N 
HETATM   11  C11 UNL     1      13.191 -44.388 -43.509  1.00  0.00     0.702 A 
ENDROOT
BRANCH   6  12
HETATM   12  C4  UNL     1      13.808 -39.988 -41.832  1.00  0.00     0.095 C 
HETATM   13  C5  UNL     1      13.816 -38.629 -42.493  1.00  0.00     0.043 C 
HETATM   14  C6  UNL     1      13.568 -37.528 -41.469  1.00  0.00     0.003 C 
HETATM   15  C7  UNL     1      12.186 -37.671 -40.866  1.00  0.00     0.000 C 
HETATM   16  C8  UNL     1      11.691 -39.103 -40.927  1.00  0.00     0.003 C 
HETATM   17  C9  UNL     1      12.913 -39.984 -40.642  1.00  0.00     0.043 C 
BRANCH  12  18
HETATM   18  O1  UNL     1      15.114 -40.251 -41.388  1.00  0.00    -0.384 OA
ATOM     19  H1  UNL     1      15.562 -39.446 -41.156  1.00  0.00     0.211 HD
ENDBRANCH  12  18
ENDBRANCH   6  12
BRANCH  11  20
HETATM   20  N4  UNL     1      12.884 -45.427 -44.208  1.00  0.00    -0.233 N 
ATOM     21  H42 UNL     1      12.583 -46.352 -43.901  1.00  0.00     0.174 HD
ATOM     22  H41 UNL     1      12.922 -45.403 -45.226  1.00  0.00     0.174 HD
ENDBRANCH  11  20
TORSDOF 3
ENDMDL
MODEL 3
REMARK VINA RESULT: -5.646237049      2.673      3.818
REMARK  3 active torsions:
REMARK  status: ('A' for Active; 'I' for Inactive)
REMARK    1  A    between atoms: C3_6  and  C4_7 
REMARK    2  A    between atoms: C4_7  and  O1_8 
REMARK    3  A    between atoms: C11_19  and  N4_20 
ROOT
HETATM    1  C1  UNL     1      15.413 -35.846 -45.319  1.00  0.00     0.197 C 
HETATM    2  N1  UNL     1      15.123 -37.256 -45.099  1.00  0.00    -0.126 N 
HETATM    3  N2  UNL     1      14.435 -37.793 -44.115  1.00  0.00    -0.267 N 
ATOM      4  H2  UNL     1      14.001 -37.274 -43.353  1.00  0.00     0.189 HD
HETATM    5  C2  UNL     1      14.390 -39.155 -44.268  1.00  0.00     0.162 A 
HETATM    6  C3  UNL     1      13.820 -40.174 -43.546  1.00  0.00     0.066 A 
HETATM    7  S1  UNL     1      14.265 -41.545 -44.466  1.00  0.00    -0.057 SA
HETATM    8  C10 UNL     1      15.140 -40.745 -45.698  1.00  0.00     0.168 A 
HETATM    9  S2  UNL     1      15.879 -41.470 -46.969  1.00  0.00    -0.051 SA
HETATM   10  N3  UNL     1      15.048 -39.458 -45.344  1.00  0.00    -0.112 N 
HETATM   11  C11 UNL     1      15.512 -38.282 -45.875  1.00  0.00     0.702 A 
ENDROOT
BRANCH   6  12
HETATM   12  C4  UNL     1      13.018 -40.159 -42.294  1.00  0.00     0.095 C 
HETATM   13  C5  UNL     1      12.366 -41.505 -42.083  1.00  0.00     0.043 C 
HETATM   14  C6  UNL     1      12.161 -41.779 -40.597  1.00  0.00     0.003 C 
HETATM   15  C7  UNL     1      13.497 -41.868 -39.890  1.00  0.00     0.000 C 
HETATM   16  C8  UNL     1      14.573 -41.085 -40.619  1.00  0.00     0.003 C 
HETATM   17  C9  UNL     1      13.891 -39.814 -41.139  1.00  0.00     0.043 C 
BRANCH  12  18
HETATM   18  O1  UNL     1      11.997 -39.198 -42.365  1.00  0.00    -0.384 OA
ATOM     19  H1  UNL     1      12.213 -38.434 -41.843  1.00  0.00     0.211 HD
ENDBRANCH  12  18
ENDBRANCH   6  12
BRANCH  11  20
HETATM   20  N4  UNL     1      16.215 -38.080 -46.937  1.00  0.00    -0.233 N 
ATOM     21  H42 UNL     1      17.227 -38.087 -47.058  1.00  0.00     0.174 HD
ATOM     22  H41 UNL     1      15.767 -37.875 -47.829  1.00  0.00     0.174 HD
ENDBRANCH  11  20
TORSDOF 3
ENDMDL
MODEL 4
REMARK VINA RESULT: -5.622944720      2.500      4.260
REMARK  3 active torsions:
REMARK  status: ('A' for Active; 'I' for Inactive)
REMARK    1  A    between atoms: C3_6  and  C4_7 
REMARK    2  A    between atoms: C4_7  and  O1_8 
REMARK    3  A    between atoms: C11_19  and  N4_20 
ROOT
HETATM    1  C1  UNL     1      12.368 -42.693 -48.207  1.00  0.00     0.197 C 
HETATM    2  N1  UNL     1      12.849 -42.401 -46.865  1.00  0.00    -0.126 N 
HETATM    3  N2  UNL     1      13.693 -41.461 -46.498  1.00  0.00    -0.267 N 
ATOM      4  H2  UNL     1      14.134 -40.791 -47.128  1.00  0.00     0.189 HD
HETATM    5  C2  UNL     1      13.891 -41.516 -45.143  1.00  0.00     0.162 A 
HETATM    6  C3  UNL     1      14.652 -40.787 -44.262  1.00  0.00     0.066 A 
HETATM    7  S1  UNL     1      14.290 -41.547 -42.774  1.00  0.00    -0.057 SA
HETATM    8  C10 UNL     1      13.204 -42.732 -43.358  1.00  0.00     0.168 A 
HETATM    9  S2  UNL     1      12.438 -43.857 -42.444  1.00  0.00    -0.051 SA
HETATM   10  N3  UNL     1      13.171 -42.487 -44.672  1.00  0.00    -0.112 N 
HETATM   11  C11 UNL     1      12.514 -43.050 -45.736  1.00  0.00     0.702 A 
ENDROOT
BRANCH   6  12
HETATM   12  C4  UNL     1      15.566 -39.635 -44.479  1.00  0.00     0.095 C 
HETATM   13  C5  UNL     1      14.968 -38.685 -45.491  1.00  0.00     0.043 C 
HETATM   14  C6  UNL     1      15.440 -37.258 -45.236  1.00  0.00     0.003 C 
HETATM   15  C7  UNL     1      14.943 -36.772 -43.890  1.00  0.00     0.000 C 
HETATM   16  C8  UNL     1      14.692 -37.922 -42.935  1.00  0.00     0.003 C 
HETATM   17  C9  UNL     1      15.815 -38.935 -43.189  1.00  0.00     0.043 C 
BRANCH  12  18
HETATM   18  O1  UNL     1      16.805 -40.065 -44.982  1.00  0.00    -0.384 OA
ATOM     19  H1  UNL     1      17.478 -39.412 -44.830  1.00  0.00     0.211 HD
ENDBRANCH  12  18
ENDBRANCH   6  12
BRANCH  11  20
HETATM   20  N4  UNL     1      11.690 -44.041 -45.763  1.00  0.00    -0.233 N 
ATOM     21  H42 UNL     1      11.095 -44.372 -46.521  1.00  0.00     0.174 HD
ATOM     22  H41 UNL     1      11.555 -44.631 -44.943  1.00  0.00     0.174 HD
ENDBRANCH  11  20
TORSDOF 3
ENDMDL
MODEL 5
REMARK VINA RESULT: -5.560673757      2.730      4.316
REMARK  3 active torsions:
REMARK  status: ('A' for Active; 'I' for Inactive)
REMARK    1  A    between atoms: C3_6  and  C4_7 
REMARK    2  A    between atoms: C4_7  and  O1_8 
REMARK    3  A    between atoms: C11_19  and  N4_20 
ROOT
HETATM    1  C1  UNL     1      12.283 -44.038 -42.611  1.00  0.00     0.197 C 
HETATM    2  N1  UNL     1      12.761 -43.226 -43.721  1.00  0.00    -0.126 N 
HETATM    3  N2  UNL     1      13.557 -42.180 -43.669  1.00  0.00    -0.267 N 
ATOM      4  H2  UNL     1      13.957 -41.790 -42.817  1.00  0.00     0.189 HD
HETATM    5  C2  UNL     1      13.769 -41.694 -44.934  1.00  0.00     0.162 A 
HETATM    6  C3  UNL     1      14.498 -40.647 -45.440  1.00  0.00     0.066 A 
HETATM    7  S1  UNL     1      14.190 -40.784 -47.116  1.00  0.00    -0.057 SA
HETATM    8  C10 UNL     1      13.163 -42.151 -47.069  1.00  0.00     0.168 A 
HETATM    9  S2  UNL     1      12.465 -42.864 -48.369  1.00  0.00    -0.051 SA
HETATM   10  N3  UNL     1      13.106 -42.438 -45.764  1.00  0.00    -0.112 N 
HETATM   11  C11 UNL     1      12.471 -43.400 -45.022  1.00  0.00     0.702 A 
ENDROOT
BRANCH   6  12
HETATM   12  C4  UNL     1      15.349 -39.630 -44.767  1.00  0.00     0.095 C 
HETATM   13  C5  UNL     1      15.183 -38.289 -45.444  1.00  0.00     0.043 C 
HETATM   14  C6  UNL     1      15.416 -37.152 -44.455  1.00  0.00     0.003 C 
HETATM   15  C7  UNL     1      14.367 -37.181 -43.363  1.00  0.00     0.000 C 
HETATM   16  C8  UNL     1      13.801 -38.574 -43.162  1.00  0.00     0.003 C 
HETATM   17  C9  UNL     1      14.983 -39.537 -43.327  1.00  0.00     0.043 C 
BRANCH  12  18
HETATM   18  O1  UNL     1      16.707 -39.980 -44.845  1.00  0.00    -0.384 OA
ATOM     19  H1  UNL     1      17.242 -39.375 -44.345  1.00  0.00     0.211 HD
ENDBRANCH  12  18
ENDBRANCH   6  12
BRANCH  11  20
HETATM   20  N4  UNL     1      11.700 -44.359 -45.405  1.00  0.00    -0.233 N 
ATOM     21  H42 UNL     1      10.793 -44.649 -45.041  1.00  0.00     0.174 HD
ATOM     22  H41 UNL     1      11.964 -44.964 -46.182  1.00  0.00     0.174 HD
ENDBRANCH  11  20
TORSDOF 3
ENDMDL
