MODEL 1
REMARK VINA RESULT: -5.836969231      0.000      0.000
REMARK  5 active torsions:
REMARK  status: ('A' for Active; 'I' for Inactive)
REMARK    1  A    between atoms: N1_1  and  N2_4 
REMARK    2  A    between atoms: C3_11  and  N5_12 
REMARK    3  A    between atoms: N6_16  and  O1_17 
REMARK    4  A    between atoms: C4_19  and  N7_20 
REMARK    5  A    between atoms: N7_20  and  C5_22 
ROOT
HETATM    1  N2  UNL     1      26.571  18.807  43.376  1.00  0.00    -0.289 N 
ATOM      2  H2  UNL     1      26.079  19.277  42.616  1.00  0.00     0.188 HD
HETATM    3  C1  UNL     1      25.945  18.412  44.428  1.00  0.00     0.167 A 
HETATM    4  N3  UNL     1      26.546  17.757  45.520  1.00  0.00    -0.327 N 
ATOM      5  H3  UNL     1      27.550  17.581  45.480  1.00  0.00     0.168 HD
HETATM    6  C2  UNL     1      25.913  17.371  46.554  1.00  0.00     0.147 A 
HETATM    7  N4  UNL     1      26.616  16.698  47.643  1.00  0.00    -0.083 NA
HETATM    8  C3  UNL     1      24.469  17.593  46.679  1.00  0.00     0.376 A 
HETATM    9  N6  UNL     1      23.898  18.261  45.548  1.00  0.00    -0.202 N 
HETATM   10  C4  UNL     1      24.514  18.661  44.490  1.00  0.00     0.178 A 
ENDROOT
BRANCH   1  11
HETATM   11  N1  UNL     1      27.948  18.571  43.310  1.00  0.00    -0.344 N 
ATOM     12  H12 UNL     1      28.445  18.685  42.426  1.00  0.00     0.176 HD
ATOM     13  H11 UNL     1      28.424  18.285  44.166  1.00  0.00     0.176 HD
ENDBRANCH   1  11
BRANCH  10  14
HETATM   14  N7  UNL     1      23.814  19.322  43.425  1.00  0.00    -0.317 N 
ATOM     15  H7  UNL     1      23.467  18.752  42.654  1.00  0.00     0.169 HD
BRANCH  14  16
HETATM   16  C5  UNL     1      23.578  20.711  43.380  1.00  0.00     0.186 C 
HETATM   17  N8  UNL     1      22.545  21.267  44.179  1.00  0.00    -0.070 NA
HETATM   18  S1  UNL     1      24.434  21.733  42.446  1.00  0.00    -0.044 SA
ENDBRANCH  14  16
ENDBRANCH  10  14
BRANCH   9  19
HETATM   19  O1  UNL     1      22.520  18.525  45.558  1.00  0.00    -0.283 OA
ATOM     20  H1  UNL     1      22.156  19.042  44.849  1.00  0.00     0.245 HD
ENDBRANCH   9  19
BRANCH   8  21
HETATM   21  N5  UNL     1      24.230  18.372  47.915  1.00  0.00    -0.049 N 
ATOM     22  H53 UNL     1      24.490  19.354  47.819  1.00  0.00     0.277 HD
ATOM     23  H52 UNL     1      23.239  18.511  48.108  1.00  0.00     0.277 HD
ATOM     24  H51 UNL     1      24.720  17.909  48.680  1.00  0.00     0.277 HD
ENDBRANCH   8  21
TORSDOF 5
ENDMDL
MODEL 2
REMARK VINA RESULT: -5.756009412      3.168      5.314
REMARK  5 active torsions:
REMARK  status: ('A' for Active; 'I' for Inactive)
REMARK    1  A    between atoms: N1_1  and  N2_4 
REMARK    2  A    between atoms: C3_11  and  N5_12 
REMARK    3  A    between atoms: N6_16  and  O1_17 
REMARK    4  A    between atoms: C4_19  and  N7_20 
REMARK    5  A    between atoms: N7_20  and  C5_22 
ROOT
HETATM    1  N2  UNL     1      25.759  19.778  48.616  1.00  0.00    -0.289 N 
ATOM      2  H2  UNL     1      26.725  19.851  48.934  1.00  0.00     0.188 HD
HETATM    3  C1  UNL     1      25.476  19.295  47.459  1.00  0.00     0.167 A 
HETATM    4  N3  UNL     1      24.173  19.158  46.942  1.00  0.00    -0.327 N 
ATOM      5  H3  UNL     1      23.393  19.464  47.525  1.00  0.00     0.168 HD
HETATM    6  C2  UNL     1      23.909  18.678  45.794  1.00  0.00     0.147 A 
HETATM    7  N4  UNL     1      22.526  18.573  45.337  1.00  0.00    -0.083 NA
HETATM    8  C3  UNL     1      24.982  18.221  44.905  1.00  0.00     0.376 A 
HETATM    9  N6  UNL     1      26.289  18.377  45.468  1.00  0.00    -0.202 N 
HETATM   10  C4  UNL     1      26.585  18.859  46.624  1.00  0.00     0.178 A 
ENDROOT
BRANCH   1  11
HETATM   11  N1  UNL     1      24.698  20.199  49.423  1.00  0.00    -0.344 N 
ATOM     12  H12 UNL     1      24.475  21.192  49.499  1.00  0.00     0.176 HD
ATOM     13  H11 UNL     1      24.167  19.486  49.923  1.00  0.00     0.176 HD
ENDBRANCH   1  11
BRANCH  10  14
HETATM   14  N7  UNL     1      27.947  18.958  47.065  1.00  0.00    -0.317 N 
ATOM     15  H7  UNL     1      28.434  19.843  46.919  1.00  0.00     0.169 HD
BRANCH  14  16
HETATM   16  C5  UNL     1      28.654  17.909  47.686  1.00  0.00     0.186 C 
HETATM   17  N8  UNL     1      28.259  16.567  47.448  1.00  0.00    -0.070 NA
HETATM   18  S1  UNL     1      29.920  18.151  48.681  1.00  0.00    -0.044 SA
ENDBRANCH  14  16
ENDBRANCH  10  14
BRANCH   9  19
HETATM   19  O1  UNL     1      27.394  17.971  44.703  1.00  0.00    -0.283 OA
ATOM     20  H1  UNL     1      27.682  17.069  44.773  1.00  0.00     0.245 HD
ENDBRANCH   9  19
BRANCH   8  21
HETATM   21  N5  UNL     1      24.873  18.971  43.633  1.00  0.00    -0.049 N 
ATOM     22  H53 UNL     1      25.005  19.975  43.754  1.00  0.00     0.277 HD
ATOM     23  H52 UNL     1      25.660  18.803  43.008  1.00  0.00     0.277 HD
ATOM     24  H51 UNL     1      23.975  18.741  43.207  1.00  0.00     0.277 HD
ENDBRANCH   8  21
TORSDOF 5
ENDMDL
MODEL 3
REMARK VINA RESULT: -5.706980805      2.958      4.274
REMARK  5 active torsions:
REMARK  status: ('A' for Active; 'I' for Inactive)
REMARK    1  A    between atoms: N1_1  and  N2_4 
REMARK    2  A    between atoms: C3_11  and  N5_12 
REMARK    3  A    between atoms: N6_16  and  O1_17 
REMARK    4  A    between atoms: C4_19  and  N7_20 
REMARK    5  A    between atoms: N7_20  and  C5_22 
ROOT
HETATM    1  N2  UNL     1      27.523  17.269  46.485  1.00  0.00    -0.289 N 
ATOM      2  H2  UNL     1      27.354  17.597  47.436  1.00  0.00     0.188 HD
HETATM    3  C1  UNL     1      27.278  18.019  45.471  1.00  0.00     0.167 A 
HETATM    4  N3  UNL     1      27.483  17.646  44.128  1.00  0.00    -0.327 N 
ATOM      5  H3  UNL     1      27.852  16.714  43.942  1.00  0.00     0.168 HD
HETATM    6  C2  UNL     1      27.236  18.401  43.134  1.00  0.00     0.147 A 
HETATM    7  N4  UNL     1      27.479  17.933  41.772  1.00  0.00    -0.083 NA
HETATM    8  C3  UNL     1      26.703  19.753  43.330  1.00  0.00     0.376 A 
HETATM    9  N6  UNL     1      26.509  20.092  44.708  1.00  0.00    -0.202 N 
HETATM   10  C4  UNL     1      26.751  19.349  45.732  1.00  0.00     0.178 A 
ENDROOT
BRANCH   1  11
HETATM   11  N1  UNL     1      28.030  15.988  46.242  1.00  0.00    -0.344 N 
ATOM     12  H12 UNL     1      28.944  15.874  45.804  1.00  0.00     0.176 HD
ATOM     13  H11 UNL     1      27.458  15.190  46.516  1.00  0.00     0.176 HD
ENDBRANCH   1  11
BRANCH  10  14
HETATM   14  N7  UNL     1      26.509  19.818  47.067  1.00  0.00    -0.317 N 
ATOM     15  H7  UNL     1      27.315  19.969  47.675  1.00  0.00     0.169 HD
BRANCH  14  16
HETATM   16  C5  UNL     1      25.227  20.083  47.590  1.00  0.00     0.186 C 
HETATM   17  N8  UNL     1      24.943  21.370  48.116  1.00  0.00    -0.070 NA
HETATM   18  S1  UNL     1      24.032  18.978  47.627  1.00  0.00    -0.044 SA
ENDBRANCH  14  16
ENDBRANCH  10  14
BRANCH   9  19
HETATM   19  O1  UNL     1      26.003  21.364  45.014  1.00  0.00    -0.283 OA
ATOM     20  H1  UNL     1      25.118  21.574  44.738  1.00  0.00     0.245 HD
ENDBRANCH   9  19
BRANCH   8  21
HETATM   21  N5  UNL     1      25.425  19.853  42.588  1.00  0.00    -0.049 N 
ATOM     22  H53 UNL     1      25.029  20.793  42.610  1.00  0.00     0.277 HD
ATOM     23  H52 UNL     1      25.549  19.780  41.579  1.00  0.00     0.277 HD
ATOM     24  H51 UNL     1      24.788  19.149  42.960  1.00  0.00     0.277 HD
ENDBRANCH   8  21
TORSDOF 5
ENDMDL
MODEL 4
REMARK VINA RESULT: -5.674229876      3.207      4.708
REMARK  5 active torsions:
REMARK  status: ('A' for Active; 'I' for Inactive)
REMARK    1  A    between atoms: N1_1  and  N2_4 
REMARK    2  A    between atoms: C3_11  and  N5_12 
REMARK    3  A    between atoms: N6_16  and  O1_17 
REMARK    4  A    between atoms: C4_19  and  N7_20 
REMARK    5  A    between atoms: N7_20  and  C5_22 
ROOT
HETATM    1  N2  UNL     1      27.652  19.032  44.817  1.00  0.00    -0.289 N 
ATOM      2  H2  UNL     1      28.556  18.886  45.265  1.00  0.00     0.188 HD
HETATM    3  C1  UNL     1      26.586  19.212  45.513  1.00  0.00     0.167 A 
HETATM    4  N3  UNL     1      25.302  19.421  44.975  1.00  0.00    -0.327 N 
ATOM      5  H3  UNL     1      25.204  19.432  43.960  1.00  0.00     0.168 HD
HETATM    6  C2  UNL     1      24.256  19.598  45.678  1.00  0.00     0.147 A 
HETATM    7  N4  UNL     1      22.961  19.808  45.036  1.00  0.00    -0.083 NA
HETATM    8  C3  UNL     1      24.324  19.593  47.143  1.00  0.00     0.376 A 
HETATM    9  N6  UNL     1      25.647  19.377  47.648  1.00  0.00    -0.202 N 
HETATM   10  C4  UNL     1      26.720  19.197  46.961  1.00  0.00     0.178 A 
ENDROOT
BRANCH   1  11
HETATM   11  N1  UNL     1      27.530  19.045  43.424  1.00  0.00    -0.344 N 
ATOM     12  H12 UNL     1      26.628  18.858  42.986  1.00  0.00     0.176 HD
ATOM     13  H11 UNL     1      28.366  19.246  42.874  1.00  0.00     0.176 HD
ENDBRANCH   1  11
BRANCH  10  14
HETATM   14  N7  UNL     1      27.989  18.990  47.601  1.00  0.00    -0.317 N 
ATOM     15  H7  UNL     1      28.481  19.807  47.963  1.00  0.00     0.169 HD
BRANCH  14  16
HETATM   16  C5  UNL     1      28.597  17.728  47.758  1.00  0.00     0.186 C 
HETATM   17  N8  UNL     1      27.966  16.580  47.213  1.00  0.00    -0.070 NA
HETATM   18  S1  UNL     1      30.005  17.507  48.545  1.00  0.00    -0.044 SA
ENDBRANCH  14  16
ENDBRANCH  10  14
BRANCH   9  19
HETATM   19  O1  UNL     1      25.830  19.354  49.039  1.00  0.00    -0.283 OA
ATOM     20  H1  UNL     1      25.823  18.512  49.479  1.00  0.00     0.245 HD
ENDBRANCH   9  19
BRANCH   8  21
HETATM   21  N5  UNL     1      23.402  18.547  47.641  1.00  0.00    -0.049 N 
ATOM     22  H53 UNL     1      23.822  17.965  48.366  1.00  0.00     0.277 HD
ATOM     23  H52 UNL     1      22.637  18.927  48.196  1.00  0.00     0.277 HD
ATOM     24  H51 UNL     1      23.078  18.005  46.840  1.00  0.00     0.277 HD
ENDBRANCH   8  21
TORSDOF 5
ENDMDL
MODEL 5
REMARK VINA RESULT: -5.521732414      2.077      2.156
REMARK  5 active torsions:
REMARK  status: ('A' for Active; 'I' for Inactive)
REMARK    1  A    between atoms: N1_1  and  N2_4 
REMARK    2  A    between atoms: C3_11  and  N5_12 
REMARK    3  A    between atoms: N6_16  and  O1_17 
REMARK    4  A    between atoms: C4_19  and  N7_20 
REMARK    5  A    between atoms: N7_20  and  C5_22 
ROOT
HETATM    1  N2  UNL     1      27.424  18.636  42.819  1.00  0.00    -0.289 N 
ATOM      2  H2  UNL     1      27.218  19.484  42.292  1.00  0.00     0.188 HD
HETATM    3  C1  UNL     1      27.165  18.556  44.075  1.00  0.00     0.167 A 
HETATM    4  N3  UNL     1      27.416  17.425  44.877  1.00  0.00    -0.327 N 
ATOM      5  H3  UNL     1      27.834  16.607  44.433  1.00  0.00     0.168 HD
HETATM    6  C2  UNL     1      27.153  17.360  46.120  1.00  0.00     0.147 A 
HETATM    7  N4  UNL     1      27.447  16.146  46.876  1.00  0.00    -0.083 NA
HETATM    8  C3  UNL     1      26.553  18.499  46.822  1.00  0.00     0.376 A 
HETATM    9  N6  UNL     1      26.314  19.627  45.972  1.00  0.00    -0.202 N 
HETATM   10  C4  UNL     1      26.569  19.719  44.713  1.00  0.00     0.178 A 
ENDROOT
BRANCH   1  11
HETATM   11  N1  UNL     1      27.997  17.521  42.199  1.00  0.00    -0.344 N 
ATOM     12  H12 UNL     1      27.652  17.204  41.293  1.00  0.00     0.176 HD
ATOM     13  H11 UNL     1      28.759  17.046  42.683  1.00  0.00     0.176 HD
ENDBRANCH   1  11
BRANCH  10  14
HETATM   14  N7  UNL     1      26.276  20.917  43.978  1.00  0.00    -0.317 N 
ATOM     15  H7  UNL     1      27.024  21.601  43.862  1.00  0.00     0.169 HD
BRANCH  14  16
HETATM   16  C5  UNL     1      25.020  21.206  43.408  1.00  0.00     0.186 C 
HETATM   17  N8  UNL     1      23.998  21.762  44.222  1.00  0.00    -0.070 NA
HETATM   18  S1  UNL     1      24.665  20.933  41.843  1.00  0.00    -0.044 SA
ENDBRANCH  14  16
ENDBRANCH  10  14
BRANCH   9  19
HETATM   19  O1  UNL     1      25.740  20.776  46.538  1.00  0.00    -0.283 OA
ATOM     20  H1  UNL     1      26.266  21.566  46.581  1.00  0.00     0.245 HD
ENDBRANCH   9  19
BRANCH   8  21
HETATM   21  N5  UNL     1      27.450  18.874  47.939  1.00  0.00    -0.049 N 
ATOM     22  H53 UNL     1      27.112  18.545  48.843  1.00  0.00     0.277 HD
ATOM     23  H52 UNL     1      28.331  18.360  47.926  1.00  0.00     0.277 HD
ATOM     24  H51 UNL     1      27.583  19.885  47.912  1.00  0.00     0.277 HD
ENDBRANCH   8  21
TORSDOF 5
ENDMDL
