MODEL 1
REMARK VINA RESULT: -6.454464228      0.000      0.000
REMARK  3 active torsions:
REMARK  status: ('A' for Active; 'I' for Inactive)
REMARK    1  A    between atoms: C1_2  and  N2_4 
REMARK    2  A    between atoms: N2_4  and  N3_6 
REMARK    3  A    between atoms: N3_6  and  C2_8 
ROOT
HETATM    1  C2  UNL     1      26.595  18.083  44.324  1.00  0.00     0.063 A 
HETATM    2  C3  UNL     1      26.211  17.598  45.493  1.00  0.00     0.101 A 
HETATM    3  C4  UNL     1      25.058  18.272  45.908  1.00  0.00     0.120 A 
HETATM    4  N4  UNL     1      24.519  17.912  47.082  1.00  0.00    -0.338 N 
ATOM      5  H4  UNL     1      23.678  18.393  47.400  1.00  0.00     0.168 HD
HETATM    6  C5  UNL     1      25.038  16.946  47.857  1.00  0.00     0.184 A 
HETATM    7  N5  UNL     1      26.147  16.274  47.494  1.00  0.00    -0.319 N 
ATOM      8  H5  UNL     1      26.539  15.542  48.085  1.00  0.00     0.169 HD
HETATM    9  C6  UNL     1      26.720  16.604  46.322  1.00  0.00     0.262 A 
HETATM   10  O1  UNL     1      27.743  16.011  45.949  1.00  0.00    -0.267 OA
HETATM   11  N6  UNL     1      24.722  19.146  45.044  1.00  0.00    -0.370 N 
ATOM     12  H6  UNL     1      23.914  19.764  45.122  1.00  0.00     0.161 HD
HETATM   13  C7  UNL     1      25.653  19.136  43.933  1.00  0.00     0.181 A 
ENDROOT
BRANCH   1  14
HETATM   14  N3  UNL     1      27.718  17.679  43.556  1.00  0.00    -0.300 N 
ATOM     15  H3  UNL     1      28.037  16.710  43.555  1.00  0.00     0.186 HD
BRANCH  14  16
HETATM   16  N2  UNL     1      28.372  18.656  42.801  1.00  0.00    -0.278 N 
ATOM     17  H2  UNL     1      28.567  19.573  43.204  1.00  0.00     0.189 HD
BRANCH  16  18
HETATM   18  C1  UNL     1      28.760  18.360  41.477  1.00  0.00     0.199 C 
HETATM   19  N1  UNL     1      30.129  18.307  41.128  1.00  0.00    -0.068 NA
HETATM   20  S1  UNL     1      27.639  18.074  40.326  1.00  0.00    -0.043 SA
ENDBRANCH  16  18
ENDBRANCH  14  16
ENDBRANCH   1  14
TORSDOF 3
ENDMDL
MODEL 2
REMARK VINA RESULT: -6.285868512      3.241      5.377
REMARK  3 active torsions:
REMARK  status: ('A' for Active; 'I' for Inactive)
REMARK    1  A    between atoms: C1_2  and  N2_4 
REMARK    2  A    between atoms: N2_4  and  N3_6 
REMARK    3  A    between atoms: N3_6  and  C2_8 
ROOT
HETATM    1  C2  UNL     1      25.660  17.268  46.134  1.00  0.00     0.063 A 
HETATM    2  C3  UNL     1      25.187  17.977  45.122  1.00  0.00     0.101 A 
HETATM    3  C4  UNL     1      26.231  18.253  44.234  1.00  0.00     0.120 A 
HETATM    4  N4  UNL     1      25.939  18.969  43.139  1.00  0.00    -0.338 N 
ATOM      5  H4  UNL     1      26.688  19.180  42.480  1.00  0.00     0.168 HD
HETATM    6  C5  UNL     1      24.703  19.422  42.872  1.00  0.00     0.184 A 
HETATM    7  N5  UNL     1      23.672  19.178  43.702  1.00  0.00    -0.319 N 
ATOM      8  H5  UNL     1      22.734  19.524  43.496  1.00  0.00     0.169 HD
HETATM    9  C6  UNL     1      23.922  18.463  44.813  1.00  0.00     0.262 A 
HETATM   10  O1  UNL     1      23.000  18.216  45.605  1.00  0.00    -0.267 OA
HETATM   11  N6  UNL     1      27.320  17.743  44.658  1.00  0.00    -0.370 N 
ATOM     12  H6  UNL     1      28.220  17.809  44.182  1.00  0.00     0.161 HD
HETATM   13  C7  UNL     1      27.094  17.055  45.914  1.00  0.00     0.181 A 
ENDROOT
BRANCH   1  14
HETATM   14  N3  UNL     1      24.934  16.781  47.252  1.00  0.00    -0.300 N 
ATOM     15  H3  UNL     1      24.758  15.784  47.375  1.00  0.00     0.186 HD
BRANCH  14  16
HETATM   16  N2  UNL     1      24.468  17.717  48.179  1.00  0.00    -0.278 N 
ATOM     17  H2  UNL     1      23.525  17.639  48.561  1.00  0.00     0.189 HD
BRANCH  16  18
HETATM   18  C1  UNL     1      25.317  18.771  48.580  1.00  0.00     0.199 C 
HETATM   19  N1  UNL     1      26.533  18.494  49.247  1.00  0.00    -0.068 NA
HETATM   20  S1  UNL     1      24.913  20.324  48.285  1.00  0.00    -0.043 SA
ENDBRANCH  16  18
ENDBRANCH  14  16
ENDBRANCH   1  14
TORSDOF 3
ENDMDL
MODEL 3
REMARK VINA RESULT: -6.221762592      2.047      2.776
REMARK  3 active torsions:
REMARK  status: ('A' for Active; 'I' for Inactive)
REMARK    1  A    between atoms: C1_2  and  N2_4 
REMARK    2  A    between atoms: N2_4  and  N3_6 
REMARK    3  A    between atoms: N3_6  and  C2_8 
ROOT
HETATM    1  C2  UNL     1      26.711  18.759  45.435  1.00  0.00     0.063 A 
HETATM    2  C3  UNL     1      25.391  18.674  45.418  1.00  0.00     0.101 A 
HETATM    3  C4  UNL     1      24.935  18.432  46.717  1.00  0.00     0.120 A 
HETATM    4  N4  UNL     1      23.611  18.314  46.896  1.00  0.00    -0.338 N 
ATOM      5  H4  UNL     1      23.260  18.138  47.838  1.00  0.00     0.168 HD
HETATM    6  C5  UNL     1      22.727  18.418  45.890  1.00  0.00     0.184 A 
HETATM    7  N5  UNL     1      23.127  18.649  44.626  1.00  0.00    -0.319 N 
ATOM      8  H5  UNL     1      22.452  18.727  43.864  1.00  0.00     0.169 HD
HETATM    9  C6  UNL     1      24.447  18.774  44.402  1.00  0.00     0.262 A 
HETATM   10  O1  UNL     1      24.858  18.988  43.252  1.00  0.00    -0.267 OA
HETATM   11  N6  UNL     1      25.917  18.367  47.526  1.00  0.00    -0.370 N 
ATOM     12  H6  UNL     1      25.838  18.199  48.530  1.00  0.00     0.161 HD
HETATM   13  C7  UNL     1      27.165  18.566  46.816  1.00  0.00     0.181 A 
ENDROOT
BRANCH   1  14
HETATM   14  N3  UNL     1      27.569  18.995  44.329  1.00  0.00    -0.300 N 
ATOM     15  H3  UNL     1      28.042  19.891  44.209  1.00  0.00     0.186 HD
BRANCH  14  16
HETATM   16  N2  UNL     1      27.743  17.957  43.411  1.00  0.00    -0.278 N 
ATOM     17  H2  UNL     1      27.621  16.986  43.701  1.00  0.00     0.189 HD
BRANCH  16  18
HETATM   18  C1  UNL     1      28.087  18.266  42.077  1.00  0.00     0.199 C 
HETATM   19  N1  UNL     1      27.355  17.709  41.004  1.00  0.00    -0.068 NA
HETATM   20  S1  UNL     1      29.333  19.268  41.750  1.00  0.00    -0.043 SA
ENDBRANCH  16  18
ENDBRANCH  14  16
ENDBRANCH   1  14
TORSDOF 3
ENDMDL
MODEL 4
REMARK VINA RESULT: -6.151498947      1.575      2.538
REMARK  3 active torsions:
REMARK  status: ('A' for Active; 'I' for Inactive)
REMARK    1  A    between atoms: C1_2  and  N2_4 
REMARK    2  A    between atoms: N2_4  and  N3_6 
REMARK    3  A    between atoms: N3_6  and  C2_8 
ROOT
HETATM    1  C2  UNL     1      26.792  17.417  45.052  1.00  0.00     0.063 A 
HETATM    2  C3  UNL     1      25.592  17.911  45.310  1.00  0.00     0.101 A 
HETATM    3  C4  UNL     1      25.234  17.575  46.618  1.00  0.00     0.120 A 
HETATM    4  N4  UNL     1      24.039  17.994  47.061  1.00  0.00    -0.338 N 
ATOM      5  H4  UNL     1      23.761  17.758  48.014  1.00  0.00     0.168 HD
HETATM    6  C5  UNL     1      23.192  18.711  46.304  1.00  0.00     0.184 A 
HETATM    7  N5  UNL     1      23.500  19.054  45.040  1.00  0.00    -0.319 N 
ATOM      8  H5  UNL     1      22.854  19.598  44.467  1.00  0.00     0.169 HD
HETATM    9  C6  UNL     1      24.690  18.654  44.557  1.00  0.00     0.262 A 
HETATM   10  O1  UNL     1      25.013  18.948  43.396  1.00  0.00    -0.267 OA
HETATM   11  N6  UNL     1      26.162  16.898  47.172  1.00  0.00    -0.370 N 
ATOM     12  H6  UNL     1      26.133  16.538  48.126  1.00  0.00     0.161 HD
HETATM   13  C7  UNL     1      27.264  16.713  46.249  1.00  0.00     0.181 A 
ENDROOT
BRANCH   1  14
HETATM   14  N3  UNL     1      27.523  17.529  43.841  1.00  0.00    -0.300 N 
ATOM     15  H3  UNL     1      27.680  16.719  43.241  1.00  0.00     0.186 HD
BRANCH  14  16
HETATM   16  N2  UNL     1      28.020  18.789  43.499  1.00  0.00    -0.278 N 
ATOM     17  H2  UNL     1      28.019  19.547  44.183  1.00  0.00     0.189 HD
BRANCH  16  18
HETATM   18  C1  UNL     1      28.525  19.002  42.198  1.00  0.00     0.199 C 
HETATM   19  N1  UNL     1      29.885  19.333  42.006  1.00  0.00    -0.068 NA
HETATM   20  S1  UNL     1      27.550  18.872  40.896  1.00  0.00    -0.043 SA
ENDBRANCH  16  18
ENDBRANCH  14  16
ENDBRANCH   1  14
TORSDOF 3
ENDMDL
MODEL 5
REMARK VINA RESULT: -6.088610685      1.639      2.128
REMARK  3 active torsions:
REMARK  status: ('A' for Active; 'I' for Inactive)
REMARK    1  A    between atoms: C1_2  and  N2_4 
REMARK    2  A    between atoms: N2_4  and  N3_6 
REMARK    3  A    between atoms: N3_6  and  C2_8 
ROOT
HETATM    1  C2  UNL     1      26.429  18.663  43.140  1.00  0.00     0.063 A 
HETATM    2  C3  UNL     1      25.529  18.550  44.103  1.00  0.00     0.101 A 
HETATM    3  C4  UNL     1      24.319  19.094  43.661  1.00  0.00     0.120 A 
HETATM    4  N4  UNL     1      23.281  19.068  44.509  1.00  0.00    -0.338 N 
ATOM      5  H4  UNL     1      22.391  19.461  44.203  1.00  0.00     0.168 HD
HETATM    6  C5  UNL     1      23.363  18.548  45.745  1.00  0.00     0.184 A 
HETATM    7  N5  UNL     1      24.509  18.015  46.208  1.00  0.00    -0.319 N 
ATOM      8  H5  UNL     1      24.567  17.622  47.147  1.00  0.00     0.169 HD
HETATM    9  C6  UNL     1      25.575  18.021  45.388  1.00  0.00     0.262 A 
HETATM   10  O1  UNL     1      26.650  17.540  45.775  1.00  0.00    -0.267 OA
HETATM   11  N6  UNL     1      24.441  19.534  42.471  1.00  0.00    -0.370 N 
ATOM     12  H6  UNL     1      23.695  19.976  41.932  1.00  0.00     0.161 HD
HETATM   13  C7  UNL     1      25.791  19.316  41.992  1.00  0.00     0.181 A 
ENDROOT
BRANCH   1  14
HETATM   14  N3  UNL     1      27.782  18.238  43.178  1.00  0.00    -0.300 N 
ATOM     15  H3  UNL     1      28.026  17.264  43.358  1.00  0.00     0.186 HD
BRANCH  14  16
HETATM   16  N2  UNL     1      28.770  19.202  42.961  1.00  0.00    -0.278 N 
ATOM     17  H2  UNL     1      29.041  19.841  43.710  1.00  0.00     0.189 HD
BRANCH  16  18
HETATM   18  C1  UNL     1      29.389  19.283  41.695  1.00  0.00     0.199 C 
HETATM   19  N1  UNL     1      30.152  18.199  41.204  1.00  0.00    -0.068 NA
HETATM   20  S1  UNL     1      29.236  20.623  40.778  1.00  0.00    -0.043 SA
ENDBRANCH  16  18
ENDBRANCH  14  16
ENDBRANCH   1  14
TORSDOF 3
ENDMDL
