MODEL 1
REMARK VINA RESULT: -6.120449252      0.000      0.000
REMARK  3 active torsions:
REMARK  status: ('A' for Active; 'I' for Inactive)
REMARK    1  A    between atoms: N1_1  and  N2_4 
REMARK       I    between atoms: N2_4  and  C1_6 
REMARK    2  A    between atoms: C1_6  and  C2_8 
REMARK    3  A    between atoms: N3_10  and  N4_11 
REMARK       I    between atoms: N5_15  and  C5_16 
REMARK       I    between atoms: C5_16  and  N6_18 
ROOT
HETATM    1  C2  UNL     1      25.958  18.532  45.345  1.00  0.00     0.131 A 
HETATM    2  C3  UNL     1      26.303  17.818  46.516  1.00  0.00     0.152 A 
HETATM    3  N3  UNL     1      25.203  17.603  47.231  1.00  0.00    -0.267 N 
HETATM    4  C4  UNL     1      24.201  18.149  46.554  1.00  0.00     0.218 A 
HETATM    5  N5  UNL     1      24.638  18.728  45.383  1.00  0.00    -0.251 N 
HETATM    6  C5  UNL     1      23.775  19.345  44.451  1.00  0.00     0.334 C 
HETATM    7  O2  UNL     1      22.528  19.388  44.718  1.00  0.00    -0.246 OA
HETATM    8  N6  UNL     1      24.157  19.915  43.244  1.00  0.00    -0.284 N 
ATOM      9  H6  UNL     1      24.979  19.521  42.786  1.00  0.00     0.172 HD
HETATM   10  C6  UNL     1      23.575  20.889  42.653  1.00  0.00     0.204 C 
HETATM   11  N7  UNL     1      24.057  21.382  41.431  1.00  0.00    -0.066 NA
HETATM   12  N8  UNL     1      22.432  21.470  43.251  1.00  0.00    -0.066 NA
ENDROOT
BRANCH   1  13
HETATM   13  C1  UNL     1      26.935  18.897  44.329  1.00  0.00     0.288 C 
HETATM   14  N2  UNL     1      27.608  17.936  43.566  1.00  0.00    -0.271 N 
ATOM     15  H2  UNL     1      27.413  16.946  43.715  1.00  0.00     0.189 HD
HETATM   16  O1  UNL     1      27.163  20.111  44.138  1.00  0.00    -0.264 OA
BRANCH  14  17
HETATM   17  N1  UNL     1      28.553  18.323  42.594  1.00  0.00    -0.342 N 
ATOM     18  H12 UNL     1      28.981  19.246  42.668  1.00  0.00     0.176 HD
ATOM     19  H11 UNL     1      28.803  17.693  41.832  1.00  0.00     0.176 HD
ENDBRANCH  14  17
ENDBRANCH   1  13
BRANCH   3  20
HETATM   20  N4  UNL     1      25.139  16.921  48.470  1.00  0.00    -0.338 N 
ATOM     21  H42 UNL     1      25.909  16.502  48.990  1.00  0.00     0.177 HD
ATOM     22  H41 UNL     1      24.295  16.756  49.019  1.00  0.00     0.177 HD
ENDBRANCH   3  20
TORSDOF 3
ENDMDL
MODEL 2
REMARK VINA RESULT: -6.045677303      2.536      3.530
REMARK  3 active torsions:
REMARK  status: ('A' for Active; 'I' for Inactive)
REMARK    1  A    between atoms: N1_1  and  N2_4 
REMARK       I    between atoms: N2_4  and  C1_6 
REMARK    2  A    between atoms: C1_6  and  C2_8 
REMARK    3  A    between atoms: N3_10  and  N4_11 
REMARK       I    between atoms: N5_15  and  C5_16 
REMARK       I    between atoms: C5_16  and  N6_18 
ROOT
HETATM    1  C2  UNL     1      26.328  18.289  46.980  1.00  0.00     0.131 A 
HETATM    2  C3  UNL     1      25.887  18.647  48.275  1.00  0.00     0.152 A 
HETATM    3  N3  UNL     1      25.215  19.792  48.201  1.00  0.00    -0.267 N 
HETATM    4  C4  UNL     1      25.222  20.152  46.924  1.00  0.00     0.218 A 
HETATM    5  N5  UNL     1      25.901  19.241  46.146  1.00  0.00    -0.251 N 
HETATM    6  C5  UNL     1      26.027  19.356  44.744  1.00  0.00     0.334 C 
HETATM    7  O2  UNL     1      25.505  20.369  44.171  1.00  0.00    -0.246 OA
HETATM    8  N6  UNL     1      26.673  18.453  43.910  1.00  0.00    -0.284 N 
ATOM      9  H6  UNL     1      26.683  17.477  44.205  1.00  0.00     0.172 HD
HETATM   10  C6  UNL     1      27.255  18.730  42.805  1.00  0.00     0.204 C 
HETATM   11  N7  UNL     1      27.877  17.728  42.046  1.00  0.00    -0.066 NA
HETATM   12  N8  UNL     1      27.267  20.072  42.354  1.00  0.00    -0.066 NA
ENDROOT
BRANCH   1  13
HETATM   13  C1  UNL     1      27.069  17.065  46.711  1.00  0.00     0.288 C 
HETATM   14  N2  UNL     1      28.394  16.893  47.126  1.00  0.00    -0.271 N 
ATOM     15  H2  UNL     1      28.865  17.641  47.635  1.00  0.00     0.189 HD
HETATM   16  O1  UNL     1      26.486  16.144  46.100  1.00  0.00    -0.264 OA
BRANCH  14  17
HETATM   17  N1  UNL     1      29.085  15.696  46.845  1.00  0.00    -0.342 N 
ATOM     18  H12 UNL     1      29.922  15.476  47.385  1.00  0.00     0.176 HD
ATOM     19  H11 UNL     1      28.754  15.064  46.115  1.00  0.00     0.176 HD
ENDBRANCH  14  17
ENDBRANCH   1  13
BRANCH   3  20
HETATM   20  N4  UNL     1      24.617  20.475  49.288  1.00  0.00    -0.338 N 
ATOM     21  H42 UNL     1      25.028  20.674  50.200  1.00  0.00     0.177 HD
ATOM     22  H41 UNL     1      23.675  20.867  49.302  1.00  0.00     0.177 HD
ENDBRANCH   3  20
TORSDOF 3
ENDMDL
MODEL 3
REMARK VINA RESULT: -6.016843809      2.360      3.489
REMARK  3 active torsions:
REMARK  status: ('A' for Active; 'I' for Inactive)
REMARK    1  A    between atoms: N1_1  and  N2_4 
REMARK       I    between atoms: N2_4  and  C1_6 
REMARK    2  A    between atoms: C1_6  and  C2_8 
REMARK    3  A    between atoms: N3_10  and  N4_11 
REMARK       I    between atoms: N5_15  and  C5_16 
REMARK       I    between atoms: C5_16  and  N6_18 
ROOT
HETATM    1  C2  UNL     1      26.199  17.528  46.445  1.00  0.00     0.131 A 
HETATM    2  C3  UNL     1      25.404  17.578  47.613  1.00  0.00     0.152 A 
HETATM    3  N3  UNL     1      24.377  18.396  47.403  1.00  0.00    -0.267 N 
HETATM    4  C4  UNL     1      24.504  18.847  46.162  1.00  0.00     0.218 A 
HETATM    5  N5  UNL     1      25.619  18.326  45.546  1.00  0.00    -0.251 N 
HETATM    6  C5  UNL     1      25.971  18.607  44.207  1.00  0.00     0.334 C 
HETATM    7  O2  UNL     1      25.230  19.404  43.541  1.00  0.00    -0.246 OA
HETATM    8  N6  UNL     1      27.065  18.086  43.528  1.00  0.00    -0.284 N 
ATOM      9  H6  UNL     1      27.386  17.160  43.811  1.00  0.00     0.172 HD
HETATM   10  C6  UNL     1      27.707  18.658  42.582  1.00  0.00     0.204 C 
HETATM   11  N7  UNL     1      28.802  18.030  41.969  1.00  0.00    -0.066 NA
HETATM   12  N8  UNL     1      27.299  19.945  42.155  1.00  0.00    -0.066 NA
ENDROOT
BRANCH   1  13
HETATM   13  C1  UNL     1      27.386  16.693  46.336  1.00  0.00     0.288 C 
HETATM   14  N2  UNL     1      28.435  16.769  47.260  1.00  0.00    -0.271 N 
ATOM     15  H2  UNL     1      28.374  17.424  48.040  1.00  0.00     0.189 HD
HETATM   16  O1  UNL     1      27.453  15.881  45.389  1.00  0.00    -0.264 OA
BRANCH  14  17
HETATM   17  N1  UNL     1      29.574  15.950  47.123  1.00  0.00    -0.342 N 
ATOM     18  H12 UNL     1      29.442  14.951  46.959  1.00  0.00     0.176 HD
ATOM     19  H11 UNL     1      30.511  16.348  47.186  1.00  0.00     0.176 HD
ENDBRANCH  14  17
ENDBRANCH   1  13
BRANCH   3  20
HETATM   20  N4  UNL     1      23.359  18.708  48.337  1.00  0.00    -0.338 N 
ATOM     21  H42 UNL     1      22.401  18.994  48.140  1.00  0.00     0.177 HD
ATOM     22  H41 UNL     1      23.453  18.686  49.352  1.00  0.00     0.177 HD
ENDBRANCH   3  20
TORSDOF 3
ENDMDL
MODEL 4
REMARK VINA RESULT: -5.924369097      1.594      3.616
REMARK  3 active torsions:
REMARK  status: ('A' for Active; 'I' for Inactive)
REMARK    1  A    between atoms: N1_1  and  N2_4 
REMARK       I    between atoms: N2_4  and  C1_6 
REMARK    2  A    between atoms: C1_6  and  C2_8 
REMARK    3  A    between atoms: N3_10  and  N4_11 
REMARK       I    between atoms: N5_15  and  C5_16 
REMARK       I    between atoms: C5_16  and  N6_18 
ROOT
HETATM    1  C2  UNL     1      24.479  19.068  45.441  1.00  0.00     0.131 A 
HETATM    2  C3  UNL     1      24.030  18.615  46.703  1.00  0.00     0.152 A 
HETATM    3  N3  UNL     1      24.848  17.659  47.134  1.00  0.00    -0.267 N 
HETATM    4  C4  UNL     1      25.776  17.506  46.199  1.00  0.00     0.218 A 
HETATM    5  N5  UNL     1      25.575  18.366  45.142  1.00  0.00    -0.251 N 
HETATM    6  C5  UNL     1      26.439  18.444  44.028  1.00  0.00     0.334 C 
HETATM    7  O2  UNL     1      27.445  17.661  43.987  1.00  0.00    -0.246 OA
HETATM    8  N6  UNL     1      26.301  19.311  42.952  1.00  0.00    -0.284 N 
ATOM      9  H6  UNL     1      25.848  20.206  43.135  1.00  0.00     0.172 HD
HETATM   10  C6  UNL     1      26.687  19.091  41.753  1.00  0.00     0.204 C 
HETATM   11  N7  UNL     1      26.491  20.048  40.745  1.00  0.00    -0.066 NA
HETATM   12  N8  UNL     1      27.320  17.862  41.449  1.00  0.00    -0.066 NA
ENDROOT
BRANCH   1  13
HETATM   13  C1  UNL     1      23.819  20.139  44.709  1.00  0.00     0.288 C 
HETATM   14  N2  UNL     1      23.028  19.890  43.581  1.00  0.00    -0.271 N 
ATOM     15  H2  UNL     1      22.901  18.931  43.256  1.00  0.00     0.189 HD
HETATM   16  O1  UNL     1      23.964  21.311  45.117  1.00  0.00    -0.264 OA
BRANCH  14  17
HETATM   17  N1  UNL     1      22.406  20.950  42.891  1.00  0.00    -0.342 N 
ATOM     18  H12 UNL     1      22.502  20.997  41.877  1.00  0.00     0.176 HD
ATOM     19  H11 UNL     1      21.871  21.657  43.397  1.00  0.00     0.176 HD
ENDBRANCH  14  17
ENDBRANCH   1  13
BRANCH   3  20
HETATM   20  N4  UNL     1      24.729  16.956  48.358  1.00  0.00    -0.338 N 
ATOM     21  H42 UNL     1      24.187  17.223  49.179  1.00  0.00     0.177 HD
ATOM     22  H41 UNL     1      25.182  16.070  48.585  1.00  0.00     0.177 HD
ENDBRANCH   3  20
TORSDOF 3
ENDMDL
MODEL 5
REMARK VINA RESULT: -5.897630300      2.402      4.949
REMARK  3 active torsions:
REMARK  status: ('A' for Active; 'I' for Inactive)
REMARK    1  A    between atoms: N1_1  and  N2_4 
REMARK       I    between atoms: N2_4  and  C1_6 
REMARK    2  A    between atoms: C1_6  and  C2_8 
REMARK    3  A    between atoms: N3_10  and  N4_11 
REMARK       I    between atoms: N5_15  and  C5_16 
REMARK       I    between atoms: C5_16  and  N6_18 
ROOT
HETATM    1  C2  UNL     1      27.256  19.902  43.022  1.00  0.00     0.131 A 
HETATM    2  C3  UNL     1      26.924  21.059  42.280  1.00  0.00     0.152 A 
HETATM    3  N3  UNL     1      26.127  21.829  43.014  1.00  0.00    -0.267 N 
HETATM    4  C4  UNL     1      25.956  21.201  44.170  1.00  0.00     0.218 A 
HETATM    5  N5  UNL     1      26.644  20.009  44.204  1.00  0.00    -0.251 N 
HETATM    6  C5  UNL     1      26.670  19.157  45.331  1.00  0.00     0.334 C 
HETATM    7  O2  UNL     1      26.002  19.499  46.363  1.00  0.00    -0.246 OA
HETATM    8  N6  UNL     1      27.370  17.962  45.430  1.00  0.00    -0.284 N 
ATOM      9  H6  UNL     1      28.227  17.882  44.883  1.00  0.00     0.172 HD
HETATM   10  C6  UNL     1      27.040  16.953  46.142  1.00  0.00     0.204 C 
HETATM   11  N7  UNL     1      27.831  15.794  46.160  1.00  0.00    -0.066 NA
HETATM   12  N8  UNL     1      25.859  17.016  46.917  1.00  0.00    -0.066 NA
ENDROOT
BRANCH   1  13
HETATM   13  C1  UNL     1      28.145  18.868  42.512  1.00  0.00     0.288 C 
HETATM   14  N2  UNL     1      29.468  19.141  42.146  1.00  0.00    -0.271 N 
ATOM     15  H2  UNL     1      29.832  20.089  42.238  1.00  0.00     0.189 HD
HETATM   16  O1  UNL     1      27.702  17.704  42.414  1.00  0.00    -0.264 OA
BRANCH  14  17
HETATM   17  N1  UNL     1      30.301  18.118  41.650  1.00  0.00    -0.342 N 
ATOM     18  H12 UNL     1      30.945  17.656  42.293  1.00  0.00     0.176 HD
ATOM     19  H11 UNL     1      30.261  17.844  40.668  1.00  0.00     0.176 HD
ENDBRANCH  14  17
ENDBRANCH   1  13
BRANCH   3  20
HETATM   20  N4  UNL     1      25.580  23.074  42.617  1.00  0.00    -0.338 N 
ATOM     21  H42 UNL     1      25.065  23.283  41.763  1.00  0.00     0.177 HD
ATOM     22  H41 UNL     1      25.631  23.945  43.146  1.00  0.00     0.177 HD
ENDBRANCH   3  20
TORSDOF 3
ENDMDL
