MODEL 1
REMARK VINA RESULT: -6.511589576      0.000      0.000
REMARK  6 active torsions:
REMARK  status: ('A' for Active; 'I' for Inactive)
REMARK    1  A    between atoms: N1_1  and  N2_4 
REMARK    2  A    between atoms: N2_4  and  C1_6 
REMARK    3  A    between atoms: C2_14  and  N5_15 
REMARK    4  A    between atoms: N5_15  and  N6_17 
REMARK    5  A    between atoms: N7_19  and  O3_21 
REMARK    6  A    between atoms: O3_21  and  C3_22 
ROOT
HETATM    1  C1  UNL     1      25.618  19.127  46.867  1.00  0.00     0.177 A 
HETATM    2  N3  UNL     1      24.418  19.505  47.000  1.00  0.00    -0.248 N 
ATOM      3  H3  UNL     1      24.010  19.918  47.839  1.00  0.00     0.182 HD
HETATM    4  S1  UNL     1      23.586  19.200  45.507  1.00  0.00     0.326 S 
HETATM    5  O1  UNL     1      22.560  18.119  45.656  1.00  0.00    -0.182 OA
HETATM    6  O2  UNL     1      23.072  20.434  44.882  1.00  0.00    -0.182 OA
HETATM    7  N4  UNL     1      24.935  18.528  44.668  1.00  0.00    -0.248 N 
ATOM      8  H4  UNL     1      24.964  18.177  43.712  1.00  0.00     0.182 HD
HETATM    9  C2  UNL     1      25.986  18.573  45.604  1.00  0.00     0.179 A 
ENDROOT
BRANCH   9  10
HETATM   10  N5  UNL     1      27.180  18.135  45.299  1.00  0.00    -0.266 N 
ATOM     11  H5  UNL     1      27.916  18.818  45.121  1.00  0.00     0.190 HD
BRANCH  10  12
HETATM   12  N6  UNL     1      27.495  16.789  45.207  1.00  0.00    -0.221 N 
HETATM   13  N7  UNL     1      27.866  16.099  46.195  1.00  0.00    -0.183 N 
ATOM     14  H7  UNL     1      28.088  15.111  46.077  1.00  0.00     0.218 HD
ATOM     15  H6  UNL     1      27.424  16.334  44.296  1.00  0.00     0.210 HD
BRANCH  13  16
HETATM   16  O3  UNL     1      27.971  16.695  47.450  1.00  0.00    -0.166 OA
BRANCH  16  17
HETATM   17  C3  UNL     1      29.232  16.940  47.972  1.00  0.00     0.395 C 
HETATM   18  N8  UNL     1      29.538  18.140  48.652  1.00  0.00    -0.031 NA
HETATM   19  O4  UNL     1      30.112  16.042  47.819  1.00  0.00    -0.240 OA
ENDBRANCH  16  17
ENDBRANCH  13  16
ENDBRANCH  10  12
ENDBRANCH   9  10
BRANCH   1  20
HETATM   20  N2  UNL     1      26.547  19.264  47.970  1.00  0.00    -0.288 N 
ATOM     21  H2  UNL     1      27.419  19.781  47.856  1.00  0.00     0.188 HD
BRANCH  20  22
HETATM   22  N1  UNL     1      26.219  18.669  49.196  1.00  0.00    -0.344 N 
ATOM     23  H12 UNL     1      26.359  17.668  49.328  1.00  0.00     0.176 HD
ATOM     24  H11 UNL     1      25.843  19.261  49.938  1.00  0.00     0.176 HD
ENDBRANCH  20  22
ENDBRANCH   1  20
TORSDOF 6
ENDMDL
MODEL 2
REMARK VINA RESULT: -6.402110509      3.474      4.203
REMARK  6 active torsions:
REMARK  status: ('A' for Active; 'I' for Inactive)
REMARK    1  A    between atoms: N1_1  and  N2_4 
REMARK    2  A    between atoms: N2_4  and  C1_6 
REMARK    3  A    between atoms: C2_14  and  N5_15 
REMARK    4  A    between atoms: N5_15  and  N6_17 
REMARK    5  A    between atoms: N7_19  and  O3_21 
REMARK    6  A    between atoms: O3_21  and  C3_22 
ROOT
HETATM    1  C1  UNL     1      27.195  18.870  47.209  1.00  0.00     0.177 A 
HETATM    2  N3  UNL     1      26.378  19.080  48.153  1.00  0.00    -0.248 N 
ATOM      3  H3  UNL     1      26.491  18.777  49.121  1.00  0.00     0.182 HD
HETATM    4  S1  UNL     1      25.032  19.972  47.516  1.00  0.00     0.326 S 
HETATM    5  O1  UNL     1      23.779  19.152  47.506  1.00  0.00    -0.182 OA
HETATM    6  O2  UNL     1      24.879  21.297  48.148  1.00  0.00    -0.182 OA
HETATM    7  N4  UNL     1      25.610  20.061  45.893  1.00  0.00    -0.248 N 
ATOM      8  H4  UNL     1      25.161  20.505  45.093  1.00  0.00     0.182 HD
HETATM    9  C2  UNL     1      26.844  19.381  45.923  1.00  0.00     0.179 A 
ENDROOT
BRANCH   9  10
HETATM   10  N5  UNL     1      27.571  19.254  44.844  1.00  0.00    -0.266 N 
ATOM     11  H5  UNL     1      28.205  20.012  44.595  1.00  0.00     0.190 HD
BRANCH  10  12
HETATM   12  N6  UNL     1      27.524  18.138  44.023  1.00  0.00    -0.221 N 
HETATM   13  N7  UNL     1      28.070  18.097  42.887  1.00  0.00    -0.183 N 
ATOM     14  H7  UNL     1      28.007  17.252  42.319  1.00  0.00     0.218 HD
ATOM     15  H6  UNL     1      27.024  17.312  44.353  1.00  0.00     0.210 HD
BRANCH  13  16
HETATM   16  O3  UNL     1      28.759  19.211  42.413  1.00  0.00    -0.166 OA
BRANCH  16  17
HETATM   17  C3  UNL     1      29.529  19.084  41.267  1.00  0.00     0.395 C 
HETATM   18  N8  UNL     1      29.477  20.038  40.225  1.00  0.00    -0.031 NA
HETATM   19  O4  UNL     1      30.290  18.076  41.183  1.00  0.00    -0.240 OA
ENDBRANCH  16  17
ENDBRANCH  13  16
ENDBRANCH  10  12
ENDBRANCH   9  10
BRANCH   1  20
HETATM   20  N2  UNL     1      28.419  18.139  47.461  1.00  0.00    -0.288 N 
ATOM     21  H2  UNL     1      28.508  17.160  47.187  1.00  0.00     0.188 HD
BRANCH  20  22
HETATM   22  N1  UNL     1      29.479  18.808  48.089  1.00  0.00    -0.344 N 
ATOM     23  H12 UNL     1      30.050  19.465  47.558  1.00  0.00     0.176 HD
ATOM     24  H11 UNL     1      29.655  18.619  49.076  1.00  0.00     0.176 HD
ENDBRANCH  20  22
ENDBRANCH   1  20
TORSDOF 6
ENDMDL
MODEL 3
REMARK VINA RESULT: -6.383040745      1.489      2.879
REMARK  6 active torsions:
REMARK  status: ('A' for Active; 'I' for Inactive)
REMARK    1  A    between atoms: N1_1  and  N2_4 
REMARK    2  A    between atoms: N2_4  and  C1_6 
REMARK    3  A    between atoms: C2_14  and  N5_15 
REMARK    4  A    between atoms: N5_15  and  N6_17 
REMARK    5  A    between atoms: N7_19  and  O3_21 
REMARK    6  A    between atoms: O3_21  and  C3_22 
ROOT
HETATM    1  C1  UNL     1      26.528  18.285  45.846  1.00  0.00     0.177 A 
HETATM    2  N3  UNL     1      25.443  18.564  45.257  1.00  0.00    -0.248 N 
ATOM      3  H3  UNL     1      25.168  18.245  44.327  1.00  0.00     0.182 HD
HETATM    4  S1  UNL     1      24.504  19.582  46.304  1.00  0.00     0.326 S 
HETATM    5  O1  UNL     1      24.381  20.971  45.760  1.00  0.00    -0.182 OA
HETATM    6  O2  UNL     1      23.217  18.969  46.686  1.00  0.00    -0.182 OA
HETATM    7  N4  UNL     1      25.642  19.627  47.600  1.00  0.00    -0.248 N 
ATOM      8  H4  UNL     1      25.556  20.117  48.490  1.00  0.00     0.182 HD
HETATM    9  C2  UNL     1      26.717  18.835  47.150  1.00  0.00     0.179 A 
ENDROOT
BRANCH   9  10
HETATM   10  N5  UNL     1      27.775  18.648  47.895  1.00  0.00    -0.266 N 
ATOM     11  H5  UNL     1      27.681  18.081  48.737  1.00  0.00     0.190 HD
BRANCH  10  12
HETATM   12  N6  UNL     1      29.018  19.182  47.597  1.00  0.00    -0.221 N 
HETATM   13  N7  UNL     1      30.053  18.935  48.274  1.00  0.00    -0.183 N 
ATOM     14  H7  UNL     1      30.947  19.353  48.015  1.00  0.00     0.218 HD
ATOM     15  H6  UNL     1      29.101  19.804  46.792  1.00  0.00     0.210 HD
BRANCH  13  16
HETATM   16  O3  UNL     1      29.969  18.088  49.377  1.00  0.00    -0.166 OA
BRANCH  16  17
HETATM   17  C3  UNL     1      29.949  16.718  49.170  1.00  0.00     0.395 C 
HETATM   18  N8  UNL     1      29.852  16.160  47.875  1.00  0.00    -0.031 NA
HETATM   19  O4  UNL     1      30.022  15.972  50.190  1.00  0.00    -0.240 OA
ENDBRANCH  16  17
ENDBRANCH  13  16
ENDBRANCH  10  12
ENDBRANCH   9  10
BRANCH   1  20
HETATM   20  N2  UNL     1      27.510  17.443  45.196  1.00  0.00    -0.288 N 
ATOM     21  H2  UNL     1      28.075  17.800  44.425  1.00  0.00     0.188 HD
BRANCH  20  22
HETATM   22  N1  UNL     1      27.666  16.125  45.651  1.00  0.00    -0.344 N 
ATOM     23  H12 UNL     1      28.598  15.717  45.712  1.00  0.00     0.176 HD
ATOM     24  H11 UNL     1      26.831  15.600  45.913  1.00  0.00     0.176 HD
ENDBRANCH  20  22
ENDBRANCH   1  20
TORSDOF 6
ENDMDL
MODEL 4
REMARK VINA RESULT: -6.331560782      1.945      2.518
REMARK  6 active torsions:
REMARK  status: ('A' for Active; 'I' for Inactive)
REMARK    1  A    between atoms: N1_1  and  N2_4 
REMARK    2  A    between atoms: N2_4  and  C1_6 
REMARK    3  A    between atoms: C2_14  and  N5_15 
REMARK    4  A    between atoms: N5_15  and  N6_17 
REMARK    5  A    between atoms: N7_19  and  O3_21 
REMARK    6  A    between atoms: O3_21  and  C3_22 
ROOT
HETATM    1  C1  UNL     1      25.659  18.969  47.176  1.00  0.00     0.177 A 
HETATM    2  N3  UNL     1      24.865  19.343  46.264  1.00  0.00    -0.248 N 
ATOM      3  H3  UNL     1      23.846  19.353  46.325  1.00  0.00     0.182 HD
HETATM    4  S1  UNL     1      25.808  19.838  44.893  1.00  0.00     0.326 S 
HETATM    5  O1  UNL     1      25.636  18.904  43.736  1.00  0.00    -0.182 OA
HETATM    6  O2  UNL     1      25.611  21.260  44.552  1.00  0.00    -0.182 OA
HETATM    7  N4  UNL     1      27.351  19.519  45.596  1.00  0.00    -0.248 N 
ATOM      8  H4  UNL     1      28.269  19.651  45.174  1.00  0.00     0.182 HD
HETATM    9  C2  UNL     1      27.055  19.035  46.885  1.00  0.00     0.179 A 
ENDROOT
BRANCH   9  10
HETATM   10  N5  UNL     1      28.008  18.688  47.711  1.00  0.00    -0.266 N 
ATOM     11  H5  UNL     1      27.818  17.949  48.387  1.00  0.00     0.190 HD
BRANCH  10  12
HETATM   12  N6  UNL     1      29.263  19.275  47.713  1.00  0.00    -0.221 N 
HETATM   13  N7  UNL     1      30.276  18.730  48.230  1.00  0.00    -0.183 N 
ATOM     14  H7  UNL     1      31.180  19.203  48.208  1.00  0.00     0.218 HD
ATOM     15  H6  UNL     1      29.373  20.190  47.276  1.00  0.00     0.210 HD
BRANCH  13  16
HETATM   16  O3  UNL     1      30.154  17.480  48.834  1.00  0.00    -0.166 OA
BRANCH  16  17
HETATM   17  C3  UNL     1      30.123  16.350  48.032  1.00  0.00     0.395 C 
HETATM   18  N8  UNL     1      28.961  15.968  47.324  1.00  0.00    -0.031 NA
HETATM   19  O4  UNL     1      31.183  15.662  47.952  1.00  0.00    -0.240 OA
ENDBRANCH  16  17
ENDBRANCH  13  16
ENDBRANCH  10  12
ENDBRANCH   9  10
BRANCH   1  20
HETATM   20  N2  UNL     1      25.138  18.499  48.442  1.00  0.00    -0.288 N 
ATOM     21  H2  UNL     1      24.970  19.149  49.211  1.00  0.00     0.188 HD
BRANCH  20  22
HETATM   22  N1  UNL     1      24.871  17.130  48.588  1.00  0.00    -0.344 N 
ATOM     23  H12 UNL     1      25.329  16.456  47.975  1.00  0.00     0.176 HD
ATOM     24  H11 UNL     1      24.217  16.838  49.314  1.00  0.00     0.176 HD
ENDBRANCH  20  22
ENDBRANCH   1  20
TORSDOF 6
ENDMDL
MODEL 5
REMARK VINA RESULT: -6.266926126      2.246      2.925
REMARK  6 active torsions:
REMARK  status: ('A' for Active; 'I' for Inactive)
REMARK    1  A    between atoms: N1_1  and  N2_4 
REMARK    2  A    between atoms: N2_4  and  C1_6 
REMARK    3  A    between atoms: C2_14  and  N5_15 
REMARK    4  A    between atoms: N5_15  and  N6_17 
REMARK    5  A    between atoms: N7_19  and  O3_21 
REMARK    6  A    between atoms: O3_21  and  C3_22 
ROOT
HETATM    1  C1  UNL     1      26.237  17.561  46.570  1.00  0.00     0.177 A 
HETATM    2  N3  UNL     1      25.625  17.443  45.468  1.00  0.00    -0.248 N 
ATOM      3  H3  UNL     1      24.887  16.769  45.263  1.00  0.00     0.182 HD
HETATM    4  S1  UNL     1      26.259  18.626  44.367  1.00  0.00     0.326 S 
HETATM    5  O1  UNL     1      27.021  17.988  43.247  1.00  0.00    -0.182 OA
HETATM    6  O2  UNL     1      25.237  19.593  43.923  1.00  0.00    -0.182 OA
HETATM    7  N4  UNL     1      27.408  19.309  45.457  1.00  0.00    -0.248 N 
ATOM      8  H4  UNL     1      28.059  20.073  45.281  1.00  0.00     0.182 HD
HETATM    9  C2  UNL     1      27.242  18.573  46.647  1.00  0.00     0.179 A 
ENDROOT
BRANCH   9  10
HETATM   10  N5  UNL     1      27.966  18.829  47.705  1.00  0.00    -0.266 N 
ATOM     11  H5  UNL     1      27.545  18.694  48.624  1.00  0.00     0.190 HD
BRANCH  10  12
HETATM   12  N6  UNL     1      29.277  19.273  47.640  1.00  0.00    -0.221 N 
HETATM   13  N7  UNL     1      30.165  18.919  48.463  1.00  0.00    -0.183 N 
ATOM     14  H7  UNL     1      31.117  19.274  48.374  1.00  0.00     0.218 HD
ATOM     15  H6  UNL     1      29.536  19.917  46.892  1.00  0.00     0.210 HD
BRANCH  13  16
HETATM   16  O3  UNL     1      29.838  18.041  49.493  1.00  0.00    -0.166 OA
BRANCH  16  17
HETATM   17  C3  UNL     1      29.914  16.676  49.260  1.00  0.00     0.395 C 
HETATM   18  N8  UNL     1      29.890  16.140  47.952  1.00  0.00    -0.031 NA
HETATM   19  O4  UNL     1      30.008  15.916  50.268  1.00  0.00    -0.240 OA
ENDBRANCH  16  17
ENDBRANCH  13  16
ENDBRANCH  10  12
ENDBRANCH   9  10
BRANCH   1  20
HETATM   20  N2  UNL     1      25.908  16.691  47.679  1.00  0.00    -0.288 N 
ATOM     21  H2  UNL     1      26.461  15.855  47.868  1.00  0.00     0.188 HD
BRANCH  20  22
HETATM   22  N1  UNL     1      24.810  17.024  48.485  1.00  0.00    -0.344 N 
ATOM     23  H12 UNL     1      24.607  18.003  48.686  1.00  0.00     0.176 HD
ATOM     24  H11 UNL     1      24.233  16.268  48.856  1.00  0.00     0.176 HD
ENDBRANCH  20  22
ENDBRANCH   1  20
TORSDOF 6
ENDMDL
