MODEL 1
REMARK VINA RESULT: -6.658686130      0.000      0.000
REMARK  5 active torsions:
REMARK  status: ('A' for Active; 'I' for Inactive)
REMARK    1  A    between atoms: N1_2  and  C2_4 
REMARK    2  A    between atoms: N3_8  and  O1_9 
REMARK    3  A    between atoms: C4_13  and  N5_14 
REMARK    4  A    between atoms: N7_20  and  O2_21 
REMARK    5  A    between atoms: C6_23  and  N8_24 
ROOT
HETATM    1  C2  UNL     1      27.092  18.213  43.254  1.00  0.00     0.149 A 
HETATM    2  N2  UNL     1      27.534  17.459  44.261  1.00  0.00    -0.319 N 
ATOM      3  H2  UNL     1      28.424  16.967  44.179  1.00  0.00     0.169 HD
HETATM    4  C3  UNL     1      26.807  17.348  45.381  1.00  0.00     0.201 A 
HETATM    5  N3  UNL     1      27.241  16.583  46.420  1.00  0.00    -0.128 N 
HETATM    6  N4  UNL     1      26.483  16.511  47.498  1.00  0.00    -0.104 N 
ATOM      7  H4  UNL     1      26.800  15.940  48.281  1.00  0.00     0.208 HD
HETATM    8  C4  UNL     1      25.308  17.160  47.607  1.00  0.00     0.694 A 
HETATM    9  N6  UNL     1      24.818  17.932  46.626  1.00  0.00    -0.169 N 
ATOM     10  H6  UNL     1      23.926  18.416  46.728  1.00  0.00     0.186 HD
HETATM   11  C5  UNL     1      25.552  18.044  45.493  1.00  0.00     0.198 A 
HETATM   12  N7  UNL     1      25.138  18.797  44.458  1.00  0.00    -0.183 N 
HETATM   13  C6  UNL     1      25.886  18.888  43.350  1.00  0.00     0.173 A 
ENDROOT
BRANCH   1  14
HETATM   14  N1  UNL     1      27.787  18.323  42.175  1.00  0.00    -0.378 N 
HETATM   15  C1  UNL     1      28.933  19.205  42.152  1.00  0.00     0.148 C 
ATOM     16  H1  UNL     1      27.531  17.792  41.343  1.00  0.00     0.160 HD
ENDBRANCH   1  14
BRANCH  13  17
HETATM   17  N8  UNL     1      25.496  19.617  42.332  1.00  0.00    -0.381 N 
ATOM     18  H82 UNL     1      25.745  20.604  42.269  1.00  0.00     0.157 HD
ATOM     19  H81 UNL     1      24.938  19.174  41.603  1.00  0.00     0.157 HD
ENDBRANCH  13  17
BRANCH  12  20
HETATM   20  O2  UNL     1      23.952  19.463  44.545  1.00  0.00    -0.279 OA
ATOM     21  H2  UNL     1      23.862  20.313  44.131  1.00  0.00     0.245 HD
ENDBRANCH  12  20
BRANCH   5  22
HETATM   22  O1  UNL     1      28.434  15.928  46.298  1.00  0.00    -0.266 OA
ATOM     23  H1  UNL     1      29.002  15.872  47.057  1.00  0.00     0.247 HD
ENDBRANCH   5  22
BRANCH   8  24
HETATM   24  N5  UNL     1      24.637  17.029  48.703  1.00  0.00    -0.233 N 
ATOM     25  H52 UNL     1      24.892  16.292  49.359  1.00  0.00     0.174 HD
ATOM     26  H51 UNL     1      23.865  17.673  48.877  1.00  0.00     0.174 HD
ENDBRANCH   8  24
TORSDOF 5
ENDMDL
MODEL 2
REMARK VINA RESULT: -6.520939645      1.217      1.217
REMARK  5 active torsions:
REMARK  status: ('A' for Active; 'I' for Inactive)
REMARK    1  A    between atoms: N1_2  and  C2_4 
REMARK    2  A    between atoms: N3_8  and  O1_9 
REMARK    3  A    between atoms: C4_13  and  N5_14 
REMARK    4  A    between atoms: N7_20  and  O2_21 
REMARK    5  A    between atoms: C6_23  and  N8_24 
ROOT
HETATM    1  C2  UNL     1      27.368  19.212  43.592  1.00  0.00     0.149 A 
HETATM    2  N2  UNL     1      27.509  18.035  44.203  1.00  0.00    -0.319 N 
ATOM      3  H2  UNL     1      28.125  17.325  43.809  1.00  0.00     0.169 HD
HETATM    4  C3  UNL     1      26.837  17.787  45.337  1.00  0.00     0.201 A 
HETATM    5  N3  UNL     1      26.967  16.592  45.975  1.00  0.00    -0.128 N 
HETATM    6  N4  UNL     1      26.282  16.404  47.086  1.00  0.00    -0.104 N 
ATOM      7  H4  UNL     1      26.374  15.511  47.572  1.00  0.00     0.208 HD
HETATM    8  C4  UNL     1      25.467  17.341  47.608  1.00  0.00     0.694 A 
HETATM    9  N6  UNL     1      25.290  18.540  47.035  1.00  0.00    -0.169 N 
ATOM     10  H6  UNL     1      24.669  19.237  47.446  1.00  0.00     0.186 HD
HETATM   11  C5  UNL     1      25.968  18.792  45.890  1.00  0.00     0.198 A 
HETATM   12  N7  UNL     1      25.851  19.968  45.247  1.00  0.00    -0.183 N 
HETATM   13  C6  UNL     1      26.534  20.188  44.115  1.00  0.00     0.173 A 
ENDROOT
BRANCH   1  14
HETATM   14  N1  UNL     1      28.010  19.456  42.503  1.00  0.00    -0.378 N 
HETATM   15  C1  UNL     1      27.959  18.502  41.416  1.00  0.00     0.148 C 
ATOM     16  H1  UNL     1      28.551  20.315  42.407  1.00  0.00     0.160 HD
ENDBRANCH   1  14
BRANCH  13  17
HETATM   17  N8  UNL     1      26.431  21.328  43.477  1.00  0.00    -0.381 N 
ATOM     18  H82 UNL     1      27.249  21.914  43.315  1.00  0.00     0.157 HD
ATOM     19  H81 UNL     1      25.510  21.617  43.144  1.00  0.00     0.157 HD
ENDBRANCH  13  17
BRANCH  12  20
HETATM   20  O2  UNL     1      25.032  20.932  45.755  1.00  0.00    -0.279 OA
ATOM     21  H2  UNL     1      24.144  21.011  45.427  1.00  0.00     0.245 HD
ENDBRANCH  12  20
BRANCH   5  22
HETATM   22  O1  UNL     1      27.796  15.648  45.437  1.00  0.00    -0.266 OA
ATOM     23  H1  UNL     1      28.298  15.095  46.024  1.00  0.00     0.247 HD
ENDBRANCH   5  22
BRANCH   8  24
HETATM   24  N5  UNL     1      24.839  17.064  48.701  1.00  0.00    -0.233 N 
ATOM     25  H52 UNL     1      24.843  16.106  49.051  1.00  0.00     0.174 HD
ATOM     26  H51 UNL     1      24.353  17.820  49.184  1.00  0.00     0.174 HD
ENDBRANCH   8  24
TORSDOF 5
ENDMDL
MODEL 3
REMARK VINA RESULT: -6.478933495      1.861      5.181
REMARK  5 active torsions:
REMARK  status: ('A' for Active; 'I' for Inactive)
REMARK    1  A    between atoms: N1_2  and  C2_4 
REMARK    2  A    between atoms: N3_8  and  O1_9 
REMARK    3  A    between atoms: C4_13  and  N5_14 
REMARK    4  A    between atoms: N7_20  and  O2_21 
REMARK    5  A    between atoms: C6_23  and  N8_24 
ROOT
HETATM    1  C2  UNL     1      25.088  19.028  47.336  1.00  0.00     0.149 A 
HETATM    2  N2  UNL     1      25.455  19.875  46.373  1.00  0.00    -0.319 N 
ATOM      3  H2  UNL     1      25.181  20.856  46.424  1.00  0.00     0.169 HD
HETATM    4  C3  UNL     1      26.185  19.434  45.339  1.00  0.00     0.201 A 
HETATM    5  N3  UNL     1      26.570  20.283  44.347  1.00  0.00    -0.128 N 
HETATM    6  N4  UNL     1      27.287  19.794  43.354  1.00  0.00    -0.104 N 
ATOM      7  H4  UNL     1      27.579  20.422  42.606  1.00  0.00     0.208 HD
HETATM    8  C4  UNL     1      27.650  18.498  43.287  1.00  0.00     0.694 A 
HETATM    9  N6  UNL     1      27.308  17.605  44.227  1.00  0.00    -0.169 N 
ATOM     10  H6  UNL     1      27.593  16.628  44.158  1.00  0.00     0.186 HD
HETATM   11  C5  UNL     1      26.571  18.049  45.272  1.00  0.00     0.198 A 
HETATM   12  N7  UNL     1      26.183  17.224  46.261  1.00  0.00    -0.183 N 
HETATM   13  C6  UNL     1      25.453  17.692  47.282  1.00  0.00     0.173 A 
ENDROOT
BRANCH   1  14
HETATM   14  N1  UNL     1      24.386  19.447  48.332  1.00  0.00    -0.378 N 
HETATM   15  C1  UNL     1      24.716  20.709  48.956  1.00  0.00     0.148 C 
ATOM     16  H1  UNL     1      23.604  18.892  48.678  1.00  0.00     0.160 HD
ENDBRANCH   1  14
BRANCH  13  17
HETATM   17  N8  UNL     1      25.067  16.901  48.254  1.00  0.00    -0.381 N 
ATOM     18  H82 UNL     1      24.187  17.062  48.743  1.00  0.00     0.157 HD
ATOM     19  H81 UNL     1      25.669  16.118  48.509  1.00  0.00     0.157 HD
ENDBRANCH  13  17
BRANCH  12  20
HETATM   20  O2  UNL     1      26.538  15.909  46.215  1.00  0.00    -0.279 OA
ATOM     21  H2  UNL     1      26.021  15.303  45.697  1.00  0.00     0.245 HD
ENDBRANCH  12  20
BRANCH   5  22
HETATM   22  O1  UNL     1      26.196  21.595  44.425  1.00  0.00    -0.266 OA
ATOM     23  H1  UNL     1      26.840  22.237  44.697  1.00  0.00     0.247 HD
ENDBRANCH   5  22
BRANCH   8  24
HETATM   24  N5  UNL     1      28.353  18.113  42.275  1.00  0.00    -0.233 N 
ATOM     25  H52 UNL     1      29.095  17.427  42.414  1.00  0.00     0.174 HD
ATOM     26  H51 UNL     1      28.142  18.511  41.360  1.00  0.00     0.174 HD
ENDBRANCH   8  24
TORSDOF 5
ENDMDL
MODEL 4
REMARK VINA RESULT: -6.315539448      1.933      3.538
REMARK  5 active torsions:
REMARK  status: ('A' for Active; 'I' for Inactive)
REMARK    1  A    between atoms: N1_2  and  C2_4 
REMARK    2  A    between atoms: N3_8  and  O1_9 
REMARK    3  A    between atoms: C4_13  and  N5_14 
REMARK    4  A    between atoms: N7_20  and  O2_21 
REMARK    5  A    between atoms: C6_23  and  N8_24 
ROOT
HETATM    1  C2  UNL     1      27.091  17.736  44.573  1.00  0.00     0.149 A 
HETATM    2  N2  UNL     1      26.512  18.929  44.718  1.00  0.00    -0.319 N 
ATOM      3  H2  UNL     1      26.487  19.582  43.935  1.00  0.00     0.169 HD
HETATM    4  C3  UNL     1      25.965  19.267  45.893  1.00  0.00     0.201 A 
HETATM    5  N3  UNL     1      25.370  20.480  46.060  1.00  0.00    -0.128 N 
HETATM    6  N4  UNL     1      24.848  20.759  47.239  1.00  0.00    -0.104 N 
ATOM      7  H4  UNL     1      24.400  21.665  47.373  1.00  0.00     0.208 HD
HETATM    8  C4  UNL     1      24.881  19.896  48.273  1.00  0.00     0.694 A 
HETATM    9  N6  UNL     1      25.449  18.685  48.182  1.00  0.00    -0.169 N 
ATOM     10  H6  UNL     1      25.463  18.046  48.977  1.00  0.00     0.186 HD
HETATM   11  C5  UNL     1      26.003  18.342  46.995  1.00  0.00     0.198 A 
HETATM   12  N7  UNL     1      26.594  17.147  46.813  1.00  0.00    -0.183 N 
HETATM   13  C6  UNL     1      27.134  16.836  45.627  1.00  0.00     0.173 A 
ENDROOT
BRANCH   1  14
HETATM   14  N1  UNL     1      27.619  17.406  43.446  1.00  0.00    -0.378 N 
HETATM   15  C1  UNL     1      27.573  18.334  42.338  1.00  0.00     0.148 C 
ATOM     16  H1  UNL     1      28.067  16.496  43.336  1.00  0.00     0.160 HD
ENDBRANCH   1  14
BRANCH  13  17
HETATM   17  N8  UNL     1      27.714  15.676  45.434  1.00  0.00    -0.381 N 
ATOM     18  H82 UNL     1      28.676  15.621  45.100  1.00  0.00     0.157 HD
ATOM     19  H81 UNL     1      27.180  14.829  45.627  1.00  0.00     0.157 HD
ENDBRANCH  13  17
BRANCH  12  20
HETATM   20  O2  UNL     1      26.640  16.258  47.845  1.00  0.00    -0.279 OA
ATOM     21  H2  UNL     1      25.832  15.886  48.178  1.00  0.00     0.245 HD
ENDBRANCH  12  20
BRANCH   5  22
HETATM   22  O1  UNL     1      25.342  21.348  45.005  1.00  0.00    -0.266 OA
ATOM     23  H1  UNL     1      25.917  22.104  45.022  1.00  0.00     0.247 HD
ENDBRANCH   5  22
BRANCH   8  24
HETATM   24  N5  UNL     1      24.342  20.259  49.389  1.00  0.00    -0.233 N 
ATOM     25  H52 UNL     1      24.806  20.963  49.963  1.00  0.00     0.174 HD
ATOM     26  H51 UNL     1      23.460  19.825  49.664  1.00  0.00     0.174 HD
ENDBRANCH   8  24
TORSDOF 5
ENDMDL
MODEL 5
REMARK VINA RESULT: -6.286706311      1.468      1.468
REMARK  5 active torsions:
REMARK  status: ('A' for Active; 'I' for Inactive)
REMARK    1  A    between atoms: N1_2  and  C2_4 
REMARK    2  A    between atoms: N3_8  and  O1_9 
REMARK    3  A    between atoms: C4_13  and  N5_14 
REMARK    4  A    between atoms: N7_20  and  O2_21 
REMARK    5  A    between atoms: C6_23  and  N8_24 
ROOT
HETATM    1  C2  UNL     1      26.720  19.635  43.571  1.00  0.00     0.149 A 
HETATM    2  N2  UNL     1      27.309  19.448  44.753  1.00  0.00    -0.319 N 
ATOM      3  H2  UNL     1      28.270  19.754  44.899  1.00  0.00     0.169 HD
HETATM    4  C3  UNL     1      26.633  18.857  45.749  1.00  0.00     0.201 A 
HETATM    5  N3  UNL     1      27.216  18.657  46.963  1.00  0.00    -0.128 N 
HETATM    6  N4  UNL     1      26.504  18.070  47.905  1.00  0.00    -0.104 N 
ATOM      7  H4  UNL     1      26.933  17.916  48.817  1.00  0.00     0.208 HD
HETATM    8  C4  UNL     1      25.233  17.665  47.713  1.00  0.00     0.694 A 
HETATM    9  N6  UNL     1      24.594  17.830  46.545  1.00  0.00    -0.169 N 
ATOM     10  H6  UNL     1      23.632  17.517  46.419  1.00  0.00     0.186 HD
HETATM   11  C5  UNL     1      25.276  18.427  45.538  1.00  0.00     0.198 A 
HETATM   12  N7  UNL     1      24.714  18.632  44.333  1.00  0.00    -0.183 N 
HETATM   13  C6  UNL     1      25.413  19.225  43.356  1.00  0.00     0.173 A 
ENDROOT
BRANCH   1  14
HETATM   14  N1  UNL     1      27.364  20.202  42.611  1.00  0.00    -0.378 N 
HETATM   15  C1  UNL     1      28.503  19.531  42.023  1.00  0.00     0.148 C 
ATOM     16  H1  UNL     1      27.074  21.117  42.268  1.00  0.00     0.160 HD
ENDBRANCH   1  14
BRANCH  13  17
HETATM   17  N8  UNL     1      24.880  19.433  42.176  1.00  0.00    -0.381 N 
ATOM     18  H82 UNL     1      24.536  20.355  41.912  1.00  0.00     0.157 HD
ATOM     19  H81 UNL     1      24.819  18.648  41.527  1.00  0.00     0.157 HD
ENDBRANCH  13  17
BRANCH  12  20
HETATM   20  O2  UNL     1      23.430  18.231  44.115  1.00  0.00    -0.279 OA
ATOM     21  H2  UNL     1      22.880  18.001  44.855  1.00  0.00     0.245 HD
ENDBRANCH  12  20
BRANCH   5  22
HETATM   22  O1  UNL     1      28.506  19.070  47.146  1.00  0.00    -0.266 OA
ATOM     23  H1  UNL     1      29.177  18.415  47.300  1.00  0.00     0.247 HD
ENDBRANCH   5  22
BRANCH   8  24
HETATM   24  N5  UNL     1      24.617  17.101  48.697  1.00  0.00    -0.233 N 
ATOM     25  H52 UNL     1      23.601  17.173  48.757  1.00  0.00     0.174 HD
ATOM     26  H51 UNL     1      25.171  16.596  49.388  1.00  0.00     0.174 HD
ENDBRANCH   8  24
TORSDOF 5
ENDMDL
