MODEL 1
REMARK VINA RESULT: -5.975056501      0.000      0.000
REMARK  4 active torsions:
REMARK  status: ('A' for Active; 'I' for Inactive)
REMARK    1  A    between atoms: O1_1  and  C1_3 
REMARK    2  A    between atoms: C1_3  and  C2_4 
REMARK    3  A    between atoms: C2_4  and  O2_5 
REMARK    4  A    between atoms: O2_5  and  C3_6 
ROOT
HETATM    1  C3  UNL     1      -4.260   1.414  14.752  1.00  0.00     0.156 C 
HETATM    2  C4  UNL     1      -3.892   2.730  15.440  1.00  0.00     0.305 C 
HETATM    3  N1  UNL     1      -3.506   3.645  14.424  1.00  0.00     0.097 N 
HETATM    4  C5  UNL     1      -3.842   5.013  14.670  1.00  0.00     0.273 C 
HETATM    5  C6  UNL     1      -3.033   5.979  13.876  1.00  0.00     0.040 C 
HETATM    6  C7  UNL     1      -3.565   6.231  12.490  1.00  0.00     0.076 C 
HETATM    7  S1  UNL     1      -3.190   4.902  11.333  1.00  0.00    -0.162 SA
HETATM    8  C8  UNL     1      -3.050   3.305  12.121  1.00  0.00     0.081 C 
HETATM    9  C9  UNL     1      -3.444   2.147  11.270  1.00  0.00     0.018 C 
HETATM   10  C10 UNL     1      -3.636   1.062  12.343  1.00  0.00     0.010 C 
HETATM   11  C11 UNL     1      -4.513   1.792  13.329  1.00  0.00     0.051 C 
HETATM   12  C12 UNL     1      -4.133   3.230  13.208  1.00  0.00     0.243 C 
ENDROOT
BRANCH   1  13
HETATM   13  O2  UNL     1      -5.312   0.798  15.382  1.00  0.00    -0.382 OA
BRANCH  13  14
HETATM   14  C2  UNL     1      -6.070   1.610  16.184  1.00  0.00     0.194 C 
BRANCH  14  15
HETATM   15  C1  UNL     1      -6.779   0.700  17.196  1.00  0.00     0.190 C 
BRANCH  15  16
HETATM   16  O1  UNL     1      -6.024  -0.442  17.355  1.00  0.00    -0.399 OA
ATOM     17  H1  UNL     1      -6.498  -1.038  17.924  1.00  0.00     0.209 HD
ENDBRANCH  15  16
ENDBRANCH  14  15
ENDBRANCH  13  14
ENDBRANCH   1  13
TORSDOF 4
ENDMDL
MODEL 2
REMARK VINA RESULT: -5.907895920      0.946      1.049
REMARK  4 active torsions:
REMARK  status: ('A' for Active; 'I' for Inactive)
REMARK    1  A    between atoms: O1_1  and  C1_3 
REMARK    2  A    between atoms: C1_3  and  C2_4 
REMARK    3  A    between atoms: C2_4  and  O2_5 
REMARK    4  A    between atoms: O2_5  and  C3_6 
ROOT
HETATM    1  C3  UNL     1      -3.870   1.637  15.536  1.00  0.00     0.156 C 
HETATM    2  C4  UNL     1      -3.300   3.057  15.553  1.00  0.00     0.305 C 
HETATM    3  N1  UNL     1      -3.358   3.552  14.223  1.00  0.00     0.097 N 
HETATM    4  C5  UNL     1      -3.609   4.954  14.100  1.00  0.00     0.273 C 
HETATM    5  C6  UNL     1      -3.192   5.523  12.788  1.00  0.00     0.040 C 
HETATM    6  C7  UNL     1      -4.221   5.373  11.699  1.00  0.00     0.076 C 
HETATM    7  S1  UNL     1      -4.283   3.711  11.006  1.00  0.00    -0.162 SA
HETATM    8  C8  UNL     1      -3.810   2.446  12.174  1.00  0.00     0.081 C 
HETATM    9  C9  UNL     1      -4.470   1.125  11.972  1.00  0.00     0.018 C 
HETATM   10  C10 UNL     1      -4.208   0.468  13.337  1.00  0.00     0.010 C 
HETATM   11  C11 UNL     1      -4.658   1.564  14.270  1.00  0.00     0.051 C 
HETATM   12  C12 UNL     1      -4.391   2.839  13.540  1.00  0.00     0.243 C 
ENDROOT
BRANCH   1  13
HETATM   13  O2  UNL     1      -4.583   1.371  16.677  1.00  0.00    -0.382 OA
BRANCH  13  14
HETATM   14  C2  UNL     1      -5.827   1.943  16.736  1.00  0.00     0.194 C 
BRANCH  14  15
HETATM   15  C1  UNL     1      -6.809   0.833  17.134  1.00  0.00     0.190 C 
BRANCH  15  16
HETATM   16  O1  UNL     1      -6.098  -0.337  17.297  1.00  0.00    -0.399 OA
ATOM     17  H1  UNL     1      -6.700  -1.067  17.210  1.00  0.00     0.209 HD
ENDBRANCH  15  16
ENDBRANCH  14  15
ENDBRANCH  13  14
ENDBRANCH   1  13
TORSDOF 4
ENDMDL
MODEL 3
REMARK VINA RESULT: -5.896295074      1.149      2.734
REMARK  4 active torsions:
REMARK  status: ('A' for Active; 'I' for Inactive)
REMARK    1  A    between atoms: O1_1  and  C1_3 
REMARK    2  A    between atoms: C1_3  and  C2_4 
REMARK    3  A    between atoms: C2_4  and  O2_5 
REMARK    4  A    between atoms: O2_5  and  C3_6 
ROOT
HETATM    1  C3  UNL     1      -4.964   2.326  15.230  1.00  0.00     0.156 C 
HETATM    2  C4  UNL     1      -4.601   1.364  14.096  1.00  0.00     0.305 C 
HETATM    3  N1  UNL     1      -4.108   2.148  13.019  1.00  0.00     0.097 N 
HETATM    4  C5  UNL     1      -3.078   1.538  12.238  1.00  0.00     0.273 C 
HETATM    5  C6  UNL     1      -2.926   2.131  10.880  1.00  0.00     0.040 C 
HETATM    6  C7  UNL     1      -2.052   3.357  10.841  1.00  0.00     0.076 C 
HETATM    7  S1  UNL     1      -2.882   4.839  11.442  1.00  0.00    -0.162 SA
HETATM    8  C8  UNL     1      -4.138   4.493  12.664  1.00  0.00     0.081 C 
HETATM    9  C9  UNL     1      -4.348   5.569  13.672  1.00  0.00     0.018 C 
HETATM   10  C10 UNL     1      -5.105   4.791  14.761  1.00  0.00     0.010 C 
HETATM   11  C11 UNL     1      -4.219   3.580  14.911  1.00  0.00     0.051 C 
HETATM   12  C12 UNL     1      -3.607   3.369  13.566  1.00  0.00     0.243 C 
ENDROOT
BRANCH   1  13
HETATM   13  O2  UNL     1      -4.681   1.782  16.457  1.00  0.00    -0.382 OA
BRANCH  13  14
HETATM   14  C2  UNL     1      -5.676   1.898  17.392  1.00  0.00     0.194 C 
BRANCH  14  15
HETATM   15  C1  UNL     1      -6.677   0.766  17.121  1.00  0.00     0.190 C 
BRANCH  15  16
HETATM   16  O1  UNL     1      -6.014  -0.437  17.245  1.00  0.00    -0.399 OA
ATOM     17  H1  UNL     1      -6.578  -1.043  17.710  1.00  0.00     0.209 HD
ENDBRANCH  15  16
ENDBRANCH  14  15
ENDBRANCH  13  14
ENDBRANCH   1  13
TORSDOF 4
ENDMDL
MODEL 4
REMARK VINA RESULT: -5.781979222      2.618      4.030
REMARK  4 active torsions:
REMARK  status: ('A' for Active; 'I' for Inactive)
REMARK    1  A    between atoms: O1_1  and  C1_3 
REMARK    2  A    between atoms: C1_3  and  C2_4 
REMARK    3  A    between atoms: C2_4  and  O2_5 
REMARK    4  A    between atoms: O2_5  and  C3_6 
ROOT
HETATM    1  C3  UNL     1      -4.602   0.786  11.931  1.00  0.00     0.156 C 
HETATM    2  C4  UNL     1      -4.889   2.000  11.046  1.00  0.00     0.305 C 
HETATM    3  N1  UNL     1      -4.712   3.159  11.848  1.00  0.00     0.097 N 
HETATM    4  C5  UNL     1      -4.195   4.304  11.167  1.00  0.00     0.273 C 
HETATM    5  C6  UNL     1      -4.469   5.590  11.866  1.00  0.00     0.040 C 
HETATM    6  C7  UNL     1      -3.467   5.934  12.936  1.00  0.00     0.076 C 
HETATM    7  S1  UNL     1      -3.711   5.005  14.460  1.00  0.00    -0.162 SA
HETATM    8  C8  UNL     1      -4.441   3.397  14.192  1.00  0.00     0.081 C 
HETATM    9  C9  UNL     1      -4.043   2.354  15.179  1.00  0.00     0.018 C 
HETATM   10  C10 UNL     1      -4.452   1.080  14.423  1.00  0.00     0.010 C 
HETATM   11  C11 UNL     1      -3.818   1.333  13.078  1.00  0.00     0.051 C 
HETATM   12  C12 UNL     1      -3.821   2.817  12.912  1.00  0.00     0.243 C 
ENDROOT
BRANCH   1  13
HETATM   13  O2  UNL     1      -3.975  -0.210  11.225  1.00  0.00    -0.382 OA
BRANCH  13  14
HETATM   14  C2  UNL     1      -4.068  -1.463  11.773  1.00  0.00     0.194 C 
BRANCH  14  15
HETATM   15  C1  UNL     1      -2.783  -2.211  11.394  1.00  0.00     0.190 C 
BRANCH  15  16
HETATM   16  O1  UNL     1      -3.040  -3.565  11.441  1.00  0.00    -0.399 OA
ATOM     17  H1  UNL     1      -3.383  -3.774  12.302  1.00  0.00     0.209 HD
ENDBRANCH  15  16
ENDBRANCH  14  15
ENDBRANCH  13  14
ENDBRANCH   1  13
TORSDOF 4
ENDMDL
MODEL 5
REMARK VINA RESULT: -5.769463704      1.369      2.992
REMARK  4 active torsions:
REMARK  status: ('A' for Active; 'I' for Inactive)
REMARK    1  A    between atoms: O1_1  and  C1_3 
REMARK    2  A    between atoms: C1_3  and  C2_4 
REMARK    3  A    between atoms: C2_4  and  O2_5 
REMARK    4  A    between atoms: O2_5  and  C3_6 
ROOT
HETATM    1  C3  UNL     1      -5.258   3.470  14.729  1.00  0.00     0.156 C 
HETATM    2  C4  UNL     1      -5.133   2.471  13.577  1.00  0.00     0.305 C 
HETATM    3  N1  UNL     1      -4.026   2.877  12.784  1.00  0.00     0.097 N 
HETATM    4  C5  UNL     1      -3.280   1.817  12.183  1.00  0.00     0.273 C 
HETATM    5  C6  UNL     1      -2.467   2.247  11.011  1.00  0.00     0.040 C 
HETATM    6  C7  UNL     1      -1.121   2.816  11.373  1.00  0.00     0.076 C 
HETATM    7  S1  UNL     1      -1.209   4.508  11.987  1.00  0.00    -0.162 SA
HETATM    8  C8  UNL     1      -2.752   4.878  12.806  1.00  0.00     0.081 C 
HETATM    9  C9  UNL     1      -2.659   5.894  13.893  1.00  0.00     0.018 C 
HETATM   10  C10 UNL     1      -3.980   5.633  14.635  1.00  0.00     0.010 C 
HETATM   11  C11 UNL     1      -3.922   4.134  14.798  1.00  0.00     0.051 C 
HETATM   12  C12 UNL     1      -3.151   3.638  13.620  1.00  0.00     0.243 C 
ENDROOT
BRANCH   1  13
HETATM   13  O2  UNL     1      -5.655   2.850  15.887  1.00  0.00    -0.382 OA
BRANCH  13  14
HETATM   14  C2  UNL     1      -5.034   1.659  16.155  1.00  0.00     0.194 C 
BRANCH  14  15
HETATM   15  C1  UNL     1      -5.868   0.954  17.234  1.00  0.00     0.190 C 
BRANCH  15  16
HETATM   16  O1  UNL     1      -5.887  -0.395  16.954  1.00  0.00    -0.399 OA
ATOM     17  H1  UNL     1      -5.863  -0.871  17.776  1.00  0.00     0.209 HD
ENDBRANCH  15  16
ENDBRANCH  14  15
ENDBRANCH  13  14
ENDBRANCH   1  13
TORSDOF 4
ENDMDL
