MODEL 1
REMARK VINA RESULT: -6.668694148      0.000      0.000
REMARK  2 active torsions:
REMARK  status: ('A' for Active; 'I' for Inactive)
REMARK    1  A    between atoms: C6_6  and  C7_7 
REMARK    2  A    between atoms: C7_7  and  N1_8 
ROOT
HETATM    1  C1  UNL     1      -3.131  -1.818  11.362  1.00  0.00     0.049 C 
HETATM    2  C2  UNL     1      -3.321  -0.313  11.378  1.00  0.00     0.093 C 
HETATM    3  C3  UNL     1      -4.196   0.131  10.221  1.00  0.00     0.041 C 
HETATM    4  C4  UNL     1      -5.234   1.078  10.778  1.00  0.00     0.006 C 
HETATM    5  C5  UNL     1      -4.636   2.309  11.375  1.00  0.00     0.047 C 
HETATM    6  C6  UNL     1      -3.368   2.164  12.122  1.00  0.00     0.128 C 
HETATM    7  C12 UNL     1      -2.149   1.846  11.339  1.00  0.00     0.050 C 
HETATM    8  C13 UNL     1      -1.985   0.350  11.202  1.00  0.00     0.044 C 
HETATM    9  O1  UNL     1      -3.491   1.123  13.086  1.00  0.00    -0.223 OA
HETATM   10  O2  UNL     1      -3.905   0.012  12.578  1.00  0.00    -0.229 OA
ENDROOT
BRANCH   6  11
HETATM   11  C7  UNL     1      -3.220   3.433  12.975  1.00  0.00     0.099 C 
BRANCH  11  12
HETATM   12  N1  UNL     1      -4.032   3.588  14.066  1.00  0.00    -0.387 N 
HETATM   13  C8  UNL     1      -5.247   4.271  14.110  1.00  0.00     0.149 C 
HETATM   14  C9  UNL     1      -6.317   3.369  14.749  1.00  0.00     0.252 C 
HETATM   15  N2  UNL     1      -5.917   3.027  16.080  1.00  0.00    -0.072 N 
HETATM   16  C10 UNL     1      -4.682   2.279  16.007  1.00  0.00     0.252 C 
ATOM     17  H22 UNL     1      -5.846   3.841  16.690  1.00  0.00     0.277 HD
ATOM     18  H21 UNL     1      -6.645   2.530  16.594  1.00  0.00     0.277 HD
HETATM   19  C11 UNL     1      -3.613   3.119  15.350  1.00  0.00     0.149 C 
ENDBRANCH  11  12
ENDBRANCH   6  11
TORSDOF 2
ENDMDL
MODEL 2
REMARK VINA RESULT: -6.469375154      1.732      3.082
REMARK  2 active torsions:
REMARK  status: ('A' for Active; 'I' for Inactive)
REMARK    1  A    between atoms: C6_6  and  C7_7 
REMARK    2  A    between atoms: C7_7  and  N1_8 
ROOT
HETATM    1  C1  UNL     1      -0.639   4.731  11.099  1.00  0.00     0.049 C 
HETATM    2  C2  UNL     1      -1.653   3.607  11.205  1.00  0.00     0.093 C 
HETATM    3  C3  UNL     1      -1.344   2.507  10.209  1.00  0.00     0.041 C 
HETATM    4  C4  UNL     1      -1.419   1.193  10.952  1.00  0.00     0.006 C 
HETATM    5  C5  UNL     1      -2.778   0.915  11.505  1.00  0.00     0.047 C 
HETATM    6  C6  UNL     1      -3.543   2.057  12.050  1.00  0.00     0.128 C 
HETATM    7  C12 UNL     1      -4.046   3.063  11.084  1.00  0.00     0.050 C 
HETATM    8  C13 UNL     1      -3.014   4.144  10.862  1.00  0.00     0.044 C 
HETATM    9  O1  UNL     1      -2.739   2.779  12.978  1.00  0.00    -0.223 OA
HETATM   10  O2  UNL     1      -1.597   3.127  12.491  1.00  0.00    -0.229 OA
ENDROOT
BRANCH   6  11
HETATM   11  C7  UNL     1      -4.654   1.456  12.923  1.00  0.00     0.099 C 
BRANCH  11  12
HETATM   12  N1  UNL     1      -4.757   1.862  14.226  1.00  0.00    -0.387 N 
HETATM   13  C8  UNL     1      -5.271   3.075  14.683  1.00  0.00     0.149 C 
HETATM   14  C9  UNL     1      -6.319   2.807  15.777  1.00  0.00     0.252 C 
HETATM   15  N2  UNL     1      -5.701   2.114  16.867  1.00  0.00    -0.072 N 
HETATM   16  C10 UNL     1      -5.218   0.841  16.383  1.00  0.00     0.252 C 
ATOM     17  H22 UNL     1      -4.969   2.664  17.317  1.00  0.00     0.277 HD
ATOM     18  H21 UNL     1      -6.319   2.018  17.672  1.00  0.00     0.277 HD
HETATM   19  C11 UNL     1      -4.213   1.060  15.278  1.00  0.00     0.149 C 
ENDBRANCH  11  12
ENDBRANCH   6  11
TORSDOF 2
ENDMDL
MODEL 3
REMARK VINA RESULT: -6.352561251      1.961      5.085
REMARK  2 active torsions:
REMARK  status: ('A' for Active; 'I' for Inactive)
REMARK    1  A    between atoms: C6_6  and  C7_7 
REMARK    2  A    between atoms: C7_7  and  N1_8 
ROOT
HETATM    1  C1  UNL     1      -7.146   1.111  16.947  1.00  0.00     0.049 C 
HETATM    2  C2  UNL     1      -6.109   1.898  16.167  1.00  0.00     0.093 C 
HETATM    3  C3  UNL     1      -4.836   2.061  16.976  1.00  0.00     0.041 C 
HETATM    4  C4  UNL     1      -3.678   1.711  16.070  1.00  0.00     0.006 C 
HETATM    5  C5  UNL     1      -3.569   2.620  14.889  1.00  0.00     0.047 C 
HETATM    6  C6  UNL     1      -4.824   3.075  14.255  1.00  0.00     0.128 C 
HETATM    7  C12 UNL     1      -5.668   4.025  15.018  1.00  0.00     0.050 C 
HETATM    8  C13 UNL     1      -6.642   3.276  15.899  1.00  0.00     0.044 C 
HETATM    9  O1  UNL     1      -5.658   1.954  13.975  1.00  0.00    -0.223 OA
HETATM   10  O2  UNL     1      -5.860   1.207  15.006  1.00  0.00    -0.229 OA
ENDROOT
BRANCH   6  11
HETATM   11  C7  UNL     1      -4.440   3.598  12.863  1.00  0.00     0.099 C 
BRANCH  11  12
HETATM   12  N1  UNL     1      -4.076   2.695  11.900  1.00  0.00    -0.387 N 
HETATM   13  C8  UNL     1      -2.777   2.349  11.530  1.00  0.00     0.149 C 
HETATM   14  C9  UNL     1      -2.634   0.817  11.540  1.00  0.00     0.252 C 
HETATM   15  N2  UNL     1      -3.559   0.247  10.608  1.00  0.00    -0.072 N 
HETATM   16  C10 UNL     1      -4.900   0.578  11.037  1.00  0.00     0.252 C 
ATOM     17  H22 UNL     1      -3.374   0.533   9.647  1.00  0.00     0.277 HD
ATOM     18  H21 UNL     1      -3.424  -0.756  10.484  1.00  0.00     0.277 HD
HETATM   19  C11 UNL     1      -5.069   2.077  11.077  1.00  0.00     0.149 C 
ENDBRANCH  11  12
ENDBRANCH   6  11
TORSDOF 2
ENDMDL
MODEL 4
REMARK VINA RESULT: -6.261015283      2.166      4.992
REMARK  2 active torsions:
REMARK  status: ('A' for Active; 'I' for Inactive)
REMARK    1  A    between atoms: C6_6  and  C7_7 
REMARK    2  A    between atoms: C7_7  and  N1_8 
ROOT
HETATM    1  C1  UNL     1      -5.468   1.529  17.830  1.00  0.00     0.049 C 
HETATM    2  C2  UNL     1      -5.301   1.911  16.370  1.00  0.00     0.093 C 
HETATM    3  C3  UNL     1      -6.594   2.469  15.809  1.00  0.00     0.041 C 
HETATM    4  C4  UNL     1      -6.250   3.737  15.062  1.00  0.00     0.006 C 
HETATM    5  C5  UNL     1      -5.335   3.500  13.905  1.00  0.00     0.047 C 
HETATM    6  C6  UNL     1      -4.269   2.490  14.070  1.00  0.00     0.128 C 
HETATM    7  C12 UNL     1      -4.683   1.068  14.147  1.00  0.00     0.050 C 
HETATM    8  C13 UNL     1      -4.971   0.678  15.578  1.00  0.00     0.044 C 
HETATM    9  O1  UNL     1      -3.541   2.746  15.268  1.00  0.00    -0.223 OA
HETATM   10  O2  UNL     1      -4.300   2.849  16.306  1.00  0.00    -0.229 OA
ENDROOT
BRANCH   6  11
HETATM   11  C7  UNL     1      -3.243   2.758  12.959  1.00  0.00     0.099 C 
BRANCH  11  12
HETATM   12  N1  UNL     1      -3.260   1.963  11.845  1.00  0.00    -0.387 N 
HETATM   13  C8  UNL     1      -2.237   1.122  11.406  1.00  0.00     0.149 C 
HETATM   14  C9  UNL     1      -2.809  -0.280  11.136  1.00  0.00     0.252 C 
HETATM   15  N2  UNL     1      -3.820  -0.195  10.125  1.00  0.00    -0.072 N 
HETATM   16  C10 UNL     1      -4.890   0.641  10.620  1.00  0.00     0.252 C 
ATOM     17  H22 UNL     1      -3.453   0.128   9.230  1.00  0.00     0.277 HD
ATOM     18  H21 UNL     1      -4.148  -1.111   9.819  1.00  0.00     0.277 HD
HETATM   19  C11 UNL     1      -4.360   2.020  10.933  1.00  0.00     0.149 C 
ENDBRANCH  11  12
ENDBRANCH   6  11
TORSDOF 2
ENDMDL
MODEL 5
REMARK VINA RESULT: -6.230531591      2.313      3.011
REMARK  2 active torsions:
REMARK  status: ('A' for Active; 'I' for Inactive)
REMARK    1  A    between atoms: C6_6  and  C7_7 
REMARK    2  A    between atoms: C7_7  and  N1_8 
ROOT
HETATM    1  C1  UNL     1      -4.050  -1.079  11.349  1.00  0.00     0.049 C 
HETATM    2  C2  UNL     1      -3.640   0.382  11.369  1.00  0.00     0.093 C 
HETATM    3  C3  UNL     1      -2.129   0.519  11.344  1.00  0.00     0.041 C 
HETATM    4  C4  UNL     1      -1.788   1.554  10.297  1.00  0.00     0.006 C 
HETATM    5  C5  UNL     1      -2.346   2.904  10.612  1.00  0.00     0.047 C 
HETATM    6  C6  UNL     1      -3.690   2.965  11.225  1.00  0.00     0.128 C 
HETATM    7  C12 UNL     1      -3.823   2.488  12.623  1.00  0.00     0.050 C 
HETATM    8  C13 UNL     1      -4.119   1.006  12.649  1.00  0.00     0.044 C 
HETATM    9  O1  UNL     1      -4.606   2.186  10.461  1.00  0.00    -0.223 OA
HETATM   10  O2  UNL     1      -4.199   0.978  10.264  1.00  0.00    -0.229 OA
ENDROOT
BRANCH   6  11
HETATM   11  C7  UNL     1      -4.189   4.404  11.032  1.00  0.00     0.099 C 
BRANCH  11  12
HETATM   12  N1  UNL     1      -3.926   5.327  12.008  1.00  0.00    -0.387 N 
HETATM   13  C8  UNL     1      -4.801   5.758  13.005  1.00  0.00     0.149 C 
HETATM   14  C9  UNL     1      -4.107   5.656  14.374  1.00  0.00     0.252 C 
HETATM   15  N2  UNL     1      -2.939   6.484  14.377  1.00  0.00    -0.072 N 
HETATM   16  C10 UNL     1      -2.027   5.990  13.371  1.00  0.00     0.252 C 
ATOM     17  H22 UNL     1      -3.159   7.473  14.255  1.00  0.00     0.277 HD
ATOM     18  H21 UNL     1      -2.507   6.550  15.299  1.00  0.00     0.277 HD
HETATM   19  C11 UNL     1      -2.686   6.039  12.014  1.00  0.00     0.149 C 
ENDBRANCH  11  12
ENDBRANCH   6  11
TORSDOF 2
ENDMDL
