MODEL 1
REMARK VINA RESULT: -6.915791872      0.000      0.000
REMARK  3 active torsions:
REMARK  status: ('A' for Active; 'I' for Inactive)
REMARK    1  A    between atoms: C1_2  and  O2_3 
REMARK    2  A    between atoms: C1_2  and  C8_10 
REMARK    3  A    between atoms: O2_3  and  C2_4 
ROOT
HETATM    1  O1  UNL     1      -4.688  -0.782  14.853  1.00  0.00    -0.263 OA
HETATM    2  C1  UNL     1      -4.255   0.361  14.540  1.00  0.00     0.291 C 
ENDROOT
BRANCH   2   3
HETATM    3  O2  UNL     1      -3.737   1.129  15.546  1.00  0.00    -0.314 OA
BRANCH   3   4
HETATM    4  C2  UNL     1      -4.469   1.950  16.437  1.00  0.00     0.135 C 
HETATM    5  C3  UNL     1      -5.020   3.102  15.680  1.00  0.00     0.059 C 
HETATM    6  C4  UNL     1      -6.463   3.365  15.839  1.00  0.00    -0.028 C 
HETATM    7  C5  UNL     1      -7.160   2.991  16.907  1.00  0.00    -0.030 C 
HETATM    8  C6  UNL     1      -6.363   2.265  17.958  1.00  0.00     0.029 C 
HETATM    9  C7  UNL     1      -5.459   1.244  17.252  1.00  0.00     0.036 C 
ENDBRANCH   3   4
ENDBRANCH   2   3
BRANCH   2  10
HETATM   10  C8  UNL     1      -4.342   0.762  13.121  1.00  0.00     0.293 C 
HETATM   11  C9  UNL     1      -4.202  -0.479  12.213  1.00  0.00     0.117 C 
HETATM   12  S1  UNL     1      -4.103   0.204  10.536  1.00  0.00    -0.165 SA
HETATM   13  C10 UNL     1      -4.500   1.970  10.720  1.00  0.00     0.101 C 
HETATM   14  C11 UNL     1      -3.498   2.527  11.724  1.00  0.00     0.243 C 
HETATM   15  N1  UNL     1      -3.249   1.674  12.840  1.00  0.00    -0.060 N 
ATOM     16  H12 UNL     1      -3.012   2.220  13.669  1.00  0.00     0.278 HD
ATOM     17  H11 UNL     1      -2.375   1.164  12.719  1.00  0.00     0.278 HD
ENDBRANCH   2  10
TORSDOF 3
ENDMDL
MODEL 2
REMARK VINA RESULT: -6.707673199      1.714      2.260
REMARK  3 active torsions:
REMARK  status: ('A' for Active; 'I' for Inactive)
REMARK    1  A    between atoms: C1_2  and  O2_3 
REMARK    2  A    between atoms: C1_2  and  C8_10 
REMARK    3  A    between atoms: O2_3  and  C2_4 
ROOT
HETATM    1  O1  UNL     1      -5.812   3.074  13.170  1.00  0.00    -0.263 OA
HETATM    2  C1  UNL     1      -4.769   2.468  13.538  1.00  0.00     0.291 C 
ENDROOT
BRANCH   2   3
HETATM    3  O2  UNL     1      -4.311   2.723  14.800  1.00  0.00    -0.314 OA
BRANCH   3   4
HETATM    4  C2  UNL     1      -4.867   2.241  16.009  1.00  0.00     0.135 C 
HETATM    5  C3  UNL     1      -6.092   3.023  16.315  1.00  0.00     0.059 C 
HETATM    6  C4  UNL     1      -7.310   2.248  16.614  1.00  0.00    -0.028 C 
HETATM    7  C5  UNL     1      -7.289   1.005  17.083  1.00  0.00    -0.030 C 
HETATM    8  C6  UNL     1      -5.912   0.432  17.289  1.00  0.00     0.029 C 
HETATM    9  C7  UNL     1      -5.058   0.790  16.064  1.00  0.00     0.036 C 
ENDBRANCH   3   4
ENDBRANCH   2   3
BRANCH   2  10
HETATM   10  C8  UNL     1      -4.142   1.537  12.576  1.00  0.00     0.293 C 
HETATM   11  C9  UNL     1      -2.811   2.129  12.062  1.00  0.00     0.117 C 
HETATM   12  S1  UNL     1      -2.295   0.991  10.747  1.00  0.00    -0.165 SA
HETATM   13  C10 UNL     1      -3.433  -0.424  10.873  1.00  0.00     0.101 C 
HETATM   14  C11 UNL     1      -4.838   0.150  10.741  1.00  0.00     0.243 C 
HETATM   15  N1  UNL     1      -5.045   1.368  11.454  1.00  0.00    -0.060 N 
ATOM     16  H12 UNL     1      -6.016   1.453  11.755  1.00  0.00     0.278 HD
ATOM     17  H11 UNL     1      -4.993   2.169  10.825  1.00  0.00     0.278 HD
ENDBRANCH   2  10
TORSDOF 3
ENDMDL
MODEL 3
REMARK VINA RESULT: -6.704154495      0.966      1.420
REMARK  3 active torsions:
REMARK  status: ('A' for Active; 'I' for Inactive)
REMARK    1  A    between atoms: C1_2  and  O2_3 
REMARK    2  A    between atoms: C1_2  and  C8_10 
REMARK    3  A    between atoms: O2_3  and  C2_4 
ROOT
HETATM    1  O1  UNL     1      -4.655  -0.545  14.956  1.00  0.00    -0.263 OA
HETATM    2  C1  UNL     1      -4.258   0.572  14.525  1.00  0.00     0.291 C 
ENDROOT
BRANCH   2   3
HETATM    3  O2  UNL     1      -3.805   1.473  15.448  1.00  0.00    -0.314 OA
BRANCH   3   4
HETATM    4  C2  UNL     1      -4.468   2.650  15.870  1.00  0.00     0.135 C 
HETATM    5  C3  UNL     1      -3.856   3.814  15.179  1.00  0.00     0.059 C 
HETATM    6  C4  UNL     1      -4.783   4.736  14.497  1.00  0.00    -0.028 C 
HETATM    7  C5  UNL     1      -6.059   4.875  14.839  1.00  0.00    -0.030 C 
HETATM    8  C6  UNL     1      -6.502   4.010  15.990  1.00  0.00     0.029 C 
HETATM    9  C7  UNL     1      -5.928   2.602  15.776  1.00  0.00     0.036 C 
ENDBRANCH   3   4
ENDBRANCH   2   3
BRANCH   2  10
HETATM   10  C8  UNL     1      -4.316   0.804  13.066  1.00  0.00     0.293 C 
HETATM   11  C9  UNL     1      -4.235  -0.542  12.315  1.00  0.00     0.117 C 
HETATM   12  S1  UNL     1      -4.091  -0.071  10.569  1.00  0.00    -0.165 SA
HETATM   13  C10 UNL     1      -4.397   1.723  10.537  1.00  0.00     0.101 C 
HETATM   14  C11 UNL     1      -3.374   2.344  11.479  1.00  0.00     0.243 C 
HETATM   15  N1  UNL     1      -3.176   1.620  12.692  1.00  0.00    -0.060 N 
ATOM     16  H12 UNL     1      -2.915   2.249  13.452  1.00  0.00     0.278 HD
ATOM     17  H11 UNL     1      -2.328   1.055  12.643  1.00  0.00     0.278 HD
ENDBRANCH   2  10
TORSDOF 3
ENDMDL
MODEL 4
REMARK VINA RESULT: -6.536550552      1.172      1.323
REMARK  3 active torsions:
REMARK  status: ('A' for Active; 'I' for Inactive)
REMARK    1  A    between atoms: C1_2  and  O2_3 
REMARK    2  A    between atoms: C1_2  and  C8_10 
REMARK    3  A    between atoms: O2_3  and  C2_4 
ROOT
HETATM    1  O1  UNL     1      -4.755  -0.348  13.946  1.00  0.00    -0.263 OA
HETATM    2  C1  UNL     1      -4.063   0.685  14.159  1.00  0.00     0.291 C 
ENDROOT
BRANCH   2   3
HETATM    3  O2  UNL     1      -3.698   0.935  15.452  1.00  0.00    -0.314 OA
BRANCH   3   4
HETATM    4  C2  UNL     1      -4.437   1.674  16.406  1.00  0.00     0.135 C 
HETATM    5  C3  UNL     1      -4.934   2.918  15.765  1.00  0.00     0.059 C 
HETATM    6  C4  UNL     1      -6.374   3.203  15.908  1.00  0.00    -0.028 C 
HETATM    7  C5  UNL     1      -7.116   2.734  16.906  1.00  0.00    -0.030 C 
HETATM    8  C6  UNL     1      -6.372   1.875  17.895  1.00  0.00     0.029 C 
HETATM    9  C7  UNL     1      -5.472   0.912  17.108  1.00  0.00     0.036 C 
ENDBRANCH   3   4
ENDBRANCH   2   3
BRANCH   2  10
HETATM   10  C8  UNL     1      -3.709   1.525  12.996  1.00  0.00     0.293 C 
HETATM   11  C9  UNL     1      -4.992   2.013  12.289  1.00  0.00     0.117 C 
HETATM   12  S1  UNL     1      -4.389   2.824  10.782  1.00  0.00    -0.165 SA
HETATM   13  C10 UNL     1      -2.582   2.915  10.984  1.00  0.00     0.101 C 
HETATM   14  C11 UNL     1      -2.108   1.485  11.204  1.00  0.00     0.243 C 
HETATM   15  N1  UNL     1      -2.941   0.715  12.069  1.00  0.00    -0.060 N 
ATOM     16  H12 UNL     1      -2.395   0.013  12.569  1.00  0.00     0.278 HD
ATOM     17  H11 UNL     1      -3.553   0.102  11.532  1.00  0.00     0.278 HD
ENDBRANCH   2  10
TORSDOF 3
ENDMDL
MODEL 5
REMARK VINA RESULT: -6.462360748      1.344      2.229
REMARK  3 active torsions:
REMARK  status: ('A' for Active; 'I' for Inactive)
REMARK    1  A    between atoms: C1_2  and  O2_3 
REMARK    2  A    between atoms: C1_2  and  C8_10 
REMARK    3  A    between atoms: O2_3  and  C2_4 
ROOT
HETATM    1  O1  UNL     1      -3.337   1.188  15.804  1.00  0.00    -0.263 OA
HETATM    2  C1  UNL     1      -4.248   0.887  14.987  1.00  0.00     0.291 C 
ENDROOT
BRANCH   2   3
HETATM    3  O2  UNL     1      -5.417   0.402  15.505  1.00  0.00    -0.314 OA
BRANCH   3   4
HETATM    4  C2  UNL     1      -6.364   1.128  16.265  1.00  0.00     0.135 C 
HETATM    5  C3  UNL     1      -6.249   0.718  17.688  1.00  0.00     0.059 C 
HETATM    6  C4  UNL     1      -6.114   1.804  18.678  1.00  0.00    -0.028 C 
HETATM    7  C5  UNL     1      -6.550   3.041  18.469  1.00  0.00    -0.030 C 
HETATM    8  C6  UNL     1      -7.201   3.263  17.129  1.00  0.00     0.029 C 
HETATM    9  C7  UNL     1      -6.337   2.578  16.060  1.00  0.00     0.036 C 
ENDBRANCH   3   4
ENDBRANCH   2   3
BRANCH   2  10
HETATM   10  C8  UNL     1      -3.974   1.087  13.548  1.00  0.00     0.293 C 
HETATM   11  C9  UNL     1      -4.813   2.268  13.012  1.00  0.00     0.117 C 
HETATM   12  S1  UNL     1      -4.535   2.234  11.220  1.00  0.00    -0.165 SA
HETATM   13  C10 UNL     1      -3.199   1.023  10.971  1.00  0.00     0.101 C 
HETATM   14  C11 UNL     1      -3.687  -0.279  11.592  1.00  0.00     0.243 C 
HETATM   15  N1  UNL     1      -4.357  -0.120  12.841  1.00  0.00    -0.060 N 
ATOM     16  H12 UNL     1      -4.226  -0.942  13.431  1.00  0.00     0.278 HD
ATOM     17  H11 UNL     1      -5.369  -0.161  12.718  1.00  0.00     0.278 HD
ENDBRANCH   2  10
TORSDOF 3
ENDMDL
