MODEL 1
REMARK VINA RESULT: -7.194019656      0.000      0.000
REMARK  4 active torsions:
REMARK  status: ('A' for Active; 'I' for Inactive)
REMARK    1  A    between atoms: C5_5  and  O1_6 
REMARK    2  A    between atoms: O1_6  and  C6_7 
REMARK    3  A    between atoms: C9_12  and  C10_13 
REMARK    4  A    between atoms: C10_13  and  O3_14 
ROOT
HETATM    1  C1  UNL     1      -6.360   4.356  14.801  1.00  0.00     0.038 C 
HETATM    2  C2  UNL     1      -5.357   3.642  14.449  1.00  0.00     0.003 C 
HETATM    3  C3  UNL     1      -3.875   4.048  14.823  1.00  0.00     0.047 C 
HETATM    4  C4  UNL     1      -3.277   2.953  15.583  1.00  0.00     0.046 C 
HETATM    5  C5  UNL     1      -3.898   1.603  15.737  1.00  0.00     0.150 C 
HETATM    6  C8  UNL     1      -4.734   1.223  14.453  1.00  0.00     0.155 C 
HETATM    7  N1  UNL     1      -4.825   2.497  13.805  1.00  0.00    -0.374 N 
HETATM    8  C9  UNL     1      -4.183   3.000  12.638  1.00  0.00     0.116 C 
HETATM    9  C11 UNL     1      -3.453   4.161  13.339  1.00  0.00    -0.016 C 
HETATM   10  C12 UNL     1      -2.018   4.263  13.107  1.00  0.00     0.018 C 
HETATM   11  C13 UNL     1      -4.122   5.431  12.854  1.00  0.00     0.018 C 
ENDROOT
BRANCH   5  12
HETATM   12  O1  UNL     1      -4.645   1.399  16.899  1.00  0.00    -0.315 OA
BRANCH  12  13
HETATM   13  C6  UNL     1      -5.869   0.762  16.962  1.00  0.00     0.255 C 
HETATM   14  C7  UNL     1      -7.186   1.402  16.930  1.00  0.00     0.126 C 
HETATM   15  O2  UNL     1      -5.796  -0.489  17.054  1.00  0.00    -0.266 OA
ENDBRANCH  12  13
ENDBRANCH   5  12
BRANCH   8  16
HETATM   16  C10 UNL     1      -3.277   2.065  11.937  1.00  0.00     0.190 C 
BRANCH  16  17
HETATM   17  O3  UNL     1      -3.528   1.796  10.637  1.00  0.00    -0.399 OA
ATOM     18  H3  UNL     1      -3.887   0.944  10.419  1.00  0.00     0.209 HD
ENDBRANCH  16  17
ENDBRANCH   8  16
TORSDOF 4
ENDMDL
MODEL 2
REMARK VINA RESULT: -7.175773164      0.993      1.069
REMARK  4 active torsions:
REMARK  status: ('A' for Active; 'I' for Inactive)
REMARK    1  A    between atoms: C5_5  and  O1_6 
REMARK    2  A    between atoms: O1_6  and  C6_7 
REMARK    3  A    between atoms: C9_12  and  C10_13 
REMARK    4  A    between atoms: C10_13  and  O3_14 
ROOT
HETATM    1  C1  UNL     1      -6.584   3.847  14.750  1.00  0.00     0.038 C 
HETATM    2  C2  UNL     1      -5.449   3.329  14.460  1.00  0.00     0.003 C 
HETATM    3  C3  UNL     1      -4.209   3.445  15.434  1.00  0.00     0.047 C 
HETATM    4  C4  UNL     1      -3.758   2.095  15.765  1.00  0.00     0.046 C 
HETATM    5  C5  UNL     1      -4.244   0.859  15.082  1.00  0.00     0.150 C 
HETATM    6  C8  UNL     1      -4.597   1.156  13.572  1.00  0.00     0.155 C 
HETATM    7  N1  UNL     1      -4.623   2.588  13.579  1.00  0.00    -0.374 N 
HETATM    8  C9  UNL     1      -3.711   3.542  13.044  1.00  0.00     0.116 C 
HETATM    9  C11 UNL     1      -3.365   4.211  14.388  1.00  0.00    -0.016 C 
HETATM   10  C12 UNL     1      -1.949   4.339  14.705  1.00  0.00     0.018 C 
HETATM   11  C13 UNL     1      -3.987   5.592  14.341  1.00  0.00     0.018 C 
ENDROOT
BRANCH   5  12
HETATM   12  O1  UNL     1      -5.286   0.176  15.714  1.00  0.00    -0.315 OA
BRANCH  12  13
HETATM   13  C6  UNL     1      -5.941   0.595  16.855  1.00  0.00     0.255 C 
HETATM   14  C7  UNL     1      -7.265   1.219  16.919  1.00  0.00     0.126 C 
HETATM   15  O2  UNL     1      -5.301   0.403  17.918  1.00  0.00    -0.266 OA
ENDBRANCH  12  13
ENDBRANCH   5  12
BRANCH   8  16
HETATM   16  C10 UNL     1      -2.537   2.994  12.332  1.00  0.00     0.190 C 
BRANCH  16  17
HETATM   17  O3  UNL     1      -2.656   2.750  11.009  1.00  0.00    -0.399 OA
ATOM     18  H3  UNL     1      -3.336   2.150  10.725  1.00  0.00     0.209 HD
ENDBRANCH  16  17
ENDBRANCH   8  16
TORSDOF 4
ENDMDL
MODEL 3
REMARK VINA RESULT: -6.241370915      1.714      2.655
REMARK  4 active torsions:
REMARK  status: ('A' for Active; 'I' for Inactive)
REMARK    1  A    between atoms: C5_5  and  O1_6 
REMARK    2  A    between atoms: O1_6  and  C6_7 
REMARK    3  A    between atoms: C9_12  and  C10_13 
REMARK    4  A    between atoms: C10_13  and  O3_14 
ROOT
HETATM    1  C1  UNL     1      -4.391   0.540  12.281  1.00  0.00     0.038 C 
HETATM    2  C2  UNL     1      -4.255   1.600  12.985  1.00  0.00     0.003 C 
HETATM    3  C3  UNL     1      -5.279   2.802  12.885  1.00  0.00     0.047 C 
HETATM    4  C4  UNL     1      -5.837   3.041  14.214  1.00  0.00     0.046 C 
HETATM    5  C5  UNL     1      -5.316   2.414  15.466  1.00  0.00     0.150 C 
HETATM    6  C8  UNL     1      -3.759   2.173  15.365  1.00  0.00     0.155 C 
HETATM    7  N1  UNL     1      -3.550   2.350  13.959  1.00  0.00    -0.374 N 
HETATM    8  C9  UNL     1      -2.939   3.411  13.231  1.00  0.00     0.116 C 
HETATM    9  C11 UNL     1      -4.187   3.790  12.413  1.00  0.00    -0.016 C 
HETATM   10  C12 UNL     1      -4.572   5.195  12.426  1.00  0.00     0.018 C 
HETATM   11  C13 UNL     1      -3.895   3.373  10.985  1.00  0.00     0.018 C 
ENDROOT
BRANCH   5  12
HETATM   12  O1  UNL     1      -5.974   1.259  15.895  1.00  0.00    -0.315 OA
BRANCH  12  13
HETATM   13  C6  UNL     1      -6.097   0.850  17.208  1.00  0.00     0.255 C 
HETATM   14  C7  UNL     1      -6.238   1.717  18.380  1.00  0.00     0.126 C 
HETATM   15  O2  UNL     1      -6.083  -0.396  17.364  1.00  0.00    -0.266 OA
ENDBRANCH  12  13
ENDBRANCH   5  12
BRANCH   8  16
HETATM   16  C10 UNL     1      -2.394   4.525  14.036  1.00  0.00     0.190 C 
BRANCH  16  17
HETATM   17  O3  UNL     1      -1.212   4.335  14.663  1.00  0.00    -0.399 OA
ATOM     18  H3  UNL     1      -1.219   3.880  15.497  1.00  0.00     0.209 HD
ENDBRANCH  16  17
ENDBRANCH   8  16
TORSDOF 4
ENDMDL
MODEL 4
REMARK VINA RESULT: -6.180631110      1.328      1.570
REMARK  4 active torsions:
REMARK  status: ('A' for Active; 'I' for Inactive)
REMARK    1  A    between atoms: C5_5  and  O1_6 
REMARK    2  A    between atoms: O1_6  and  C6_7 
REMARK    3  A    between atoms: C9_12  and  C10_13 
REMARK    4  A    between atoms: C10_13  and  O3_14 
ROOT
HETATM    1  C1  UNL     1      -5.983   5.145  14.792  1.00  0.00     0.038 C 
HETATM    2  C2  UNL     1      -5.137   4.506  14.074  1.00  0.00     0.003 C 
HETATM    3  C3  UNL     1      -3.644   4.285  14.547  1.00  0.00     0.047 C 
HETATM    4  C4  UNL     1      -3.382   2.848  14.582  1.00  0.00     0.046 C 
HETATM    5  C5  UNL     1      -4.302   1.815  14.016  1.00  0.00     0.150 C 
HETATM    6  C8  UNL     1      -5.075   2.382  12.762  1.00  0.00     0.155 C 
HETATM    7  N1  UNL     1      -4.816   3.784  12.898  1.00  0.00    -0.374 N 
HETATM    8  C9  UNL     1      -3.969   4.654  12.154  1.00  0.00     0.116 C 
HETATM    9  C11 UNL     1      -3.067   5.056  13.337  1.00  0.00    -0.016 C 
HETATM   10  C12 UNL     1      -1.631   4.916  13.138  1.00  0.00     0.018 C 
HETATM   11  C13 UNL     1      -3.385   6.508  13.631  1.00  0.00     0.018 C 
ENDROOT
BRANCH   5  12
HETATM   12  O1  UNL     1      -5.184   1.216  14.919  1.00  0.00    -0.315 OA
BRANCH  12  13
HETATM   13  C6  UNL     1      -4.936   1.006  16.260  1.00  0.00     0.255 C 
HETATM   14  C7  UNL     1      -5.757   1.470  17.381  1.00  0.00     0.126 C 
HETATM   15  O2  UNL     1      -3.893   0.346  16.495  1.00  0.00    -0.266 OA
ENDBRANCH  12  13
ENDBRANCH   5  12
BRANCH   8  16
HETATM   16  C10 UNL     1      -3.233   4.042  11.028  1.00  0.00     0.190 C 
BRANCH  16  17
HETATM   17  O3  UNL     1      -3.901   3.839   9.871  1.00  0.00    -0.399 OA
ATOM     18  H3  UNL     1      -4.570   3.164   9.855  1.00  0.00     0.209 HD
ENDBRANCH  16  17
ENDBRANCH   8  16
TORSDOF 4
ENDMDL
MODEL 5
REMARK VINA RESULT: -6.062204518      1.092      1.143
REMARK  4 active torsions:
REMARK  status: ('A' for Active; 'I' for Inactive)
REMARK    1  A    between atoms: C5_5  and  O1_6 
REMARK    2  A    between atoms: O1_6  and  C6_7 
REMARK    3  A    between atoms: C9_12  and  C10_13 
REMARK    4  A    between atoms: C10_13  and  O3_14 
ROOT
HETATM    1  C1  UNL     1      -6.212   5.108  15.085  1.00  0.00     0.038 C 
HETATM    2  C2  UNL     1      -5.418   4.283  14.513  1.00  0.00     0.003 C 
HETATM    3  C3  UNL     1      -3.853   4.516  14.489  1.00  0.00     0.047 C 
HETATM    4  C4  UNL     1      -3.207   3.360  15.106  1.00  0.00     0.046 C 
HETATM    5  C5  UNL     1      -3.916   2.090  15.450  1.00  0.00     0.150 C 
HETATM    6  C8  UNL     1      -5.087   1.809  14.431  1.00  0.00     0.155 C 
HETATM    7  N1  UNL     1      -5.198   3.085  13.790  1.00  0.00    -0.374 N 
HETATM    8  C9  UNL     1      -4.821   3.510  12.484  1.00  0.00     0.116 C 
HETATM    9  C11 UNL     1      -3.812   4.580  12.944  1.00  0.00    -0.016 C 
HETATM   10  C12 UNL     1      -2.481   4.516  12.354  1.00  0.00     0.018 C 
HETATM   11  C13 UNL     1      -4.437   5.918  12.606  1.00  0.00     0.018 C 
ENDROOT
BRANCH   5  12
HETATM   12  O1  UNL     1      -4.362   1.973  16.769  1.00  0.00    -0.315 OA
BRANCH  12  13
HETATM   13  C6  UNL     1      -5.627   1.577  17.154  1.00  0.00     0.255 C 
HETATM   14  C7  UNL     1      -6.090   0.199  17.335  1.00  0.00     0.126 C 
HETATM   15  O2  UNL     1      -6.426   2.524  17.358  1.00  0.00    -0.266 OA
ENDBRANCH  12  13
ENDBRANCH   5  12
BRANCH   8  16
HETATM   16  C10 UNL     1      -4.233   2.477  11.606  1.00  0.00     0.190 C 
BRANCH  16  17
HETATM   17  O3  UNL     1      -4.844   2.226  10.427  1.00  0.00    -0.399 OA
ATOM     18  H3  UNL     1      -5.296   1.396  10.327  1.00  0.00     0.209 HD
ENDBRANCH  16  17
ENDBRANCH   8  16
TORSDOF 4
ENDMDL
