MODEL 1
REMARK VINA RESULT: -8.058224928      0.000      0.000
REMARK  4 active torsions:
REMARK  status: ('A' for Active; 'I' for Inactive)
REMARK    1  A    between atoms: C5_8  and  N2_9 
REMARK    2  A    between atoms: N2_9  and  S1_11 
REMARK    3  A    between atoms: S1_11  and  N3_14 
REMARK    4  A    between atoms: N3_14  and  N4_16 
ROOT
HETATM    1  C1  UNL     1      -7.747 -22.497 -33.016  1.00  0.00     0.069 C 
HETATM    2  C2  UNL     1      -8.497 -23.602 -32.343  1.00  0.00     0.028 A 
HETATM    3  C3  UNL     1      -9.746 -23.947 -32.838  1.00  0.00     0.100 A 
HETATM    4  C4  UNL     1     -10.428 -24.968 -32.209  1.00  0.00     0.261 A 
HETATM    5  O1  UNL     1     -11.582 -25.335 -32.616  1.00  0.00    -0.268 OA
HETATM    6  N1  UNL     1      -9.835 -25.557 -31.159  1.00  0.00    -0.155 N 
ATOM      7  H1  UNL     1     -10.333 -26.312 -30.690  1.00  0.00     0.187 HD
HETATM    8  C5  UNL     1      -8.620 -25.210 -30.688  1.00  0.00     0.696 A 
HETATM    9  N5  UNL     1      -7.945 -24.221 -31.288  1.00  0.00    -0.195 N 
ATOM     10  H5  UNL     1      -7.024 -23.943 -30.948  1.00  0.00     0.184 HD
ENDROOT
BRANCH   8  11
HETATM   11  N2  UNL     1      -8.119 -25.819 -29.681  1.00  0.00    -0.098 N 
ATOM     12  H2  UNL     1      -8.708 -25.932 -28.856  1.00  0.00     0.199 HD
BRANCH  11  13
HETATM   13  S1  UNL     1      -6.539 -26.454 -29.616  1.00  0.00     0.350 S 
HETATM   14  O2  UNL     1      -6.108 -26.838 -31.024  1.00  0.00    -0.180 OA
HETATM   15  O3  UNL     1      -6.561 -27.719 -28.789  1.00  0.00    -0.180 OA
BRANCH  13  16
HETATM   16  N3  UNL     1      -5.397 -25.370 -28.982  1.00  0.00    -0.216 N 
ATOM     17  H3  UNL     1      -5.212 -25.278 -27.983  1.00  0.00     0.201 HD
BRANCH  16  18
HETATM   18  N4  UNL     1      -4.736 -24.616 -29.949  1.00  0.00    -0.335 N 
ATOM     19  H42 UNL     1      -4.900 -24.748 -30.947  1.00  0.00     0.177 HD
ATOM     20  H41 UNL     1      -4.083 -23.932 -29.566  1.00  0.00     0.177 HD
ENDBRANCH  16  18
ENDBRANCH  13  16
ENDBRANCH  11  13
ENDBRANCH   8  11
TORSDOF 4
ENDMDL
MODEL 2
REMARK VINA RESULT: -7.978977651      2.888      4.925
REMARK  4 active torsions:
REMARK  status: ('A' for Active; 'I' for Inactive)
REMARK    1  A    between atoms: C5_8  and  N2_9 
REMARK    2  A    between atoms: N2_9  and  S1_11 
REMARK    3  A    between atoms: S1_11  and  N3_14 
REMARK    4  A    between atoms: N3_14  and  N4_16 
ROOT
HETATM    1  C1  UNL     1      -4.203 -24.692 -31.381  1.00  0.00     0.069 C 
HETATM    2  C2  UNL     1      -5.450 -25.285 -30.808  1.00  0.00     0.028 A 
HETATM    3  C3  UNL     1      -5.326 -26.302 -29.871  1.00  0.00     0.100 A 
HETATM    4  C4  UNL     1      -6.483 -26.841 -29.349  1.00  0.00     0.261 A 
HETATM    5  O1  UNL     1      -6.437 -27.779 -28.483  1.00  0.00    -0.268 OA
HETATM    6  N1  UNL     1      -7.651 -26.343 -29.783  1.00  0.00    -0.155 N 
ATOM      7  H1  UNL     1      -8.510 -26.736 -29.401  1.00  0.00     0.187 HD
HETATM    8  C5  UNL     1      -7.757 -25.355 -30.694  1.00  0.00     0.696 A 
HETATM    9  N5  UNL     1      -6.642 -24.821 -31.211  1.00  0.00    -0.195 N 
ATOM     10  H5  UNL     1      -6.700 -24.072 -31.901  1.00  0.00     0.184 HD
ENDROOT
BRANCH   8  11
HETATM   11  N2  UNL     1      -8.908 -24.932 -31.060  1.00  0.00    -0.098 N 
ATOM     12  H2  UNL     1      -9.707 -25.167 -30.471  1.00  0.00     0.199 HD
BRANCH  11  13
HETATM   13  S1  UNL     1      -9.204 -24.005 -32.459  1.00  0.00     0.350 S 
HETATM   14  O2  UNL     1      -8.298 -24.502 -33.576  1.00  0.00    -0.180 OA
HETATM   15  O3  UNL     1      -8.826 -22.569 -32.175  1.00  0.00    -0.180 OA
BRANCH  13  16
HETATM   16  N3  UNL     1     -10.812 -24.083 -32.997  1.00  0.00    -0.216 N 
ATOM     17  H3  UNL     1     -11.169 -23.517 -33.766  1.00  0.00     0.201 HD
BRANCH  16  18
HETATM   18  N4  UNL     1     -11.600 -24.991 -32.292  1.00  0.00    -0.335 N 
ATOM     19  H42 UNL     1     -11.200 -25.794 -31.805  1.00  0.00     0.177 HD
ATOM     20  H41 UNL     1     -12.597 -24.776 -32.311  1.00  0.00     0.177 HD
ENDBRANCH  16  18
ENDBRANCH  13  16
ENDBRANCH  11  13
ENDBRANCH   8  11
TORSDOF 4
ENDMDL
MODEL 3
REMARK VINA RESULT: -7.706846065      3.701      5.015
REMARK  4 active torsions:
REMARK  status: ('A' for Active; 'I' for Inactive)
REMARK    1  A    between atoms: C5_8  and  N2_9 
REMARK    2  A    between atoms: N2_9  and  S1_11 
REMARK    3  A    between atoms: S1_11  and  N3_14 
REMARK    4  A    between atoms: N3_14  and  N4_16 
ROOT
HETATM    1  C1  UNL     1      -7.543 -27.215 -32.271  1.00  0.00     0.069 C 
HETATM    2  C2  UNL     1      -6.700 -26.679 -31.159  1.00  0.00     0.028 A 
HETATM    3  C3  UNL     1      -6.664 -27.382 -29.962  1.00  0.00     0.100 A 
HETATM    4  C4  UNL     1      -5.884 -26.878 -28.943  1.00  0.00     0.261 A 
HETATM    5  O1  UNL     1      -5.807 -27.476 -27.817  1.00  0.00    -0.268 OA
HETATM    6  N1  UNL     1      -5.211 -25.740 -29.180  1.00  0.00    -0.155 N 
ATOM      7  H1  UNL     1      -4.632 -25.362 -28.431  1.00  0.00     0.187 HD
HETATM    8  C5  UNL     1      -5.256 -25.067 -30.347  1.00  0.00     0.696 A 
HETATM    9  N5  UNL     1      -6.010 -25.545 -31.347  1.00  0.00    -0.195 N 
ATOM     10  H5  UNL     1      -6.057 -25.052 -32.239  1.00  0.00     0.184 HD
ENDROOT
BRANCH   8  11
HETATM   11  N2  UNL     1      -4.587 -23.988 -30.499  1.00  0.00    -0.098 N 
ATOM     12  H2  UNL     1      -4.028 -23.664 -29.710  1.00  0.00     0.199 HD
BRANCH  11  13
HETATM   13  S1  UNL     1      -4.560 -23.052 -31.923  1.00  0.00     0.350 S 
HETATM   14  O2  UNL     1      -3.888 -23.857 -33.025  1.00  0.00    -0.180 OA
HETATM   15  O3  UNL     1      -3.712 -21.825 -31.677  1.00  0.00    -0.180 OA
BRANCH  13  16
HETATM   16  N3  UNL     1      -6.103 -22.590 -32.459  1.00  0.00    -0.216 N 
ATOM     17  H3  UNL     1      -6.803 -22.173 -31.845  1.00  0.00     0.201 HD
BRANCH  16  18
HETATM   18  N4  UNL     1      -6.325 -22.830 -33.813  1.00  0.00    -0.335 N 
ATOM     19  H42 UNL     1      -7.020 -23.502 -34.138  1.00  0.00     0.177 HD
ATOM     20  H41 UNL     1      -5.735 -22.277 -34.434  1.00  0.00     0.177 HD
ENDBRANCH  16  18
ENDBRANCH  13  16
ENDBRANCH  11  13
ENDBRANCH   8  11
TORSDOF 4
ENDMDL
MODEL 4
REMARK VINA RESULT: -7.346645798      2.517      3.279
REMARK  4 active torsions:
REMARK  status: ('A' for Active; 'I' for Inactive)
REMARK    1  A    between atoms: C5_8  and  N2_9 
REMARK    2  A    between atoms: N2_9  and  S1_11 
REMARK    3  A    between atoms: S1_11  and  N3_14 
REMARK    4  A    between atoms: N3_14  and  N4_16 
ROOT
HETATM    1  C1  UNL     1     -10.354 -23.305 -34.697  1.00  0.00     0.069 C 
HETATM    2  C2  UNL     1      -9.461 -23.566 -33.526  1.00  0.00     0.028 A 
HETATM    3  C3  UNL     1      -9.873 -24.493 -32.578  1.00  0.00     0.100 A 
HETATM    4  C4  UNL     1      -9.041 -24.726 -31.503  1.00  0.00     0.261 A 
HETATM    5  O1  UNL     1      -9.361 -25.567 -30.596  1.00  0.00    -0.268 OA
HETATM    6  N1  UNL     1      -7.890 -24.038 -31.448  1.00  0.00    -0.155 N 
ATOM      7  H1  UNL     1      -7.270 -24.206 -30.656  1.00  0.00     0.187 HD
HETATM    8  C5  UNL     1      -7.503 -23.140 -32.375  1.00  0.00     0.696 A 
HETATM    9  N5  UNL     1      -8.300 -22.903 -33.426  1.00  0.00    -0.195 N 
ATOM     10  H5  UNL     1      -8.026 -22.227 -34.141  1.00  0.00     0.184 HD
ENDROOT
BRANCH   8  11
HETATM   11  N2  UNL     1      -6.389 -22.522 -32.254  1.00  0.00    -0.098 N 
ATOM     12  H2  UNL     1      -6.417 -21.504 -32.196  1.00  0.00     0.199 HD
BRANCH  11  13
HETATM   13  S1  UNL     1      -4.862 -23.275 -32.184  1.00  0.00     0.350 S 
HETATM   14  O2  UNL     1      -3.852 -22.404 -32.915  1.00  0.00    -0.180 OA
HETATM   15  O3  UNL     1      -4.940 -24.593 -32.920  1.00  0.00    -0.180 OA
BRANCH  13  16
HETATM   16  N3  UNL     1      -4.305 -23.530 -30.601  1.00  0.00    -0.216 N 
ATOM     17  H3  UNL     1      -3.642 -22.907 -30.138  1.00  0.00     0.201 HD
BRANCH  16  18
HETATM   18  N4  UNL     1      -4.834 -24.665 -29.991  1.00  0.00    -0.335 N 
ATOM     19  H42 UNL     1      -5.814 -24.930 -30.094  1.00  0.00     0.177 HD
ATOM     20  H41 UNL     1      -4.157 -25.193 -29.441  1.00  0.00     0.177 HD
ENDBRANCH  16  18
ENDBRANCH  13  16
ENDBRANCH  11  13
ENDBRANCH   8  11
TORSDOF 4
ENDMDL
MODEL 5
REMARK VINA RESULT: -7.293219063      2.970      4.883
REMARK  4 active torsions:
REMARK  status: ('A' for Active; 'I' for Inactive)
REMARK    1  A    between atoms: C5_8  and  N2_9 
REMARK    2  A    between atoms: N2_9  and  S1_11 
REMARK    3  A    between atoms: S1_11  and  N3_14 
REMARK    4  A    between atoms: N3_14  and  N4_16 
ROOT
HETATM    1  C1  UNL     1      -4.224 -24.698 -31.403  1.00  0.00     0.069 C 
HETATM    2  C2  UNL     1      -5.434 -25.324 -30.788  1.00  0.00     0.028 A 
HETATM    3  C3  UNL     1      -5.250 -26.321 -29.839  1.00  0.00     0.100 A 
HETATM    4  C4  UNL     1      -6.374 -26.891 -29.279  1.00  0.00     0.261 A 
HETATM    5  O1  UNL     1      -6.274 -27.813 -28.400  1.00  0.00    -0.268 OA
HETATM    6  N1  UNL     1      -7.570 -26.441 -29.690  1.00  0.00    -0.155 N 
ATOM      7  H1  UNL     1      -8.405 -26.857 -29.279  1.00  0.00     0.187 HD
HETATM    8  C5  UNL     1      -7.734 -25.472 -30.613  1.00  0.00     0.696 A 
HETATM    9  N5  UNL     1      -6.652 -24.908 -31.166  1.00  0.00    -0.195 N 
ATOM     10  H5  UNL     1      -6.753 -24.173 -31.866  1.00  0.00     0.184 HD
ENDROOT
BRANCH   8  11
HETATM   11  N2  UNL     1      -8.907 -25.095 -30.955  1.00  0.00    -0.098 N 
ATOM     12  H2  UNL     1      -9.700 -25.581 -30.536  1.00  0.00     0.199 HD
BRANCH  11  13
HETATM   13  S1  UNL     1      -9.243 -23.840 -32.057  1.00  0.00     0.350 S 
HETATM   14  O2  UNL     1      -8.283 -22.689 -31.795  1.00  0.00    -0.180 OA
HETATM   15  O3  UNL     1     -10.642 -23.330 -31.797  1.00  0.00    -0.180 OA
BRANCH  13  16
HETATM   16  N3  UNL     1      -9.091 -24.306 -33.682  1.00  0.00    -0.216 N 
ATOM     17  H3  UNL     1      -8.791 -25.239 -33.967  1.00  0.00     0.201 HD
BRANCH  16  18
HETATM   18  N4  UNL     1      -9.415 -23.301 -34.591  1.00  0.00    -0.335 N 
ATOM     19  H42 UNL     1      -9.931 -22.466 -34.316  1.00  0.00     0.177 HD
ATOM     20  H41 UNL     1      -9.090 -23.482 -35.541  1.00  0.00     0.177 HD
ENDBRANCH  16  18
ENDBRANCH  13  16
ENDBRANCH  11  13
ENDBRANCH   8  11
TORSDOF 4
ENDMDL
