MODEL 1
REMARK VINA RESULT: -8.052488866      0.000      0.000
REMARK  3 active torsions:
REMARK  status: ('A' for Active; 'I' for Inactive)
REMARK    1  A    between atoms: N3_8  and  C3_10 
REMARK    2  A    between atoms: C3_10  and  C4_11 
REMARK    3  A    between atoms: N5_16  and  O2_17 
ROOT
HETATM    1  O1  UNL     1      -4.493 -27.589 -28.088  1.00  0.00    -0.245 OA
HETATM    2  C1  UNL     1      -5.236 -26.894 -28.849  1.00  0.00     0.341 A 
HETATM    3  N1  UNL     1      -4.722 -25.972 -29.694  1.00  0.00    -0.250 N 
ATOM      4  H1  UNL     1      -3.713 -25.826 -29.726  1.00  0.00     0.192 HD
HETATM    5  N2  UNL     1      -5.509 -25.258 -30.480  1.00  0.00    -0.277 N 
ATOM      6  H2  UNL     1      -5.105 -24.567 -31.113  1.00  0.00     0.189 HD
HETATM    7  C2  UNL     1      -6.863 -25.444 -30.447  1.00  0.00     0.186 A 
HETATM    8  N3  UNL     1      -7.582 -24.739 -31.217  1.00  0.00    -0.364 N 
ATOM      9  H3  UNL     1      -7.077 -24.079 -31.808  1.00  0.00     0.161 HD
HETATM   10  C7  UNL     1      -7.413 -26.368 -29.604  1.00  0.00     0.294 A 
HETATM   11  O3  UNL     1      -8.660 -26.591 -29.523  1.00  0.00    -0.264 OA
HETATM   12  N6  UNL     1      -6.557 -27.076 -28.817  1.00  0.00    -0.271 N 
ATOM     13  H6  UNL     1      -6.940 -27.773 -28.177  1.00  0.00     0.174 HD
ENDROOT
BRANCH   8  14
HETATM   14  C3  UNL     1      -9.008 -24.743 -31.370  1.00  0.00     0.200 C 
BRANCH  14  15
HETATM   15  C4  UNL     1      -9.383 -24.118 -32.693  1.00  0.00     0.126 A 
HETATM   16  N4  UNL     1      -8.590 -23.407 -33.511  1.00  0.00    -0.351 N 
HETATM   17  C5  UNL     1      -9.285 -23.015 -34.600  1.00  0.00     0.109 A 
ATOM     18  H4  UNL     1      -7.607 -23.196 -33.336  1.00  0.00     0.166 HD
HETATM   19  C6  UNL     1     -10.561 -23.503 -34.450  1.00  0.00     0.141 A 
HETATM   20  N5  UNL     1     -10.576 -24.175 -33.261  1.00  0.00    -0.221 N 
BRANCH  20  21
HETATM   21  O2  UNL     1     -11.679 -24.815 -32.744  1.00  0.00    -0.282 OA
ATOM     22  H2  UNL     1     -12.436 -24.387 -32.361  1.00  0.00     0.245 HD
ENDBRANCH  20  21
ENDBRANCH  14  15
ENDBRANCH   8  14
TORSDOF 3
ENDMDL
MODEL 2
REMARK VINA RESULT: -7.982114918      2.385      2.818
REMARK  3 active torsions:
REMARK  status: ('A' for Active; 'I' for Inactive)
REMARK    1  A    between atoms: N3_8  and  C3_10 
REMARK    2  A    between atoms: C3_10  and  C4_11 
REMARK    3  A    between atoms: N5_16  and  O2_17 
ROOT
HETATM    1  O1  UNL     1      -6.472 -28.137 -28.081  1.00  0.00    -0.245 OA
HETATM    2  C1  UNL     1      -6.120 -27.253 -28.923  1.00  0.00     0.341 A 
HETATM    3  N1  UNL     1      -5.279 -26.249 -28.589  1.00  0.00    -0.250 N 
ATOM      4  H1  UNL     1      -4.915 -26.192 -27.638  1.00  0.00     0.192 HD
HETATM    5  N2  UNL     1      -4.923 -25.338 -29.477  1.00  0.00    -0.277 N 
ATOM      6  H2  UNL     1      -4.287 -24.586 -29.209  1.00  0.00     0.189 HD
HETATM    7  C2  UNL     1      -5.405 -25.401 -30.756  1.00  0.00     0.186 A 
HETATM    8  N3  UNL     1      -5.038 -24.508 -31.577  1.00  0.00    -0.364 N 
ATOM      9  H3  UNL     1      -4.401 -23.803 -31.206  1.00  0.00     0.161 HD
HETATM   10  C7  UNL     1      -6.256 -26.404 -31.124  1.00  0.00     0.294 A 
HETATM   11  O3  UNL     1      -6.740 -26.521 -32.292  1.00  0.00    -0.264 OA
HETATM   12  N6  UNL     1      -6.590 -27.316 -30.170  1.00  0.00    -0.271 N 
ATOM     13  H6  UNL     1      -7.224 -28.075 -30.417  1.00  0.00     0.174 HD
ENDROOT
BRANCH   8  14
HETATM   14  C3  UNL     1      -5.397 -24.353 -32.957  1.00  0.00     0.200 C 
BRANCH  14  15
HETATM   15  C4  UNL     1      -6.718 -23.629 -33.065  1.00  0.00     0.126 A 
HETATM   16  N4  UNL     1      -7.824 -24.044 -33.704  1.00  0.00    -0.351 N 
HETATM   17  C5  UNL     1      -8.803 -23.122 -33.578  1.00  0.00     0.109 A 
ATOM     18  H4  UNL     1      -7.912 -24.925 -34.210  1.00  0.00     0.166 HD
HETATM   19  C6  UNL     1      -8.281 -22.094 -32.829  1.00  0.00     0.141 A 
HETATM   20  N5  UNL     1      -6.995 -22.448 -32.536  1.00  0.00    -0.221 N 
BRANCH  20  21
HETATM   21  O2  UNL     1      -6.126 -21.680 -31.796  1.00  0.00    -0.282 OA
ATOM     22  H2  UNL     1      -6.369 -21.107 -31.078  1.00  0.00     0.245 HD
ENDBRANCH  20  21
ENDBRANCH  14  15
ENDBRANCH   8  14
TORSDOF 3
ENDMDL
MODEL 3
REMARK VINA RESULT: -7.745434187      1.500      1.871
REMARK  3 active torsions:
REMARK  status: ('A' for Active; 'I' for Inactive)
REMARK    1  A    between atoms: N3_8  and  C3_10 
REMARK    2  A    between atoms: C3_10  and  C4_11 
REMARK    3  A    between atoms: N5_16  and  O2_17 
ROOT
HETATM    1  O1  UNL     1      -4.274 -27.615 -28.016  1.00  0.00    -0.245 OA
HETATM    2  C1  UNL     1      -5.069 -26.951 -28.752  1.00  0.00     0.341 A 
HETATM    3  N1  UNL     1      -6.400 -26.927 -28.520  1.00  0.00    -0.250 N 
ATOM      4  H1  UNL     1      -6.784 -27.455 -27.735  1.00  0.00     0.192 HD
HETATM    5  N2  UNL     1      -7.213 -26.230 -29.295  1.00  0.00    -0.277 N 
ATOM      6  H2  UNL     1      -8.215 -26.223 -29.106  1.00  0.00     0.189 HD
HETATM    7  C2  UNL     1      -6.712 -25.520 -30.351  1.00  0.00     0.186 A 
HETATM    8  N3  UNL     1      -7.525 -24.865 -31.069  1.00  0.00    -0.364 N 
ATOM      9  H3  UNL     1      -8.505 -24.925 -30.792  1.00  0.00     0.161 HD
HETATM   10  C7  UNL     1      -5.371 -25.524 -30.612  1.00  0.00     0.294 A 
HETATM   11  O3  UNL     1      -4.841 -24.888 -31.575  1.00  0.00    -0.264 OA
HETATM   12  N6  UNL     1      -4.580 -26.258 -29.782  1.00  0.00    -0.271 N 
ATOM     13  H6  UNL     1      -3.574 -26.279 -29.954  1.00  0.00     0.174 HD
ENDROOT
BRANCH   8  14
HETATM   14  C3  UNL     1      -7.255 -24.051 -32.219  1.00  0.00     0.200 C 
BRANCH  14  15
HETATM   15  C4  UNL     1      -8.527 -23.837 -33.005  1.00  0.00     0.126 A 
HETATM   16  N4  UNL     1      -8.662 -23.185 -34.172  1.00  0.00    -0.351 N 
HETATM   17  C5  UNL     1      -9.954 -23.205 -34.564  1.00  0.00     0.109 A 
ATOM     18  H4  UNL     1      -7.901 -22.741 -34.686  1.00  0.00     0.166 HD
HETATM   19  C6  UNL     1     -10.648 -23.898 -33.600  1.00  0.00     0.141 A 
HETATM   20  N5  UNL     1      -9.729 -24.268 -32.659  1.00  0.00    -0.221 N 
BRANCH  20  21
HETATM   21  O2  UNL     1     -10.025 -24.985 -31.523  1.00  0.00    -0.282 OA
ATOM     22  H2  UNL     1      -9.722 -25.865 -31.331  1.00  0.00     0.245 HD
ENDBRANCH  20  21
ENDBRANCH  14  15
ENDBRANCH   8  14
TORSDOF 3
ENDMDL
MODEL 4
REMARK VINA RESULT: -7.731516963      1.453      1.559
REMARK  3 active torsions:
REMARK  status: ('A' for Active; 'I' for Inactive)
REMARK    1  A    between atoms: N3_8  and  C3_10 
REMARK    2  A    between atoms: C3_10  and  C4_11 
REMARK    3  A    between atoms: N5_16  and  O2_17 
ROOT
HETATM    1  O1  UNL     1      -5.119 -27.387 -27.677  1.00  0.00    -0.245 OA
HETATM    2  C1  UNL     1      -5.425 -26.785 -28.754  1.00  0.00     0.341 A 
HETATM    3  N1  UNL     1      -5.018 -25.520 -29.002  1.00  0.00    -0.250 N 
ATOM      4  H1  UNL     1      -4.450 -25.030 -28.310  1.00  0.00     0.192 HD
HETATM    5  N2  UNL     1      -5.345 -24.909 -30.127  1.00  0.00    -0.277 N 
ATOM      6  H2  UNL     1      -5.029 -23.954 -30.299  1.00  0.00     0.189 HD
HETATM    7  C2  UNL     1      -6.107 -25.555 -31.061  1.00  0.00     0.186 A 
HETATM    8  N3  UNL     1      -6.398 -24.933 -32.127  1.00  0.00    -0.364 N 
ATOM      9  H3  UNL     1      -6.031 -23.984 -32.197  1.00  0.00     0.161 HD
HETATM   10  C7  UNL     1      -6.534 -26.833 -30.840  1.00  0.00     0.294 A 
HETATM   11  O3  UNL     1      -7.243 -27.489 -31.665  1.00  0.00    -0.264 OA
HETATM   12  N6  UNL     1      -6.168 -27.415 -29.665  1.00  0.00    -0.271 N 
ATOM     13  H6  UNL     1      -6.474 -28.369 -29.474  1.00  0.00     0.174 HD
ENDROOT
BRANCH   8  14
HETATM   14  C3  UNL     1      -7.173 -25.383 -33.247  1.00  0.00     0.200 C 
BRANCH  14  15
HETATM   15  C4  UNL     1      -8.501 -24.664 -33.273  1.00  0.00     0.126 A 
HETATM   16  N4  UNL     1      -8.862 -23.650 -34.076  1.00  0.00    -0.351 N 
HETATM   17  C5  UNL     1     -10.130 -23.272 -33.801  1.00  0.00     0.109 A 
ATOM     18  H4  UNL     1      -8.268 -23.228 -34.789  1.00  0.00     0.166 HD
HETATM   19  C6  UNL     1     -10.571 -24.087 -32.785  1.00  0.00     0.141 A 
HETATM   20  N5  UNL     1      -9.536 -24.928 -32.491  1.00  0.00    -0.221 N 
BRANCH  20  21
HETATM   21  O2  UNL     1      -9.578 -25.903 -31.522  1.00  0.00    -0.282 OA
ATOM     22  H2  UNL     1      -9.218 -26.779 -31.604  1.00  0.00     0.245 HD
ENDBRANCH  20  21
ENDBRANCH  14  15
ENDBRANCH   8  14
TORSDOF 3
ENDMDL
MODEL 5
REMARK VINA RESULT: -7.707848165      1.180      1.483
REMARK  3 active torsions:
REMARK  status: ('A' for Active; 'I' for Inactive)
REMARK    1  A    between atoms: N3_8  and  C3_10 
REMARK    2  A    between atoms: C3_10  and  C4_11 
REMARK    3  A    between atoms: N5_16  and  O2_17 
ROOT
HETATM    1  O1  UNL     1      -4.626 -27.427 -28.412  1.00  0.00    -0.245 OA
HETATM    2  C1  UNL     1      -5.394 -26.714 -29.130  1.00  0.00     0.341 A 
HETATM    3  N1  UNL     1      -4.910 -25.871 -30.069  1.00  0.00    -0.250 N 
ATOM      4  H1  UNL     1      -3.903 -25.799 -30.209  1.00  0.00     0.192 HD
HETATM    5  N2  UNL     1      -5.725 -25.137 -30.807  1.00  0.00    -0.277 N 
ATOM      6  H2  UNL     1      -5.343 -24.505 -31.512  1.00  0.00     0.189 HD
HETATM    7  C2  UNL     1      -7.078 -25.223 -30.629  1.00  0.00     0.186 A 
HETATM    8  N3  UNL     1      -7.823 -24.502 -31.358  1.00  0.00    -0.364 N 
ATOM      9  H3  UNL     1      -7.339 -23.907 -32.030  1.00  0.00     0.161 HD
HETATM   10  C7  UNL     1      -7.598 -26.066 -29.688  1.00  0.00     0.294 A 
HETATM   11  O3  UNL     1      -8.843 -26.194 -29.471  1.00  0.00    -0.264 OA
HETATM   12  N6  UNL     1      -6.714 -26.799 -28.956  1.00  0.00    -0.271 N 
ATOM     13  H6  UNL     1      -7.075 -27.437 -28.246  1.00  0.00     0.174 HD
ENDROOT
BRANCH   8  14
HETATM   14  C3  UNL     1      -9.255 -24.410 -31.366  1.00  0.00     0.200 C 
BRANCH  14  15
HETATM   15  C4  UNL     1      -9.733 -23.990 -32.736  1.00  0.00     0.126 A 
HETATM   16  N4  UNL     1     -10.964 -24.142 -33.250  1.00  0.00    -0.351 N 
HETATM   17  C5  UNL     1     -11.006 -23.640 -34.503  1.00  0.00     0.109 A 
ATOM     18  H4  UNL     1     -11.752 -24.572 -32.766  1.00  0.00     0.166 HD
HETATM   19  C6  UNL     1      -9.748 -23.157 -34.776  1.00  0.00     0.141 A 
HETATM   20  N5  UNL     1      -8.997 -23.393 -33.660  1.00  0.00    -0.221 N 
BRANCH  20  21
HETATM   21  O2  UNL     1      -7.670 -23.055 -33.530  1.00  0.00    -0.282 OA
ATOM     22  H2  UNL     1      -6.947 -23.464 -33.993  1.00  0.00     0.245 HD
ENDBRANCH  20  21
ENDBRANCH  14  15
ENDBRANCH   8  14
TORSDOF 3
ENDMDL
