MODEL 1
REMARK VINA RESULT: -7.865562823      0.000      0.000
REMARK  4 active torsions:
REMARK  status: ('A' for Active; 'I' for Inactive)
REMARK    1  A    between atoms: C3_3  and  C4_4 
REMARK    2  A    between atoms: C9_10  and  C10_11 
REMARK    3  A    between atoms: C10_11  and  O1_12 
REMARK    4  A    between atoms: N3_20  and  C15_21 
ROOT
HETATM    1  C4  UNL     1      -4.955   5.558  13.184  1.00  0.00     0.133 C 
HETATM    2  C5  UNL     1      -5.752   6.322  12.290  1.00  0.00     0.059 C 
HETATM    3  N1  UNL     1      -6.384   6.962  11.578  1.00  0.00    -0.197 NA
ENDROOT
BRANCH   1   4
HETATM    4  C3  UNL     1      -4.181   4.420  12.675  1.00  0.00     0.051 C 
HETATM    5  C2  UNL     1      -2.847   4.716  12.094  1.00  0.00     0.116 C 
HETATM    6  C1  UNL     1      -1.990   5.699  12.850  1.00  0.00     0.034 C 
HETATM    7  N3  UNL     1      -2.010   3.588  11.800  1.00  0.00    -0.125 N 
HETATM    8  C14 UNL     1      -2.464   2.281  12.033  1.00  0.00     0.339 C 
HETATM    9  N2  UNL     1      -3.776   2.098  12.565  1.00  0.00    -0.328 N 
HETATM   10  O2  UNL     1      -1.784   1.240  11.802  1.00  0.00    -0.246 OA
HETATM   11  C6  UNL     1      -4.231   3.136  13.485  1.00  0.00     0.043 C 
HETATM   12  C13 UNL     1      -4.582   0.949  12.178  1.00  0.00     0.155 C 
HETATM   13  C7  UNL     1      -3.385   3.130  14.689  1.00  0.00     0.032 C 
HETATM   14  C12 UNL     1      -5.645   2.812  13.899  1.00  0.00     0.032 C 
HETATM   15  C8  UNL     1      -3.682   1.895  15.504  1.00  0.00     0.009 C 
HETATM   16  C9  UNL     1      -5.022   2.045  16.165  1.00  0.00     0.009 C 
HETATM   17  C11 UNL     1      -5.873   3.002  15.400  1.00  0.00     0.009 C 
BRANCH   7  18
HETATM   18  C15 UNL     1      -0.722   3.794  11.263  1.00  0.00     0.720 A 
HETATM   19  N4  UNL     1       0.411   3.483  11.907  1.00  0.00    -0.115 N 
HETATM   20  N5  UNL     1       1.403   3.813  11.106  1.00  0.00    -0.211 N 
ATOM     21  H4  UNL     1       0.491   3.072  12.837  1.00  0.00     0.207 HD
HETATM   22  N6  UNL     1       0.955   4.323   9.974  1.00  0.00    -0.209 N 
ATOM     23  H5  UNL     1       2.391   3.690  11.331  1.00  0.00     0.210 HD
HETATM   24  C16 UNL     1       1.709   4.806   8.837  1.00  0.00     0.202 C 
HETATM   25  N7  UNL     1      -0.359   4.307  10.081  1.00  0.00    -0.113 N 
ATOM     26  H7  UNL     1      -1.007   4.637   9.365  1.00  0.00     0.207 HD
ENDBRANCH   7  18
BRANCH  16  27
HETATM   27  C10 UNL     1      -5.721   0.704  16.227  1.00  0.00     0.168 C 
BRANCH  27  28
HETATM   28  O1  UNL     1      -4.988  -0.236  15.488  1.00  0.00    -0.400 OA
ATOM     29  H1  UNL     1      -5.375  -1.096  15.601  1.00  0.00     0.209 HD
ENDBRANCH  27  28
ENDBRANCH  16  27
ENDBRANCH   1   4
TORSDOF 4
ENDMDL
MODEL 2
REMARK VINA RESULT: -6.915372263      2.386      6.230
REMARK  4 active torsions:
REMARK  status: ('A' for Active; 'I' for Inactive)
REMARK    1  A    between atoms: C3_3  and  C4_4 
REMARK    2  A    between atoms: C9_10  and  C10_11 
REMARK    3  A    between atoms: C10_11  and  O1_12 
REMARK    4  A    between atoms: N3_20  and  C15_21 
ROOT
HETATM    1  C4  UNL     1      -4.220   4.462  10.302  1.00  0.00     0.133 C 
HETATM    2  C5  UNL     1      -5.163   5.484  10.004  1.00  0.00     0.059 C 
HETATM    3  N1  UNL     1      -5.941   6.288   9.752  1.00  0.00    -0.197 NA
ENDROOT
BRANCH   1   4
HETATM    4  C3  UNL     1      -3.696   4.335  11.667  1.00  0.00     0.051 C 
HETATM    5  C2  UNL     1      -4.421   3.420  12.585  1.00  0.00     0.116 C 
HETATM    6  C1  UNL     1      -4.852   2.094  12.009  1.00  0.00     0.034 C 
HETATM    7  N3  UNL     1      -3.786   3.132  13.838  1.00  0.00    -0.125 N 
HETATM    8  C14 UNL     1      -2.554   3.719  14.167  1.00  0.00     0.339 C 
HETATM    9  N2  UNL     1      -1.951   4.611  13.229  1.00  0.00    -0.328 N 
HETATM   10  O2  UNL     1      -1.933   3.512  15.249  1.00  0.00    -0.246 OA
HETATM   11  C6  UNL     1      -2.186   4.297  11.823  1.00  0.00     0.043 C 
HETATM   12  C13 UNL     1      -1.175   5.756  13.685  1.00  0.00     0.155 C 
HETATM   13  C7  UNL     1      -1.561   3.006  11.498  1.00  0.00     0.032 C 
HETATM   14  C12 UNL     1      -1.529   5.366  10.986  1.00  0.00     0.032 C 
HETATM   15  C8  UNL     1      -0.060   3.163  11.493  1.00  0.00     0.009 C 
HETATM   16  C9  UNL     1       0.357   3.936  10.275  1.00  0.00     0.009 C 
HETATM   17  C11 UNL     1      -0.767   4.788   9.792  1.00  0.00     0.009 C 
BRANCH   7  18
HETATM   18  C15 UNL     1      -4.407   2.256  14.753  1.00  0.00     0.720 A 
HETATM   19  N4  UNL     1      -3.833   1.141  15.224  1.00  0.00    -0.115 N 
HETATM   20  N5  UNL     1      -4.702   0.587  16.044  1.00  0.00    -0.211 N 
ATOM     21  H4  UNL     1      -2.905   0.788  14.992  1.00  0.00     0.207 HD
HETATM   22  N6  UNL     1      -5.809   1.300  16.121  1.00  0.00    -0.209 N 
ATOM     23  H5  UNL     1      -4.539  -0.281  16.555  1.00  0.00     0.210 HD
HETATM   24  C16 UNL     1      -7.000   1.042  16.903  1.00  0.00     0.202 C 
HETATM   25  N7  UNL     1      -5.618   2.330  15.320  1.00  0.00    -0.113 N 
ATOM     26  H7  UNL     1      -6.294   3.075  15.155  1.00  0.00     0.207 HD
ENDBRANCH   7  18
BRANCH  16  27
HETATM   27  C10 UNL     1       1.541   4.820  10.603  1.00  0.00     0.168 C 
BRANCH  27  28
HETATM   28  O1  UNL     1       2.350   4.178  11.552  1.00  0.00    -0.400 OA
ATOM     29  H1  UNL     1       2.844   4.830  12.036  1.00  0.00     0.209 HD
ENDBRANCH  27  28
ENDBRANCH  16  27
ENDBRANCH   1   4
TORSDOF 4
ENDMDL
MODEL 3
REMARK VINA RESULT: -6.722866541      2.705      6.147
REMARK  4 active torsions:
REMARK  status: ('A' for Active; 'I' for Inactive)
REMARK    1  A    between atoms: C3_3  and  C4_4 
REMARK    2  A    between atoms: C9_10  and  C10_11 
REMARK    3  A    between atoms: C10_11  and  O1_12 
REMARK    4  A    between atoms: N3_20  and  C15_21 
ROOT
HETATM    1  C4  UNL     1      -2.841   7.128  13.486  1.00  0.00     0.133 C 
HETATM    2  C5  UNL     1      -2.067   7.804  14.468  1.00  0.00     0.059 C 
HETATM    3  N1  UNL     1      -1.468   8.362  15.271  1.00  0.00    -0.197 NA
ENDROOT
BRANCH   1   4
HETATM    4  C3  UNL     1      -2.698   5.676  13.324  1.00  0.00     0.051 C 
HETATM    5  C2  UNL     1      -3.400   4.816  14.310  1.00  0.00     0.116 C 
HETATM    6  C1  UNL     1      -4.809   5.217  14.668  1.00  0.00     0.034 C 
HETATM    7  N3  UNL     1      -3.439   3.410  14.022  1.00  0.00    -0.125 N 
HETATM    8  C14 UNL     1      -2.813   2.898  12.875  1.00  0.00     0.339 C 
HETATM    9  N2  UNL     1      -2.136   3.804  12.004  1.00  0.00    -0.328 N 
HETATM   10  O2  UNL     1      -2.807   1.675  12.555  1.00  0.00    -0.246 OA
HETATM   11  C6  UNL     1      -2.723   5.137  11.905  1.00  0.00     0.043 C 
HETATM   12  C13 UNL     1      -0.933   3.393  11.294  1.00  0.00     0.155 C 
HETATM   13  C7  UNL     1      -4.061   5.039  11.301  1.00  0.00     0.032 C 
HETATM   14  C12 UNL     1      -1.852   5.968  10.995  1.00  0.00     0.032 C 
HETATM   15  C8  UNL     1      -3.927   4.692   9.839  1.00  0.00     0.009 C 
HETATM   16  C9  UNL     1      -3.421   5.889   9.086  1.00  0.00     0.009 C 
HETATM   17  C11 UNL     1      -2.669   6.795  10.001  1.00  0.00     0.009 C 
BRANCH   7  18
HETATM   18  C15 UNL     1      -4.104   2.533  14.904  1.00  0.00     0.720 A 
HETATM   19  N4  UNL     1      -3.487   1.578  15.612  1.00  0.00    -0.115 N 
HETATM   20  N5  UNL     1      -4.419   0.967  16.314  1.00  0.00    -0.211 N 
ATOM     21  H4  UNL     1      -2.490   1.365  15.608  1.00  0.00     0.207 HD
HETATM   22  N6  UNL     1      -5.609   1.490  16.088  1.00  0.00    -0.209 N 
ATOM     23  H5  UNL     1      -4.243   0.190  16.952  1.00  0.00     0.210 HD
HETATM   24  C16 UNL     1      -6.887   1.113  16.653  1.00  0.00     0.202 C 
HETATM   25  N7  UNL     1      -5.405   2.457  15.215  1.00  0.00    -0.113 N 
ATOM     26  H7  UNL     1      -6.132   3.061  14.832  1.00  0.00     0.207 HD
ENDBRANCH   7  18
BRANCH  16  27
HETATM   27  C10 UNL     1      -2.504   5.445   7.966  1.00  0.00     0.168 C 
BRANCH  27  28
HETATM   28  O1  UNL     1      -2.191   4.088   8.132  1.00  0.00    -0.400 OA
ATOM     29  H1  UNL     1      -1.400   3.886   7.646  1.00  0.00     0.209 HD
ENDBRANCH  27  28
ENDBRANCH  16  27
ENDBRANCH   1   4
TORSDOF 4
ENDMDL
MODEL 4
REMARK VINA RESULT: -6.523143774      2.583      4.251
REMARK  4 active torsions:
REMARK  status: ('A' for Active; 'I' for Inactive)
REMARK    1  A    between atoms: C3_3  and  C4_4 
REMARK    2  A    between atoms: C9_10  and  C10_11 
REMARK    3  A    between atoms: C10_11  and  O1_12 
REMARK    4  A    between atoms: N3_20  and  C15_21 
ROOT
HETATM    1  C4  UNL     1      -4.306  -0.186  12.780  1.00  0.00     0.133 C 
HETATM    2  C5  UNL     1      -3.630  -1.062  11.887  1.00  0.00     0.059 C 
HETATM    3  N1  UNL     1      -3.110  -1.777  11.157  1.00  0.00    -0.197 NA
ENDROOT
BRANCH   1   4
HETATM    4  C3  UNL     1      -3.888   1.218  12.873  1.00  0.00     0.051 C 
HETATM    5  C2  UNL     1      -3.875   2.002  11.612  1.00  0.00     0.116 C 
HETATM    6  C1  UNL     1      -5.055   1.815  10.692  1.00  0.00     0.034 C 
HETATM    7  N3  UNL     1      -3.679   3.418  11.739  1.00  0.00    -0.125 N 
HETATM    8  C14 UNL     1      -3.485   4.003  13.000  1.00  0.00     0.339 C 
HETATM    9  N2  UNL     1      -3.484   3.159  14.151  1.00  0.00    -0.328 N 
HETATM   10  O2  UNL     1      -3.310   5.241  13.191  1.00  0.00    -0.246 OA
HETATM   11  C6  UNL     1      -4.369   2.000  14.082  1.00  0.00     0.043 C 
HETATM   12  C13 UNL     1      -2.628   3.458  15.290  1.00  0.00     0.155 C 
HETATM   13  C7  UNL     1      -5.767   2.455  14.010  1.00  0.00     0.032 C 
HETATM   14  C12 UNL     1      -4.196   1.199  15.348  1.00  0.00     0.032 C 
HETATM   15  C8  UNL     1      -6.176   3.030  15.345  1.00  0.00     0.009 C 
HETATM   16  C9  UNL     1      -6.345   1.916  16.337  1.00  0.00     0.009 C 
HETATM   17  C11 UNL     1      -5.531   0.734  15.933  1.00  0.00     0.009 C 
BRANCH   7  18
HETATM   18  C15 UNL     1      -3.674   4.230  10.585  1.00  0.00     0.720 A 
HETATM   19  N4  UNL     1      -4.523   5.247  10.385  1.00  0.00    -0.115 N 
HETATM   20  N5  UNL     1      -4.222   5.766   9.214  1.00  0.00    -0.211 N 
ATOM     21  H4  UNL     1      -5.261   5.558  11.018  1.00  0.00     0.207 HD
HETATM   22  N6  UNL     1      -3.213   5.126   8.652  1.00  0.00    -0.209 N 
ATOM     23  H5  UNL     1      -4.705   6.561   8.794  1.00  0.00     0.210 HD
HETATM   24  C16 UNL     1      -2.579   5.378   7.375  1.00  0.00     0.202 C 
HETATM   25  N7  UNL     1      -2.882   4.179   9.507  1.00  0.00    -0.113 N 
ATOM     26  H7  UNL     1      -2.129   3.504   9.368  1.00  0.00     0.207 HD
ENDBRANCH   7  18
BRANCH  16  27
HETATM   27  C10 UNL     1      -5.903   2.374  17.710  1.00  0.00     0.168 C 
BRANCH  27  28
HETATM   28  O1  UNL     1      -5.601   1.254  18.498  1.00  0.00    -0.400 OA
ATOM     29  H1  UNL     1      -5.852   0.465  18.032  1.00  0.00     0.209 HD
ENDBRANCH  27  28
ENDBRANCH  16  27
ENDBRANCH   1   4
TORSDOF 4
ENDMDL
MODEL 5
REMARK VINA RESULT: -6.468079230      1.434      1.591
REMARK  4 active torsions:
REMARK  status: ('A' for Active; 'I' for Inactive)
REMARK    1  A    between atoms: C3_3  and  C4_4 
REMARK    2  A    between atoms: C9_10  and  C10_11 
REMARK    3  A    between atoms: C10_11  and  O1_12 
REMARK    4  A    between atoms: N3_20  and  C15_21 
ROOT
HETATM    1  C4  UNL     1      -4.839   6.026  12.341  1.00  0.00     0.133 C 
HETATM    2  C5  UNL     1      -5.927   6.728  11.754  1.00  0.00     0.059 C 
HETATM    3  N1  UNL     1      -6.789   7.319  11.283  1.00  0.00    -0.197 NA
ENDROOT
BRANCH   1   4
HETATM    4  C3  UNL     1      -4.313   4.824  11.684  1.00  0.00     0.051 C 
HETATM    5  C2  UNL     1      -3.172   5.009  10.751  1.00  0.00     0.116 C 
HETATM    6  C1  UNL     1      -2.076   5.938  11.208  1.00  0.00     0.034 C 
HETATM    7  N3  UNL     1      -2.526   3.816  10.284  1.00  0.00    -0.125 N 
HETATM    8  C14 UNL     1      -2.985   2.551  10.681  1.00  0.00     0.339 C 
HETATM    9  N2  UNL     1      -4.110   2.477  11.556  1.00  0.00    -0.328 N 
HETATM   10  O2  UNL     1      -2.466   1.458  10.314  1.00  0.00    -0.246 OA
HETATM   11  C6  UNL     1      -4.225   3.563  12.525  1.00  0.00     0.043 C 
HETATM   12  C13 UNL     1      -5.067   1.385  11.446  1.00  0.00     0.155 C 
HETATM   13  C7  UNL     1      -3.084   3.515  13.453  1.00  0.00     0.032 C 
HETATM   14  C12 UNL     1      -5.490   3.353  13.320  1.00  0.00     0.032 C 
HETATM   15  C8  UNL     1      -3.229   2.321  14.364  1.00  0.00     0.009 C 
HETATM   16  C9  UNL     1      -4.324   2.582  15.358  1.00  0.00     0.009 C 
HETATM   17  C11 UNL     1      -5.285   3.586  14.818  1.00  0.00     0.009 C 
BRANCH   7  18
HETATM   18  C15 UNL     1      -1.422   3.915   9.410  1.00  0.00     0.720 A 
HETATM   19  N4  UNL     1      -0.158   3.667   9.776  1.00  0.00    -0.115 N 
HETATM   20  N5  UNL     1       0.589   3.860   8.709  1.00  0.00    -0.211 N 
ATOM     21  H4  UNL     1       0.165   3.385  10.701  1.00  0.00     0.207 HD
HETATM   22  N6  UNL     1      -0.143   4.221   7.672  1.00  0.00    -0.209 N 
ATOM     23  H5  UNL     1       1.603   3.745   8.686  1.00  0.00     0.210 HD
HETATM   24  C16 UNL     1       0.285   4.526   6.323  1.00  0.00     0.202 C 
HETATM   25  N7  UNL     1      -1.385   4.252   8.115  1.00  0.00    -0.113 N 
ATOM     26  H7  UNL     1      -2.199   4.497   7.552  1.00  0.00     0.207 HD
ENDBRANCH   7  18
BRANCH  16  27
HETATM   27  C10 UNL     1      -5.067   1.298  15.659  1.00  0.00     0.168 C 
BRANCH  27  28
HETATM   28  O1  UNL     1      -4.247   0.456  16.423  1.00  0.00    -0.400 OA
ATOM     29  H1  UNL     1      -4.167  -0.385  15.988  1.00  0.00     0.209 HD
ENDBRANCH  27  28
ENDBRANCH  16  27
ENDBRANCH   1   4
TORSDOF 4
ENDMDL
