MODEL 1
REMARK VINA RESULT: -8.349875265      0.000      0.000
REMARK  5 active torsions:
REMARK  status: ('A' for Active; 'I' for Inactive)
REMARK    1  A    between atoms: C2_2  and  C3_4 
REMARK    2  A    between atoms: C5_6  and  C6_7 
REMARK    3  A    between atoms: C6_7  and  C7_9 
REMARK    4  A    between atoms: C14_18  and  O5_19 
REMARK    5  A    between atoms: C14_18  and  C15_21 
ROOT
HETATM    1  C7  UNL     1      -4.175   3.301  13.501  1.00  0.00     0.202 C 
HETATM    2  C8  UNL     1      -4.584   4.723  13.508  1.00  0.00     0.146 C 
HETATM    3  O3  UNL     1      -4.074   5.353  14.413  1.00  0.00    -0.297 OA
HETATM    4  C9  UNL     1      -5.472   5.608  12.685  1.00  0.00     0.084 C 
HETATM    5  C10 UNL     1      -4.687   6.387  11.672  1.00  0.00    -0.005 C 
HETATM    6  C11 UNL     1      -5.548   7.594  11.279  1.00  0.00     0.011 C 
HETATM    7  C12 UNL     1      -4.376   5.641  10.422  1.00  0.00     0.087 C 
HETATM    8  C13 UNL     1      -3.918   4.263  10.611  1.00  0.00     0.176 C 
HETATM    9  O4  UNL     1      -4.690   3.420  10.160  1.00  0.00    -0.294 OA
HETATM   10  C14 UNL     1      -2.730   3.601  11.222  1.00  0.00     0.240 C 
HETATM   11  C17 UNL     1      -3.208   2.962  12.469  1.00  0.00     0.195 C 
HETATM   12  O7  UNL     1      -2.653   1.906  12.663  1.00  0.00    -0.292 OA
ENDROOT
BRANCH   1  13
HETATM   13  C6  UNL     1      -3.670   2.976  14.890  1.00  0.00     0.168 C 
HETATM   14  O2  UNL     1      -2.470   3.212  15.187  1.00  0.00    -0.292 OA
BRANCH  13  15
HETATM   15  C5  UNL     1      -4.643   2.402  15.796  1.00  0.00     0.061 C 
HETATM   16  C3  UNL     1      -4.983   1.133  15.871  1.00  0.00    -0.013 C 
HETATM   17  C4  UNL     1      -4.332   0.155  14.961  1.00  0.00     0.052 C 
BRANCH  16  18
HETATM   18  C2  UNL     1      -5.990   0.660  16.835  1.00  0.00     0.151 C 
HETATM   19  C1  UNL     1      -7.101   1.547  17.237  1.00  0.00     0.096 C 
HETATM   20  O1  UNL     1      -5.867  -0.507  17.291  1.00  0.00    -0.293 OA
ENDBRANCH  16  18
ENDBRANCH  13  15
ENDBRANCH   1  13
BRANCH  10  21
HETATM   21  O5  UNL     1      -1.825   4.596  11.631  1.00  0.00    -0.369 OA
ATOM     22  H5  UNL     1      -0.941   4.268  11.513  1.00  0.00     0.212 HD
ENDBRANCH  10  21
BRANCH  10  23
HETATM   23  C15 UNL     1      -2.050   2.689  10.309  1.00  0.00     0.172 C 
HETATM   24  C16 UNL     1      -0.839   3.083   9.522  1.00  0.00     0.095 C 
HETATM   25  O6  UNL     1      -2.479   1.561  10.175  1.00  0.00    -0.294 OA
ENDBRANCH  10  23
TORSDOF 5
ENDMDL
MODEL 2
REMARK VINA RESULT: -8.197335874      1.849      3.148
REMARK  5 active torsions:
REMARK  status: ('A' for Active; 'I' for Inactive)
REMARK    1  A    between atoms: C2_2  and  C3_4 
REMARK    2  A    between atoms: C5_6  and  C6_7 
REMARK    3  A    between atoms: C6_7  and  C7_9 
REMARK    4  A    between atoms: C14_18  and  O5_19 
REMARK    5  A    between atoms: C14_18  and  C15_21 
ROOT
HETATM    1  C7  UNL     1      -3.589   4.108  12.934  1.00  0.00     0.202 C 
HETATM    2  C8  UNL     1      -2.140   4.389  13.032  1.00  0.00     0.146 C 
HETATM    3  O3  UNL     1      -1.697   4.189  14.145  1.00  0.00    -0.297 OA
HETATM    4  C9  UNL     1      -1.055   4.861  12.110  1.00  0.00     0.084 C 
HETATM    5  C10 UNL     1      -0.259   3.715  11.564  1.00  0.00    -0.005 C 
HETATM    6  C11 UNL     1       1.086   4.291  11.101  1.00  0.00     0.011 C 
HETATM    7  C12 UNL     1      -0.874   3.036  10.390  1.00  0.00     0.087 C 
HETATM    8  C13 UNL     1      -2.311   2.775  10.499  1.00  0.00     0.176 C 
HETATM    9  O4  UNL     1      -2.989   3.395   9.683  1.00  0.00    -0.294 OA
HETATM   10  C14 UNL     1      -3.186   1.932  11.362  1.00  0.00     0.240 C 
HETATM   11  C17 UNL     1      -3.913   2.865  12.252  1.00  0.00     0.195 C 
HETATM   12  O7  UNL     1      -5.045   2.492  12.451  1.00  0.00    -0.292 OA
ENDROOT
BRANCH   1  13
HETATM   13  C6  UNL     1      -4.146   4.152  14.342  1.00  0.00     0.168 C 
HETATM   14  O2  UNL     1      -4.620   5.228  14.789  1.00  0.00    -0.292 OA
BRANCH  13  15
HETATM   15  C5  UNL     1      -4.086   2.909  15.081  1.00  0.00     0.061 C 
HETATM   16  C3  UNL     1      -5.083   2.334  15.720  1.00  0.00    -0.013 C 
HETATM   17  C4  UNL     1      -6.419   2.984  15.711  1.00  0.00     0.052 C 
BRANCH  16  18
HETATM   18  C2  UNL     1      -4.906   1.064  16.443  1.00  0.00     0.151 C 
HETATM   19  C1  UNL     1      -6.017   0.506  17.241  1.00  0.00     0.096 C 
HETATM   20  O1  UNL     1      -3.791   0.485  16.353  1.00  0.00    -0.293 OA
ENDBRANCH  16  18
ENDBRANCH  13  15
ENDBRANCH   1  13
BRANCH  10  21
HETATM   21  O5  UNL     1      -2.370   1.161  12.209  1.00  0.00    -0.369 OA
ATOM     22  H5  UNL     1      -2.686   1.254  13.100  1.00  0.00     0.212 HD
ENDBRANCH  10  21
BRANCH  10  23
HETATM   23  C15 UNL     1      -4.053   1.040  10.600  1.00  0.00     0.172 C 
HETATM   24  C16 UNL     1      -3.866  -0.445  10.572  1.00  0.00     0.095 C 
HETATM   25  O6  UNL     1      -4.968   1.514   9.958  1.00  0.00    -0.294 OA
ENDBRANCH  10  23
TORSDOF 5
ENDMDL
MODEL 3
REMARK VINA RESULT: -7.904364967      1.791      2.635
REMARK  5 active torsions:
REMARK  status: ('A' for Active; 'I' for Inactive)
REMARK    1  A    between atoms: C2_2  and  C3_4 
REMARK    2  A    between atoms: C5_6  and  C6_7 
REMARK    3  A    between atoms: C6_7  and  C7_9 
REMARK    4  A    between atoms: C14_18  and  O5_19 
REMARK    5  A    between atoms: C14_18  and  C15_21 
ROOT
HETATM    1  C7  UNL     1      -4.384   3.957  13.174  1.00  0.00     0.202 C 
HETATM    2  C8  UNL     1      -3.410   4.688  14.014  1.00  0.00     0.146 C 
HETATM    3  O3  UNL     1      -2.494   3.984  14.390  1.00  0.00    -0.297 OA
HETATM    4  C9  UNL     1      -3.249   6.085  14.534  1.00  0.00     0.084 C 
HETATM    5  C10 UNL     1      -2.314   6.886  13.680  1.00  0.00    -0.005 C 
HETATM    6  C11 UNL     1      -1.812   8.050  14.544  1.00  0.00     0.011 C 
HETATM    7  C12 UNL     1      -2.936   7.477  12.463  1.00  0.00     0.087 C 
HETATM    8  C13 UNL     1      -3.821   6.583  11.714  1.00  0.00     0.176 C 
HETATM    9  O4  UNL     1      -4.996   6.943  11.706  1.00  0.00    -0.294 OA
HETATM   10  C14 UNL     1      -3.663   5.319  10.939  1.00  0.00     0.240 C 
HETATM   11  C17 UNL     1      -4.289   4.253  11.752  1.00  0.00     0.195 C 
HETATM   12  O7  UNL     1      -4.852   3.440  11.057  1.00  0.00    -0.292 OA
ENDROOT
BRANCH   1  13
HETATM   13  C6  UNL     1      -4.206   2.482  13.466  1.00  0.00     0.168 C 
HETATM   14  O2  UNL     1      -3.263   1.850  12.923  1.00  0.00    -0.292 OA
BRANCH  13  15
HETATM   15  C5  UNL     1      -5.167   1.901  14.380  1.00  0.00     0.061 C 
HETATM   16  C3  UNL     1      -4.913   1.427  15.581  1.00  0.00    -0.013 C 
HETATM   17  C4  UNL     1      -3.519   1.470  16.095  1.00  0.00     0.052 C 
BRANCH  16  18
HETATM   18  C2  UNL     1      -5.974   0.856  16.426  1.00  0.00     0.151 C 
HETATM   19  C1  UNL     1      -7.155   1.670  16.779  1.00  0.00     0.096 C 
HETATM   20  O1  UNL     1      -5.836  -0.330  16.825  1.00  0.00    -0.293 OA
ENDBRANCH  16  18
ENDBRANCH  13  15
ENDBRANCH   1  13
BRANCH  10  21
HETATM   21  O5  UNL     1      -2.296   4.997  10.881  1.00  0.00    -0.369 OA
ATOM     22  H5  UNL     1      -2.209   4.052  10.843  1.00  0.00     0.212 HD
ENDBRANCH  10  21
BRANCH  10  23
HETATM   23  C15 UNL     1      -4.184   5.413   9.579  1.00  0.00     0.172 C 
HETATM   24  C16 UNL     1      -3.339   5.167   8.368  1.00  0.00     0.095 C 
HETATM   25  O6  UNL     1      -5.352   5.702   9.415  1.00  0.00    -0.294 OA
ENDBRANCH  10  23
TORSDOF 5
ENDMDL
MODEL 4
REMARK VINA RESULT: -7.863826854      1.789      2.387
REMARK  5 active torsions:
REMARK  status: ('A' for Active; 'I' for Inactive)
REMARK    1  A    between atoms: C2_2  and  C3_4 
REMARK    2  A    between atoms: C5_6  and  C6_7 
REMARK    3  A    between atoms: C6_7  and  C7_9 
REMARK    4  A    between atoms: C14_18  and  O5_19 
REMARK    5  A    between atoms: C14_18  and  C15_21 
ROOT
HETATM    1  C7  UNL     1      -4.031   2.737  13.690  1.00  0.00     0.202 C 
HETATM    2  C8  UNL     1      -3.109   3.857  13.399  1.00  0.00     0.146 C 
HETATM    3  O3  UNL     1      -2.193   3.929  14.193  1.00  0.00    -0.297 OA
HETATM    4  C9  UNL     1      -3.002   4.945  12.371  1.00  0.00     0.084 C 
HETATM    5  C10 UNL     1      -2.052   4.572  11.274  1.00  0.00    -0.005 C 
HETATM    6  C11 UNL     1      -1.613   5.882  10.605  1.00  0.00     0.011 C 
HETATM    7  C12 UNL     1      -2.638   3.710  10.211  1.00  0.00     0.087 C 
HETATM    8  C13 UNL     1      -3.471   2.604  10.688  1.00  0.00     0.176 C 
HETATM    9  O4  UNL     1      -4.653   2.701  10.366  1.00  0.00    -0.294 OA
HETATM   10  C14 UNL     1      -3.252   1.362  11.483  1.00  0.00     0.240 C 
HETATM   11  C17 UNL     1      -3.885   1.596  12.800  1.00  0.00     0.195 C 
HETATM   12  O7  UNL     1      -4.400   0.589  13.227  1.00  0.00    -0.292 OA
ENDROOT
BRANCH   1  13
HETATM   13  C6  UNL     1      -3.829   2.362  15.143  1.00  0.00     0.168 C 
HETATM   14  O2  UNL     1      -2.680   2.056  15.553  1.00  0.00    -0.292 OA
BRANCH  13  15
HETATM   15  C5  UNL     1      -5.018   2.387  15.970  1.00  0.00     0.061 C 
HETATM   16  C3  UNL     1      -5.604   1.347  16.523  1.00  0.00    -0.013 C 
HETATM   17  C4  UNL     1      -5.029  -0.006  16.309  1.00  0.00     0.052 C 
BRANCH  16  18
HETATM   18  C2  UNL     1      -6.814   1.493  17.349  1.00  0.00     0.151 C 
HETATM   19  C1  UNL     1      -6.787   2.341  18.558  1.00  0.00     0.096 C 
HETATM   20  O1  UNL     1      -7.851   0.877  16.988  1.00  0.00    -0.293 OA
ENDBRANCH  16  18
ENDBRANCH  13  15
ENDBRANCH   1  13
BRANCH  10  21
HETATM   21  O5  UNL     1      -1.876   1.233  11.743  1.00  0.00    -0.369 OA
ATOM     22  H5  UNL     1      -1.415   1.189  10.914  1.00  0.00     0.212 HD
ENDBRANCH  10  21
BRANCH  10  23
HETATM   23  C15 UNL     1      -3.720   0.159  10.804  1.00  0.00     0.172 C 
HETATM   24  C16 UNL     1      -3.187  -1.206  11.112  1.00  0.00     0.095 C 
HETATM   25  O6  UNL     1      -4.578   0.260   9.950  1.00  0.00    -0.294 OA
ENDBRANCH  10  23
TORSDOF 5
ENDMDL
MODEL 5
REMARK VINA RESULT: -7.523162036      1.643      4.024
REMARK  5 active torsions:
REMARK  status: ('A' for Active; 'I' for Inactive)
REMARK    1  A    between atoms: C2_2  and  C3_4 
REMARK    2  A    between atoms: C5_6  and  C6_7 
REMARK    3  A    between atoms: C6_7  and  C7_9 
REMARK    4  A    between atoms: C14_18  and  O5_19 
REMARK    5  A    between atoms: C14_18  and  C15_21 
ROOT
HETATM    1  C7  UNL     1      -3.685   3.355  12.093  1.00  0.00     0.202 C 
HETATM    2  C8  UNL     1      -2.942   2.782  10.948  1.00  0.00     0.146 C 
HETATM    3  O3  UNL     1      -3.554   1.895  10.389  1.00  0.00    -0.297 OA
HETATM    4  C9  UNL     1      -1.615   3.006  10.286  1.00  0.00     0.084 C 
HETATM    5  C10 UNL     1      -1.745   3.887   9.080  1.00  0.00    -0.005 C 
HETATM    6  C11 UNL     1      -0.511   3.626   8.206  1.00  0.00     0.011 C 
HETATM    7  C12 UNL     1      -1.773   5.346   9.377  1.00  0.00     0.087 C 
HETATM    8  C13 UNL     1      -2.619   5.740  10.505  1.00  0.00     0.176 C 
HETATM    9  O4  UNL     1      -1.992   6.213  11.451  1.00  0.00    -0.294 OA
HETATM   10  C14 UNL     1      -4.077   5.716  10.812  1.00  0.00     0.240 C 
HETATM   11  C17 UNL     1      -4.270   4.661  11.832  1.00  0.00     0.195 C 
HETATM   12  O7  UNL     1      -5.118   4.973  12.634  1.00  0.00    -0.292 OA
ENDROOT
BRANCH   1  13
HETATM   13  C6  UNL     1      -4.723   2.333  12.505  1.00  0.00     0.168 C 
HETATM   14  O2  UNL     1      -5.714   2.118  11.761  1.00  0.00    -0.292 OA
BRANCH  13  15
HETATM   15  C5  UNL     1      -4.480   1.664  13.766  1.00  0.00     0.061 C 
HETATM   16  C3  UNL     1      -5.046   1.946  14.920  1.00  0.00    -0.013 C 
HETATM   17  C4  UNL     1      -6.038   3.051  14.988  1.00  0.00     0.052 C 
BRANCH  16  18
HETATM   18  C2  UNL     1      -4.721   1.195  16.143  1.00  0.00     0.151 C 
HETATM   19  C1  UNL     1      -5.747   1.005  17.189  1.00  0.00     0.096 C 
HETATM   20  O1  UNL     1      -3.556   0.731  16.258  1.00  0.00    -0.293 OA
ENDBRANCH  16  18
ENDBRANCH  13  15
ENDBRANCH   1  13
BRANCH  10  21
HETATM   21  O5  UNL     1      -4.768   5.269   9.672  1.00  0.00    -0.369 OA
ATOM     22  H5  UNL     1      -4.678   4.326   9.614  1.00  0.00     0.212 HD
ENDBRANCH  10  21
BRANCH  10  23
HETATM   23  C15 UNL     1      -4.601   7.022  11.201  1.00  0.00     0.172 C 
HETATM   24  C16 UNL     1      -5.959   7.504  10.795  1.00  0.00     0.095 C 
HETATM   25  O6  UNL     1      -3.912   7.754  11.882  1.00  0.00    -0.294 OA
ENDBRANCH  10  23
TORSDOF 5
ENDMDL
