MODEL 1
REMARK VINA RESULT: -7.230961930      0.000      0.000
REMARK  6 active torsions:
REMARK  status: ('A' for Active; 'I' for Inactive)
REMARK    1  A    between atoms: C2_2  and  C3_3 
REMARK    2  A    between atoms: C4_4  and  C5_5 
REMARK    3  A    between atoms: C6_6  and  N1_7 
REMARK    4  A    between atoms: N1_7  and  C7_9 
REMARK    5  A    between atoms: C7_9  and  C8_10 
REMARK    6  A    between atoms: C8_10  and  O1_11 
ROOT
HETATM    1  C5  UNL     1      -3.642   3.031  13.143  1.00  0.00     0.079 A 
HETATM    2  C6  UNL     1      -4.572   3.557  14.016  1.00  0.00     0.121 A 
HETATM    3  N2  UNL     1      -4.417   4.800  14.461  1.00  0.00    -0.349 N 
ATOM      4  H2  UNL     1      -5.108   5.184  15.106  1.00  0.00     0.167 HD
HETATM    5  C10 UNL     1      -3.370   5.574  14.086  1.00  0.00     0.121 A 
HETATM    6  C11 UNL     1      -2.430   5.092  13.226  1.00  0.00     0.091 A 
HETATM    7  C12 UNL     1      -2.559   3.780  12.732  1.00  0.00     0.084 A 
HETATM    8  C13 UNL     1      -1.624   3.287  11.870  1.00  0.00     0.275 A 
HETATM    9  O2  UNL     1      -1.715   2.136  11.422  1.00  0.00    -0.266 OA
HETATM   10  N3  UNL     1      -0.610   4.078  11.525  1.00  0.00    -0.149 N 
HETATM   11  C14 UNL     1       0.394   3.562  10.607  1.00  0.00     0.179 C 
HETATM   12  C15 UNL     1      -0.464   5.320  11.977  1.00  0.00     0.710 A 
HETATM   13  N4  UNL     1       0.475   6.268  11.752  1.00  0.00    -0.130 N 
ATOM     14  H4  UNL     1       1.290   6.172  11.147  1.00  0.00     0.205 HD
HETATM   15  N5  UNL     1       0.157   7.322  12.439  1.00  0.00    -0.274 N 
ATOM     16  H5  UNL     1       0.693   8.189  12.458  1.00  0.00     0.189 HD
HETATM   17  C16 UNL     1      -1.009   7.100  13.141  1.00  0.00     0.116 A 
HETATM   18  C17 UNL     1      -1.644   8.095  14.020  1.00  0.00     0.092 C 
HETATM   19  N6  UNL     1      -1.366   5.853  12.833  1.00  0.00    -0.132 N 
ENDROOT
BRANCH   2  20
HETATM   20  N1  UNL     1      -5.557   2.805  14.359  1.00  0.00    -0.373 N 
ATOM     21  H1  UNL     1      -6.253   2.500  13.679  1.00  0.00     0.161 HD
BRANCH  20  22
HETATM   22  C7  UNL     1      -5.639   2.407  15.751  1.00  0.00     0.147 C 
BRANCH  22  23
HETATM   23  C8  UNL     1      -5.320   0.936  15.919  1.00  0.00     0.186 C 
BRANCH  23  24
HETATM   24  O1  UNL     1      -6.374   0.220  16.456  1.00  0.00    -0.394 OA
HETATM   25  C9  UNL     1      -7.369   1.008  16.970  1.00  0.00     0.201 C 
ENDBRANCH  23  24
ENDBRANCH  22  23
ENDBRANCH  20  22
ENDBRANCH   2  20
BRANCH   1  26
HETATM   26  C4  UNL     1      -3.811   1.675  12.657  1.00  0.00    -0.062 C 
HETATM   27  C3  UNL     1      -3.998   0.526  12.253  1.00  0.00    -0.101 C 
BRANCH  27  28
HETATM   28  C2  UNL     1      -4.237  -0.829  11.760  1.00  0.00     0.090 C 
HETATM   29  C1  UNL     1      -2.924  -1.369  11.257  1.00  0.00     0.018 C 
ENDBRANCH  27  28
ENDBRANCH   1  26
TORSDOF 6
ENDMDL
MODEL 2
REMARK VINA RESULT: -7.105467639      1.195      1.210
REMARK  6 active torsions:
REMARK  status: ('A' for Active; 'I' for Inactive)
REMARK    1  A    between atoms: C2_2  and  C3_3 
REMARK    2  A    between atoms: C4_4  and  C5_5 
REMARK    3  A    between atoms: C6_6  and  N1_7 
REMARK    4  A    between atoms: N1_7  and  C7_9 
REMARK    5  A    between atoms: C7_9  and  C8_10 
REMARK    6  A    between atoms: C8_10  and  O1_11 
ROOT
HETATM    1  C5  UNL     1      -3.527   2.264  12.977  1.00  0.00     0.079 A 
HETATM    2  C6  UNL     1      -3.939   2.479  14.277  1.00  0.00     0.121 A 
HETATM    3  N2  UNL     1      -3.689   3.652  14.852  1.00  0.00    -0.349 N 
ATOM      4  H2  UNL     1      -3.996   3.805  15.813  1.00  0.00     0.167 HD
HETATM    5  C10 UNL     1      -3.042   4.649  14.204  1.00  0.00     0.121 A 
HETATM    6  C11 UNL     1      -2.619   4.476  12.921  1.00  0.00     0.091 A 
HETATM    7  C12 UNL     1      -2.864   3.249  12.276  1.00  0.00     0.084 A 
HETATM    8  C13 UNL     1      -2.446   3.065  10.991  1.00  0.00     0.275 A 
HETATM    9  O2  UNL     1      -2.649   1.995  10.402  1.00  0.00    -0.266 OA
HETATM   10  N3  UNL     1      -1.813   4.069  10.388  1.00  0.00    -0.149 N 
HETATM   11  C14 UNL     1      -1.362   3.884   9.016  1.00  0.00     0.179 C 
HETATM   12  C15 UNL     1      -1.569   5.238  10.973  1.00  0.00     0.710 A 
HETATM   13  N4  UNL     1      -0.954   6.364  10.542  1.00  0.00    -0.130 N 
ATOM     14  H4  UNL     1      -0.545   6.506   9.619  1.00  0.00     0.205 HD
HETATM   15  N5  UNL     1      -0.975   7.230  11.507  1.00  0.00    -0.274 N 
ATOM     16  H5  UNL     1      -0.579   8.169  11.457  1.00  0.00     0.189 HD
HETATM   17  C16 UNL     1      -1.610   6.700  12.610  1.00  0.00     0.116 A 
HETATM   18  C17 UNL     1      -1.805   7.424  13.877  1.00  0.00     0.092 C 
HETATM   19  N6  UNL     1      -1.965   5.468  12.247  1.00  0.00    -0.132 N 
ENDROOT
BRANCH   2  20
HETATM   20  N1  UNL     1      -4.551   1.519  14.873  1.00  0.00    -0.373 N 
ATOM     21  H1  UNL     1      -4.802   0.663  14.379  1.00  0.00     0.161 HD
BRANCH  20  22
HETATM   22  C7  UNL     1      -4.872   1.701  16.276  1.00  0.00     0.147 C 
BRANCH  22  23
HETATM   23  C8  UNL     1      -5.399   0.420  16.886  1.00  0.00     0.186 C 
BRANCH  23  24
HETATM   24  O1  UNL     1      -6.728   0.190  16.578  1.00  0.00    -0.394 OA
HETATM   25  C9  UNL     1      -7.547   1.255  16.845  1.00  0.00     0.201 C 
ENDBRANCH  23  24
ENDBRANCH  22  23
ENDBRANCH  20  22
ENDBRANCH   2  20
BRANCH   1  26
HETATM   26  C4  UNL     1      -3.799   0.985  12.349  1.00  0.00    -0.062 C 
HETATM   27  C3  UNL     1      -3.996  -0.117  11.837  1.00  0.00    -0.101 C 
BRANCH  27  28
HETATM   28  C2  UNL     1      -4.231  -1.437  11.252  1.00  0.00     0.090 C 
HETATM   29  C1  UNL     1      -2.958  -2.230  11.392  1.00  0.00     0.018 C 
ENDBRANCH  27  28
ENDBRANCH   1  26
TORSDOF 6
ENDMDL
MODEL 3
REMARK VINA RESULT: -6.913889990      0.949      1.036
REMARK  6 active torsions:
REMARK  status: ('A' for Active; 'I' for Inactive)
REMARK    1  A    between atoms: C2_2  and  C3_3 
REMARK    2  A    between atoms: C4_4  and  C5_5 
REMARK    3  A    between atoms: C6_6  and  N1_7 
REMARK    4  A    between atoms: N1_7  and  C7_9 
REMARK    5  A    between atoms: C7_9  and  C8_10 
REMARK    6  A    between atoms: C8_10  and  O1_11 
ROOT
HETATM    1  C5  UNL     1      -3.252   3.415  12.969  1.00  0.00     0.079 A 
HETATM    2  C6  UNL     1      -4.236   3.590  13.921  1.00  0.00     0.121 A 
HETATM    3  N2  UNL     1      -4.267   4.718  14.625  1.00  0.00    -0.349 N 
ATOM      4  H2  UNL     1      -4.996   4.841  15.327  1.00  0.00     0.167 HD
HETATM    5  C10 UNL     1      -3.361   5.708  14.440  1.00  0.00     0.121 A 
HETATM    6  C11 UNL     1      -2.374   5.574  13.511  1.00  0.00     0.091 A 
HETATM    7  C12 UNL     1      -2.307   4.395  12.745  1.00  0.00     0.084 A 
HETATM    8  C13 UNL     1      -1.324   4.251  11.811  1.00  0.00     0.275 A 
HETATM    9  O2  UNL     1      -1.243   3.224  11.124  1.00  0.00    -0.266 OA
HETATM   10  N3  UNL     1      -0.452   5.246  11.659  1.00  0.00    -0.149 N 
HETATM   11  C14 UNL     1       0.602   5.103  10.665  1.00  0.00     0.179 C 
HETATM   12  C15 UNL     1      -0.493   6.370  12.369  1.00  0.00     0.710 A 
HETATM   13  N4  UNL     1       0.283   7.478  12.367  1.00  0.00    -0.130 N 
ATOM     14  H4  UNL     1       1.091   7.642  11.767  1.00  0.00     0.205 HD
HETATM   15  N5  UNL     1      -0.181   8.297  13.260  1.00  0.00    -0.274 N 
ATOM     16  H5  UNL     1       0.213   9.213  13.472  1.00  0.00     0.189 HD
HETATM   17  C16 UNL     1      -1.285   7.750  13.880  1.00  0.00     0.116 A 
HETATM   18  C17 UNL     1      -2.050   8.421  14.944  1.00  0.00     0.092 C 
HETATM   19  N6  UNL     1      -1.450   6.559  13.306  1.00  0.00    -0.132 N 
ENDROOT
BRANCH   2  20
HETATM   20  N1  UNL     1      -5.084   2.638  14.080  1.00  0.00    -0.373 N 
ATOM     21  H1  UNL     1      -5.678   2.324  13.313  1.00  0.00     0.161 HD
BRANCH  20  22
HETATM   22  C7  UNL     1      -5.163   2.027  15.393  1.00  0.00     0.147 C 
BRANCH  22  23
HETATM   23  C8  UNL     1      -4.654   0.601  15.364  1.00  0.00     0.186 C 
BRANCH  23  24
HETATM   24  O1  UNL     1      -5.306  -0.217  16.268  1.00  0.00    -0.394 OA
HETATM   25  C9  UNL     1      -5.990   0.470  17.237  1.00  0.00     0.201 C 
ENDBRANCH  23  24
ENDBRANCH  22  23
ENDBRANCH  20  22
ENDBRANCH   2  20
BRANCH   1  26
HETATM   26  C4  UNL     1      -3.218   2.186  12.200  1.00  0.00    -0.062 C 
HETATM   27  C3  UNL     1      -3.225   1.129  11.569  1.00  0.00    -0.101 C 
BRANCH  27  28
HETATM   28  C2  UNL     1      -3.255  -0.122  10.812  1.00  0.00     0.090 C 
HETATM   29  C1  UNL     1      -4.017  -1.131  11.631  1.00  0.00     0.018 C 
ENDBRANCH  27  28
ENDBRANCH   1  26
TORSDOF 6
ENDMDL
MODEL 4
REMARK VINA RESULT: -6.825226408      1.868      4.270
REMARK  6 active torsions:
REMARK  status: ('A' for Active; 'I' for Inactive)
REMARK    1  A    between atoms: C2_2  and  C3_3 
REMARK    2  A    between atoms: C4_4  and  C5_5 
REMARK    3  A    between atoms: C6_6  and  N1_7 
REMARK    4  A    between atoms: N1_7  and  C7_9 
REMARK    5  A    between atoms: C7_9  and  C8_10 
REMARK    6  A    between atoms: C8_10  and  O1_11 
ROOT
HETATM    1  C5  UNL     1      -3.442   3.349  13.292  1.00  0.00     0.079 A 
HETATM    2  C6  UNL     1      -3.243   2.193  12.565  1.00  0.00     0.121 A 
HETATM    3  N2  UNL     1      -2.218   2.123  11.722  1.00  0.00    -0.349 N 
ATOM      4  H2  UNL     1      -2.076   1.265  11.188  1.00  0.00     0.167 HD
HETATM    5  C10 UNL     1      -1.355   3.153  11.549  1.00  0.00     0.121 A 
HETATM    6  C11 UNL     1      -1.517   4.311  12.247  1.00  0.00     0.091 A 
HETATM    7  C12 UNL     1      -2.591   4.424  13.151  1.00  0.00     0.084 A 
HETATM    8  C13 UNL     1      -2.761   5.579  13.856  1.00  0.00     0.275 A 
HETATM    9  O2  UNL     1      -3.697   5.705  14.656  1.00  0.00    -0.266 OA
HETATM   10  N3  UNL     1      -1.893   6.569  13.658  1.00  0.00    -0.149 N 
HETATM   11  C14 UNL     1      -2.066   7.807  14.405  1.00  0.00     0.179 C 
HETATM   12  C15 UNL     1      -0.870   6.488  12.812  1.00  0.00     0.710 A 
HETATM   13  N4  UNL     1       0.106   7.363  12.474  1.00  0.00    -0.130 N 
ATOM     14  H4  UNL     1       0.222   8.304  12.848  1.00  0.00     0.205 HD
HETATM   15  N5  UNL     1       0.868   6.794  11.591  1.00  0.00    -0.274 N 
ATOM     16  H5  UNL     1       1.684   7.228  11.159  1.00  0.00     0.189 HD
HETATM   17  C16 UNL     1       0.416   5.521  11.320  1.00  0.00     0.116 A 
HETATM   18  C17 UNL     1       1.056   4.605  10.361  1.00  0.00     0.092 C 
HETATM   19  N6  UNL     1      -0.660   5.363  12.091  1.00  0.00    -0.132 N 
ENDROOT
BRANCH   2  20
HETATM   20  N1  UNL     1      -4.074   1.228  12.745  1.00  0.00    -0.373 N 
ATOM     21  H1  UNL     1      -4.221   0.820  13.667  1.00  0.00     0.161 HD
BRANCH  20  22
HETATM   22  C7  UNL     1      -4.795   0.745  11.583  1.00  0.00     0.147 C 
BRANCH  22  23
HETATM   23  C8  UNL     1      -4.486  -0.714  11.317  1.00  0.00     0.186 C 
BRANCH  23  24
HETATM   24  O1  UNL     1      -3.128  -0.978  11.307  1.00  0.00    -0.394 OA
HETATM   25  C9  UNL     1      -2.828  -2.313  11.386  1.00  0.00     0.201 C 
ENDBRANCH  23  24
ENDBRANCH  22  23
ENDBRANCH  20  22
ENDBRANCH   2  20
BRANCH   1  26
HETATM   26  C4  UNL     1      -4.560   3.426  14.213  1.00  0.00    -0.062 C 
HETATM   27  C3  UNL     1      -5.518   3.449  14.986  1.00  0.00    -0.101 C 
BRANCH  27  28
HETATM   28  C2  UNL     1      -6.647   3.458  15.916  1.00  0.00     0.090 C 
HETATM   29  C1  UNL     1      -6.665   2.128  16.623  1.00  0.00     0.018 C 
ENDBRANCH  27  28
ENDBRANCH   1  26
TORSDOF 6
ENDMDL
MODEL 5
REMARK VINA RESULT: -6.644166709      3.510      6.087
REMARK  6 active torsions:
REMARK  status: ('A' for Active; 'I' for Inactive)
REMARK    1  A    between atoms: C2_2  and  C3_3 
REMARK    2  A    between atoms: C4_4  and  C5_5 
REMARK    3  A    between atoms: C6_6  and  N1_7 
REMARK    4  A    between atoms: N1_7  and  C7_9 
REMARK    5  A    between atoms: C7_9  and  C8_10 
REMARK    6  A    between atoms: C8_10  and  O1_11 
ROOT
HETATM    1  C5  UNL     1      -4.288   4.553  11.533  1.00  0.00     0.079 A 
HETATM    2  C6  UNL     1      -4.783   5.629  12.241  1.00  0.00     0.121 A 
HETATM    3  N2  UNL     1      -5.198   5.450  13.491  1.00  0.00    -0.349 N 
ATOM      4  H2  UNL     1      -5.564   6.250  14.009  1.00  0.00     0.167 HD
HETATM    5  C10 UNL     1      -5.152   4.241  14.100  1.00  0.00     0.121 A 
HETATM    6  C11 UNL     1      -4.670   3.154  13.436  1.00  0.00     0.091 A 
HETATM    7  C12 UNL     1      -4.220   3.302  12.110  1.00  0.00     0.084 A 
HETATM    8  C13 UNL     1      -3.735   2.220  11.436  1.00  0.00     0.275 A 
HETATM    9  O2  UNL     1      -3.333   2.323  10.270  1.00  0.00    -0.266 OA
HETATM   10  N3  UNL     1      -3.705   1.049  12.069  1.00  0.00    -0.149 N 
HETATM   11  C14 UNL     1      -3.190  -0.113  11.359  1.00  0.00     0.179 C 
HETATM   12  C15 UNL     1      -4.124   0.881  13.320  1.00  0.00     0.710 A 
HETATM   13  N4  UNL     1      -4.176  -0.204  14.127  1.00  0.00    -0.130 N 
ATOM     14  H4  UNL     1      -3.876  -1.147  13.882  1.00  0.00     0.205 HD
HETATM   15  N5  UNL     1      -4.674   0.165  15.267  1.00  0.00    -0.274 N 
ATOM     16  H5  UNL     1      -4.827  -0.453  16.064  1.00  0.00     0.189 HD
HETATM   17  C16 UNL     1      -4.964   1.512  15.247  1.00  0.00     0.116 A 
HETATM   18  C17 UNL     1      -5.542   2.249  16.383  1.00  0.00     0.092 C 
HETATM   19  N6  UNL     1      -4.613   1.925  14.029  1.00  0.00    -0.132 N 
ENDROOT
BRANCH   2  20
HETATM   20  N1  UNL     1      -4.819   6.767  11.643  1.00  0.00    -0.373 N 
ATOM     21  H1  UNL     1      -3.963   7.277  11.424  1.00  0.00     0.161 HD
BRANCH  20  22
HETATM   22  C7  UNL     1      -6.123   7.296  11.293  1.00  0.00     0.147 C 
BRANCH  22  23
HETATM   23  C8  UNL     1      -6.289   7.389   9.791  1.00  0.00     0.186 C 
BRANCH  23  24
HETATM   24  O1  UNL     1      -7.033   6.345   9.271  1.00  0.00    -0.394 OA
HETATM   25  C9  UNL     1      -7.805   6.702   8.197  1.00  0.00     0.201 C 
ENDBRANCH  23  24
ENDBRANCH  22  23
ENDBRANCH  20  22
ENDBRANCH   2  20
BRANCH   1  26
HETATM   26  C4  UNL     1      -3.834   4.747  10.170  1.00  0.00    -0.062 C 
HETATM   27  C3  UNL     1      -3.473   4.949   9.010  1.00  0.00    -0.101 C 
BRANCH  27  28
HETATM   28  C2  UNL     1      -3.036   5.211   7.639  1.00  0.00     0.090 C 
HETATM   29  C1  UNL     1      -4.240   5.664   6.856  1.00  0.00     0.018 C 
ENDBRANCH  27  28
ENDBRANCH   1  26
TORSDOF 6
ENDMDL
