MODEL 1
REMARK VINA RESULT: -7.069373015      0.000      0.000
REMARK  3 active torsions:
REMARK  status: ('A' for Active; 'I' for Inactive)
REMARK    1  A    between atoms: C2_2  and  C3_3 
REMARK    2  A    between atoms: C3_3  and  C4_4 
REMARK    3  A    between atoms: C4_4  and  N1_5 
ROOT
HETATM    1  N1  UNL     1      -4.634   3.528  13.745  1.00  0.00    -0.264 N 
HETATM    2  C5  UNL     1      -4.088   4.717  14.017  1.00  0.00     0.281 A 
HETATM    3  O1  UNL     1      -4.687   5.507  14.812  1.00  0.00    -0.265 OA
HETATM    4  C6  UNL     1      -2.913   5.086  13.458  1.00  0.00     0.133 A 
HETATM    5  C7  UNL     1      -2.265   4.205  12.586  1.00  0.00     0.087 A 
HETATM    6  C8  UNL     1      -1.137   4.853  12.173  1.00  0.00     0.065 A 
HETATM    7  C9  UNL     1      -0.119   4.488  11.342  1.00  0.00     0.056 A 
HETATM    8  C10 UNL     1       0.895   5.392  11.105  1.00  0.00     0.039 A 
HETATM    9  C11 UNL     1       0.906   6.633  11.691  1.00  0.00     0.257 A 
HETATM   10  O2  UNL     1       1.831   7.460  11.476  1.00  0.00    -0.267 OA
HETATM   11  N2  UNL     1      -0.113   6.970  12.520  1.00  0.00    -0.303 N 
HETATM   12  C12 UNL     1      -0.063   8.296  13.099  1.00  0.00     0.161 C 
HETATM   13  C13 UNL     1      -1.125   6.130  12.780  1.00  0.00     0.127 A 
HETATM   14  N3  UNL     1      -2.214   6.246  13.565  1.00  0.00    -0.330 N 
HETATM   15  C14 UNL     1      -2.541   7.386  14.374  1.00  0.00     0.158 C 
HETATM   16  C15 UNL     1       1.892   4.843  10.115  1.00  0.00     0.066 C 
HETATM   17  C16 UNL     1       1.000   3.759   9.479  1.00  0.00     0.124 C 
HETATM   18  N4  UNL     1       0.356   3.307  10.725  1.00  0.00    -0.388 N 
ATOM     19  H4  UNL     1       0.271   2.350  11.068  1.00  0.00     0.159 HD
HETATM   20  N5  UNL     1      -2.815   3.014  12.307  1.00  0.00    -0.300 N 
HETATM   21  C17 UNL     1      -2.346   2.077  11.327  1.00  0.00     0.161 C 
HETATM   22  C18 UNL     1      -4.001   2.712  12.910  1.00  0.00     0.331 A 
HETATM   23  O3  UNL     1      -4.521   1.575  12.650  1.00  0.00    -0.246 OA
ENDROOT
BRANCH   1  24
HETATM   24  C4  UNL     1      -5.875   3.191  14.367  1.00  0.00     0.137 C 
BRANCH  24  25
HETATM   25  C3  UNL     1      -5.543   2.413  15.643  1.00  0.00     0.020 C 
BRANCH  25  26
HETATM   26  C2  UNL     1      -6.670   2.513  16.634  1.00  0.00    -0.003 C 
HETATM   27  C1  UNL     1      -7.169   1.119  16.947  1.00  0.00     0.005 C 
ENDBRANCH  25  26
ENDBRANCH  24  25
ENDBRANCH   1  24
TORSDOF 3
ENDMDL
MODEL 2
REMARK VINA RESULT: -6.989389190      2.016      4.195
REMARK  3 active torsions:
REMARK  status: ('A' for Active; 'I' for Inactive)
REMARK    1  A    between atoms: C2_2  and  C3_3 
REMARK    2  A    between atoms: C3_3  and  C4_4 
REMARK    3  A    between atoms: C4_4  and  N1_5 
ROOT
HETATM    1  N1  UNL     1      -4.044   2.479  11.682  1.00  0.00    -0.264 N 
HETATM    2  C5  UNL     1      -2.889   2.729  11.057  1.00  0.00     0.281 A 
HETATM    3  O1  UNL     1      -2.468   1.910  10.182  1.00  0.00    -0.265 OA
HETATM    4  C6  UNL     1      -2.169   3.836  11.346  1.00  0.00     0.133 A 
HETATM    5  C7  UNL     1      -2.646   4.729  12.312  1.00  0.00     0.087 A 
HETATM    6  C8  UNL     1      -1.710   5.719  12.399  1.00  0.00     0.065 A 
HETATM    7  C9  UNL     1      -1.641   6.855  13.149  1.00  0.00     0.056 A 
HETATM    8  C10 UNL     1      -0.531   7.664  13.020  1.00  0.00     0.039 A 
HETATM    9  C11 UNL     1       0.488   7.356  12.153  1.00  0.00     0.257 A 
HETATM   10  O2  UNL     1       1.502   8.093  12.034  1.00  0.00    -0.267 OA
HETATM   11  N2  UNL     1       0.392   6.225  11.411  1.00  0.00    -0.303 N 
HETATM   12  C12 UNL     1       1.500   5.938  10.525  1.00  0.00     0.161 C 
HETATM   13  C13 UNL     1      -0.663   5.403  11.502  1.00  0.00     0.127 A 
HETATM   14  N3  UNL     1      -0.969   4.255  10.867  1.00  0.00    -0.330 N 
HETATM   15  C14 UNL     1      -0.169   3.623   9.855  1.00  0.00     0.158 C 
HETATM   16  C15 UNL     1      -0.597   8.833  13.971  1.00  0.00     0.066 C 
HETATM   17  C16 UNL     1      -1.621   8.253  14.966  1.00  0.00     0.124 C 
HETATM   18  N4  UNL     1      -2.502   7.624  13.966  1.00  0.00    -0.388 N 
ATOM     19  H4  UNL     1      -3.514   7.722  13.881  1.00  0.00     0.159 HD
HETATM   20  N5  UNL     1      -3.802   4.476  12.943  1.00  0.00    -0.300 N 
HETATM   21  C17 UNL     1      -4.337   5.215  14.050  1.00  0.00     0.161 C 
HETATM   22  C18 UNL     1      -4.473   3.340  12.597  1.00  0.00     0.331 A 
HETATM   23  O3  UNL     1      -5.577   3.103  13.195  1.00  0.00    -0.246 OA
ENDROOT
BRANCH   1  24
HETATM   24  C4  UNL     1      -4.764   1.296  11.333  1.00  0.00     0.137 C 
BRANCH  24  25
HETATM   25  C3  UNL     1      -4.313   0.194  12.296  1.00  0.00     0.020 C 
BRANCH  25  26
HETATM   26  C2  UNL     1      -4.316  -1.145  11.610  1.00  0.00    -0.003 C 
HETATM   27  C1  UNL     1      -2.898  -1.493  11.213  1.00  0.00     0.005 C 
ENDBRANCH  25  26
ENDBRANCH  24  25
ENDBRANCH   1  24
TORSDOF 3
ENDMDL
MODEL 3
REMARK VINA RESULT: -6.870928327      1.471      1.553
REMARK  3 active torsions:
REMARK  status: ('A' for Active; 'I' for Inactive)
REMARK    1  A    between atoms: C2_2  and  C3_3 
REMARK    2  A    between atoms: C3_3  and  C4_4 
REMARK    3  A    between atoms: C4_4  and  N1_5 
ROOT
HETATM    1  N1  UNL     1      -4.633   2.259  14.026  1.00  0.00    -0.264 N 
HETATM    2  C5  UNL     1      -4.250   3.530  14.185  1.00  0.00     0.281 A 
HETATM    3  O1  UNL     1      -4.700   4.194  15.171  1.00  0.00    -0.265 OA
HETATM    4  C6  UNL     1      -3.397   4.111  13.312  1.00  0.00     0.133 A 
HETATM    5  C7  UNL     1      -2.911   3.367  12.232  1.00  0.00     0.087 A 
HETATM    6  C8  UNL     1      -2.104   4.215  11.529  1.00  0.00     0.065 A 
HETATM    7  C9  UNL     1      -1.352   4.046  10.405  1.00  0.00     0.056 A 
HETATM    8  C10 UNL     1      -0.642   5.124   9.919  1.00  0.00     0.039 A 
HETATM    9  C11 UNL     1      -0.669   6.346  10.543  1.00  0.00     0.257 A 
HETATM   10  O2  UNL     1      -0.021   7.331  10.101  1.00  0.00    -0.267 OA
HETATM   11  N2  UNL     1      -1.418   6.486  11.665  1.00  0.00    -0.303 N 
HETATM   12  C12 UNL     1      -1.424   7.799  12.277  1.00  0.00     0.161 C 
HETATM   13  C13 UNL     1      -2.129   5.472  12.177  1.00  0.00     0.127 A 
HETATM   14  N3  UNL     1      -2.918   5.382  13.265  1.00  0.00    -0.330 N 
HETATM   15  C14 UNL     1      -3.171   6.442  14.201  1.00  0.00     0.158 C 
HETATM   16  C15 UNL     1       0.074   4.771   8.638  1.00  0.00     0.066 C 
HETATM   17  C16 UNL     1      -0.765   3.539   8.247  1.00  0.00     0.124 C 
HETATM   18  N4  UNL     1      -0.893   2.975   9.603  1.00  0.00    -0.388 N 
ATOM     19  H4  UNL     1      -0.694   2.019   9.899  1.00  0.00     0.159 HD
HETATM   20  N5  UNL     1      -3.299   2.094  12.069  1.00  0.00    -0.300 N 
HETATM   21  C17 UNL     1      -3.003   1.261  10.939  1.00  0.00     0.161 C 
HETATM   22  C18 UNL     1      -4.161   1.575  12.991  1.00  0.00     0.331 A 
HETATM   23  O3  UNL     1      -4.525   0.361  12.838  1.00  0.00    -0.246 OA
ENDROOT
BRANCH   1  24
HETATM   24  C4  UNL     1      -5.534   1.696  14.981  1.00  0.00     0.137 C 
BRANCH  24  25
HETATM   25  C3  UNL     1      -4.689   1.180  16.148  1.00  0.00     0.020 C 
BRANCH  25  26
HETATM   26  C2  UNL     1      -5.553   0.901  17.348  1.00  0.00    -0.003 C 
HETATM   27  C1  UNL     1      -7.004   1.066  16.953  1.00  0.00     0.005 C 
ENDBRANCH  25  26
ENDBRANCH  24  25
ENDBRANCH   1  24
TORSDOF 3
ENDMDL
MODEL 4
REMARK VINA RESULT: -6.849081678      2.998      7.386
REMARK  3 active torsions:
REMARK  status: ('A' for Active; 'I' for Inactive)
REMARK    1  A    between atoms: C2_2  and  C3_3 
REMARK    2  A    between atoms: C3_3  and  C4_4 
REMARK    3  A    between atoms: C4_4  and  N1_5 
ROOT
HETATM    1  N1  UNL     1      -2.465   5.392   9.554  1.00  0.00    -0.264 N 
HETATM    2  C5  UNL     1      -2.334   4.066   9.659  1.00  0.00     0.281 A 
HETATM    3  O1  UNL     1      -1.708   3.431   8.755  1.00  0.00    -0.265 OA
HETATM    4  C6  UNL     1      -2.861   3.399  10.711  1.00  0.00     0.133 A 
HETATM    5  C7  UNL     1      -3.548   4.112  11.699  1.00  0.00     0.087 A 
HETATM    6  C8  UNL     1      -3.974   3.181  12.602  1.00  0.00     0.065 A 
HETATM    7  C9  UNL     1      -4.671   3.284  13.769  1.00  0.00     0.056 A 
HETATM    8  C10 UNL     1      -4.969   2.130  14.463  1.00  0.00     0.039 A 
HETATM    9  C11 UNL     1      -4.575   0.896  14.012  1.00  0.00     0.257 A 
HETATM   10  O2  UNL     1      -4.846  -0.159  14.644  1.00  0.00    -0.267 OA
HETATM   11  N2  UNL     1      -3.875   0.819  12.853  1.00  0.00    -0.303 N 
HETATM   12  C12 UNL     1      -3.496  -0.507  12.413  1.00  0.00     0.161 C 
HETATM   13  C13 UNL     1      -3.563   1.910  12.138  1.00  0.00     0.127 A 
HETATM   14  N3  UNL     1      -2.880   2.069  10.988  1.00  0.00    -0.330 N 
HETATM   15  C14 UNL     1      -2.272   1.014  10.227  1.00  0.00     0.158 C 
HETATM   16  C15 UNL     1      -5.798   2.431  15.687  1.00  0.00     0.066 C 
HETATM   17  C16 UNL     1      -6.326   3.816  15.263  1.00  0.00     0.124 C 
HETATM   18  N4  UNL     1      -5.073   4.306  14.661  1.00  0.00    -0.388 N 
ATOM     19  H4  UNL     1      -4.599   5.189  14.846  1.00  0.00     0.159 HD
HETATM   20  N5  UNL     1      -3.684   5.442  11.591  1.00  0.00    -0.300 N 
HETATM   21  C17 UNL     1      -4.480   6.279  12.441  1.00  0.00     0.161 C 
HETATM   22  C18 UNL     1      -3.124   6.046  10.503  1.00  0.00     0.331 A 
HETATM   23  O3  UNL     1      -3.249   7.313  10.404  1.00  0.00    -0.246 OA
ENDROOT
BRANCH   1  24
HETATM   24  C4  UNL     1      -1.885   6.045   8.424  1.00  0.00     0.137 C 
BRANCH  24  25
HETATM   25  C3  UNL     1      -2.974   6.144   7.353  1.00  0.00     0.020 C 
BRANCH  25  26
HETATM   26  C2  UNL     1      -2.454   5.677   6.021  1.00  0.00    -0.003 C 
HETATM   27  C1  UNL     1      -0.945   5.599   6.086  1.00  0.00     0.005 C 
ENDBRANCH  25  26
ENDBRANCH  24  25
ENDBRANCH   1  24
TORSDOF 3
ENDMDL
MODEL 5
REMARK VINA RESULT: -6.726270152      2.557      7.287
REMARK  3 active torsions:
REMARK  status: ('A' for Active; 'I' for Inactive)
REMARK    1  A    between atoms: C2_2  and  C3_3 
REMARK    2  A    between atoms: C3_3  and  C4_4 
REMARK    3  A    between atoms: C4_4  and  N1_5 
ROOT
HETATM    1  N1  UNL     1      -1.881   4.721   9.673  1.00  0.00    -0.264 N 
HETATM    2  C5  UNL     1      -1.984   3.439  10.040  1.00  0.00     0.281 A 
HETATM    3  O1  UNL     1      -1.398   2.548   9.350  1.00  0.00    -0.265 OA
HETATM    4  C6  UNL     1      -2.703   3.086  11.129  1.00  0.00     0.133 A 
HETATM    5  C7  UNL     1      -3.343   4.079  11.878  1.00  0.00     0.087 A 
HETATM    6  C8  UNL     1      -3.995   3.424  12.883  1.00  0.00     0.065 A 
HETATM    7  C9  UNL     1      -4.762   3.865  13.921  1.00  0.00     0.056 A 
HETATM    8  C10 UNL     1      -5.308   2.934  14.779  1.00  0.00     0.039 A 
HETATM    9  C11 UNL     1      -5.088   1.589  14.618  1.00  0.00     0.257 A 
HETATM   10  O2  UNL     1      -5.585   0.737  15.401  1.00  0.00    -0.267 OA
HETATM   11  N2  UNL     1      -4.314   1.176  13.583  1.00  0.00    -0.303 N 
HETATM   12  C12 UNL     1      -4.127  -0.254  13.448  1.00  0.00     0.161 C 
HETATM   13  C13 UNL     1      -3.764   2.039  12.718  1.00  0.00     0.127 A 
HETATM   14  N3  UNL     1      -2.968   1.858  11.647  1.00  0.00    -0.330 N 
HETATM   15  C14 UNL     1      -2.482   0.592  11.174  1.00  0.00     0.158 C 
HETATM   16  C15 UNL     1      -6.176   3.597  15.820  1.00  0.00     0.066 C 
HETATM   17  C16 UNL     1      -6.426   4.928  15.084  1.00  0.00     0.124 C 
HETATM   18  N4  UNL     1      -5.062   5.095  14.551  1.00  0.00    -0.388 N 
ATOM     19  H4  UNL     1      -4.465   5.919  14.622  1.00  0.00     0.159 HD
HETATM   20  N5  UNL     1      -3.244   5.363  11.507  1.00  0.00    -0.300 N 
HETATM   21  C17 UNL     1      -3.959   6.465  12.085  1.00  0.00     0.161 C 
HETATM   22  C18 UNL     1      -2.500   5.644  10.398  1.00  0.00     0.331 A 
HETATM   23  O3  UNL     1      -2.402   6.869  10.049  1.00  0.00    -0.246 OA
ENDROOT
BRANCH   1  24
HETATM   24  C4  UNL     1      -1.105   5.036   8.516  1.00  0.00     0.137 C 
BRANCH  24  25
HETATM   25  C3  UNL     1       0.289   5.440   9.003  1.00  0.00     0.020 C 
BRANCH  25  26
HETATM   26  C2  UNL     1       1.323   4.458   8.525  1.00  0.00    -0.003 C 
HETATM   27  C1  UNL     1       1.998   3.835   9.728  1.00  0.00     0.005 C 
ENDBRANCH  25  26
ENDBRANCH  24  25
ENDBRANCH   1  24
TORSDOF 3
ENDMDL
