MODEL 1
REMARK VINA RESULT: -8.117904286      0.000      0.000
REMARK  6 active torsions:
REMARK  status: ('A' for Active; 'I' for Inactive)
REMARK    1  A    between atoms: O1_2  and  C2_3 
REMARK    2  A    between atoms: C2_3  and  C3_5 
REMARK    3  A    between atoms: C12_15  and  O4_16 
REMARK    4  A    between atoms: C15_20  and  C16_21 
REMARK    5  A    between atoms: C16_21  and  O5_22 
REMARK    6  A    between atoms: O5_22  and  C17_23 
ROOT
HETATM    1  C3  UNL     1      -4.287   2.295  14.421  1.00  0.00     0.024 C 
HETATM    2  C4  UNL     1      -4.173   1.365  13.504  1.00  0.00    -0.065 C 
HETATM    3  C5  UNL     1      -4.279  -0.046  13.911  1.00  0.00     0.044 C 
HETATM    4  C6  UNL     1      -3.943   1.658  12.066  1.00  0.00     0.037 C 
HETATM    5  C7  UNL     1      -3.067   0.707  11.307  1.00  0.00     0.060 C 
HETATM    6  C8  UNL     1      -3.847  -0.095  10.320  1.00  0.00     0.018 C 
HETATM    7  C9  UNL     1      -2.428   1.952  10.732  1.00  0.00     0.136 C 
HETATM    8  O3  UNL     1      -1.930   2.228   9.673  1.00  0.00    -0.297 OA
HETATM    9  C10 UNL     1      -2.719   2.559  12.032  1.00  0.00     0.071 C 
HETATM   10  C11 UNL     1      -3.073   4.002  12.117  1.00  0.00     0.033 C 
HETATM   11  C12 UNL     1      -2.169   4.611  13.181  1.00  0.00     0.124 C 
HETATM   12  C13 UNL     1      -2.820   4.280  14.506  1.00  0.00     0.042 C 
HETATM   13  C14 UNL     1      -4.206   3.809  14.221  1.00  0.00     0.034 C 
HETATM   14  C15 UNL     1      -4.430   4.210  12.802  1.00  0.00     0.026 C 
ENDROOT
BRANCH  14  15
HETATM   15  C16 UNL     1      -4.671   5.720  12.808  1.00  0.00     0.184 C 
BRANCH  15  16
HETATM   16  O5  UNL     1      -4.604   6.170  11.445  1.00  0.00    -0.321 OA
BRANCH  16  17
HETATM   17  C17 UNL     1      -5.720   6.536  10.739  1.00  0.00     0.254 C 
HETATM   18  C18 UNL     1      -6.584   7.659  11.191  1.00  0.00     0.126 C 
HETATM   19  O6  UNL     1      -6.019   5.912   9.693  1.00  0.00    -0.266 OA
ENDBRANCH  16  17
ENDBRANCH  15  16
ENDBRANCH  14  15
BRANCH  11  20
HETATM   20  O4  UNL     1      -0.923   3.951  13.191  1.00  0.00    -0.395 OA
ATOM     21  H4  UNL     1      -0.508   4.052  14.039  1.00  0.00     0.210 HD
ENDBRANCH  11  20
BRANCH   1  22
HETATM   22  C2  UNL     1      -4.512   1.894  15.789  1.00  0.00     0.289 C 
HETATM   23  O2  UNL     1      -3.502   1.351  16.392  1.00  0.00    -0.260 OA
BRANCH  22  24
HETATM   24  O1  UNL     1      -5.675   2.030  16.505  1.00  0.00    -0.323 OA
HETATM   25  C1  UNL     1      -6.447   0.888  16.825  1.00  0.00     0.213 C 
ENDBRANCH  22  24
ENDBRANCH   1  22
TORSDOF 6
ENDMDL
MODEL 2
REMARK VINA RESULT: -7.513246734      2.029      5.322
REMARK  6 active torsions:
REMARK  status: ('A' for Active; 'I' for Inactive)
REMARK    1  A    between atoms: O1_2  and  C2_3 
REMARK    2  A    between atoms: C2_3  and  C3_5 
REMARK    3  A    between atoms: C12_15  and  O4_16 
REMARK    4  A    between atoms: C15_20  and  C16_21 
REMARK    5  A    between atoms: C16_21  and  O5_22 
REMARK    6  A    between atoms: O5_22  and  C17_23 
ROOT
HETATM    1  C3  UNL     1      -4.578   3.261  12.051  1.00  0.00     0.024 C 
HETATM    2  C4  UNL     1      -4.288   4.417  11.505  1.00  0.00    -0.065 C 
HETATM    3  C5  UNL     1      -4.066   4.477  10.051  1.00  0.00     0.044 C 
HETATM    4  C6  UNL     1      -4.172   5.681  12.278  1.00  0.00     0.037 C 
HETATM    5  C7  UNL     1      -3.129   6.661  11.831  1.00  0.00     0.060 C 
HETATM    6  C8  UNL     1      -3.741   7.881  11.228  1.00  0.00     0.018 C 
HETATM    7  C9  UNL     1      -2.800   6.790  13.302  1.00  0.00     0.136 C 
HETATM    8  O3  UNL     1      -2.408   7.688  14.000  1.00  0.00    -0.297 OA
HETATM    9  C10 UNL     1      -3.180   5.380  13.391  1.00  0.00     0.071 C 
HETATM   10  C11 UNL     1      -3.844   4.862  14.619  1.00  0.00     0.033 C 
HETATM   11  C12 UNL     1      -3.066   3.624  15.045  1.00  0.00     0.124 C 
HETATM   12  C13 UNL     1      -3.588   2.497  14.180  1.00  0.00     0.042 C 
HETATM   13  C14 UNL     1      -4.843   2.974  13.530  1.00  0.00     0.034 C 
HETATM   14  C15 UNL     1      -5.192   4.205  14.296  1.00  0.00     0.026 C 
ENDROOT
BRANCH  14  15
HETATM   15  C16 UNL     1      -5.762   3.737  15.636  1.00  0.00     0.184 C 
BRANCH  15  16
HETATM   16  O5  UNL     1      -6.308   2.423  15.435  1.00  0.00    -0.321 OA
BRANCH  16  17
HETATM   17  C17 UNL     1      -6.577   1.576  16.477  1.00  0.00     0.254 C 
HETATM   18  C18 UNL     1      -6.235   1.942  17.877  1.00  0.00     0.126 C 
HETATM   19  O6  UNL     1      -7.123   0.470  16.246  1.00  0.00    -0.266 OA
ENDBRANCH  16  17
ENDBRANCH  15  16
ENDBRANCH  14  15
BRANCH  11  20
HETATM   20  O4  UNL     1      -1.705   3.768  14.708  1.00  0.00    -0.395 OA
ATOM     21  H4  UNL     1      -1.163   3.637  15.477  1.00  0.00     0.210 HD
ENDBRANCH  11  20
BRANCH   1  22
HETATM   22  C2  UNL     1      -4.668   2.098  11.201  1.00  0.00     0.289 C 
HETATM   23  O2  UNL     1      -5.863   1.657  10.970  1.00  0.00    -0.260 OA
BRANCH  22  24
HETATM   24  O1  UNL     1      -3.624   1.421  10.622  1.00  0.00    -0.323 OA
HETATM   25  C1  UNL     1      -3.335   0.092  11.016  1.00  0.00     0.213 C 
ENDBRANCH  22  24
ENDBRANCH   1  22
TORSDOF 6
ENDMDL
MODEL 3
REMARK VINA RESULT: -7.227897520      2.107      4.756
REMARK  6 active torsions:
REMARK  status: ('A' for Active; 'I' for Inactive)
REMARK    1  A    between atoms: O1_2  and  C2_3 
REMARK    2  A    between atoms: C2_3  and  C3_5 
REMARK    3  A    between atoms: C12_15  and  O4_16 
REMARK    4  A    between atoms: C15_20  and  C16_21 
REMARK    5  A    between atoms: C16_21  and  O5_22 
REMARK    6  A    between atoms: O5_22  and  C17_23 
ROOT
HETATM    1  C3  UNL     1      -3.036   2.557  12.384  1.00  0.00     0.024 C 
HETATM    2  C4  UNL     1      -3.866   2.181  13.327  1.00  0.00    -0.065 C 
HETATM    3  C5  UNL     1      -4.336   0.787  13.342  1.00  0.00     0.044 C 
HETATM    4  C6  UNL     1      -4.359   3.093  14.392  1.00  0.00     0.037 C 
HETATM    5  C7  UNL     1      -5.773   2.901  14.853  1.00  0.00     0.060 C 
HETATM    6  C8  UNL     1      -5.831   2.353  16.240  1.00  0.00     0.018 C 
HETATM    7  C9  UNL     1      -5.871   4.409  14.775  1.00  0.00     0.136 C 
HETATM    8  O3  UNL     1      -6.473   5.245  15.394  1.00  0.00    -0.297 OA
HETATM    9  C10 UNL     1      -4.934   4.294  13.656  1.00  0.00     0.071 C 
HETATM   10  C11 UNL     1      -3.918   5.356  13.423  1.00  0.00     0.033 C 
HETATM   11  C12 UNL     1      -4.030   5.753  11.957  1.00  0.00     0.124 C 
HETATM   12  C13 UNL     1      -3.246   4.709  11.191  1.00  0.00     0.042 C 
HETATM   13  C14 UNL     1      -2.430   3.946  12.180  1.00  0.00     0.034 C 
HETATM   14  C15 UNL     1      -2.495   4.783  13.412  1.00  0.00     0.026 C 
ENDROOT
BRANCH  14  15
HETATM   15  C16 UNL     1      -1.564   5.974  13.180  1.00  0.00     0.184 C 
BRANCH  15  16
HETATM   16  O5  UNL     1      -1.683   6.840  14.321  1.00  0.00    -0.321 OA
BRANCH  16  17
HETATM   17  C17 UNL     1      -1.655   8.205  14.209  1.00  0.00     0.254 C 
HETATM   18  C18 UNL     1      -1.249   9.064  15.353  1.00  0.00     0.126 C 
HETATM   19  O6  UNL     1      -1.979   8.741  13.122  1.00  0.00    -0.266 OA
ENDBRANCH  16  17
ENDBRANCH  15  16
ENDBRANCH  14  15
BRANCH  11  20
HETATM   20  O4  UNL     1      -5.365   5.623  11.523  1.00  0.00    -0.395 OA
ATOM     21  H4  UNL     1      -5.930   5.422  12.260  1.00  0.00     0.210 HD
ENDBRANCH  11  20
BRANCH   1  22
HETATM   22  C2  UNL     1      -2.621   1.584  11.401  1.00  0.00     0.289 C 
HETATM   23  O2  UNL     1      -1.425   1.110  11.546  1.00  0.00    -0.260 OA
BRANCH  22  24
HETATM   24  O1  UNL     1      -3.359   1.119  10.342  1.00  0.00    -0.323 OA
HETATM   25  C1  UNL     1      -3.522  -0.274  10.149  1.00  0.00     0.213 C 
ENDBRANCH  22  24
ENDBRANCH   1  22
TORSDOF 6
ENDMDL
MODEL 4
REMARK VINA RESULT: -7.207881864      1.652      4.503
REMARK  6 active torsions:
REMARK  status: ('A' for Active; 'I' for Inactive)
REMARK    1  A    between atoms: O1_2  and  C2_3 
REMARK    2  A    between atoms: C2_3  and  C3_5 
REMARK    3  A    between atoms: C12_15  and  O4_16 
REMARK    4  A    between atoms: C15_20  and  C16_21 
REMARK    5  A    between atoms: C16_21  and  O5_22 
REMARK    6  A    between atoms: O5_22  and  C17_23 
ROOT
HETATM    1  C3  UNL     1      -3.742   2.917  13.917  1.00  0.00     0.024 C 
HETATM    2  C4  UNL     1      -3.931   4.192  13.678  1.00  0.00    -0.065 C 
HETATM    3  C5  UNL     1      -4.345   5.067  14.786  1.00  0.00     0.044 C 
HETATM    4  C6  UNL     1      -3.747   4.808  12.338  1.00  0.00     0.037 C 
HETATM    5  C7  UNL     1      -4.685   5.915  11.961  1.00  0.00     0.060 C 
HETATM    6  C8  UNL     1      -3.989   7.235  11.913  1.00  0.00     0.018 C 
HETATM    7  C9  UNL     1      -4.780   5.212  10.625  1.00  0.00     0.136 C 
HETATM    8  O3  UNL     1      -4.931   5.580   9.491  1.00  0.00    -0.297 OA
HETATM    9  C10 UNL     1      -4.605   3.979  11.395  1.00  0.00     0.071 C 
HETATM   10  C11 UNL     1      -3.860   2.833  10.807  1.00  0.00     0.033 C 
HETATM   11  C12 UNL     1      -4.745   1.605  10.975  1.00  0.00     0.124 C 
HETATM   12  C13 UNL     1      -4.524   1.135  12.397  1.00  0.00     0.042 C 
HETATM   13  C14 UNL     1      -3.317   1.838  12.920  1.00  0.00     0.034 C 
HETATM   14  C15 UNL     1      -2.684   2.410  11.697  1.00  0.00     0.026 C 
ENDROOT
BRANCH  14  15
HETATM   15  C16 UNL     1      -2.006   1.246  10.972  1.00  0.00     0.184 C 
BRANCH  15  16
HETATM   16  O5  UNL     1      -0.633   1.614  10.760  1.00  0.00    -0.321 OA
BRANCH  16  17
HETATM   17  C17 UNL     1      -0.257   2.896  10.461  1.00  0.00     0.254 C 
HETATM   18  C18 UNL     1      -0.644   3.533   9.175  1.00  0.00     0.126 C 
HETATM   19  O6  UNL     1       0.428   3.546  11.288  1.00  0.00    -0.266 OA
ENDBRANCH  16  17
ENDBRANCH  15  16
ENDBRANCH  14  15
BRANCH  11  20
HETATM   20  O4  UNL     1      -6.103   1.975  10.900  1.00  0.00    -0.395 OA
ATOM     21  H4  UNL     1      -6.655   1.231  11.111  1.00  0.00     0.210 HD
ENDBRANCH  11  20
BRANCH   1  22
HETATM   22  C2  UNL     1      -3.948   2.428  15.260  1.00  0.00     0.289 C 
HETATM   23  O2  UNL     1      -2.879   2.090  15.908  1.00  0.00    -0.260 OA
BRANCH  22  24
HETATM   24  O1  UNL     1      -5.149   2.286  15.908  1.00  0.00    -0.323 OA
HETATM   25  C1  UNL     1      -5.604   1.000  16.286  1.00  0.00     0.213 C 
ENDBRANCH  22  24
ENDBRANCH   1  22
TORSDOF 6
ENDMDL
MODEL 5
REMARK VINA RESULT: -7.111812135      1.357      5.277
REMARK  6 active torsions:
REMARK  status: ('A' for Active; 'I' for Inactive)
REMARK    1  A    between atoms: O1_2  and  C2_3 
REMARK    2  A    between atoms: C2_3  and  C3_5 
REMARK    3  A    between atoms: C12_15  and  O4_16 
REMARK    4  A    between atoms: C15_20  and  C16_21 
REMARK    5  A    between atoms: C16_21  and  O5_22 
REMARK    6  A    between atoms: O5_22  and  C17_23 
ROOT
HETATM    1  C3  UNL     1      -4.649   5.018  12.313  1.00  0.00     0.024 C 
HETATM    2  C4  UNL     1      -5.226   4.569  13.401  1.00  0.00    -0.065 C 
HETATM    3  C5  UNL     1      -6.255   5.397  14.049  1.00  0.00     0.044 C 
HETATM    4  C6  UNL     1      -4.896   3.259  14.021  1.00  0.00     0.037 C 
HETATM    5  C7  UNL     1      -4.926   3.185  15.518  1.00  0.00     0.060 C 
HETATM    6  C8  UNL     1      -6.071   2.362  16.007  1.00  0.00     0.018 C 
HETATM    7  C9  UNL     1      -3.625   2.426  15.381  1.00  0.00     0.136 C 
HETATM    8  O3  UNL     1      -3.102   1.538  16.000  1.00  0.00    -0.297 OA
HETATM    9  C10 UNL     1      -3.388   3.275  14.213  1.00  0.00     0.071 C 
HETATM   10  C11 UNL     1      -2.659   2.734  13.034  1.00  0.00     0.033 C 
HETATM   11  C12 UNL     1      -1.555   3.731  12.709  1.00  0.00     0.124 C 
HETATM   12  C13 UNL     1      -2.220   4.828  11.907  1.00  0.00     0.042 C 
HETATM   13  C14 UNL     1      -3.561   4.328  11.488  1.00  0.00     0.034 C 
HETATM   14  C15 UNL     1      -3.490   2.862  11.751  1.00  0.00     0.026 C 
ENDROOT
BRANCH  14  15
HETATM   15  C16 UNL     1      -2.634   2.260  10.635  1.00  0.00     0.184 C 
BRANCH  15  16
HETATM   16  O5  UNL     1      -2.562   0.844  10.866  1.00  0.00    -0.321 OA
BRANCH  16  17
HETATM   17  C17 UNL     1      -3.635   0.015  10.672  1.00  0.00     0.254 C 
HETATM   18  C18 UNL     1      -3.936  -1.091  11.618  1.00  0.00     0.126 C 
HETATM   19  O6  UNL     1      -4.378   0.192   9.676  1.00  0.00    -0.266 OA
ENDBRANCH  16  17
ENDBRANCH  15  16
ENDBRANCH  14  15
BRANCH  11  20
HETATM   20  O4  UNL     1      -1.095   4.345  13.892  1.00  0.00    -0.395 OA
ATOM     21  H4  UNL     1      -1.357   5.259  13.907  1.00  0.00     0.210 HD
ENDBRANCH  11  20
BRANCH   1  22
HETATM   22  C2  UNL     1      -5.050   6.305  11.798  1.00  0.00     0.289 C 
HETATM   23  O2  UNL     1      -4.287   7.303  12.113  1.00  0.00    -0.260 OA
BRANCH  22  24
HETATM   24  O1  UNL     1      -6.146   6.573  11.017  1.00  0.00    -0.323 OA
HETATM   25  C1  UNL     1      -6.935   7.721  11.272  1.00  0.00     0.213 C 
ENDBRANCH  22  24
ENDBRANCH   1  22
TORSDOF 6
ENDMDL
