MODEL 1
REMARK VINA RESULT: -7.555922582      0.000      0.000
REMARK  6 active torsions:
REMARK  status: ('A' for Active; 'I' for Inactive)
REMARK    1  A    between atoms: C2_2  and  O1_3 
REMARK    2  A    between atoms: O1_3  and  C3_4 
REMARK       I    between atoms: C3_4  and  N1_6 
REMARK    3  A    between atoms: C10_15  and  O4_16 
REMARK    4  A    between atoms: C11_18  and  C12_19 
REMARK    5  A    between atoms: C12_19  and  C13_20 
REMARK    6  A    between atoms: C13_20  and  O6_22 
ROOT
HETATM    1  C3  UNL     1      -5.125   1.284  15.058  1.00  0.00     0.369 C 
HETATM    2  O2  UNL     1      -4.770   0.120  14.744  1.00  0.00    -0.238 OA
HETATM    3  N1  UNL     1      -4.489   2.369  14.395  1.00  0.00    -0.258 N 
HETATM    4  C4  UNL     1      -4.900   3.695  14.759  1.00  0.00     0.233 C 
HETATM    5  O3  UNL     1      -6.058   3.837  15.225  1.00  0.00    -0.272 OA
HETATM    6  C5  UNL     1      -3.945   4.816  14.567  1.00  0.00     0.092 C 
HETATM    7  C6  UNL     1      -4.584   6.144  14.777  1.00  0.00     0.021 C 
HETATM    8  C7  UNL     1      -3.342   4.660  13.189  1.00  0.00     0.114 C 
HETATM    9  C8  UNL     1      -4.298   4.907  12.138  1.00  0.00     0.065 C 
HETATM   10  N2  UNL     1      -5.072   5.123  11.306  1.00  0.00    -0.197 NA
HETATM   11  C9  UNL     1      -2.649   3.349  13.097  1.00  0.00     0.057 C 
HETATM   12  C10 UNL     1      -2.143   3.047  11.709  1.00  0.00     0.130 C 
HETATM   13  C11 UNL     1      -3.162   2.133  11.072  1.00  0.00     0.026 C 
HETATM   14  C15 UNL     1      -4.099   1.669  12.140  1.00  0.00     0.034 C 
HETATM   15  C16 UNL     1      -3.480   2.161  13.405  1.00  0.00     0.106 C 
ENDROOT
BRANCH  12  16
HETATM   16  O4  UNL     1      -0.902   2.391  11.825  1.00  0.00    -0.395 OA
ATOM     17  H4  UNL     1      -0.736   1.926  11.013  1.00  0.00     0.210 HD
ENDBRANCH  12  16
BRANCH  13  18
HETATM   18  C12 UNL     1      -2.427   0.894  10.547  1.00  0.00     0.118 C 
BRANCH  18  19
HETATM   19  C13 UNL     1      -3.353  -0.258  10.447  1.00  0.00     0.258 C 
HETATM   20  O5  UNL     1      -4.089  -0.454   9.451  1.00  0.00    -0.265 OA
BRANCH  19  21
HETATM   21  O6  UNL     1      -3.401  -1.146  11.504  1.00  0.00    -0.326 OA
HETATM   22  C14 UNL     1      -2.930  -2.460  11.380  1.00  0.00     0.213 C 
ENDBRANCH  19  21
ENDBRANCH  18  19
ENDBRANCH  13  18
BRANCH   1  23
HETATM   23  O1  UNL     1      -6.095   1.429  16.011  1.00  0.00    -0.304 OA
BRANCH  23  24
HETATM   24  C2  UNL     1      -5.975   0.922  17.313  1.00  0.00     0.176 C 
HETATM   25  C1  UNL     1      -6.240   1.962  18.373  1.00  0.00     0.034 C 
ENDBRANCH  23  24
ENDBRANCH   1  23
TORSDOF 6
ENDMDL
MODEL 2
REMARK VINA RESULT: -7.479580672      2.325      5.011
REMARK  6 active torsions:
REMARK  status: ('A' for Active; 'I' for Inactive)
REMARK    1  A    between atoms: C2_2  and  O1_3 
REMARK    2  A    between atoms: O1_3  and  C3_4 
REMARK       I    between atoms: C3_4  and  N1_6 
REMARK    3  A    between atoms: C10_15  and  O4_16 
REMARK    4  A    between atoms: C11_18  and  C12_19 
REMARK    5  A    between atoms: C12_19  and  C13_20 
REMARK    6  A    between atoms: C13_20  and  O6_22 
ROOT
HETATM    1  C3  UNL     1      -5.157   2.212  14.838  1.00  0.00     0.369 C 
HETATM    2  O2  UNL     1      -5.374   3.400  15.186  1.00  0.00    -0.238 OA
HETATM    3  N1  UNL     1      -4.698   1.987  13.512  1.00  0.00    -0.258 N 
HETATM    4  C4  UNL     1      -4.454   0.627  13.122  1.00  0.00     0.233 C 
HETATM    5  O3  UNL     1      -4.180  -0.197  14.029  1.00  0.00    -0.272 OA
HETATM    6  C5  UNL     1      -4.537   0.272  11.683  1.00  0.00     0.092 C 
HETATM    7  C6  UNL     1      -4.046  -1.107  11.412  1.00  0.00     0.021 C 
HETATM    8  C7  UNL     1      -3.780   1.331  10.915  1.00  0.00     0.114 C 
HETATM    9  C8  UNL     1      -2.358   1.270  11.149  1.00  0.00     0.065 C 
HETATM   10  N2  UNL     1      -1.218   1.200  11.335  1.00  0.00    -0.197 NA
HETATM   11  C9  UNL     1      -4.391   2.661  11.171  1.00  0.00     0.057 C 
HETATM   12  C10 UNL     1      -3.608   3.796  10.560  1.00  0.00     0.130 C 
HETATM   13  C11 UNL     1      -2.768   4.383  11.669  1.00  0.00     0.026 C 
HETATM   14  C15 UNL     1      -3.246   3.809  12.964  1.00  0.00     0.034 C 
HETATM   15  C16 UNL     1      -4.483   3.061  12.595  1.00  0.00     0.106 C 
ENDROOT
BRANCH  12  16
HETATM   16  O4  UNL     1      -4.522   4.754  10.080  1.00  0.00    -0.395 OA
ATOM     17  H4  UNL     1      -4.537   5.482  10.690  1.00  0.00     0.210 HD
ENDBRANCH  12  16
BRANCH  13  18
HETATM   18  C12 UNL     1      -3.034   5.892  11.719  1.00  0.00     0.118 C 
BRANCH  18  19
HETATM   19  C13 UNL     1      -2.129   6.548  12.692  1.00  0.00     0.258 C 
HETATM   20  O5  UNL     1      -0.879   6.468  12.618  1.00  0.00    -0.265 OA
BRANCH  19  21
HETATM   21  O6  UNL     1      -2.697   7.275  13.719  1.00  0.00    -0.326 OA
HETATM   22  C14 UNL     1      -1.916   8.036  14.599  1.00  0.00     0.213 C 
ENDBRANCH  19  21
ENDBRANCH  18  19
ENDBRANCH  13  18
BRANCH   1  23
HETATM   23  O1  UNL     1      -5.378   1.220  15.754  1.00  0.00    -0.304 OA
BRANCH  23  24
HETATM   24  C2  UNL     1      -5.993   1.442  16.995  1.00  0.00     0.176 C 
HETATM   25  C1  UNL     1      -7.467   1.123  16.983  1.00  0.00     0.034 C 
ENDBRANCH  23  24
ENDBRANCH   1  23
TORSDOF 6
ENDMDL
MODEL 3
REMARK VINA RESULT: -7.432961146      1.613      5.503
REMARK  6 active torsions:
REMARK  status: ('A' for Active; 'I' for Inactive)
REMARK    1  A    between atoms: C2_2  and  O1_3 
REMARK    2  A    between atoms: O1_3  and  C3_4 
REMARK       I    between atoms: C3_4  and  N1_6 
REMARK    3  A    between atoms: C10_15  and  O4_16 
REMARK    4  A    between atoms: C11_18  and  C12_19 
REMARK    5  A    between atoms: C12_19  and  C13_20 
REMARK    6  A    between atoms: C13_20  and  O6_22 
ROOT
HETATM    1  C3  UNL     1      -4.390   1.326  11.140  1.00  0.00     0.369 C 
HETATM    2  O2  UNL     1      -5.483   0.774  11.418  1.00  0.00    -0.238 OA
HETATM    3  N1  UNL     1      -4.048   2.509  11.852  1.00  0.00    -0.258 N 
HETATM    4  C4  UNL     1      -2.797   3.134  11.528  1.00  0.00     0.233 C 
HETATM    5  O3  UNL     1      -1.892   2.407  11.048  1.00  0.00    -0.272 OA
HETATM    6  C5  UNL     1      -2.642   4.589  11.777  1.00  0.00     0.092 C 
HETATM    7  C6  UNL     1      -1.235   5.045  11.603  1.00  0.00     0.021 C 
HETATM    8  C7  UNL     1      -3.188   4.870  13.158  1.00  0.00     0.114 C 
HETATM    9  C8  UNL     1      -2.366   4.306  14.200  1.00  0.00     0.065 C 
HETATM   10  N2  UNL     1      -1.689   3.861  15.026  1.00  0.00    -0.197 NA
HETATM   11  C9  UNL     1      -4.618   4.470  13.216  1.00  0.00     0.057 C 
HETATM   12  C10 UNL     1      -5.204   4.578  14.601  1.00  0.00     0.130 C 
HETATM   13  C11 UNL     1      -5.177   3.187  15.187  1.00  0.00     0.026 C 
HETATM   14  C15 UNL     1      -4.855   2.227  14.087  1.00  0.00     0.034 C 
HETATM   15  C16 UNL     1      -4.906   3.062  12.852  1.00  0.00     0.106 C 
ENDROOT
BRANCH  12  16
HETATM   16  O4  UNL     1      -6.532   5.033  14.484  1.00  0.00    -0.395 OA
ATOM     17  H4  UNL     1      -6.998   4.798  15.278  1.00  0.00     0.210 HD
ENDBRANCH  12  16
BRANCH  13  18
HETATM   18  C12 UNL     1      -6.590   2.851  15.681  1.00  0.00     0.118 C 
BRANCH  18  19
HETATM   19  C13 UNL     1      -6.563   1.662  16.564  1.00  0.00     0.258 C 
HETATM   20  O5  UNL     1      -7.233   0.628  16.331  1.00  0.00    -0.265 OA
BRANCH  19  21
HETATM   21  O6  UNL     1      -5.764   1.707  17.689  1.00  0.00    -0.326 OA
HETATM   22  C14 UNL     1      -6.256   2.160  18.921  1.00  0.00     0.213 C 
ENDBRANCH  19  21
ENDBRANCH  18  19
ENDBRANCH  13  18
BRANCH   1  23
HETATM   23  O1  UNL     1      -3.604   0.757  10.176  1.00  0.00    -0.304 OA
BRANCH  23  24
HETATM   24  C2  UNL     1      -3.445  -0.630  10.034  1.00  0.00     0.176 C 
HETATM   25  C1  UNL     1      -3.009  -1.302  11.311  1.00  0.00     0.034 C 
ENDBRANCH  23  24
ENDBRANCH   1  23
TORSDOF 6
ENDMDL
MODEL 4
REMARK VINA RESULT: -7.379016961      3.149      6.008
REMARK  6 active torsions:
REMARK  status: ('A' for Active; 'I' for Inactive)
REMARK    1  A    between atoms: C2_2  and  O1_3 
REMARK    2  A    between atoms: O1_3  and  C3_4 
REMARK       I    between atoms: C3_4  and  N1_6 
REMARK    3  A    between atoms: C10_15  and  O4_16 
REMARK    4  A    between atoms: C11_18  and  C12_19 
REMARK    5  A    between atoms: C12_19  and  C13_20 
REMARK    6  A    between atoms: C13_20  and  O6_22 
ROOT
HETATM    1  C3  UNL     1      -5.196   5.924  10.373  1.00  0.00     0.369 C 
HETATM    2  O2  UNL     1      -5.803   6.234  11.429  1.00  0.00    -0.238 OA
HETATM    3  N1  UNL     1      -3.974   5.208  10.499  1.00  0.00    -0.258 N 
HETATM    4  C4  UNL     1      -3.287   4.859   9.288  1.00  0.00     0.233 C 
HETATM    5  O3  UNL     1      -3.974   4.747   8.243  1.00  0.00    -0.272 OA
HETATM    6  C5  UNL     1      -1.818   4.650   9.338  1.00  0.00     0.092 C 
HETATM    7  C6  UNL     1      -1.286   4.081   8.068  1.00  0.00     0.021 C 
HETATM    8  C7  UNL     1      -1.527   3.783  10.541  1.00  0.00     0.114 C 
HETATM    9  C8  UNL     1      -2.009   2.434  10.378  1.00  0.00     0.065 C 
HETATM   10  N2  UNL     1      -2.388   1.351  10.227  1.00  0.00    -0.197 NA
HETATM   11  C9  UNL     1      -2.009   4.465  11.771  1.00  0.00     0.057 C 
HETATM   12  C10 UNL     1      -1.892   3.606  13.004  1.00  0.00     0.130 C 
HETATM   13  C11 UNL     1      -3.260   3.015  13.246  1.00  0.00     0.026 C 
HETATM   14  C15 UNL     1      -4.233   3.723  12.358  1.00  0.00     0.034 C 
HETATM   15  C16 UNL     1      -3.442   4.845  11.775  1.00  0.00     0.106 C 
ENDROOT
BRANCH  12  16
HETATM   16  O4  UNL     1      -1.519   4.433  14.083  1.00  0.00    -0.395 OA
ATOM     17  H4  UNL     1      -2.269   4.525  14.659  1.00  0.00     0.210 HD
ENDBRANCH  12  16
BRANCH  13  18
HETATM   18  C12 UNL     1      -3.663   3.323  14.693  1.00  0.00     0.118 C 
BRANCH  18  19
HETATM   19  C13 UNL     1      -3.906   2.068  15.444  1.00  0.00     0.258 C 
HETATM   20  O5  UNL     1      -3.002   1.468  16.072  1.00  0.00    -0.265 OA
BRANCH  19  21
HETATM   21  O6  UNL     1      -5.185   1.549  15.442  1.00  0.00    -0.326 OA
HETATM   22  C14 UNL     1      -5.718   0.907  16.569  1.00  0.00     0.213 C 
ENDBRANCH  19  21
ENDBRANCH  18  19
ENDBRANCH  13  18
BRANCH   1  23
HETATM   23  O1  UNL     1      -5.748   6.295   9.178  1.00  0.00    -0.304 OA
BRANCH  23  24
HETATM   24  C2  UNL     1      -6.725   7.294   9.059  1.00  0.00     0.176 C 
HETATM   25  C1  UNL     1      -7.864   6.895   8.154  1.00  0.00     0.034 C 
ENDBRANCH  23  24
ENDBRANCH   1  23
TORSDOF 6
ENDMDL
MODEL 5
REMARK VINA RESULT: -7.327193397      2.518      5.031
REMARK  6 active torsions:
REMARK  status: ('A' for Active; 'I' for Inactive)
REMARK    1  A    between atoms: C2_2  and  O1_3 
REMARK    2  A    between atoms: O1_3  and  C3_4 
REMARK       I    between atoms: C3_4  and  N1_6 
REMARK    3  A    between atoms: C10_15  and  O4_16 
REMARK    4  A    between atoms: C11_18  and  C12_19 
REMARK    5  A    between atoms: C12_19  and  C13_20 
REMARK    6  A    between atoms: C13_20  and  O6_22 
ROOT
HETATM    1  C3  UNL     1      -3.407   0.775  11.642  1.00  0.00     0.369 C 
HETATM    2  O2  UNL     1      -3.007   1.132  10.506  1.00  0.00    -0.238 OA
HETATM    3  N1  UNL     1      -3.588   1.786  12.626  1.00  0.00    -0.258 N 
HETATM    4  C4  UNL     1      -4.044   1.370  13.921  1.00  0.00     0.233 C 
HETATM    5  O3  UNL     1      -4.704   0.303  13.990  1.00  0.00    -0.272 OA
HETATM    6  C5  UNL     1      -3.715   2.214  15.098  1.00  0.00     0.092 C 
HETATM    7  C6  UNL     1      -4.437   1.777  16.325  1.00  0.00     0.021 C 
HETATM    8  C7  UNL     1      -4.007   3.647  14.718  1.00  0.00     0.114 C 
HETATM    9  C8  UNL     1      -5.419   3.899  14.563  1.00  0.00     0.065 C 
HETATM   10  N2  UNL     1      -6.555   4.090  14.456  1.00  0.00    -0.197 NA
HETATM   11  C9  UNL     1      -3.181   4.027  13.543  1.00  0.00     0.057 C 
HETATM   12  C10 UNL     1      -3.516   5.395  13.005  1.00  0.00     0.130 C 
HETATM   13  C11 UNL     1      -4.429   5.178  11.822  1.00  0.00     0.026 C 
HETATM   14  C15 UNL     1      -4.409   3.722  11.484  1.00  0.00     0.034 C 
HETATM   15  C16 UNL     1      -3.329   3.163  12.347  1.00  0.00     0.106 C 
ENDROOT
BRANCH  12  16
HETATM   16  O4  UNL     1      -2.318   6.012  12.591  1.00  0.00    -0.395 OA
ATOM     17  H4  UNL     1      -1.669   5.888  13.274  1.00  0.00     0.210 HD
ENDBRANCH  12  16
BRANCH  13  18
HETATM   18  C12 UNL     1      -3.839   5.928  10.622  1.00  0.00     0.118 C 
BRANCH  18  19
HETATM   19  C13 UNL     1      -4.792   5.926   9.487  1.00  0.00     0.258 C 
HETATM   20  O5  UNL     1      -4.431   5.753   8.298  1.00  0.00    -0.265 OA
BRANCH  19  21
HETATM   21  O6  UNL     1      -6.129   6.123   9.763  1.00  0.00    -0.326 OA
HETATM   22  C14 UNL     1      -6.924   6.971   8.978  1.00  0.00     0.213 C 
ENDBRANCH  19  21
ENDBRANCH  18  19
ENDBRANCH  13  18
BRANCH   1  23
HETATM   23  O1  UNL     1      -3.641  -0.556  11.857  1.00  0.00    -0.304 OA
BRANCH  23  24
HETATM   24  C2  UNL     1      -3.394  -1.545  10.893  1.00  0.00     0.176 C 
HETATM   25  C1  UNL     1      -2.788  -2.795  11.480  1.00  0.00     0.034 C 
ENDBRANCH  23  24
ENDBRANCH   1  23
TORSDOF 6
ENDMDL
