MODEL 1
REMARK VINA RESULT: -4.334057279      0.000      0.000
REMARK  1 active torsions:
REMARK  status: ('A' for Active; 'I' for Inactive)
REMARK    1  A    between atoms: N1_4  and  C4_5 
ROOT
HETATM    1  C4  UNL     1       0.397  11.976   2.394  1.00  0.00     0.082 C 
HETATM    2  C5  UNL     1       0.086  12.488   1.018  1.00  0.00     0.044 C 
HETATM    3  C6  UNL     1       0.915  13.683   0.633  1.00  0.00     0.115 C 
HETATM    4  N2  UNL     1       1.108  14.619   1.700  1.00  0.00    -0.421 N 
ATOM      5  H2  UNL     1       0.976  15.622   1.576  1.00  0.00     0.153 HD
HETATM    6  C7  UNL     1       1.500  14.046   2.955  1.00  0.00     0.115 C 
HETATM    7  C8  UNL     1       0.370  13.134   3.401  1.00  0.00     0.044 C 
ENDROOT
BRANCH   1   8
HETATM    8  N1  UNL     1      -0.503  10.954   2.769  1.00  0.00    -0.408 N 
HETATM    9  C3  UNL     1      -1.238  10.328   1.732  1.00  0.00     0.117 C 
HETATM   10  C2  UNL     1      -2.380   9.525   2.366  1.00  0.00     0.019 C 
HETATM   11  C1  UNL     1      -1.815   8.485   3.313  1.00  0.00     0.003 C 
HETATM   12  C10 UNL     1      -0.301   8.677   3.458  1.00  0.00     0.019 C 
HETATM   13  C9  UNL     1      -0.104  10.125   3.850  1.00  0.00     0.117 C 
ENDBRANCH   1   8
TORSDOF 1
ENDMDL
MODEL 2
REMARK VINA RESULT: -4.300478947      4.107      7.167
REMARK  1 active torsions:
REMARK  status: ('A' for Active; 'I' for Inactive)
REMARK    1  A    between atoms: N1_4  and  C4_5 
ROOT
HETATM    1  C4  UNL     1       0.808  14.000  -1.826  1.00  0.00     0.082 C 
HETATM    2  C5  UNL     1       0.232  12.620  -1.953  1.00  0.00     0.044 C 
HETATM    3  C6  UNL     1      -0.464  12.156  -0.704  1.00  0.00     0.115 C 
HETATM    4  N2  UNL     1       0.213  12.521   0.505  1.00  0.00    -0.421 N 
ATOM      5  H2  UNL     1       0.379  11.856   1.260  1.00  0.00     0.153 HD
HETATM    6  C7  UNL     1       0.642  13.887   0.578  1.00  0.00     0.115 C 
HETATM    7  C8  UNL     1       1.645  14.100  -0.543  1.00  0.00     0.044 C 
ENDROOT
BRANCH   1   8
HETATM    8  N1  UNL     1       1.577  14.335  -2.962  1.00  0.00    -0.408 N 
HETATM    9  C3  UNL     1       1.392  13.543  -4.123  1.00  0.00     0.117 C 
HETATM   10  C2  UNL     1       2.541  13.834  -5.095  1.00  0.00     0.019 C 
HETATM   11  C1  UNL     1       2.549  15.305  -5.458  1.00  0.00     0.003 C 
HETATM   12  C10 UNL     1       1.513  16.058  -4.614  1.00  0.00     0.019 C 
HETATM   13  C9  UNL     1       1.827  15.716  -3.173  1.00  0.00     0.117 C 
ENDBRANCH   1   8
TORSDOF 1
ENDMDL
MODEL 3
REMARK VINA RESULT: -4.252062188      1.842      4.689
REMARK  1 active torsions:
REMARK  status: ('A' for Active; 'I' for Inactive)
REMARK    1  A    between atoms: N1_4  and  C4_5 
ROOT
HETATM    1  C4  UNL     1      -0.298  12.303   1.406  1.00  0.00     0.082 C 
HETATM    2  C5  UNL     1      -0.825  10.899   1.474  1.00  0.00     0.044 C 
HETATM    3  C6  UNL     1      -1.269  10.502   2.855  1.00  0.00     0.115 C 
HETATM    4  N2  UNL     1      -0.406  10.975   3.896  1.00  0.00    -0.421 N 
ATOM      5  H2  UNL     1      -0.080  10.371   4.651  1.00  0.00     0.153 HD
HETATM    6  C7  UNL     1      -0.033  12.356   3.804  1.00  0.00     0.115 C 
HETATM    7  C8  UNL     1       0.746  12.522   2.510  1.00  0.00     0.044 C 
ENDROOT
BRANCH   1   8
HETATM    8  N1  UNL     1       0.242  12.581   0.132  1.00  0.00    -0.408 N 
HETATM    9  C3  UNL     1      -0.578  12.307  -0.991  1.00  0.00     0.117 C 
HETATM   10  C2  UNL     1       0.298  12.339  -2.248  1.00  0.00     0.019 C 
HETATM   11  C1  UNL     1       0.947  13.701  -2.391  1.00  0.00     0.003 C 
HETATM   12  C10 UNL     1       0.653  14.552  -1.150  1.00  0.00     0.019 C 
HETATM   13  C9  UNL     1       1.085  13.719   0.036  1.00  0.00     0.117 C 
ENDBRANCH   1   8
TORSDOF 1
ENDMDL
MODEL 4
REMARK VINA RESULT: -4.218003912      0.614      1.542
REMARK  1 active torsions:
REMARK  status: ('A' for Active; 'I' for Inactive)
REMARK    1  A    between atoms: N1_4  and  C4_5 
ROOT
HETATM    1  C4  UNL     1      -0.386  12.365   2.072  1.00  0.00     0.082 C 
HETATM    2  C5  UNL     1       0.635  12.849   3.060  1.00  0.00     0.044 C 
HETATM    3  C6  UNL     1       1.274  14.150   2.656  1.00  0.00     0.115 C 
HETATM    4  N2  UNL     1       1.558  14.243   1.255  1.00  0.00    -0.421 N 
ATOM      5  H2  UNL     1       2.458  14.566   0.901  1.00  0.00     0.153 HD
HETATM    6  C7  UNL     1       0.488  13.852   0.385  1.00  0.00     0.115 C 
HETATM    7  C8  UNL     1       0.207  12.384   0.656  1.00  0.00     0.044 C 
ENDROOT
BRANCH   1   8
HETATM    8  N1  UNL     1      -0.849  11.075   2.413  1.00  0.00    -0.408 N 
HETATM    9  C3  UNL     1      -1.281  10.242   1.350  1.00  0.00     0.117 C 
HETATM   10  C2  UNL     1      -2.055   9.061   1.946  1.00  0.00     0.019 C 
HETATM   11  C1  UNL     1      -1.162   8.285   2.894  1.00  0.00     0.003 C 
HETATM   12  C10 UNL     1       0.170   9.022   3.079  1.00  0.00     0.019 C 
HETATM   13  C9  UNL     1      -0.191  10.431   3.493  1.00  0.00     0.117 C 
ENDBRANCH   1   8
TORSDOF 1
ENDMDL
MODEL 5
REMARK VINA RESULT: -4.185343535      3.313      6.626
REMARK  1 active torsions:
REMARK  status: ('A' for Active; 'I' for Inactive)
REMARK    1  A    between atoms: N1_4  and  C4_5 
ROOT
HETATM    1  C4  UNL     1       0.779  13.157  -1.109  1.00  0.00     0.082 C 
HETATM    2  C5  UNL     1       0.897  13.826   0.230  1.00  0.00     0.044 C 
HETATM    3  C6  UNL     1       0.610  12.898   1.379  1.00  0.00     0.115 C 
HETATM    4  N2  UNL     1      -0.481  12.002   1.139  1.00  0.00    -0.421 N 
ATOM      5  H2  UNL     1      -1.223  11.851   1.822  1.00  0.00     0.153 HD
HETATM    6  C7  UNL     1      -0.458  11.332  -0.129  1.00  0.00     0.115 C 
HETATM    7  C8  UNL     1      -0.556  12.404  -1.201  1.00  0.00     0.044 C 
ENDROOT
BRANCH   1   8
HETATM    8  N1  UNL     1       0.908  14.094  -2.157  1.00  0.00    -0.408 N 
HETATM    9  C3  UNL     1       1.581  15.306  -1.860  1.00  0.00     0.117 C 
HETATM   10  C2  UNL     1       1.306  16.301  -2.993  1.00  0.00     0.019 C 
HETATM   11  C1  UNL     1       1.801  15.734  -4.308  1.00  0.00     0.003 C 
HETATM   12  C10 UNL     1       2.265  14.286  -4.112  1.00  0.00     0.019 C 
HETATM   13  C9  UNL     1       1.106  13.565  -3.459  1.00  0.00     0.117 C 
ENDBRANCH   1   8
TORSDOF 1
ENDMDL
