MODEL 1
REMARK VINA RESULT: -3.949729719      0.000      0.000
REMARK  1 active torsions:
REMARK  status: ('A' for Active; 'I' for Inactive)
REMARK    1  A    between atoms: C5_5  and  C6_6 
ROOT
HETATM    1  C1  UNL     1       1.062  14.177  -6.178  1.00  0.00     0.012 C 
HETATM    2  C2  UNL     1       2.000  14.617  -5.041  1.00  0.00     0.010 C 
HETATM    3  C3  UNL     1       1.866  16.076  -4.886  1.00  0.00     0.010 C 
HETATM    4  C4  UNL     1       1.309  16.569  -3.591  1.00  0.00     0.041 C 
HETATM    5  C5  UNL     1       1.494  15.613  -2.446  1.00  0.00     0.210 C 
HETATM    6  O2  UNL     1       1.160  14.353  -2.790  1.00  0.00    -0.372 OA
HETATM    7  C7  UNL     1       1.822  13.781  -3.829  1.00  0.00     0.122 C 
HETATM    8  C8  UNL     1       1.094  12.460  -4.141  1.00  0.00     0.040 C 
ENDROOT
BRANCH   5   9
HETATM    9  C6  UNL     1       2.829  15.799  -1.861  1.00  0.00     0.260 C 
HETATM   10  N1  UNL     1       3.298  17.131  -1.683  1.00  0.00    -0.060 NA
HETATM   11  O1  UNL     1       3.598  14.886  -1.500  1.00  0.00    -0.274 OA
ENDBRANCH   5   9
TORSDOF 1
ENDMDL
MODEL 2
REMARK VINA RESULT: -3.801707187      2.592      3.888
REMARK  1 active torsions:
REMARK  status: ('A' for Active; 'I' for Inactive)
REMARK    1  A    between atoms: C5_5  and  C6_6 
ROOT
HETATM    1  C1  UNL     1       1.212  13.888  -2.435  1.00  0.00     0.012 C 
HETATM    2  C2  UNL     1       2.134  14.290  -3.600  1.00  0.00     0.010 C 
HETATM    3  C3  UNL     1       1.958  13.297  -4.675  1.00  0.00     0.010 C 
HETATM    4  C4  UNL     1       1.384  13.791  -5.961  1.00  0.00     0.041 C 
HETATM    5  C5  UNL     1       1.591  15.261  -6.197  1.00  0.00     0.210 C 
HETATM    6  O2  UNL     1       1.293  15.988  -5.101  1.00  0.00    -0.372 OA
HETATM    7  C7  UNL     1       1.975  15.719  -3.957  1.00  0.00     0.122 C 
HETATM    8  C8  UNL     1       1.284  16.521  -2.836  1.00  0.00     0.040 C 
ENDROOT
BRANCH   5   9
HETATM    9  C6  UNL     1       2.918  15.481  -6.788  1.00  0.00     0.260 C 
HETATM   10  N1  UNL     1       3.305  16.821  -7.075  1.00  0.00    -0.060 NA
HETATM   11  O1  UNL     1       3.747  14.591  -7.063  1.00  0.00    -0.274 OA
ENDBRANCH   5   9
TORSDOF 1
ENDMDL
MODEL 3
REMARK VINA RESULT: -3.489498529      8.321      9.398
REMARK  1 active torsions:
REMARK  status: ('A' for Active; 'I' for Inactive)
REMARK    1  A    between atoms: C5_5  and  C6_6 
ROOT
HETATM    1  C1  UNL     1      -0.578  11.639   0.815  1.00  0.00     0.012 C 
HETATM    2  C2  UNL     1      -1.179  10.730   1.902  1.00  0.00     0.010 C 
HETATM    3  C3  UNL     1      -1.208   9.355   1.372  1.00  0.00     0.010 C 
HETATM    4  C4  UNL     1      -0.359   8.345   2.072  1.00  0.00     0.041 C 
HETATM    5  C5  UNL     1      -0.055   8.692   3.503  1.00  0.00     0.210 C 
HETATM    6  O2  UNL     1       0.331   9.977   3.632  1.00  0.00    -0.372 OA
HETATM    7  C7  UNL     1      -0.529  10.943   3.216  1.00  0.00     0.122 C 
HETATM    8  C8  UNL     1       0.246  12.274   3.268  1.00  0.00     0.040 C 
ENDROOT
BRANCH   5   9
HETATM    9  C6  UNL     1      -1.162   8.251   4.361  1.00  0.00     0.260 C 
HETATM   10  N1  UNL     1      -0.926   8.168   5.763  1.00  0.00    -0.060 NA
HETATM   11  O1  UNL     1      -2.305   7.939   3.970  1.00  0.00    -0.274 OA
ENDBRANCH   5   9
TORSDOF 1
ENDMDL
MODEL 4
REMARK VINA RESULT: -3.481927011      2.616      3.946
REMARK  1 active torsions:
REMARK  status: ('A' for Active; 'I' for Inactive)
REMARK    1  A    between atoms: C5_5  and  C6_6 
ROOT
HETATM    1  C1  UNL     1       2.122  16.880  -2.718  1.00  0.00     0.012 C 
HETATM    2  C2  UNL     1       1.374  15.909  -3.648  1.00  0.00     0.010 C 
HETATM    3  C3  UNL     1       1.827  16.168  -5.026  1.00  0.00     0.010 C 
HETATM    4  C4  UNL     1       2.558  15.063  -5.715  1.00  0.00     0.041 C 
HETATM    5  C5  UNL     1       2.247  13.696  -5.172  1.00  0.00     0.210 C 
HETATM    6  O2  UNL     1       2.282  13.675  -3.824  1.00  0.00    -0.372 OA
HETATM    7  C7  UNL     1       1.447  14.513  -3.155  1.00  0.00     0.122 C 
HETATM    8  C8  UNL     1       1.854  14.445  -1.671  1.00  0.00     0.040 C 
ENDROOT
BRANCH   5   9
HETATM    9  C6  UNL     1       1.024  13.183  -5.804  1.00  0.00     0.260 C 
HETATM   10  N1  UNL     1       0.457  11.985  -5.284  1.00  0.00    -0.060 NA
HETATM   11  O1  UNL     1       0.428  13.709  -6.765  1.00  0.00    -0.274 OA
ENDBRANCH   5   9
TORSDOF 1
ENDMDL
MODEL 5
REMARK VINA RESULT: -3.322942608      3.170      4.324
REMARK  1 active torsions:
REMARK  status: ('A' for Active; 'I' for Inactive)
REMARK    1  A    between atoms: C5_5  and  C6_6 
ROOT
HETATM    1  C1  UNL     1       1.770  16.476  -3.343  1.00  0.00     0.012 C 
HETATM    2  C2  UNL     1       1.464  15.748  -4.663  1.00  0.00     0.010 C 
HETATM    3  C3  UNL     1       2.252  16.396  -5.727  1.00  0.00     0.010 C 
HETATM    4  C4  UNL     1       3.297  15.564  -6.394  1.00  0.00     0.041 C 
HETATM    5  C5  UNL     1       3.039  14.085  -6.317  1.00  0.00     0.210 C 
HETATM    6  O2  UNL     1       2.689  13.704  -5.072  1.00  0.00    -0.372 OA
HETATM    7  C7  UNL     1       1.588  14.278  -4.519  1.00  0.00     0.122 C 
HETATM    8  C8  UNL     1       1.559  13.838  -3.043  1.00  0.00     0.040 C 
ENDROOT
BRANCH   5   9
HETATM    9  C6  UNL     1       2.132  13.688  -7.403  1.00  0.00     0.260 C 
HETATM   10  N1  UNL     1       1.724  12.325  -7.465  1.00  0.00    -0.060 NA
HETATM   11  O1  UNL     1       1.680  14.444  -8.286  1.00  0.00    -0.274 OA
ENDBRANCH   5   9
TORSDOF 1
ENDMDL
