MODEL 1
REMARK VINA RESULT: -4.510806312      0.000      0.000
REMARK  2 active torsions:
REMARK  status: ('A' for Active; 'I' for Inactive)
REMARK    1  A    between atoms: N1_2  and  C3_4 
REMARK    2  A    between atoms: C6_7  and  O1_8 
ROOT
HETATM    1  C3  UNL     1       2.066  14.878  -4.289  1.00  0.00     0.083 C 
HETATM    2  C4  UNL     1       1.482  16.277  -4.154  1.00  0.00     0.033 C 
HETATM    3  C5  UNL     1       1.543  16.479  -2.659  1.00  0.00     0.021 C 
HETATM    4  C6  UNL     1       3.033  16.367  -2.293  1.00  0.00     0.127 C 
HETATM    5  C7  UNL     1       3.057  14.883  -1.999  1.00  0.00     0.022 C 
HETATM    6  C8  UNL     1       1.942  14.798  -0.961  1.00  0.00     0.013 C 
HETATM    7  C9  UNL     1       1.065  15.150  -2.168  1.00  0.00    -0.001 C 
HETATM    8  C10 UNL     1       2.045  14.266  -2.951  1.00  0.00     0.019 C 
ENDROOT
BRANCH   1   9
HETATM    9  N1  UNL     1       1.456  14.216  -5.341  1.00  0.00    -0.416 N 
HETATM   10  C1  UNL     1       1.134  12.845  -5.180  1.00  0.00     0.143 C 
HETATM   11  C2  UNL     1       1.551  14.702  -6.650  1.00  0.00     0.143 C 
ENDBRANCH   1   9
BRANCH   4  12
HETATM   12  O1  UNL     1       3.303  17.115  -1.128  1.00  0.00    -0.395 OA
ATOM     13  H1  UNL     1       3.533  16.533  -0.413  1.00  0.00     0.210 HD
ENDBRANCH   4  12
TORSDOF 2
ENDMDL
MODEL 2
REMARK VINA RESULT: -3.755393493      2.635      4.599
REMARK  2 active torsions:
REMARK  status: ('A' for Active; 'I' for Inactive)
REMARK    1  A    between atoms: N1_2  and  C3_4 
REMARK    2  A    between atoms: C6_7  and  O1_8 
ROOT
HETATM    1  C3  UNL     1       2.121  15.027  -4.594  1.00  0.00     0.083 C 
HETATM    2  C4  UNL     1       1.456  13.929  -5.409  1.00  0.00     0.033 C 
HETATM    3  C5  UNL     1       1.613  14.466  -6.812  1.00  0.00     0.021 C 
HETATM    4  C6  UNL     1       3.130  14.598  -7.029  1.00  0.00     0.127 C 
HETATM    5  C7  UNL     1       3.276  16.031  -6.564  1.00  0.00     0.022 C 
HETATM    6  C8  UNL     1       2.250  16.710  -7.466  1.00  0.00     0.013 C 
HETATM    7  C9  UNL     1       1.264  15.905  -6.610  1.00  0.00    -0.001 C 
HETATM    8  C10 UNL     1       2.241  16.206  -5.465  1.00  0.00     0.019 C 
ENDROOT
BRANCH   1   9
HETATM    9  N1  UNL     1       1.482  15.156  -3.372  1.00  0.00    -0.416 N 
HETATM   10  C1  UNL     1       1.264  16.459  -2.858  1.00  0.00     0.143 C 
HETATM   11  C2  UNL     1       1.449  14.095  -2.461  1.00  0.00     0.143 C 
ENDBRANCH   1   9
BRANCH   4  12
HETATM   12  O1  UNL     1       3.435  14.481  -8.402  1.00  0.00    -0.395 OA
ATOM     13  H1  UNL     1       4.124  13.840  -8.530  1.00  0.00     0.210 HD
ENDBRANCH   4  12
TORSDOF 2
ENDMDL
MODEL 3
REMARK VINA RESULT: -3.539032796      2.574      4.336
REMARK  2 active torsions:
REMARK  status: ('A' for Active; 'I' for Inactive)
REMARK    1  A    between atoms: N1_2  and  C3_4 
REMARK    2  A    between atoms: C6_7  and  O1_8 
ROOT
HETATM    1  C3  UNL     1       2.387  14.618  -3.966  1.00  0.00     0.083 C 
HETATM    2  C4  UNL     1       1.510  13.595  -4.673  1.00  0.00     0.033 C 
HETATM    3  C5  UNL     1       1.398  14.205  -6.050  1.00  0.00     0.021 C 
HETATM    4  C6  UNL     1       2.842  14.287  -6.577  1.00  0.00     0.127 C 
HETATM    5  C7  UNL     1       3.155  15.684  -6.086  1.00  0.00     0.022 C 
HETATM    6  C8  UNL     1       1.999  16.454  -6.718  1.00  0.00     0.013 C 
HETATM    7  C9  UNL     1       1.173  15.643  -5.711  1.00  0.00    -0.001 C 
HETATM    8  C10 UNL     1       2.382  15.838  -4.786  1.00  0.00     0.019 C 
ENDROOT
BRANCH   1   9
HETATM    9  N1  UNL     1       2.024  14.702  -2.632  1.00  0.00    -0.416 N 
HETATM   10  C1  UNL     1       2.918  15.330  -1.728  1.00  0.00     0.143 C 
HETATM   11  C2  UNL     1       1.068  13.837  -2.090  1.00  0.00     0.143 C 
ENDBRANCH   1   9
BRANCH   4  12
HETATM   12  O1  UNL     1       2.846  14.236  -7.987  1.00  0.00    -0.395 OA
ATOM     13  H1  UNL     1       3.539  13.662  -8.291  1.00  0.00     0.210 HD
ENDBRANCH   4  12
TORSDOF 2
ENDMDL
MODEL 4
REMARK VINA RESULT: -3.511425550      7.899      9.435
REMARK  2 active torsions:
REMARK  status: ('A' for Active; 'I' for Inactive)
REMARK    1  A    between atoms: N1_2  and  C3_4 
REMARK    2  A    between atoms: C6_7  and  O1_8 
ROOT
HETATM    1  C3  UNL     1      -0.667  10.706   3.015  1.00  0.00     0.083 C 
HETATM    2  C4  UNL     1      -1.272   9.978   1.823  1.00  0.00     0.033 C 
HETATM    3  C5  UNL     1      -1.154   8.539   2.265  1.00  0.00     0.021 C 
HETATM    4  C6  UNL     1      -1.977   8.443   3.562  1.00  0.00     0.127 C 
HETATM    5  C7  UNL     1      -0.855   8.736   4.534  1.00  0.00     0.022 C 
HETATM    6  C8  UNL     1       0.149   7.668   4.112  1.00  0.00     0.013 C 
HETATM    7  C9  UNL     1       0.224   8.527   2.843  1.00  0.00    -0.001 C 
HETATM    8  C10 UNL     1       0.063   9.708   3.810  1.00  0.00     0.019 C 
ENDROOT
BRANCH   1   9
HETATM    9  N1  UNL     1      -0.000  11.840   2.581  1.00  0.00    -0.416 N 
HETATM   10  C1  UNL     1       0.351  12.823   3.540  1.00  0.00     0.143 C 
HETATM   11  C2  UNL     1      -0.059  12.242   1.243  1.00  0.00     0.143 C 
ENDBRANCH   1   9
BRANCH   4  12
HETATM   12  O1  UNL     1      -2.461   7.129   3.733  1.00  0.00    -0.395 OA
ATOM     13  H1  UNL     1      -1.738   6.534   3.896  1.00  0.00     0.210 HD
ENDBRANCH   4  12
TORSDOF 2
ENDMDL
MODEL 5
REMARK VINA RESULT: -3.508074987      1.316      2.213
REMARK  2 active torsions:
REMARK  status: ('A' for Active; 'I' for Inactive)
REMARK    1  A    between atoms: N1_2  and  C3_4 
REMARK    2  A    between atoms: C6_7  and  O1_8 
ROOT
HETATM    1  C3  UNL     1       1.454  14.966  -4.790  1.00  0.00     0.083 C 
HETATM    2  C4  UNL     1       2.073  13.751  -4.114  1.00  0.00     0.033 C 
HETATM    3  C5  UNL     1       2.457  14.326  -2.771  1.00  0.00     0.021 C 
HETATM    4  C6  UNL     1       1.137  14.809  -2.143  1.00  0.00     0.127 C 
HETATM    5  C7  UNL     1       1.178  16.231  -2.659  1.00  0.00     0.022 C 
HETATM    6  C8  UNL     1       2.546  16.663  -2.141  1.00  0.00     0.013 C 
HETATM    7  C9  UNL     1       3.037  15.643  -3.176  1.00  0.00    -0.001 C 
HETATM    8  C10 UNL     1       1.857  16.149  -4.016  1.00  0.00     0.019 C 
ENDROOT
BRANCH   1   9
HETATM    9  N1  UNL     1       1.719  14.929  -6.150  1.00  0.00    -0.416 N 
HETATM   10  C1  UNL     1       2.731  14.054  -6.616  1.00  0.00     0.143 C 
HETATM   11  C2  UNL     1       1.358  15.993  -6.982  1.00  0.00     0.143 C 
ENDBRANCH   1   9
BRANCH   4  12
HETATM   12  O1  UNL     1       1.232  14.781  -0.736  1.00  0.00    -0.395 OA
ATOM     13  H1  UNL     1       0.573  15.348  -0.353  1.00  0.00     0.210 HD
ENDBRANCH   4  12
TORSDOF 2
ENDMDL
