MODEL 1
REMARK VINA RESULT: -4.560821784      0.000      0.000
REMARK  3 active torsions:
REMARK  status: ('A' for Active; 'I' for Inactive)
REMARK    1  A    between atoms: C2_2  and  C3_4 
REMARK    2  A    between atoms: C8_9  and  O2_10 
REMARK    3  A    between atoms: C8_9  and  O3_12 
ROOT
HETATM    1  C3  UNL     1       1.011  14.040  -2.565  1.00  0.00     0.060 C 
HETATM    2  C4  UNL     1       0.575  12.572  -2.569  1.00  0.00     0.016 C 
HETATM    3  C5  UNL     1      -0.433  12.459  -1.418  1.00  0.00    -0.013 C 
HETATM    4  C6  UNL     1      -1.105  11.125  -1.388  1.00  0.00     0.010 C 
HETATM    5  C7  UNL     1       0.216  12.770  -0.103  1.00  0.00     0.072 C 
HETATM    6  C8  UNL     1       0.769  14.200  -0.145  1.00  0.00     0.160 C 
HETATM    7  C9  UNL     1       1.772  14.241  -1.276  1.00  0.00     0.080 C 
ENDROOT
BRANCH   6   8
HETATM    8  O2  UNL     1      -0.236  15.123  -0.400  1.00  0.00    -0.365 OA
ATOM      9  H2  UNL     1      -0.804  15.232   0.354  1.00  0.00     0.213 HD
ENDBRANCH   6   8
BRANCH   6  10
HETATM   10  O3  UNL     1       1.424  14.458   1.055  1.00  0.00    -0.365 OA
ATOM     11  H3  UNL     1       1.835  15.313   0.998  1.00  0.00     0.213 HD
ENDBRANCH   6  10
BRANCH   1  12
HETATM   12  C2  UNL     1       1.870  14.371  -3.697  1.00  0.00     0.127 C 
HETATM   13  C1  UNL     1       2.050  15.750  -4.243  1.00  0.00     0.091 C 
HETATM   14  O1  UNL     1       2.494  13.486  -4.255  1.00  0.00    -0.298 OA
ENDBRANCH   1  12
TORSDOF 3
ENDMDL
MODEL 2
REMARK VINA RESULT: -4.193693027      5.701      7.274
REMARK  3 active torsions:
REMARK  status: ('A' for Active; 'I' for Inactive)
REMARK    1  A    between atoms: C2_2  and  C3_4 
REMARK    2  A    between atoms: C8_9  and  O2_10 
REMARK    3  A    between atoms: C8_9  and  O3_12 
ROOT
HETATM    1  C3  UNL     1       0.243   8.634   3.033  1.00  0.00     0.060 C 
HETATM    2  C4  UNL     1      -1.001   8.352   2.185  1.00  0.00     0.016 C 
HETATM    3  C5  UNL     1      -1.241   9.646   1.397  1.00  0.00    -0.013 C 
HETATM    4  C6  UNL     1      -2.317   9.491   0.373  1.00  0.00     0.010 C 
HETATM    5  C7  UNL     1      -1.531  10.792   2.321  1.00  0.00     0.072 C 
HETATM    6  C8  UNL     1      -0.335  10.992   3.259  1.00  0.00     0.160 C 
HETATM    7  C9  UNL     1      -0.167   9.699   4.024  1.00  0.00     0.080 C 
ENDROOT
BRANCH   6   8
HETATM    8  O2  UNL     1       0.828  11.249   2.547  1.00  0.00    -0.365 OA
ATOM      9  H2  UNL     1       1.588  10.873   2.977  1.00  0.00     0.213 HD
ENDBRANCH   6   8
BRANCH   6  10
HETATM   10  O3  UNL     1      -0.638  12.014   4.152  1.00  0.00    -0.365 OA
ATOM     11  H3  UNL     1       0.003  12.003   4.854  1.00  0.00     0.213 HD
ENDBRANCH   6  10
BRANCH   1  12
HETATM   12  C2  UNL     1       0.711   7.452   3.749  1.00  0.00     0.127 C 
HETATM   13  C1  UNL     1       1.515   6.356   3.128  1.00  0.00     0.091 C 
HETATM   14  O1  UNL     1       0.446   7.323   4.930  1.00  0.00    -0.298 OA
ENDBRANCH   1  12
TORSDOF 3
ENDMDL
MODEL 3
REMARK VINA RESULT: -4.181234696      1.759      3.905
REMARK  3 active torsions:
REMARK  status: ('A' for Active; 'I' for Inactive)
REMARK    1  A    between atoms: C2_2  and  C3_4 
REMARK    2  A    between atoms: C8_9  and  O2_10 
REMARK    3  A    between atoms: C8_9  and  O3_12 
ROOT
HETATM    1  C3  UNL     1       0.994  13.374  -1.778  1.00  0.00     0.060 C 
HETATM    2  C4  UNL     1       0.711  13.070  -3.252  1.00  0.00     0.016 C 
HETATM    3  C5  UNL     1       1.908  13.656  -4.011  1.00  0.00    -0.013 C 
HETATM    4  C6  UNL     1       1.891  13.289  -5.459  1.00  0.00     0.010 C 
HETATM    5  C7  UNL     1       1.985  15.142  -3.828  1.00  0.00     0.072 C 
HETATM    6  C8  UNL     1       2.138  15.453  -2.334  1.00  0.00     0.160 C 
HETATM    7  C9  UNL     1       0.921  14.878  -1.647  1.00  0.00     0.080 C 
ENDROOT
BRANCH   6   8
HETATM    8  O2  UNL     1       3.277  14.859  -1.808  1.00  0.00    -0.365 OA
ATOM      9  H2  UNL     1       3.126  14.544  -0.924  1.00  0.00     0.213 HD
ENDBRANCH   6   8
BRANCH   6  10
HETATM   10  O3  UNL     1       2.146  16.835  -2.168  1.00  0.00    -0.365 OA
ATOM     11  H3  UNL     1       1.871  17.239  -2.983  1.00  0.00     0.213 HD
ENDBRANCH   6  10
BRANCH   1  12
HETATM   12  C2  UNL     1       0.021  12.757  -0.883  1.00  0.00     0.127 C 
HETATM   13  C1  UNL     1      -1.093  11.869  -1.335  1.00  0.00     0.091 C 
HETATM   14  O1  UNL     1       0.096  12.958   0.315  1.00  0.00    -0.298 OA
ENDBRANCH   1  12
TORSDOF 3
ENDMDL
MODEL 4
REMARK VINA RESULT: -4.079321459      4.836      6.694
REMARK  3 active torsions:
REMARK  status: ('A' for Active; 'I' for Inactive)
REMARK    1  A    between atoms: C2_2  and  C3_4 
REMARK    2  A    between atoms: C8_9  and  O2_10 
REMARK    3  A    between atoms: C8_9  and  O3_12 
ROOT
HETATM    1  C3  UNL     1      -0.572  10.998   3.214  1.00  0.00     0.060 C 
HETATM    2  C4  UNL     1      -1.418  10.444   2.063  1.00  0.00     0.016 C 
HETATM    3  C5  UNL     1      -2.125   9.217   2.652  1.00  0.00    -0.013 C 
HETATM    4  C6  UNL     1      -3.142   8.651   1.715  1.00  0.00     0.010 C 
HETATM    5  C7  UNL     1      -1.133   8.174   3.071  1.00  0.00     0.072 C 
HETATM    6  C8  UNL     1      -0.201   8.771   4.133  1.00  0.00     0.160 C 
HETATM    7  C9  UNL     1       0.485   9.954   3.488  1.00  0.00     0.080 C 
ENDROOT
BRANCH   6   8
HETATM    8  O2  UNL     1      -0.913   9.210   5.241  1.00  0.00    -0.365 OA
ATOM      9  H2  UNL     1      -1.456   9.960   5.027  1.00  0.00     0.213 HD
ENDBRANCH   6   8
BRANCH   6  10
HETATM   10  O3  UNL     1       0.754   7.818   4.470  1.00  0.00    -0.365 OA
ATOM     11  H3  UNL     1       1.589   8.255   4.591  1.00  0.00     0.213 HD
ENDBRANCH   6  10
BRANCH   1  12
HETATM   12  C2  UNL     1       0.067  12.265   2.878  1.00  0.00     0.127 C 
HETATM   13  C1  UNL     1       0.370  12.712   1.484  1.00  0.00     0.091 C 
HETATM   14  O1  UNL     1       0.386  13.031   3.769  1.00  0.00    -0.298 OA
ENDBRANCH   1  12
TORSDOF 3
ENDMDL
MODEL 5
REMARK VINA RESULT: -4.062595963      3.014      4.536
REMARK  3 active torsions:
REMARK  status: ('A' for Active; 'I' for Inactive)
REMARK    1  A    between atoms: C2_2  and  C3_4 
REMARK    2  A    between atoms: C8_9  and  O2_10 
REMARK    3  A    between atoms: C8_9  and  O3_12 
ROOT
HETATM    1  C3  UNL     1      -0.111  12.551   1.483  1.00  0.00     0.060 C 
HETATM    2  C4  UNL     1      -0.508  11.512   0.429  1.00  0.00     0.016 C 
HETATM    3  C5  UNL     1      -1.391  10.508   1.180  1.00  0.00    -0.013 C 
HETATM    4  C6  UNL     1      -2.022   9.515   0.260  1.00  0.00     0.010 C 
HETATM    5  C7  UNL     1      -0.621   9.825   2.271  1.00  0.00     0.072 C 
HETATM    6  C8  UNL     1      -0.113  10.882   3.260  1.00  0.00     0.160 C 
HETATM    7  C9  UNL     1       0.770  11.821   2.470  1.00  0.00     0.080 C 
ENDROOT
BRANCH   6   8
HETATM    8  O2  UNL     1      -1.162  11.604   3.811  1.00  0.00    -0.365 OA
ATOM      9  H2  UNL     1      -1.649  12.070   3.142  1.00  0.00     0.213 HD
ENDBRANCH   6   8
BRANCH   6  10
HETATM   10  O3  UNL     1       0.652  10.246   4.232  1.00  0.00    -0.365 OA
ATOM     11  H3  UNL     1       1.156  10.903   4.698  1.00  0.00     0.213 HD
ENDBRANCH   6  10
BRANCH   1  12
HETATM   12  C2  UNL     1       0.620  13.676   0.912  1.00  0.00     0.127 C 
HETATM   13  C1  UNL     1       0.745  13.941  -0.554  1.00  0.00     0.091 C 
HETATM   14  O1  UNL     1       1.175  14.468   1.651  1.00  0.00    -0.298 OA
ENDBRANCH   1  12
TORSDOF 3
ENDMDL
