MODEL 1
REMARK VINA RESULT: -4.232958201      0.000      0.000
REMARK  1 active torsions:
REMARK  status: ('A' for Active; 'I' for Inactive)
REMARK    1  A    between atoms: C2_2  and  C3_4 
ROOT
HETATM    1  C3  UNL     1       1.463  14.837  -3.202  1.00  0.00     0.081 C 
HETATM    2  C4  UNL     1       1.904  13.589  -3.857  1.00  0.00     0.247 C 
HETATM    3  N1  UNL     1       2.382  13.716  -5.195  1.00  0.00    -0.042 N 
ATOM      4  H11 UNL     1       2.577  12.815  -5.633  1.00  0.00     0.279 HD
ATOM      5  H12 UNL     1       3.327  14.096  -5.242  1.00  0.00     0.279 HD
HETATM    6  C5  UNL     1       1.416  14.509  -5.939  1.00  0.00     0.423 C 
HETATM    7  C6  UNL     1       1.616  15.933  -5.464  1.00  0.00     0.049 C 
HETATM    8  C7  UNL     1       2.936  16.265  -6.127  1.00  0.00     0.039 C 
HETATM    9  C8  UNL     1       2.825  15.556  -7.462  1.00  0.00     0.275 C 
HETATM   10  N2  UNL     1       1.743  14.646  -7.324  1.00  0.00     0.115 N 
HETATM   11  C9  UNL     1       1.831  13.443  -8.060  1.00  0.00     0.312 C 
HETATM   12  C10 UNL     1       1.610  16.088  -4.002  1.00  0.00     0.022 C 
ENDROOT
BRANCH   1  13
HETATM   13  C2  UNL     1       2.185  15.036  -1.912  1.00  0.00     0.128 C 
HETATM   14  C1  UNL     1       3.362  15.926  -1.846  1.00  0.00     0.091 C 
HETATM   15  O1  UNL     1       1.789  14.455  -0.917  1.00  0.00    -0.298 OA
ENDBRANCH   1  13
TORSDOF 1
ENDMDL
MODEL 2
REMARK VINA RESULT: -3.916673241      7.978     10.053
REMARK  1 active torsions:
REMARK  status: ('A' for Active; 'I' for Inactive)
REMARK    1  A    between atoms: C2_2  and  C3_4 
ROOT
HETATM    1  C3  UNL     1      -0.576  11.776   2.424  1.00  0.00     0.081 C 
HETATM    2  C4  UNL     1      -0.073  11.403   3.761  1.00  0.00     0.247 C 
HETATM    3  N1  UNL     1      -0.036  10.007   4.053  1.00  0.00    -0.042 N 
ATOM      4  H11 UNL     1       0.221   9.812   5.021  1.00  0.00     0.279 HD
ATOM      5  H12 UNL     1       0.746   9.531   3.606  1.00  0.00     0.279 HD
HETATM    6  C5  UNL     1      -1.325   9.443   3.686  1.00  0.00     0.423 C 
HETATM    7  C6  UNL     1      -1.321   9.383   2.173  1.00  0.00     0.049 C 
HETATM    8  C7  UNL     1      -0.352   8.242   1.942  1.00  0.00     0.039 C 
HETATM    9  C8  UNL     1      -0.679   7.295   3.079  1.00  0.00     0.275 C 
HETATM   10  N2  UNL     1      -1.446   8.054   4.002  1.00  0.00     0.115 N 
HETATM   11  C9  UNL     1      -1.304   7.716   5.368  1.00  0.00     0.312 C 
HETATM   12  C10 UNL     1      -0.945  10.647   1.521  1.00  0.00     0.022 C 
ENDROOT
BRANCH   1  13
HETATM   13  C2  UNL     1       0.420  12.623   1.706  1.00  0.00     0.128 C 
HETATM   14  C1  UNL     1       0.212  12.980   0.288  1.00  0.00     0.091 C 
HETATM   15  O1  UNL     1       1.404  13.016   2.307  1.00  0.00    -0.298 OA
ENDBRANCH   1  13
TORSDOF 1
ENDMDL
MODEL 3
REMARK VINA RESULT: -3.775569074      7.634      9.468
REMARK  1 active torsions:
REMARK  status: ('A' for Active; 'I' for Inactive)
REMARK    1  A    between atoms: C2_2  and  C3_4 
ROOT
HETATM    1  C3  UNL     1      -0.528  11.361   2.438  1.00  0.00     0.081 C 
HETATM    2  C4  UNL     1       0.244  10.393   3.243  1.00  0.00     0.247 C 
HETATM    3  N1  UNL     1       0.155   9.028   2.840  1.00  0.00    -0.042 N 
ATOM      4  H11 UNL     1       0.623   8.393   3.488  1.00  0.00     0.279 HD
ATOM      5  H12 UNL     1       0.719   8.820   2.017  1.00  0.00     0.279 HD
HETATM    6  C5  UNL     1      -1.253   8.710   2.656  1.00  0.00     0.423 C 
HETATM    7  C6  UNL     1      -1.648   9.381   1.357  1.00  0.00     0.049 C 
HETATM    8  C7  UNL     1      -0.946   8.487   0.357  1.00  0.00     0.039 C 
HETATM    9  C8  UNL     1      -1.100   7.112   0.976  1.00  0.00     0.275 C 
HETATM   10  N2  UNL     1      -1.485   7.339   2.324  1.00  0.00     0.115 N 
HETATM   11  C9  UNL     1      -1.045   6.390   3.275  1.00  0.00     0.312 C 
HETATM   12  C10 UNL     1      -1.276  10.802   1.274  1.00  0.00     0.022 C 
ENDROOT
BRANCH   1  13
HETATM   13  C2  UNL     1       0.359  12.446   1.928  1.00  0.00     0.128 C 
HETATM   14  C1  UNL     1       0.252  12.899   0.526  1.00  0.00     0.091 C 
HETATM   15  O1  UNL     1       1.171  12.950   2.683  1.00  0.00    -0.298 OA
ENDBRANCH   1  13
TORSDOF 1
ENDMDL
MODEL 4
REMARK VINA RESULT: -3.746698301      9.482     11.474
REMARK  1 active torsions:
REMARK  status: ('A' for Active; 'I' for Inactive)
REMARK    1  A    between atoms: C2_2  and  C3_4 
ROOT
HETATM    1  C3  UNL     1      -0.853   9.876   2.287  1.00  0.00     0.081 C 
HETATM    2  C4  UNL     1      -2.318   9.695   2.334  1.00  0.00     0.247 C 
HETATM    3  N1  UNL     1      -2.819   8.881   3.393  1.00  0.00    -0.042 N 
ATOM      4  H11 UNL     1      -3.821   8.707   3.318  1.00  0.00     0.279 HD
ATOM      5  H12 UNL     1      -2.831   9.364   4.290  1.00  0.00     0.279 HD
HETATM    6  C5  UNL     1      -2.033   7.657   3.421  1.00  0.00     0.423 C 
HETATM    7  C6  UNL     1      -0.698   8.052   4.017  1.00  0.00     0.049 C 
HETATM    8  C7  UNL     1      -1.089   8.258   5.465  1.00  0.00     0.039 C 
HETATM    9  C8  UNL     1      -2.114   7.165   5.691  1.00  0.00     0.275 C 
HETATM   10  N2  UNL     1      -2.487   6.715   4.396  1.00  0.00     0.115 N 
HETATM   11  C9  UNL     1      -3.817   6.261   4.244  1.00  0.00     0.312 C 
HETATM   12  C10 UNL     1      -0.074   9.220   3.378  1.00  0.00     0.022 C 
ENDROOT
BRANCH   1  13
HETATM   13  C2  UNL     1      -0.503  11.326   2.288  1.00  0.00     0.128 C 
HETATM   14  C1  UNL     1      -0.250  12.031   3.561  1.00  0.00     0.091 C 
HETATM   15  O1  UNL     1      -0.429  11.917   1.225  1.00  0.00    -0.298 OA
ENDBRANCH   1  13
TORSDOF 1
ENDMDL
MODEL 5
REMARK VINA RESULT: -3.721448304      8.363     10.157
REMARK  1 active torsions:
REMARK  status: ('A' for Active; 'I' for Inactive)
REMARK    1  A    between atoms: C2_2  and  C3_4 
ROOT
HETATM    1  C3  UNL     1      -0.752  11.135   2.722  1.00  0.00     0.081 C 
HETATM    2  C4  UNL     1       0.128  10.494   3.720  1.00  0.00     0.247 C 
HETATM    3  N1  UNL     1       0.280   9.080   3.608  1.00  0.00    -0.042 N 
ATOM      4  H11 UNL     1       0.813   8.677   4.380  1.00  0.00     0.279 HD
ATOM      5  H12 UNL     1       0.909   8.809   2.853  1.00  0.00     0.279 HD
HETATM    6  C5  UNL     1      -1.047   8.499   3.474  1.00  0.00     0.423 C 
HETATM    7  C6  UNL     1      -1.482   8.817   2.059  1.00  0.00     0.049 C 
HETATM    8  C7  UNL     1      -0.597   7.871   1.276  1.00  0.00     0.039 C 
HETATM    9  C8  UNL     1      -0.556   6.644   2.164  1.00  0.00     0.275 C 
HETATM   10  N2  UNL     1      -1.037   7.070   3.430  1.00  0.00     0.115 N 
HETATM   11  C9  UNL     1      -0.496   6.421   4.563  1.00  0.00     0.312 C 
HETATM   12  C10 UNL     1      -1.343  10.234   1.689  1.00  0.00     0.022 C 
ENDROOT
BRANCH   1  13
HETATM   13  C2  UNL     1      -0.028  12.228   2.010  1.00  0.00     0.128 C 
HETATM   14  C1  UNL     1       0.784  13.201   2.769  1.00  0.00     0.091 C 
HETATM   15  O1  UNL     1      -0.117  12.304   0.798  1.00  0.00    -0.298 OA
ENDBRANCH   1  13
TORSDOF 1
ENDMDL
