MODEL 1
REMARK VINA RESULT: -9.830122921      0.000      0.000
REMARK  9 active torsions:
REMARK  status: ('A' for Active; 'I' for Inactive)
REMARK    1  A    between atoms: C2_2  and  N1_3 
REMARK    2  A    between atoms: N1_3  and  C3_4 
REMARK       I    between atoms: N1_3  and  C21_30 
REMARK    3  A    between atoms: C3_4  and  C4_5 
REMARK    4  A    between atoms: C8_11  and  O1_12 
REMARK    5  A    between atoms: O1_12  and  C9_13 
REMARK    6  A    between atoms: C9_13  and  C10_14 
REMARK    7  A    between atoms: C21_30  and  C22_32 
REMARK    8  A    between atoms: C25_35  and  O4_36 
REMARK    9  A    between atoms: C25_35  and  C26_38 
ROOT
HETATM    1  C4  UNL     1     -27.806   6.682 -14.469  1.00  0.00     0.147 C 
HETATM    2  C5  UNL     1     -28.722   7.725 -14.049  1.00  0.00     0.040 C 
HETATM    3  C6  UNL     1     -28.212   9.146 -13.956  1.00  0.00     0.061 C 
HETATM    4  C7  UNL     1     -27.762   9.716 -15.226  1.00  0.00     0.025 A 
HETATM    5  N2  UNL     1     -26.969  10.747 -15.009  1.00  0.00    -0.325 N 
ATOM      6  H2  UNL     1     -26.786  11.049 -14.053  1.00  0.00     0.169 HD
HETATM    7  C8  UNL     1     -26.390  11.414 -16.053  1.00  0.00     0.223 A 
HETATM    8  N3  UNL     1     -26.632  11.014 -17.311  1.00  0.00    -0.331 N 
ATOM      9  H3  UNL     1     -26.187  11.529 -18.070  1.00  0.00     0.168 HD
HETATM   10  C13 UNL     1     -27.426   9.973 -17.633  1.00  0.00     0.106 A 
HETATM   11  C14 UNL     1     -27.982   9.342 -16.559  1.00  0.00     0.018 A 
HETATM   12  C15 UNL     1     -28.767   8.278 -17.144  1.00  0.00     0.052 A 
HETATM   13  C16 UNL     1     -29.516   8.864 -18.090  1.00  0.00     0.130 A 
HETATM   14  F1  UNL     1     -29.680  10.154 -18.395  1.00  0.00    -0.205 F 
HETATM   15  C17 UNL     1     -30.322   7.967 -18.824  1.00  0.00     0.046 A 
HETATM   16  C18 UNL     1     -30.330   6.615 -18.575  1.00  0.00     0.048 A 
HETATM   17  C19 UNL     1     -29.518   6.077 -17.560  1.00  0.00     0.150 A 
HETATM   18  F2  UNL     1     -29.488   4.759 -17.273  1.00  0.00    -0.203 F 
HETATM   19  C20 UNL     1     -28.750   6.909 -16.857  1.00  0.00     0.122 A 
HETATM   20  O2  UNL     1     -27.997   6.245 -15.867  1.00  0.00    -0.340 OA
ENDROOT
BRANCH   1  21
HETATM   21  C3  UNL     1     -27.885   5.403 -13.703  1.00  0.00     0.158 C 
BRANCH  21  22
HETATM   22  N1  UNL     1     -26.717   4.624 -13.551  1.00  0.00    -0.350 N 
HETATM   23  C21 UNL     1     -26.672   3.283 -13.122  1.00  0.00     0.224 C 
HETATM   24  O3  UNL     1     -25.484   2.837 -12.879  1.00  0.00    -0.273 OA
BRANCH  22  25
HETATM   25  C2  UNL     1     -25.420   5.317 -13.791  1.00  0.00     0.121 C 
HETATM   26  C1  UNL     1     -25.459   6.629 -13.009  1.00  0.00     0.026 C 
ENDBRANCH  22  25
BRANCH  23  27
HETATM   27  C22 UNL     1     -27.822   2.370 -12.939  1.00  0.00     0.078 C 
HETATM   28  C23 UNL     1     -28.162   2.374 -11.440  1.00  0.00     0.017 C 
HETATM   29  C24 UNL     1     -27.145   1.501 -10.754  1.00  0.00     0.039 C 
HETATM   30  C25 UNL     1     -27.668   0.062 -10.897  1.00  0.00     0.061 C 
HETATM   31  C31 UNL     1     -28.219  -0.034 -12.283  1.00  0.00     0.039 C 
HETATM   32  C32 UNL     1     -27.479   0.913 -13.243  1.00  0.00     0.017 C 
BRANCH  30  33
HETATM   33  O4  UNL     1     -26.635  -0.863 -10.755  1.00  0.00    -0.389 OA
ATOM     34  H4  UNL     1     -26.508  -1.360 -11.555  1.00  0.00     0.210 HD
ENDBRANCH  30  33
BRANCH  30  35
HETATM   35  C26 UNL     1     -28.703  -0.137  -9.831  1.00  0.00     0.020 C 
HETATM   36  C27 UNL     1     -28.438   0.704  -8.609  1.00  0.00     0.007 C 
HETATM   37  C28 UNL     1     -28.968  -0.079  -7.429  1.00  0.00     0.000 C 
HETATM   38  C29 UNL     1     -29.540  -1.362  -8.015  1.00  0.00     0.000 C 
HETATM   39  C30 UNL     1     -28.673  -1.537  -9.255  1.00  0.00     0.007 C 
ENDBRANCH  30  35
ENDBRANCH  23  27
ENDBRANCH  21  22
ENDBRANCH   1  21
BRANCH   7  40
HETATM   40  O1  UNL     1     -25.573  12.486 -15.764  1.00  0.00    -0.322 OA
BRANCH  40  41
HETATM   41  C9  UNL     1     -25.153  12.754 -14.454  1.00  0.00     0.183 C 
BRANCH  41  42
HETATM   42  C10 UNL     1     -23.726  12.404 -14.159  1.00  0.00     0.010 A 
HETATM   43  C11 UNL     1     -23.292  12.286 -12.714  1.00  0.00     0.007 A 
HETATM   44  C12 UNL     1     -23.543  11.072 -13.496  1.00  0.00     0.007 A 
ENDBRANCH  41  42
ENDBRANCH  40  41
ENDBRANCH   7  40
TORSDOF 9
ENDMDL
MODEL 2
REMARK VINA RESULT: -9.461883482      1.139      1.473
REMARK  9 active torsions:
REMARK  status: ('A' for Active; 'I' for Inactive)
REMARK    1  A    between atoms: C2_2  and  N1_3 
REMARK    2  A    between atoms: N1_3  and  C3_4 
REMARK       I    between atoms: N1_3  and  C21_30 
REMARK    3  A    between atoms: C3_4  and  C4_5 
REMARK    4  A    between atoms: C8_11  and  O1_12 
REMARK    5  A    between atoms: O1_12  and  C9_13 
REMARK    6  A    between atoms: C9_13  and  C10_14 
REMARK    7  A    between atoms: C21_30  and  C22_32 
REMARK    8  A    between atoms: C25_35  and  O4_36 
REMARK    9  A    between atoms: C25_35  and  C26_38 
ROOT
HETATM    1  C4  UNL     1     -27.359   5.935 -14.284  1.00  0.00     0.147 C 
HETATM    2  C5  UNL     1     -27.945   7.143 -13.735  1.00  0.00     0.040 C 
HETATM    3  C6  UNL     1     -27.125   8.415 -13.739  1.00  0.00     0.061 C 
HETATM    4  C7  UNL     1     -26.765   8.903 -15.070  1.00  0.00     0.025 A 
HETATM    5  N2  UNL     1     -25.739   9.729 -14.992  1.00  0.00    -0.325 N 
ATOM      6  H2  UNL     1     -25.347   9.960 -14.080  1.00  0.00     0.169 HD
HETATM    7  C8  UNL     1     -25.198  10.278 -16.122  1.00  0.00     0.223 A 
HETATM    8  N3  UNL     1     -25.716   9.972 -17.321  1.00  0.00    -0.331 N 
ATOM      9  H3  UNL     1     -25.293  10.395 -18.146  1.00  0.00     0.168 HD
HETATM   10  C13 UNL     1     -26.761   9.140 -17.502  1.00  0.00     0.106 A 
HETATM   11  C14 UNL     1     -27.267   8.620 -16.347  1.00  0.00     0.018 A 
HETATM   12  C15 UNL     1     -28.350   7.769 -16.790  1.00  0.00     0.052 A 
HETATM   13  C16 UNL     1     -29.089   8.529 -17.612  1.00  0.00     0.130 A 
HETATM   14  F1  UNL     1     -29.010   9.831 -17.901  1.00  0.00    -0.205 F 
HETATM   15  C17 UNL     1     -30.178   7.850 -18.200  1.00  0.00     0.046 A 
HETATM   16  C18 UNL     1     -30.446   6.527 -17.938  1.00  0.00     0.048 A 
HETATM   17  C19 UNL     1     -29.624   5.799 -17.059  1.00  0.00     0.150 A 
HETATM   18  F2  UNL     1     -29.842   4.499 -16.766  1.00  0.00    -0.203 F 
HETATM   19  C20 UNL     1     -28.591   6.423 -16.495  1.00  0.00     0.122 A 
HETATM   20  O2  UNL     1     -27.859   5.586 -15.629  1.00  0.00    -0.340 OA
ENDROOT
BRANCH   1  21
HETATM   21  C3  UNL     1     -27.598   4.687 -13.501  1.00  0.00     0.158 C 
BRANCH  21  22
HETATM   22  N1  UNL     1     -26.498   3.861 -13.179  1.00  0.00    -0.350 N 
HETATM   23  C21 UNL     1     -26.572   2.588 -12.581  1.00  0.00     0.224 C 
HETATM   24  O3  UNL     1     -25.434   2.103 -12.210  1.00  0.00    -0.273 OA
BRANCH  22  25
HETATM   25  C2  UNL     1     -25.144   4.433 -13.424  1.00  0.00     0.121 C 
HETATM   26  C1  UNL     1     -24.485   3.578 -14.506  1.00  0.00     0.026 C 
ENDBRANCH  22  25
BRANCH  23  27
HETATM   27  C22 UNL     1     -27.793   1.783 -12.355  1.00  0.00     0.078 C 
HETATM   28  C23 UNL     1     -28.155   1.927 -10.868  1.00  0.00     0.017 C 
HETATM   29  C24 UNL     1     -27.221   1.033 -10.097  1.00  0.00     0.039 C 
HETATM   30  C25 UNL     1     -27.851  -0.369 -10.143  1.00  0.00     0.061 C 
HETATM   31  C31 UNL     1     -28.386  -0.527 -11.530  1.00  0.00     0.039 C 
HETATM   32  C32 UNL     1     -27.560   0.284 -12.542  1.00  0.00     0.017 C 
BRANCH  30  33
HETATM   33  O4  UNL     1     -26.896  -1.356  -9.910  1.00  0.00    -0.389 OA
ATOM     34  H4  UNL     1     -26.142  -1.243 -10.478  1.00  0.00     0.210 HD
ENDBRANCH  30  33
BRANCH  30  35
HETATM   35  C26 UNL     1     -28.916  -0.405  -9.088  1.00  0.00     0.020 C 
HETATM   36  C27 UNL     1     -28.554   0.416  -7.877  1.00  0.00     0.007 C 
HETATM   37  C28 UNL     1     -29.197  -0.266  -6.691  1.00  0.00     0.000 C 
HETATM   38  C29 UNL     1     -29.931  -1.471  -7.262  1.00  0.00     0.000 C 
HETATM   39  C30 UNL     1     -29.081  -1.786  -8.487  1.00  0.00     0.007 C 
ENDBRANCH  30  35
ENDBRANCH  23  27
ENDBRANCH  21  22
ENDBRANCH   1  21
BRANCH   7  40
HETATM   40  O1  UNL     1     -24.129  11.136 -15.977  1.00  0.00    -0.322 OA
BRANCH  40  41
HETATM   41  C9  UNL     1     -24.144  12.171 -15.031  1.00  0.00     0.183 C 
BRANCH  41  42
HETATM   42  C10 UNL     1     -24.889  13.403 -15.449  1.00  0.00     0.010 A 
HETATM   43  C11 UNL     1     -26.342  13.273 -15.849  1.00  0.00     0.007 A 
HETATM   44  C12 UNL     1     -26.001  13.794 -14.523  1.00  0.00     0.007 A 
ENDBRANCH  41  42
ENDBRANCH  40  41
ENDBRANCH   7  40
TORSDOF 9
ENDMDL
MODEL 3
REMARK VINA RESULT: -9.137103724      1.072      1.311
REMARK  9 active torsions:
REMARK  status: ('A' for Active; 'I' for Inactive)
REMARK    1  A    between atoms: C2_2  and  N1_3 
REMARK    2  A    between atoms: N1_3  and  C3_4 
REMARK       I    between atoms: N1_3  and  C21_30 
REMARK    3  A    between atoms: C3_4  and  C4_5 
REMARK    4  A    between atoms: C8_11  and  O1_12 
REMARK    5  A    between atoms: O1_12  and  C9_13 
REMARK    6  A    between atoms: C9_13  and  C10_14 
REMARK    7  A    between atoms: C21_30  and  C22_32 
REMARK    8  A    between atoms: C25_35  and  O4_36 
REMARK    9  A    between atoms: C25_35  and  C26_38 
ROOT
HETATM    1  C4  UNL     1     -27.229   5.964 -14.122  1.00  0.00     0.147 C 
HETATM    2  C5  UNL     1     -27.831   7.121 -13.487  1.00  0.00     0.040 C 
HETATM    3  C6  UNL     1     -27.092   8.441 -13.535  1.00  0.00     0.061 C 
HETATM    4  C7  UNL     1     -26.893   8.979 -14.880  1.00  0.00     0.025 A 
HETATM    5  N2  UNL     1     -25.916   9.865 -14.877  1.00  0.00    -0.325 N 
ATOM      6  H2  UNL     1     -25.451  10.100 -14.001  1.00  0.00     0.169 HD
HETATM    7  C8  UNL     1     -25.520  10.471 -16.038  1.00  0.00     0.223 A 
HETATM    8  N3  UNL     1     -26.133  10.159 -17.190  1.00  0.00    -0.331 N 
ATOM      9  H3  UNL     1     -25.818  10.625 -18.040  1.00  0.00     0.168 HD
HETATM   10  C13 UNL     1     -27.138   9.268 -17.294  1.00  0.00     0.106 A 
HETATM   11  C14 UNL     1     -27.498   8.693 -16.111  1.00  0.00     0.018 A 
HETATM   12  C15 UNL     1     -28.566   7.786 -16.471  1.00  0.00     0.052 A 
HETATM   13  C16 UNL     1     -29.425   8.516 -17.198  1.00  0.00     0.130 A 
HETATM   14  F1  UNL     1     -29.453   9.826 -17.457  1.00  0.00    -0.205 F 
HETATM   15  C17 UNL     1     -30.524   7.783 -17.697  1.00  0.00     0.046 A 
HETATM   16  C18 UNL     1     -30.686   6.441 -17.448  1.00  0.00     0.048 A 
HETATM   17  C19 UNL     1     -29.741   5.746 -16.671  1.00  0.00     0.150 A 
HETATM   18  F2  UNL     1     -29.851   4.430 -16.395  1.00  0.00    -0.203 F 
HETATM   19  C20 UNL     1     -28.697   6.422 -16.192  1.00  0.00     0.122 A 
HETATM   20  O2  UNL     1     -27.835   5.613 -15.423  1.00  0.00    -0.340 OA
ENDROOT
BRANCH   1  21
HETATM   21  C3  UNL     1     -27.316   4.686 -13.355  1.00  0.00     0.158 C 
BRANCH  21  22
HETATM   22  N1  UNL     1     -26.173   3.862 -13.269  1.00  0.00    -0.350 N 
HETATM   23  C21 UNL     1     -26.131   2.567 -12.714  1.00  0.00     0.224 C 
HETATM   24  O3  UNL     1     -24.942   2.082 -12.574  1.00  0.00    -0.273 OA
BRANCH  22  25
HETATM   25  C2  UNL     1     -24.888   4.456 -13.735  1.00  0.00     0.121 C 
HETATM   26  C1  UNL     1     -24.298   3.495 -14.766  1.00  0.00     0.026 C 
ENDBRANCH  22  25
BRANCH  23  27
HETATM   27  C22 UNL     1     -27.287   1.742 -12.299  1.00  0.00     0.078 C 
HETATM   28  C23 UNL     1     -27.294   1.722 -10.762  1.00  0.00     0.017 C 
HETATM   29  C24 UNL     1     -26.230   0.750 -10.327  1.00  0.00     0.039 C 
HETATM   30  C25 UNL     1     -26.889  -0.639 -10.375  1.00  0.00     0.061 C 
HETATM   31  C31 UNL     1     -27.732  -0.645 -11.610  1.00  0.00     0.039 C 
HETATM   32  C32 UNL     1     -27.140   0.273 -12.693  1.00  0.00     0.017 C 
BRANCH  30  33
HETATM   33  O4  UNL     1     -25.930  -1.645 -10.476  1.00  0.00    -0.389 OA
ATOM     34  H4  UNL     1     -25.541  -1.662 -11.343  1.00  0.00     0.210 HD
ENDBRANCH  30  33
BRANCH  30  35
HETATM   35  C26 UNL     1     -27.683  -0.791  -9.113  1.00  0.00     0.020 C 
HETATM   36  C27 UNL     1     -27.725  -2.217  -8.629  1.00  0.00     0.007 C 
HETATM   37  C28 UNL     1     -29.056  -2.394  -7.934  1.00  0.00     0.000 C 
HETATM   38  C29 UNL     1     -29.748  -1.042  -8.030  1.00  0.00     0.000 C 
HETATM   39  C30 UNL     1     -29.153  -0.492  -9.321  1.00  0.00     0.007 C 
ENDBRANCH  30  35
ENDBRANCH  23  27
ENDBRANCH  21  22
ENDBRANCH   1  21
BRANCH   7  40
HETATM   40  O1  UNL     1     -24.495  11.390 -15.972  1.00  0.00    -0.322 OA
BRANCH  40  41
HETATM   41  C9  UNL     1     -24.549  12.484 -15.098  1.00  0.00     0.183 C 
BRANCH  41  42
HETATM   42  C10 UNL     1     -23.433  12.555 -14.098  1.00  0.00     0.010 A 
HETATM   43  C11 UNL     1     -23.764  12.410 -12.629  1.00  0.00     0.007 A 
HETATM   44  C12 UNL     1     -23.189  11.275 -13.357  1.00  0.00     0.007 A 
ENDBRANCH  41  42
ENDBRANCH  40  41
ENDBRANCH   7  40
TORSDOF 9
ENDMDL
MODEL 4
REMARK VINA RESULT: -7.795104772      7.013     12.721
REMARK  9 active torsions:
REMARK  status: ('A' for Active; 'I' for Inactive)
REMARK    1  A    between atoms: C2_2  and  N1_3 
REMARK    2  A    between atoms: N1_3  and  C3_4 
REMARK       I    between atoms: N1_3  and  C21_30 
REMARK    3  A    between atoms: C3_4  and  C4_5 
REMARK    4  A    between atoms: C8_11  and  O1_12 
REMARK    5  A    between atoms: O1_12  and  C9_13 
REMARK    6  A    between atoms: C9_13  and  C10_14 
REMARK    7  A    between atoms: C21_30  and  C22_32 
REMARK    8  A    between atoms: C25_35  and  O4_36 
REMARK    9  A    between atoms: C25_35  and  C26_38 
ROOT
HETATM    1  C4  UNL     1     -28.721  -0.629 -10.079  1.00  0.00     0.147 C 
HETATM    2  C5  UNL     1     -29.138  -0.656  -8.690  1.00  0.00     0.040 C 
HETATM    3  C6  UNL     1     -29.461  -1.991  -8.055  1.00  0.00     0.061 C 
HETATM    4  C7  UNL     1     -28.335  -2.923  -7.989  1.00  0.00     0.025 A 
HETATM    5  N2  UNL     1     -28.771  -4.156  -7.828  1.00  0.00    -0.325 N 
ATOM      6  H2  UNL     1     -29.772  -4.329  -7.737  1.00  0.00     0.169 HD
HETATM    7  C8  UNL     1     -27.896  -5.206  -7.784  1.00  0.00     0.223 A 
HETATM    8  N3  UNL     1     -26.580  -4.976  -7.905  1.00  0.00    -0.331 N 
ATOM      9  H3  UNL     1     -25.949  -5.777  -7.868  1.00  0.00     0.168 HD
HETATM   10  C13 UNL     1     -26.039  -3.754  -8.073  1.00  0.00     0.106 A 
HETATM   11  C14 UNL     1     -26.951  -2.740  -8.109  1.00  0.00     0.018 A 
HETATM   12  C15 UNL     1     -26.149  -1.552  -8.303  1.00  0.00     0.052 A 
HETATM   13  C16 UNL     1     -25.189  -1.612  -7.367  1.00  0.00     0.130 A 
HETATM   14  F1  UNL     1     -25.017  -2.458  -6.348  1.00  0.00    -0.205 F 
HETATM   15  C17 UNL     1     -24.257  -0.553  -7.430  1.00  0.00     0.046 A 
HETATM   16  C18 UNL     1     -24.344   0.447  -8.371  1.00  0.00     0.048 A 
HETATM   17  C19 UNL     1     -25.386   0.440  -9.316  1.00  0.00     0.150 A 
HETATM   18  F2  UNL     1     -25.519   1.396 -10.260  1.00  0.00    -0.203 F 
HETATM   19  C20 UNL     1     -26.274  -0.552  -9.272  1.00  0.00     0.122 A 
HETATM   20  O2  UNL     1     -27.269  -0.433 -10.264  1.00  0.00    -0.340 OA
ENDROOT
BRANCH   1  21
HETATM   21  C3  UNL     1     -29.317   0.457 -10.912  1.00  0.00     0.158 C 
BRANCH  21  22
HETATM   22  N1  UNL     1     -28.486   1.162 -11.812  1.00  0.00    -0.350 N 
HETATM   23  C21 UNL     1     -27.658   0.583 -12.793  1.00  0.00     0.224 C 
HETATM   24  O3  UNL     1     -26.851   1.411 -13.370  1.00  0.00    -0.273 OA
BRANCH  22  25
HETATM   25  C2  UNL     1     -28.430   2.642 -11.645  1.00  0.00     0.121 C 
HETATM   26  C1  UNL     1     -28.745   2.940 -10.180  1.00  0.00     0.026 C 
ENDBRANCH  22  25
BRANCH  23  27
HETATM   27  C22 UNL     1     -27.635  -0.836 -13.211  1.00  0.00     0.078 C 
HETATM   28  C23 UNL     1     -26.193  -1.155 -13.638  1.00  0.00     0.017 C 
HETATM   29  C24 UNL     1     -26.000  -0.572 -15.012  1.00  0.00     0.039 C 
HETATM   30  C25 UNL     1     -26.550  -1.622 -15.992  1.00  0.00     0.061 C 
HETATM   31  C31 UNL     1     -27.792  -2.159 -15.355  1.00  0.00     0.039 C 
HETATM   32  C32 UNL     1     -28.465  -1.099 -14.467  1.00  0.00     0.017 C 
BRANCH  30  33
HETATM   33  O4  UNL     1     -26.881  -1.042 -17.214  1.00  0.00    -0.389 OA
ATOM     34  H4  UNL     1     -27.803  -0.814 -17.246  1.00  0.00     0.210 HD
ENDBRANCH  30  33
BRANCH  30  35
HETATM   35  C26 UNL     1     -25.480  -2.657 -16.171  1.00  0.00     0.020 C 
HETATM   36  C27 UNL     1     -24.095  -2.089 -15.993  1.00  0.00     0.007 C 
HETATM   37  C28 UNL     1     -23.186  -2.887 -16.900  1.00  0.00     0.000 C 
HETATM   38  C29 UNL     1     -24.084  -3.913 -17.576  1.00  0.00     0.000 C 
HETATM   39  C30 UNL     1     -25.419  -3.179 -17.592  1.00  0.00     0.007 C 
ENDBRANCH  30  35
ENDBRANCH  23  27
ENDBRANCH  21  22
ENDBRANCH   1  21
BRANCH   7  40
HETATM   40  O1  UNL     1     -28.411  -6.473  -7.610  1.00  0.00    -0.322 OA
BRANCH  40  41
HETATM   41  C9  UNL     1     -27.589  -7.608  -7.635  1.00  0.00     0.183 C 
BRANCH  41  42
HETATM   42  C10 UNL     1     -27.903  -8.597  -8.717  1.00  0.00     0.010 A 
HETATM   43  C11 UNL     1     -26.945  -8.729  -9.880  1.00  0.00     0.007 A 
HETATM   44  C12 UNL     1     -26.929  -9.733  -8.813  1.00  0.00     0.007 A 
ENDBRANCH  41  42
ENDBRANCH  40  41
ENDBRANCH   7  40
TORSDOF 9
ENDMDL
MODEL 5
REMARK VINA RESULT: -7.579693734      1.347      1.709
REMARK  9 active torsions:
REMARK  status: ('A' for Active; 'I' for Inactive)
REMARK    1  A    between atoms: C2_2  and  N1_3 
REMARK    2  A    between atoms: N1_3  and  C3_4 
REMARK       I    between atoms: N1_3  and  C21_30 
REMARK    3  A    between atoms: C3_4  and  C4_5 
REMARK    4  A    between atoms: C8_11  and  O1_12 
REMARK    5  A    between atoms: O1_12  and  C9_13 
REMARK    6  A    between atoms: C9_13  and  C10_14 
REMARK    7  A    between atoms: C21_30  and  C22_32 
REMARK    8  A    between atoms: C25_35  and  O4_36 
REMARK    9  A    between atoms: C25_35  and  C26_38 
ROOT
HETATM    1  C4  UNL     1     -27.506   5.656 -14.194  1.00  0.00     0.147 C 
HETATM    2  C5  UNL     1     -28.049   6.877 -13.630  1.00  0.00     0.040 C 
HETATM    3  C6  UNL     1     -27.190   8.123 -13.632  1.00  0.00     0.061 C 
HETATM    4  C7  UNL     1     -26.826   8.611 -14.963  1.00  0.00     0.025 A 
HETATM    5  N2  UNL     1     -25.775   9.403 -14.887  1.00  0.00    -0.325 N 
ATOM      6  H2  UNL     1     -25.367   9.614 -13.977  1.00  0.00     0.169 HD
HETATM    7  C8  UNL     1     -25.227   9.944 -16.017  1.00  0.00     0.223 A 
HETATM    8  N3  UNL     1     -25.765   9.664 -17.214  1.00  0.00    -0.331 N 
ATOM      9  H3  UNL     1     -25.336  10.081 -18.040  1.00  0.00     0.168 HD
HETATM   10  C13 UNL     1     -26.837   8.867 -17.393  1.00  0.00     0.106 A 
HETATM   11  C14 UNL     1     -27.349   8.353 -16.237  1.00  0.00     0.018 A 
HETATM   12  C15 UNL     1     -28.461   7.540 -16.676  1.00  0.00     0.052 A 
HETATM   13  C16 UNL     1     -29.184   8.330 -17.486  1.00  0.00     0.130 A 
HETATM   14  F1  UNL     1     -29.067   9.630 -17.765  1.00  0.00    -0.205 F 
HETATM   15  C17 UNL     1     -30.299   7.689 -18.069  1.00  0.00     0.046 A 
HETATM   16  C18 UNL     1     -30.606   6.373 -17.815  1.00  0.00     0.048 A 
HETATM   17  C19 UNL     1     -29.799   5.613 -16.949  1.00  0.00     0.150 A 
HETATM   18  F2  UNL     1     -30.055   4.318 -16.664  1.00  0.00    -0.203 F 
HETATM   19  C20 UNL     1     -28.742   6.200 -16.390  1.00  0.00     0.122 A 
HETATM   20  O2  UNL     1     -28.029   5.334 -15.537  1.00  0.00    -0.340 OA
ENDROOT
BRANCH   1  21
HETATM   21  C3  UNL     1     -27.777   4.410 -13.419  1.00  0.00     0.158 C 
BRANCH  21  22
HETATM   22  N1  UNL     1     -26.706   3.532 -13.140  1.00  0.00    -0.350 N 
HETATM   23  C21 UNL     1     -26.640   2.632 -12.059  1.00  0.00     0.224 C 
HETATM   24  O3  UNL     1     -25.488   2.068 -11.900  1.00  0.00    -0.273 OA
BRANCH  22  25
HETATM   25  C2  UNL     1     -25.515   3.634 -14.030  1.00  0.00     0.121 C 
HETATM   26  C1  UNL     1     -24.940   5.038 -13.850  1.00  0.00     0.026 C 
ENDBRANCH  22  25
BRANCH  23  27
HETATM   27  C22 UNL     1     -27.734   2.281 -11.127  1.00  0.00     0.078 C 
HETATM   28  C23 UNL     1     -27.114   1.427 -10.009  1.00  0.00     0.017 C 
HETATM   29  C24 UNL     1     -26.920   0.042 -10.567  1.00  0.00     0.039 C 
HETATM   30  C25 UNL     1     -28.272  -0.670 -10.398  1.00  0.00     0.061 C 
HETATM   31  C31 UNL     1     -29.312   0.352 -10.733  1.00  0.00     0.039 C 
HETATM   32  C32 UNL     1     -28.784   1.368 -11.759  1.00  0.00     0.017 C 
BRANCH  30  33
HETATM   33  O4  UNL     1     -28.389  -1.742 -11.280  1.00  0.00    -0.389 OA
ATOM     34  H4  UNL     1     -29.200  -2.216 -11.137  1.00  0.00     0.210 HD
ENDBRANCH  30  33
BRANCH  30  35
HETATM   35  C26 UNL     1     -28.343  -1.144  -8.978  1.00  0.00     0.020 C 
HETATM   36  C27 UNL     1     -28.410  -2.646  -8.876  1.00  0.00     0.007 C 
HETATM   37  C28 UNL     1     -29.222  -2.955  -7.639  1.00  0.00     0.000 C 
HETATM   38  C29 UNL     1     -29.595  -1.603  -7.049  1.00  0.00     0.000 C 
HETATM   39  C30 UNL     1     -29.631  -0.731  -8.298  1.00  0.00     0.007 C 
ENDBRANCH  30  35
ENDBRANCH  23  27
ENDBRANCH  21  22
ENDBRANCH   1  21
BRANCH   7  40
HETATM   40  O1  UNL     1     -24.131  10.767 -15.876  1.00  0.00    -0.322 OA
BRANCH  40  41
HETATM   41  C9  UNL     1     -24.238  12.034 -15.286  1.00  0.00     0.183 C 
BRANCH  41  42
HETATM   42  C10 UNL     1     -25.602  12.381 -14.768  1.00  0.00     0.010 A 
HETATM   43  C11 UNL     1     -25.709  13.216 -13.511  1.00  0.00     0.007 A 
HETATM   44  C12 UNL     1     -25.924  13.845 -14.817  1.00  0.00     0.007 A 
ENDBRANCH  41  42
ENDBRANCH  40  41
ENDBRANCH   7  40
TORSDOF 9
ENDMDL
