MODEL 1
REMARK VINA RESULT: -7.550446447      0.000      0.000
REMARK  3 active torsions:
REMARK  status: ('A' for Active; 'I' for Inactive)
REMARK    1  A    between atoms: C1_2  and  N1_3 
REMARK    2  A    between atoms: N1_3  and  S1_5 
REMARK    3  A    between atoms: S1_5  and  C2_8 
ROOT
HETATM    1  C2  UNL     1     -31.284  86.213  34.180  1.00  0.00     0.163 A 
HETATM    2  C3  UNL     1     -31.236  86.607  35.498  1.00  0.00     0.123 A 
HETATM    3  N2  UNL     1     -31.077  85.722  36.495  1.00  0.00    -0.317 N 
ATOM      4  H2  UNL     1     -31.043  86.028  37.468  1.00  0.00     0.170 HD
HETATM    5  C4  UNL     1     -30.961  84.410  36.171  1.00  0.00     0.327 A 
HETATM    6  O4  UNL     1     -30.815  83.615  37.142  1.00  0.00    -0.247 OA
HETATM    7  N3  UNL     1     -30.998  83.958  34.913  1.00  0.00    -0.274 N 
ATOM      8  H3  UNL     1     -30.908  82.963  34.710  1.00  0.00     0.173 HD
HETATM    9  C5  UNL     1     -31.157  84.853  33.925  1.00  0.00     0.274 A 
HETATM   10  O5  UNL     1     -31.192  84.421  32.733  1.00  0.00    -0.266 OA
ENDROOT
BRANCH   1  11
HETATM   11  S1  UNL     1     -31.486  87.310  32.838  1.00  0.00     0.271 S 
HETATM   12  O2  UNL     1     -30.180  87.509  32.128  1.00  0.00    -0.200 OA
HETATM   13  O3  UNL     1     -31.908  88.642  33.392  1.00  0.00    -0.200 OA
BRANCH  11  14
HETATM   14  N1  UNL     1     -32.656  86.721  31.726  1.00  0.00    -0.257 N 
ATOM     15  H1  UNL     1     -33.557  86.378  32.061  1.00  0.00     0.181 HD
BRANCH  14  16
HETATM   16  C1  UNL     1     -32.362  86.715  30.349  1.00  0.00     0.363 C 
HETATM   17  O1  UNL     1     -32.330  87.796  29.721  1.00  0.00    -0.283 OA
ENDBRANCH  14  16
ENDBRANCH  11  14
ENDBRANCH   1  11
TORSDOF 3
ENDMDL
MODEL 2
REMARK VINA RESULT: -7.231783907      1.838      2.885
REMARK  3 active torsions:
REMARK  status: ('A' for Active; 'I' for Inactive)
REMARK    1  A    between atoms: C1_2  and  N1_3 
REMARK    2  A    between atoms: N1_3  and  S1_5 
REMARK    3  A    between atoms: S1_5  and  C2_8 
ROOT
HETATM    1  C2  UNL     1     -31.316  85.863  33.627  1.00  0.00     0.163 A 
HETATM    2  C3  UNL     1     -31.051  85.218  34.815  1.00  0.00     0.123 A 
HETATM    3  N2  UNL     1     -30.742  85.895  35.933  1.00  0.00    -0.317 N 
ATOM      4  H2  UNL     1     -30.547  85.405  36.806  1.00  0.00     0.170 HD
HETATM    5  C4  UNL     1     -30.698  87.250  35.867  1.00  0.00     0.327 A 
HETATM    6  O4  UNL     1     -30.401  87.842  36.942  1.00  0.00    -0.247 OA
HETATM    7  N3  UNL     1     -30.945  87.939  34.748  1.00  0.00    -0.274 N 
ATOM      8  H3  UNL     1     -30.901  88.958  34.739  1.00  0.00     0.173 HD
HETATM    9  C5  UNL     1     -31.252  87.251  33.638  1.00  0.00     0.274 A 
HETATM   10  O5  UNL     1     -31.486  87.908  32.577  1.00  0.00    -0.266 OA
ENDROOT
BRANCH   1  11
HETATM   11  S1  UNL     1     -31.725  85.046  32.141  1.00  0.00     0.271 S 
HETATM   12  O2  UNL     1     -32.178  83.644  32.426  1.00  0.00    -0.200 OA
HETATM   13  O3  UNL     1     -30.478  84.957  31.306  1.00  0.00    -0.200 OA
BRANCH  11  14
HETATM   14  N1  UNL     1     -32.962  85.883  31.292  1.00  0.00    -0.257 N 
ATOM     15  H1  UNL     1     -33.834  86.127  31.763  1.00  0.00     0.181 HD
BRANCH  14  16
HETATM   16  C1  UNL     1     -32.763  86.231  29.943  1.00  0.00     0.363 C 
HETATM   17  O1  UNL     1     -32.934  85.370  29.052  1.00  0.00    -0.283 OA
ENDBRANCH  14  16
ENDBRANCH  11  14
ENDBRANCH   1  11
TORSDOF 3
ENDMDL
MODEL 3
REMARK VINA RESULT: -6.999143826      1.881      5.064
REMARK  3 active torsions:
REMARK  status: ('A' for Active; 'I' for Inactive)
REMARK    1  A    between atoms: C1_2  and  N1_3 
REMARK    2  A    between atoms: N1_3  and  S1_5 
REMARK    3  A    between atoms: S1_5  and  C2_8 
ROOT
HETATM    1  C2  UNL     1     -31.302  86.465  33.980  1.00  0.00     0.163 A 
HETATM    2  C3  UNL     1     -31.403  85.163  33.544  1.00  0.00     0.123 A 
HETATM    3  N2  UNL     1     -31.899  84.860  32.333  1.00  0.00    -0.317 N 
ATOM      4  H2  UNL     1     -31.969  83.891  32.022  1.00  0.00     0.170 HD
HETATM    5  C4  UNL     1     -32.305  85.881  31.536  1.00  0.00     0.327 A 
HETATM    6  O4  UNL     1     -32.767  85.547  30.409  1.00  0.00    -0.247 OA
HETATM    7  N3  UNL     1     -32.235  87.166  31.897  1.00  0.00    -0.274 N 
ATOM      8  H3  UNL     1     -32.551  87.905  31.269  1.00  0.00     0.173 HD
HETATM    9  C5  UNL     1     -31.737  87.456  33.108  1.00  0.00     0.274 A 
HETATM   10  O5  UNL     1     -31.672  88.677  33.447  1.00  0.00    -0.266 OA
ENDROOT
BRANCH   1  11
HETATM   11  S1  UNL     1     -30.666  86.928  35.537  1.00  0.00     0.271 S 
HETATM   12  O2  UNL     1     -31.786  87.235  36.487  1.00  0.00    -0.200 OA
HETATM   13  O3  UNL     1     -29.870  88.190  35.353  1.00  0.00    -0.200 OA
BRANCH  11  14
HETATM   14  N1  UNL     1     -29.681  85.685  36.200  1.00  0.00    -0.257 N 
ATOM     15  H1  UNL     1     -28.680  85.660  36.000  1.00  0.00     0.181 HD
BRANCH  14  16
HETATM   16  C1  UNL     1     -30.265  84.701  37.020  1.00  0.00     0.363 C 
HETATM   17  O1  UNL     1     -29.556  84.090  37.849  1.00  0.00    -0.283 OA
ENDBRANCH  14  16
ENDBRANCH  11  14
ENDBRANCH   1  11
TORSDOF 3
ENDMDL
MODEL 4
REMARK VINA RESULT: -6.830833181      1.042      1.792
REMARK  3 active torsions:
REMARK  status: ('A' for Active; 'I' for Inactive)
REMARK    1  A    between atoms: C1_2  and  N1_3 
REMARK    2  A    between atoms: N1_3  and  S1_5 
REMARK    3  A    between atoms: S1_5  and  C2_8 
ROOT
HETATM    1  C2  UNL     1     -31.154  86.276  34.332  1.00  0.00     0.163 A 
HETATM    2  C3  UNL     1     -31.428  84.930  34.234  1.00  0.00     0.123 A 
HETATM    3  N2  UNL     1     -31.223  84.090  35.262  1.00  0.00    -0.317 N 
ATOM      4  H2  UNL     1     -31.429  83.095  35.176  1.00  0.00     0.170 HD
HETATM    5  C4  UNL     1     -30.733  84.605  36.418  1.00  0.00     0.327 A 
HETATM    6  O4  UNL     1     -30.554  83.777  37.355  1.00  0.00    -0.247 OA
HETATM    7  N3  UNL     1     -30.446  85.900  36.582  1.00  0.00    -0.274 N 
ATOM      8  H3  UNL     1     -30.079  86.249  37.467  1.00  0.00     0.173 HD
HETATM    9  C5  UNL     1     -30.656  86.730  35.548  1.00  0.00     0.274 A 
HETATM   10  O5  UNL     1     -30.383  87.959  35.706  1.00  0.00    -0.266 OA
ENDROOT
BRANCH   1  11
HETATM   11  S1  UNL     1     -31.400  87.420  33.038  1.00  0.00     0.271 S 
HETATM   12  O2  UNL     1     -30.081  87.845  32.462  1.00  0.00    -0.200 OA
HETATM   13  O3  UNL     1     -32.053  88.642  33.621  1.00  0.00    -0.200 OA
BRANCH  11  14
HETATM   14  N1  UNL     1     -32.376  86.750  31.793  1.00  0.00    -0.257 N 
ATOM     15  H1  UNL     1     -33.267  86.307  32.021  1.00  0.00     0.181 HD
BRANCH  14  16
HETATM   16  C1  UNL     1     -31.939  86.816  30.457  1.00  0.00     0.363 C 
HETATM   17  O1  UNL     1     -32.211  87.824  29.769  1.00  0.00    -0.283 OA
ENDBRANCH  14  16
ENDBRANCH  11  14
ENDBRANCH   1  11
TORSDOF 3
ENDMDL
MODEL 5
REMARK VINA RESULT: -6.554100790      2.007      2.992
REMARK  3 active torsions:
REMARK  status: ('A' for Active; 'I' for Inactive)
REMARK    1  A    between atoms: C1_2  and  N1_3 
REMARK    2  A    between atoms: N1_3  and  S1_5 
REMARK    3  A    between atoms: S1_5  and  C2_8 
ROOT
HETATM    1  C2  UNL     1     -31.411  85.866  33.472  1.00  0.00     0.163 A 
HETATM    2  C3  UNL     1     -31.125  85.212  34.650  1.00  0.00     0.123 A 
HETATM    3  N2  UNL     1     -30.784  85.879  35.764  1.00  0.00    -0.317 N 
ATOM      4  H2  UNL     1     -30.574  85.383  36.630  1.00  0.00     0.170 HD
HETATM    5  C4  UNL     1     -30.725  87.234  35.703  1.00  0.00     0.327 A 
HETATM    6  O4  UNL     1     -30.398  87.817  36.774  1.00  0.00    -0.247 OA
HETATM    7  N3  UNL     1     -30.990  87.931  34.594  1.00  0.00    -0.274 N 
ATOM      8  H3  UNL     1     -30.935  88.950  34.589  1.00  0.00     0.173 HD
HETATM    9  C5  UNL     1     -31.331  87.253  33.488  1.00  0.00     0.274 A 
HETATM   10  O5  UNL     1     -31.581  87.918  32.436  1.00  0.00    -0.266 OA
ENDROOT
BRANCH   1  11
HETATM   11  S1  UNL     1     -31.863  85.061  31.992  1.00  0.00     0.271 S 
HETATM   12  O2  UNL     1     -33.262  85.436  31.602  1.00  0.00    -0.200 OA
HETATM   13  O3  UNL     1     -31.847  83.580  32.250  1.00  0.00    -0.200 OA
BRANCH  11  14
HETATM   14  N1  UNL     1     -30.787  85.462  30.713  1.00  0.00    -0.257 N 
ATOM     15  H1  UNL     1     -29.804  85.196  30.766  1.00  0.00     0.181 HD
BRANCH  14  16
HETATM   16  C1  UNL     1     -31.274  86.161  29.592  1.00  0.00     0.363 C 
HETATM   17  O1  UNL     1     -32.076  85.598  28.815  1.00  0.00    -0.283 OA
ENDBRANCH  14  16
ENDBRANCH  11  14
ENDBRANCH   1  11
TORSDOF 3
ENDMDL
