MODEL 1
REMARK VINA RESULT: -7.872775186      0.000      0.000
REMARK  3 active torsions:
REMARK  status: ('A' for Active; 'I' for Inactive)
REMARK    1  A    between atoms: C2_2  and  C3_3 
REMARK    2  A    between atoms: C3_3  and  N1_4 
REMARK    3  A    between atoms: N6_18  and  O1_19 
ROOT
HETATM    1  N1  UNL     1     -31.468  84.785  32.034  1.00  0.00    -0.225 NA
HETATM    2  C4  UNL     1     -31.787  83.620  32.794  1.00  0.00     0.133 C 
HETATM    3  C5  UNL     1     -30.682  83.115  33.683  1.00  0.00     0.137 C 
HETATM    4  N2  UNL     1     -30.298  83.986  34.740  1.00  0.00    -0.371 N 
ATOM      5  H2  UNL     1     -29.789  83.505  35.481  1.00  0.00     0.161 HD
HETATM    6  C6  UNL     1     -30.449  85.244  34.973  1.00  0.00     0.166 A 
HETATM    7  N3  UNL     1     -29.876  85.689  36.204  1.00  0.00    -0.172 N 
ATOM      8  H3  UNL     1     -29.395  85.044  36.830  1.00  0.00     0.186 HD
HETATM    9  C7  UNL     1     -30.005  87.069  36.519  1.00  0.00     0.694 A 
HETATM   10  N4  UNL     1     -29.503  87.493  37.618  1.00  0.00    -0.233 N 
ATOM     11  H41 UNL     1     -29.595  88.484  37.844  1.00  0.00     0.174 HD
ATOM     12  H42 UNL     1     -29.009  86.903  38.288  1.00  0.00     0.174 HD
HETATM   13  N5  UNL     1     -30.696  87.896  35.583  1.00  0.00    -0.104 N 
ATOM     14  H5  UNL     1     -30.799  88.888  35.796  1.00  0.00     0.208 HD
HETATM   15  N6  UNL     1     -31.239  87.414  34.392  1.00  0.00    -0.127 N 
HETATM   16  C8  UNL     1     -31.142  86.175  34.075  1.00  0.00     0.207 A 
HETATM   17  N7  UNL     1     -31.771  85.904  32.815  1.00  0.00    -0.298 N 
ATOM     18  H7  UNL     1     -32.473  86.559  32.471  1.00  0.00     0.182 HD
ENDROOT
BRANCH   1  19
HETATM   19  C3  UNL     1     -32.218  84.905  30.810  1.00  0.00     0.140 C 
BRANCH  19  20
HETATM   20  C2  UNL     1     -31.778  86.033  29.947  1.00  0.00    -0.021 C 
HETATM   21  C1  UNL     1     -30.470  86.281  29.911  1.00  0.00     0.008 C 
ENDBRANCH  19  20
ENDBRANCH   1  19
BRANCH  15  22
HETATM   22  O1  UNL     1     -31.903  88.261  33.513  1.00  0.00    -0.266 OA
ATOM     23  H1  UNL     1     -32.507  87.919  32.865  1.00  0.00     0.247 HD
ENDBRANCH  15  22
TORSDOF 3
ENDMDL
MODEL 2
REMARK VINA RESULT: -7.405425398      1.478      4.788
REMARK  3 active torsions:
REMARK  status: ('A' for Active; 'I' for Inactive)
REMARK    1  A    between atoms: C2_2  and  C3_3 
REMARK    2  A    between atoms: C3_3  and  N1_4 
REMARK    3  A    between atoms: N6_18  and  O1_19 
ROOT
HETATM    1  N1  UNL     1     -30.819  85.293  35.476  1.00  0.00    -0.225 NA
HETATM    2  C4  UNL     1     -29.886  84.313  35.022  1.00  0.00     0.133 C 
HETATM    3  C5  UNL     1     -30.490  83.157  34.270  1.00  0.00     0.137 C 
HETATM    4  N2  UNL     1     -31.105  83.487  33.031  1.00  0.00    -0.371 N 
ATOM      5  H2  UNL     1     -31.223  82.677  32.422  1.00  0.00     0.161 HD
HETATM    6  C6  UNL     1     -31.548  84.575  32.503  1.00  0.00     0.166 A 
HETATM    7  N3  UNL     1     -32.102  84.416  31.196  1.00  0.00    -0.172 N 
ATOM      8  H3  UNL     1     -32.130  83.505  30.738  1.00  0.00     0.186 HD
HETATM    9  C7  UNL     1     -32.611  85.580  30.559  1.00  0.00     0.694 A 
HETATM   10  N4  UNL     1     -33.111  85.465  29.385  1.00  0.00    -0.233 N 
ATOM     11  H41 UNL     1     -33.477  86.300  28.929  1.00  0.00     0.174 HD
ATOM     12  H42 UNL     1     -33.170  84.585  28.873  1.00  0.00     0.174 HD
HETATM   13  N5  UNL     1     -32.528  86.812  31.276  1.00  0.00    -0.104 N 
ATOM     14  H5  UNL     1     -32.887  87.656  30.832  1.00  0.00     0.208 HD
HETATM   15  N6  UNL     1     -31.978  86.917  32.554  1.00  0.00    -0.127 N 
HETATM   16  C8  UNL     1     -31.508  85.888  33.158  1.00  0.00     0.207 A 
HETATM   17  N7  UNL     1     -30.994  86.229  34.453  1.00  0.00    -0.298 N 
ATOM     18  H7  UNL     1     -30.742  87.200  34.636  1.00  0.00     0.182 HD
ENDROOT
BRANCH   1  19
HETATM   19  C3  UNL     1     -30.382  86.016  36.643  1.00  0.00     0.140 C 
BRANCH  19  20
HETATM   20  C2  UNL     1     -30.533  87.491  36.524  1.00  0.00    -0.021 C 
HETATM   21  C1  UNL     1     -29.529  88.233  36.985  1.00  0.00     0.008 C 
ENDBRANCH  19  20
ENDBRANCH   1  19
BRANCH  15  22
HETATM   22  O1  UNL     1     -31.920  88.141  33.210  1.00  0.00    -0.266 OA
ATOM     23  H1  UNL     1     -32.618  88.779  33.119  1.00  0.00     0.247 HD
ENDBRANCH  15  22
TORSDOF 3
ENDMDL
MODEL 3
REMARK VINA RESULT: -6.747056384      1.302      1.748
REMARK  3 active torsions:
REMARK  status: ('A' for Active; 'I' for Inactive)
REMARK    1  A    between atoms: C2_2  and  C3_3 
REMARK    2  A    between atoms: C3_3  and  N1_4 
REMARK    3  A    between atoms: N6_18  and  O1_19 
ROOT
HETATM    1  N1  UNL     1     -31.731  85.941  31.908  1.00  0.00    -0.225 NA
HETATM    2  C4  UNL     1     -32.590  84.802  31.952  1.00  0.00     0.133 C 
HETATM    3  C5  UNL     1     -31.914  83.506  32.310  1.00  0.00     0.137 C 
HETATM    4  N2  UNL     1     -31.371  83.440  33.623  1.00  0.00    -0.371 N 
ATOM      5  H2  UNL     1     -31.204  82.483  33.933  1.00  0.00     0.161 HD
HETATM    6  C6  UNL     1     -31.042  84.315  34.510  1.00  0.00     0.166 A 
HETATM    7  N3  UNL     1     -30.520  83.763  35.720  1.00  0.00    -0.172 N 
ATOM      8  H3  UNL     1     -30.428  82.756  35.848  1.00  0.00     0.186 HD
HETATM    9  C7  UNL     1     -30.134  84.677  36.738  1.00  0.00     0.694 A 
HETATM   10  N4  UNL     1     -29.666  84.208  37.834  1.00  0.00    -0.233 N 
ATOM     11  H41 UNL     1     -29.389  84.863  38.564  1.00  0.00     0.174 HD
ATOM     12  H42 UNL     1     -29.548  83.213  38.026  1.00  0.00     0.174 HD
HETATM   13  N5  UNL     1     -30.301  86.069  36.469  1.00  0.00    -0.104 N 
ATOM     14  H5  UNL     1     -30.030  86.738  37.190  1.00  0.00     0.208 HD
HETATM   15  N6  UNL     1     -30.815  86.561  35.269  1.00  0.00    -0.127 N 
HETATM   16  C8  UNL     1     -31.173  85.766  34.329  1.00  0.00     0.207 A 
HETATM   17  N7  UNL     1     -31.672  86.486  33.194  1.00  0.00    -0.298 N 
ATOM     18  H7  UNL     1     -32.001  87.442  33.331  1.00  0.00     0.182 HD
ENDROOT
BRANCH   1  19
HETATM   19  C3  UNL     1     -32.191  86.983  31.026  1.00  0.00     0.140 C 
BRANCH  19  20
HETATM   20  C2  UNL     1     -31.343  87.159  29.816  1.00  0.00    -0.021 C 
HETATM   21  C1  UNL     1     -30.192  86.490  29.792  1.00  0.00     0.008 C 
ENDBRANCH  19  20
ENDBRANCH   1  19
BRANCH  15  22
HETATM   22  O1  UNL     1     -30.957  87.927  35.057  1.00  0.00    -0.266 OA
ATOM     23  H1  UNL     1     -31.668  88.413  35.457  1.00  0.00     0.247 HD
ENDBRANCH  15  22
TORSDOF 3
ENDMDL
MODEL 4
REMARK VINA RESULT: -6.609229457      1.939      3.186
REMARK  3 active torsions:
REMARK  status: ('A' for Active; 'I' for Inactive)
REMARK    1  A    between atoms: C2_2  and  C3_3 
REMARK    2  A    between atoms: C3_3  and  N1_4 
REMARK    3  A    between atoms: N6_18  and  O1_19 
ROOT
HETATM    1  N1  UNL     1     -31.916  86.620  32.272  1.00  0.00    -0.225 NA
HETATM    2  C4  UNL     1     -31.143  87.717  32.758  1.00  0.00     0.133 C 
HETATM    3  C5  UNL     1     -31.516  88.199  34.135  1.00  0.00     0.137 C 
HETATM    4  N2  UNL     1     -31.296  87.271  35.190  1.00  0.00    -0.371 N 
ATOM      5  H2  UNL     1     -31.263  87.717  36.107  1.00  0.00     0.161 HD
HETATM    6  C6  UNL     1     -31.128  85.995  35.250  1.00  0.00     0.166 A 
HETATM    7  N3  UNL     1     -30.936  85.486  36.571  1.00  0.00    -0.172 N 
ATOM      8  H3  UNL     1     -30.934  86.103  37.383  1.00  0.00     0.186 HD
HETATM    9  C7  UNL     1     -30.749  84.083  36.707  1.00  0.00     0.694 A 
HETATM   10  N4  UNL     1     -30.572  83.602  37.880  1.00  0.00    -0.233 N 
ATOM     11  H41 UNL     1     -30.438  82.595  37.978  1.00  0.00     0.174 HD
ATOM     12  H42 UNL     1     -30.559  84.162  38.733  1.00  0.00     0.174 HD
HETATM   13  N5  UNL     1     -30.766  83.299  35.514  1.00  0.00    -0.104 N 
ATOM     14  H5  UNL     1     -30.632  82.291  35.594  1.00  0.00     0.208 HD
HETATM   15  N6  UNL     1     -30.958  83.843  34.244  1.00  0.00    -0.127 N 
HETATM   16  C8  UNL     1     -31.130  85.103  34.084  1.00  0.00     0.207 A 
HETATM   17  N7  UNL     1     -31.305  85.439  32.700  1.00  0.00    -0.298 N 
ATOM     18  H7  UNL     1     -30.967  84.784  31.995  1.00  0.00     0.182 HD
ENDROOT
BRANCH   1  19
HETATM   19  C3  UNL     1     -31.997  86.559  30.834  1.00  0.00     0.140 C 
BRANCH  19  20
HETATM   20  C2  UNL     1     -32.202  85.184  30.305  1.00  0.00    -0.021 C 
HETATM   21  C1  UNL     1     -32.623  85.086  29.046  1.00  0.00     0.008 C 
ENDBRANCH  19  20
ENDBRANCH   1  19
BRANCH  15  22
HETATM   22  O1  UNL     1     -30.967  83.035  33.113  1.00  0.00    -0.266 OA
ATOM     23  H1  UNL     1     -31.679  82.429  32.950  1.00  0.00     0.247 HD
ENDBRANCH  15  22
TORSDOF 3
ENDMDL
MODEL 5
REMARK VINA RESULT: -6.574553125      2.276      5.590
REMARK  3 active torsions:
REMARK  status: ('A' for Active; 'I' for Inactive)
REMARK    1  A    between atoms: C2_2  and  C3_3 
REMARK    2  A    between atoms: C3_3  and  N1_4 
REMARK    3  A    between atoms: N6_18  and  O1_19 
ROOT
HETATM    1  N1  UNL     1     -30.440  86.056  35.013  1.00  0.00    -0.225 NA
HETATM    2  C4  UNL     1     -31.321  87.168  35.171  1.00  0.00     0.133 C 
HETATM    3  C5  UNL     1     -31.277  88.180  34.057  1.00  0.00     0.137 C 
HETATM    4  N2  UNL     1     -31.713  87.714  32.787  1.00  0.00    -0.371 N 
ATOM      5  H2  UNL     1     -31.959  88.473  32.151  1.00  0.00     0.161 HD
HETATM    6  C6  UNL     1     -31.868  86.550  32.256  1.00  0.00     0.166 A 
HETATM    7  N3  UNL     1     -32.344  86.573  30.909  1.00  0.00    -0.172 N 
ATOM      8  H3  UNL     1     -32.540  87.451  30.430  1.00  0.00     0.186 HD
HETATM    9  C7  UNL     1     -32.533  85.320  30.264  1.00  0.00     0.694 A 
HETATM   10  N4  UNL     1     -32.961  85.313  29.058  1.00  0.00    -0.233 N 
ATOM     11  H41 UNL     1     -33.096  84.414  28.595  1.00  0.00     0.174 HD
ATOM     12  H42 UNL     1     -33.175  86.154  28.521  1.00  0.00     0.174 HD
HETATM   13  N5  UNL     1     -32.233  84.143  31.015  1.00  0.00    -0.104 N 
ATOM     14  H5  UNL     1     -32.365  83.236  30.567  1.00  0.00     0.208 HD
HETATM   15  N6  UNL     1     -31.770  84.171  32.330  1.00  0.00    -0.127 N 
HETATM   16  C8  UNL     1     -31.588  85.283  32.942  1.00  0.00     0.207 A 
HETATM   17  N7  UNL     1     -31.112  85.074  34.279  1.00  0.00    -0.298 N 
ATOM     18  H7  UNL     1     -31.271  84.167  34.716  1.00  0.00     0.182 HD
ENDROOT
BRANCH   1  19
HETATM   19  C3  UNL     1     -30.036  85.454  36.258  1.00  0.00     0.140 C 
BRANCH  19  20
HETATM   20  C2  UNL     1     -31.104  84.644  36.904  1.00  0.00    -0.021 C 
HETATM   21  C1  UNL     1     -30.703  83.674  37.723  1.00  0.00     0.008 C 
ENDBRANCH  19  20
ENDBRANCH   1  19
BRANCH  15  22
HETATM   22  O1  UNL     1     -31.492  82.995  33.017  1.00  0.00    -0.266 OA
ATOM     23  H1  UNL     1     -31.385  82.173  32.556  1.00  0.00     0.247 HD
ENDBRANCH  15  22
TORSDOF 3
ENDMDL
