MODEL 1
REMARK VINA RESULT: -6.413685837      0.000      0.000
REMARK  6 active torsions:
REMARK  status: ('A' for Active; 'I' for Inactive)
REMARK    1  A    between atoms: C6_7  and  N2_8 
REMARK    2  A    between atoms: N2_8  and  C7_10 
REMARK    3  A    between atoms: C7_10  and  O1_11 
REMARK    4  A    between atoms: C7_10  and  C8_13 
REMARK    5  A    between atoms: C8_13  and  N3_14 
REMARK    6  A    between atoms: N5_20  and  O2_21 
ROOT
HETATM    1  C1  UNL     1     -30.090  84.613  37.186  1.00  0.00     0.075 C 
HETATM    2  C2  UNL     1     -30.537  84.945  35.812  1.00  0.00     0.078 A 
HETATM    3  C3  UNL     1     -30.678  86.277  35.487  1.00  0.00     0.051 A 
HETATM    4  C4  UNL     1     -30.377  87.326  36.524  1.00  0.00     0.071 C 
HETATM    5  N1  UNL     1     -31.077  86.582  34.263  1.00  0.00    -0.189 N 
HETATM    6  C5  UNL     1     -31.227  87.972  33.913  1.00  0.00     0.175 C 
HETATM    7  C6  UNL     1     -31.360  85.662  33.292  1.00  0.00     0.698 A 
HETATM    8  N4  UNL     1     -31.211  84.380  33.650  1.00  0.00    -0.105 N 
ATOM      9  H4  UNL     1     -31.410  83.651  32.965  1.00  0.00     0.208 HD
HETATM   10  N5  UNL     1     -30.808  84.021  34.882  1.00  0.00    -0.152 N 
ENDROOT
BRANCH   7  11
HETATM   11  N2  UNL     1     -31.736  86.058  32.147  1.00  0.00    -0.197 N 
ATOM     12  H2  UNL     1     -31.307  86.935  31.850  1.00  0.00     0.180 HD
BRANCH  11  13
HETATM   13  C7  UNL     1     -32.631  85.517  31.209  1.00  0.00     0.260 C 
BRANCH  13  14
HETATM   14  O1  UNL     1     -32.433  84.138  31.130  1.00  0.00    -0.374 OA
ATOM     15  H1  UNL     1     -32.862  83.806  30.349  1.00  0.00     0.212 HD
ENDBRANCH  13  14
BRANCH  13  16
HETATM   16  C8  UNL     1     -32.469  86.123  29.836  1.00  0.00     0.283 C 
BRANCH  16  17
HETATM   17  N3  UNL     1     -32.413  87.551  29.853  1.00  0.00    -0.075 N 
ATOM     18  H33 UNL     1     -33.249  87.952  29.430  1.00  0.00     0.274 HD
ATOM     19  H32 UNL     1     -32.519  87.907  30.803  1.00  0.00     0.274 HD
ATOM     20  H31 UNL     1     -31.570  87.926  29.417  1.00  0.00     0.274 HD
ENDBRANCH  16  17
ENDBRANCH  13  16
ENDBRANCH  11  13
ENDBRANCH   7  11
BRANCH  10  21
HETATM   21  O2  UNL     1     -30.663  82.690  35.218  1.00  0.00    -0.267 OA
ATOM     22  H2  UNL     1     -29.785  82.343  35.317  1.00  0.00     0.247 HD
ENDBRANCH  10  21
TORSDOF 6
ENDMDL
MODEL 2
REMARK VINA RESULT: -6.358963818      1.315      1.315
REMARK  6 active torsions:
REMARK  status: ('A' for Active; 'I' for Inactive)
REMARK    1  A    between atoms: C6_7  and  N2_8 
REMARK    2  A    between atoms: N2_8  and  C7_10 
REMARK    3  A    between atoms: C7_10  and  O1_11 
REMARK    4  A    between atoms: C7_10  and  C8_13 
REMARK    5  A    between atoms: C8_13  and  N3_14 
REMARK    6  A    between atoms: N5_20  and  O2_21 
ROOT
HETATM    1  C1  UNL     1     -29.796  84.483  36.811  1.00  0.00     0.075 C 
HETATM    2  C2  UNL     1     -30.399  84.881  35.516  1.00  0.00     0.078 A 
HETATM    3  C3  UNL     1     -30.721  86.210  35.340  1.00  0.00     0.051 A 
HETATM    4  C4  UNL     1     -30.453  87.189  36.451  1.00  0.00     0.071 C 
HETATM    5  N1  UNL     1     -31.260  86.573  34.188  1.00  0.00    -0.189 N 
HETATM    6  C5  UNL     1     -31.601  87.961  33.992  1.00  0.00     0.175 C 
HETATM    7  C6  UNL     1     -31.520  85.719  33.153  1.00  0.00     0.698 A 
HETATM    8  N4  UNL     1     -31.192  84.437  33.366  1.00  0.00    -0.105 N 
ATOM      9  H4  UNL     1     -31.365  83.755  32.627  1.00  0.00     0.208 HD
HETATM   10  N5  UNL     1     -30.643  84.020  34.520  1.00  0.00    -0.152 N 
ENDROOT
BRANCH   7  11
HETATM   11  N2  UNL     1     -32.039  86.168  32.086  1.00  0.00    -0.197 N 
ATOM     12  H2  UNL     1     -33.053  86.268  32.129  1.00  0.00     0.180 HD
BRANCH  11  13
HETATM   13  C7  UNL     1     -31.482  86.553  30.855  1.00  0.00     0.260 C 
BRANCH  13  14
HETATM   14  O1  UNL     1     -31.893  87.850  30.552  1.00  0.00    -0.374 OA
ATOM     15  H1  UNL     1     -32.298  87.857  29.692  1.00  0.00     0.212 HD
ENDBRANCH  13  14
BRANCH  13  16
HETATM   16  C8  UNL     1     -31.875  85.629  29.728  1.00  0.00     0.283 C 
BRANCH  16  17
HETATM   17  N3  UNL     1     -33.145  85.004  29.926  1.00  0.00    -0.075 N 
ATOM     18  H33 UNL     1     -33.396  84.430  29.122  1.00  0.00     0.274 HD
ATOM     19  H32 UNL     1     -33.084  84.277  30.639  1.00  0.00     0.274 HD
ATOM     20  H31 UNL     1     -33.890  85.666  30.146  1.00  0.00     0.274 HD
ENDBRANCH  16  17
ENDBRANCH  13  16
ENDBRANCH  11  13
ENDBRANCH   7  11
BRANCH  10  21
HETATM   21  O2  UNL     1     -30.316  82.692  34.708  1.00  0.00    -0.267 OA
ATOM     22  H2  UNL     1     -30.118  82.397  35.589  1.00  0.00     0.247 HD
ENDBRANCH  10  21
TORSDOF 6
ENDMDL
MODEL 3
REMARK VINA RESULT: -6.201698175      2.171      2.879
REMARK  6 active torsions:
REMARK  status: ('A' for Active; 'I' for Inactive)
REMARK    1  A    between atoms: C6_7  and  N2_8 
REMARK    2  A    between atoms: N2_8  and  C7_10 
REMARK    3  A    between atoms: C7_10  and  O1_11 
REMARK    4  A    between atoms: C7_10  and  C8_13 
REMARK    5  A    between atoms: C8_13  and  N3_14 
REMARK    6  A    between atoms: N5_20  and  O2_21 
ROOT
HETATM    1  C1  UNL     1     -30.028  85.199  36.534  1.00  0.00     0.075 C 
HETATM    2  C2  UNL     1     -30.642  85.636  35.257  1.00  0.00     0.078 A 
HETATM    3  C3  UNL     1     -30.936  84.666  34.322  1.00  0.00     0.051 A 
HETATM    4  C4  UNL     1     -30.626  83.225  34.630  1.00  0.00     0.071 C 
HETATM    5  N1  UNL     1     -31.483  85.046  33.180  1.00  0.00    -0.189 N 
HETATM    6  C5  UNL     1     -31.795  84.040  32.195  1.00  0.00     0.175 C 
HETATM    7  C6  UNL     1     -31.781  86.341  32.860  1.00  0.00     0.698 A 
HETATM    8  N4  UNL     1     -31.479  87.252  33.795  1.00  0.00    -0.105 N 
ATOM      9  H4  UNL     1     -31.678  88.235  33.610  1.00  0.00     0.208 HD
HETATM   10  N5  UNL     1     -30.921  86.913  34.972  1.00  0.00    -0.152 N 
ENDROOT
BRANCH   7  11
HETATM   11  N2  UNL     1     -32.307  86.603  31.735  1.00  0.00    -0.197 N 
ATOM     12  H2  UNL     1     -33.294  86.357  31.672  1.00  0.00     0.180 HD
BRANCH  11  13
HETATM   13  C7  UNL     1     -31.785  87.168  30.559  1.00  0.00     0.260 C 
BRANCH  13  14
HETATM   14  O1  UNL     1     -32.838  87.586  29.746  1.00  0.00    -0.374 OA
ATOM     15  H1  UNL     1     -33.623  87.103  29.977  1.00  0.00     0.212 HD
ENDBRANCH  13  14
BRANCH  13  16
HETATM   16  C8  UNL     1     -30.914  86.204  29.791  1.00  0.00     0.283 C 
BRANCH  16  17
HETATM   17  N3  UNL     1     -29.520  86.366  30.058  1.00  0.00    -0.075 N 
ATOM     18  H33 UNL     1     -29.348  87.225  30.580  1.00  0.00     0.274 HD
ATOM     19  H32 UNL     1     -29.202  85.685  30.747  1.00  0.00     0.274 HD
ATOM     20  H31 UNL     1     -28.942  86.330  29.219  1.00  0.00     0.274 HD
ENDBRANCH  16  17
ENDBRANCH  13  16
ENDBRANCH  11  13
ENDBRANCH   7  11
BRANCH  10  21
HETATM   21  O2  UNL     1     -30.623  87.875  35.915  1.00  0.00    -0.267 OA
ATOM     22  H2  UNL     1     -30.677  88.789  35.660  1.00  0.00     0.247 HD
ENDBRANCH  10  21
TORSDOF 6
ENDMDL
MODEL 4
REMARK VINA RESULT: -6.073105435      1.961      2.760
REMARK  6 active torsions:
REMARK  status: ('A' for Active; 'I' for Inactive)
REMARK    1  A    between atoms: C6_7  and  N2_8 
REMARK    2  A    between atoms: N2_8  and  C7_10 
REMARK    3  A    between atoms: C7_10  and  O1_11 
REMARK    4  A    between atoms: C7_10  and  C8_13 
REMARK    5  A    between atoms: C8_13  and  N3_14 
REMARK    6  A    between atoms: N5_20  and  O2_21 
ROOT
HETATM    1  C1  UNL     1     -29.944  87.661  36.637  1.00  0.00     0.075 C 
HETATM    2  C2  UNL     1     -30.464  87.013  35.409  1.00  0.00     0.078 A 
HETATM    3  C3  UNL     1     -30.695  85.655  35.450  1.00  0.00     0.051 A 
HETATM    4  C4  UNL     1     -30.414  84.895  36.719  1.00  0.00     0.071 C 
HETATM    5  N1  UNL     1     -31.159  85.068  34.359  1.00  0.00    -0.189 N 
HETATM    6  C5  UNL     1     -31.405  83.647  34.391  1.00  0.00     0.175 C 
HETATM    7  C6  UNL     1     -31.428  85.719  33.188  1.00  0.00     0.698 A 
HETATM    8  N4  UNL     1     -31.190  87.037  33.191  1.00  0.00    -0.105 N 
ATOM      9  H4  UNL     1     -31.372  87.573  32.342  1.00  0.00     0.208 HD
HETATM   10  N5  UNL     1     -30.718  87.678  34.275  1.00  0.00    -0.152 N 
ENDROOT
BRANCH   7  11
HETATM   11  N2  UNL     1     -31.873  85.064  32.195  1.00  0.00    -0.197 N 
ATOM     12  H2  UNL     1     -32.617  84.408  32.432  1.00  0.00     0.180 HD
BRANCH  11  13
HETATM   13  C7  UNL     1     -31.533  85.071  30.832  1.00  0.00     0.260 C 
BRANCH  13  14
HETATM   14  O1  UNL     1     -30.332  85.760  30.663  1.00  0.00    -0.374 OA
ATOM     15  H1  UNL     1     -29.900  85.447  29.877  1.00  0.00     0.212 HD
ENDBRANCH  13  14
BRANCH  13  16
HETATM   16  C8  UNL     1     -32.598  85.709  29.974  1.00  0.00     0.283 C 
BRANCH  16  17
HETATM   17  N3  UNL     1     -32.652  87.131  30.104  1.00  0.00    -0.075 N 
ATOM     18  H33 UNL     1     -33.565  87.429  30.448  1.00  0.00     0.274 HD
ATOM     19  H32 UNL     1     -32.070  87.446  30.880  1.00  0.00     0.274 HD
ATOM     20  H31 UNL     1     -32.410  87.624  29.245  1.00  0.00     0.274 HD
ENDBRANCH  16  17
ENDBRANCH  13  16
ENDBRANCH  11  13
ENDBRANCH   7  11
BRANCH  10  21
HETATM   21  O2  UNL     1     -30.483  89.037  34.246  1.00  0.00    -0.267 OA
ATOM     22  H2  UNL     1     -29.616  89.350  34.477  1.00  0.00     0.247 HD
ENDBRANCH  10  21
TORSDOF 6
ENDMDL
MODEL 5
REMARK VINA RESULT: -6.036569491      2.239      2.882
REMARK  6 active torsions:
REMARK  status: ('A' for Active; 'I' for Inactive)
REMARK    1  A    between atoms: C6_7  and  N2_8 
REMARK    2  A    between atoms: N2_8  and  C7_10 
REMARK    3  A    between atoms: C7_10  and  O1_11 
REMARK    4  A    between atoms: C7_10  and  C8_13 
REMARK    5  A    between atoms: C8_13  and  N3_14 
REMARK    6  A    between atoms: N5_20  and  O2_21 
ROOT
HETATM    1  C1  UNL     1     -29.971  85.708  36.592  1.00  0.00     0.075 C 
HETATM    2  C2  UNL     1     -30.570  86.028  35.274  1.00  0.00     0.078 A 
HETATM    3  C3  UNL     1     -30.989  84.975  34.489  1.00  0.00     0.051 A 
HETATM    4  C4  UNL     1     -30.825  83.566  34.991  1.00  0.00     0.071 C 
HETATM    5  N1  UNL     1     -31.524  85.251  33.311  1.00  0.00    -0.189 N 
HETATM    6  C5  UNL     1     -31.967  84.158  32.481  1.00  0.00     0.175 C 
HETATM    7  C6  UNL     1     -31.692  86.514  32.816  1.00  0.00     0.698 A 
HETATM    8  N4  UNL     1     -31.271  87.507  33.611  1.00  0.00    -0.105 N 
ATOM      9  H4  UNL     1     -31.371  88.471  33.291  1.00  0.00     0.208 HD
HETATM   10  N5  UNL     1     -30.721  87.276  34.816  1.00  0.00    -0.152 N 
ENDROOT
BRANCH   7  11
HETATM   11  N2  UNL     1     -32.218  86.673  31.672  1.00  0.00    -0.197 N 
ATOM     12  H2  UNL     1     -33.228  86.531  31.657  1.00  0.00     0.180 HD
BRANCH  11  13
HETATM   13  C7  UNL     1     -31.672  87.008  30.421  1.00  0.00     0.260 C 
BRANCH  13  14
HETATM   14  O1  UNL     1     -32.456  87.998  29.829  1.00  0.00    -0.374 OA
ATOM     15  H1  UNL     1     -32.383  88.799  30.335  1.00  0.00     0.212 HD
ENDBRANCH  13  14
BRANCH  13  16
HETATM   16  C8  UNL     1     -31.582  85.821  29.493  1.00  0.00     0.283 C 
BRANCH  16  17
HETATM   17  N3  UNL     1     -32.806  85.091  29.389  1.00  0.00    -0.075 N 
ATOM     18  H33 UNL     1     -33.569  85.702  29.099  1.00  0.00     0.274 HD
ATOM     19  H32 UNL     1     -32.784  84.458  28.589  1.00  0.00     0.274 HD
ATOM     20  H31 UNL     1     -33.049  84.588  30.243  1.00  0.00     0.274 HD
ENDBRANCH  16  17
ENDBRANCH  13  16
ENDBRANCH  11  13
ENDBRANCH   7  11
BRANCH  10  21
HETATM   21  O2  UNL     1     -30.297  88.322  35.611  1.00  0.00    -0.267 OA
ATOM     22  H2  UNL     1     -30.533  88.312  36.532  1.00  0.00     0.247 HD
ENDBRANCH  10  21
TORSDOF 6
ENDMDL
