MODEL 1
REMARK VINA RESULT: -7.929788253      0.000      0.000
REMARK  8 active torsions:
REMARK  status: ('A' for Active; 'I' for Inactive)
REMARK    1  A    between atoms: C2_2  and  C3_3 
REMARK    2  A    between atoms: C3_3  and  C4_4 
REMARK    3  A    between atoms: C3_3  and  C7_7 
REMARK    4  A    between atoms: C7_7  and  C9_9 
REMARK    5  A    between atoms: C12_13  and  N1_14 
REMARK    6  A    between atoms: N1_14  and  C13_16 
REMARK    7  A    between atoms: C14_19  and  N3_20 
REMARK    8  A    between atoms: C21_34  and  S1_35 
ROOT
HETATM    1  C9  UNL     1     -95.116 -18.636  44.776  1.00  0.00    -0.011 A 
HETATM    2  C10 UNL     1     -95.587 -19.020  43.480  1.00  0.00     0.044 A 
HETATM    3 CL1  UNL     1     -94.408 -19.526  42.249  1.00  0.00    -0.084 Cl
HETATM    4  C11 UNL     1     -96.876 -19.029  43.105  1.00  0.00     0.054 A 
HETATM    5  C12 UNL     1     -97.816 -18.639  44.036  1.00  0.00     0.052 A 
HETATM    6  C20 UNL     1     -97.403 -18.267  45.265  1.00  0.00     0.054 A 
HETATM    7  C21 UNL     1     -96.027 -18.246  45.692  1.00  0.00     0.069 A 
ENDROOT
BRANCH   5   8
HETATM    8  N1  UNL     1     -99.191 -18.641  43.683  1.00  0.00    -0.192 N 
ATOM      9  H1  UNL     1     -99.405 -18.339  42.732  1.00  0.00     0.184 HD
BRANCH   8  10
HETATM   10  C13 UNL     1    -100.180 -18.966  44.389  1.00  0.00     0.684 A 
HETATM   11  N2  UNL     1    -101.439 -18.847  43.977  1.00  0.00    -0.176 N 
HETATM   12  C14 UNL     1    -102.425 -19.260  44.795  1.00  0.00     0.127 A 
ATOM     13  H2  UNL     1    -101.653 -18.452  43.061  1.00  0.00     0.186 HD
HETATM   14  C15 UNL     1    -102.172 -19.799  46.038  1.00  0.00     0.042 A 
HETATM   15  C16 UNL     1    -103.156 -20.230  46.897  1.00  0.00     0.035 A 
HETATM   16  C19 UNL     1    -100.862 -19.912  46.441  1.00  0.00     0.131 A 
HETATM   17  C17 UNL     1    -102.828 -20.771  48.148  1.00  0.00     0.092 A 
HETATM   18  N4  UNL     1    -101.548 -20.872  48.519  1.00  0.00    -0.332 N 
HETATM   19  C18 UNL     1    -100.572 -20.455  47.694  1.00  0.00     0.273 A 
ATOM     20  H4  UNL     1    -101.312 -21.265  49.431  1.00  0.00     0.168 HD
HETATM   21  O1  UNL     1     -99.374 -20.552  48.048  1.00  0.00    -0.266 OA
HETATM   22  N5  UNL     1     -99.880 -19.498  45.625  1.00  0.00    -0.185 N 
ATOM     23  H5  UNL     1     -98.907 -19.578  45.920  1.00  0.00     0.184 HD
BRANCH  12  24
HETATM   24  N3  UNL     1    -103.638 -19.139  44.394  1.00  0.00    -0.384 N 
ATOM     25  H32 UNL     1    -103.885 -18.376  43.765  1.00  0.00     0.157 HD
ATOM     26  H31 UNL     1    -104.324 -19.820  44.720  1.00  0.00     0.157 HD
ENDBRANCH  12  24
ENDBRANCH   8  10
ENDBRANCH   5   8
BRANCH   7  27
HETATM   27  S1  UNL     1     -95.791 -17.631  47.229  1.00  0.00     0.172 S 
HETATM   28  C22 UNL     1     -95.569 -18.716  48.604  1.00  0.00     0.167 C 
HETATM   29  O2  UNL     1     -97.114 -16.911  47.695  1.00  0.00    -0.223 OA
HETATM   30  O3  UNL     1     -94.936 -16.389  47.373  1.00  0.00    -0.223 OA
ENDBRANCH   7  27
BRANCH   1  31
HETATM   31  C7  UNL     1     -93.659 -18.508  44.907  1.00  0.00     0.022 C 
HETATM   32  C8  UNL     1     -93.400 -17.019  44.647  1.00  0.00     0.015 C 
BRANCH  31  33
HETATM   33  C3  UNL     1     -92.976 -19.067  46.089  1.00  0.00    -0.003 C 
BRANCH  33  34
HETATM   34  C2  UNL     1     -92.117 -20.257  45.611  1.00  0.00     0.001 C 
HETATM   35  C1  UNL     1     -92.178 -20.828  44.296  1.00  0.00     0.005 C 
ENDBRANCH  33  34
BRANCH  33  36
HETATM   36  C4  UNL     1     -91.917 -18.167  46.691  1.00  0.00    -0.018 C 
HETATM   37  C5  UNL     1     -90.515 -18.387  46.257  1.00  0.00     0.010 C 
HETATM   38  C6  UNL     1     -91.993 -18.028  48.209  1.00  0.00     0.010 C 
ENDBRANCH  33  36
ENDBRANCH  31  33
ENDBRANCH   1  31
TORSDOF 8
ENDMDL
MODEL 2
REMARK VINA RESULT: -7.928780867      4.084      5.318
REMARK  8 active torsions:
REMARK  status: ('A' for Active; 'I' for Inactive)
REMARK    1  A    between atoms: C2_2  and  C3_3 
REMARK    2  A    between atoms: C3_3  and  C4_4 
REMARK    3  A    between atoms: C3_3  and  C7_7 
REMARK    4  A    between atoms: C7_7  and  C9_9 
REMARK    5  A    between atoms: C12_13  and  N1_14 
REMARK    6  A    between atoms: N1_14  and  C13_16 
REMARK    7  A    between atoms: C14_19  and  N3_20 
REMARK    8  A    between atoms: C21_34  and  S1_35 
ROOT
HETATM    1  C9  UNL     1     -98.699 -18.917  48.418  1.00  0.00    -0.011 A 
HETATM    2  C10 UNL     1     -98.674 -19.543  47.131  1.00  0.00     0.044 A 
HETATM    3 CL1  UNL     1     -97.111 -19.778  46.317  1.00  0.00    -0.084 Cl
HETATM    4  C11 UNL     1     -99.759 -19.975  46.468  1.00  0.00     0.054 A 
HETATM    5  C12 UNL     1    -100.987 -19.805  47.072  1.00  0.00     0.052 A 
HETATM    6  C20 UNL     1    -101.044 -19.214  48.282  1.00  0.00     0.054 A 
HETATM    7  C21 UNL     1     -99.896 -18.739  49.014  1.00  0.00     0.069 A 
ENDROOT
BRANCH   5   8
HETATM    8  N1  UNL     1    -102.159 -20.254  46.408  1.00  0.00    -0.192 N 
ATOM      9  H1  UNL     1    -102.300 -19.895  45.464  1.00  0.00     0.184 HD
BRANCH   8  10
HETATM   10  C13 UNL     1    -103.046 -21.039  46.833  1.00  0.00     0.684 A 
HETATM   11  N2  UNL     1    -103.316 -22.209  46.260  1.00  0.00    -0.176 N 
HETATM   12  C14 UNL     1    -104.259 -22.993  46.815  1.00  0.00     0.127 A 
ATOM     13  H2  UNL     1    -102.820 -22.506  45.420  1.00  0.00     0.186 HD
HETATM   14  C15 UNL     1    -104.948 -22.624  47.950  1.00  0.00     0.042 A 
HETATM   15  C16 UNL     1    -105.917 -23.402  48.542  1.00  0.00     0.035 A 
HETATM   16  C19 UNL     1    -104.650 -21.409  48.523  1.00  0.00     0.131 A 
HETATM   17  C17 UNL     1    -106.578 -22.965  49.698  1.00  0.00     0.092 A 
HETATM   18  N4  UNL     1    -106.272 -21.782  50.239  1.00  0.00    -0.332 N 
HETATM   19  C18 UNL     1    -105.329 -21.007  49.675  1.00  0.00     0.273 A 
ATOM     20  H4  UNL     1    -106.755 -21.466  51.081  1.00  0.00     0.168 HD
HETATM   21  O1  UNL     1    -105.047 -19.898  50.186  1.00  0.00    -0.266 OA
HETATM   22  N5  UNL     1    -103.711 -20.628  47.968  1.00  0.00    -0.185 N 
ATOM     23  H5  UNL     1    -103.488 -19.726  48.388  1.00  0.00     0.184 HD
BRANCH  12  24
HETATM   24  N3  UNL     1    -104.519 -24.119  46.258  1.00  0.00    -0.384 N 
ATOM     25  H32 UNL     1    -104.214 -24.286  45.300  1.00  0.00     0.157 HD
ATOM     26  H31 UNL     1    -105.026 -24.821  46.798  1.00  0.00     0.157 HD
ENDBRANCH  12  24
ENDBRANCH   8  10
ENDBRANCH   5   8
BRANCH   7  27
HETATM   27  S1  UNL     1    -100.267 -17.944  50.438  1.00  0.00     0.172 S 
HETATM   28  C22 UNL     1    -100.103 -18.764  51.991  1.00  0.00     0.167 C 
HETATM   29  O2  UNL     1    -101.818 -17.661  50.471  1.00  0.00    -0.223 OA
HETATM   30  O3  UNL     1     -99.888 -16.481  50.552  1.00  0.00    -0.223 OA
ENDBRANCH   7  27
BRANCH   1  31
HETATM   31  C7  UNL     1     -97.424 -18.343  48.867  1.00  0.00     0.022 C 
HETATM   32  C8  UNL     1     -97.420 -16.939  48.248  1.00  0.00     0.015 C 
BRANCH  31  33
HETATM   33  C3  UNL     1     -97.054 -18.401  50.294  1.00  0.00    -0.003 C 
BRANCH  33  34
HETATM   34  C2  UNL     1     -96.408 -19.779  50.551  1.00  0.00     0.001 C 
HETATM   35  C1  UNL     1     -97.069 -20.881  51.188  1.00  0.00     0.005 C 
ENDBRANCH  33  34
BRANCH  33  36
HETATM   36  C4  UNL     1     -95.926 -17.472  50.692  1.00  0.00    -0.018 C 
HETATM   37  C5  UNL     1     -94.579 -18.073  50.855  1.00  0.00     0.010 C 
HETATM   38  C6  UNL     1     -96.248 -16.553  51.867  1.00  0.00     0.010 C 
ENDBRANCH  33  36
ENDBRANCH  31  33
ENDBRANCH   1  31
TORSDOF 8
ENDMDL
MODEL 3
REMARK VINA RESULT: -7.667487314      0.959      1.918
REMARK  8 active torsions:
REMARK  status: ('A' for Active; 'I' for Inactive)
REMARK    1  A    between atoms: C2_2  and  C3_3 
REMARK    2  A    between atoms: C3_3  and  C4_4 
REMARK    3  A    between atoms: C3_3  and  C7_7 
REMARK    4  A    between atoms: C7_7  and  C9_9 
REMARK    5  A    between atoms: C12_13  and  N1_14 
REMARK    6  A    between atoms: N1_14  and  C13_16 
REMARK    7  A    between atoms: C14_19  and  N3_20 
REMARK    8  A    between atoms: C21_34  and  S1_35 
ROOT
HETATM    1  C9  UNL     1     -95.095 -18.567  44.815  1.00  0.00    -0.011 A 
HETATM    2  C10 UNL     1     -95.565 -18.956  43.520  1.00  0.00     0.044 A 
HETATM    3 CL1  UNL     1     -94.383 -19.451  42.287  1.00  0.00    -0.084 Cl
HETATM    4  C11 UNL     1     -96.854 -18.976  43.148  1.00  0.00     0.054 A 
HETATM    5  C12 UNL     1     -97.797 -18.595  44.080  1.00  0.00     0.052 A 
HETATM    6  C20 UNL     1     -97.385 -18.220  45.308  1.00  0.00     0.054 A 
HETATM    7  C21 UNL     1     -96.008 -18.186  45.733  1.00  0.00     0.069 A 
ENDROOT
BRANCH   5   8
HETATM    8  N1  UNL     1     -99.172 -18.609  43.729  1.00  0.00    -0.192 N 
ATOM      9  H1  UNL     1     -99.392 -18.298  42.783  1.00  0.00     0.184 HD
BRANCH   8  10
HETATM   10  C13 UNL     1    -100.155 -18.956  44.433  1.00  0.00     0.684 A 
HETATM   11  N2  UNL     1    -101.416 -18.858  44.020  1.00  0.00    -0.176 N 
HETATM   12  C14 UNL     1    -102.395 -19.292  44.835  1.00  0.00     0.127 A 
ATOM     13  H2  UNL     1    -101.636 -18.462  43.106  1.00  0.00     0.186 HD
HETATM   14  C15 UNL     1    -102.133 -19.833  46.076  1.00  0.00     0.042 A 
HETATM   15  C16 UNL     1    -103.111 -20.286  46.932  1.00  0.00     0.035 A 
HETATM   16  C19 UNL     1    -100.822 -19.924  46.479  1.00  0.00     0.131 A 
HETATM   17  C17 UNL     1    -102.774 -20.827  48.181  1.00  0.00     0.092 A 
HETATM   18  N4  UNL     1    -101.493 -20.906  48.553  1.00  0.00    -0.332 N 
HETATM   19  C18 UNL     1    -100.523 -20.469  47.730  1.00  0.00     0.273 A 
ATOM     20  H4  UNL     1    -101.250 -21.300  49.462  1.00  0.00     0.168 HD
HETATM   21  O1  UNL     1     -99.324 -20.545  48.085  1.00  0.00    -0.266 OA
HETATM   22  N5  UNL     1     -99.847 -19.489  45.667  1.00  0.00    -0.185 N 
ATOM     23  H5  UNL     1     -98.873 -19.552  45.962  1.00  0.00     0.184 HD
BRANCH  12  24
HETATM   24  N3  UNL     1    -103.610 -19.192  44.434  1.00  0.00    -0.384 N 
ATOM     25  H32 UNL     1    -103.812 -18.698  43.565  1.00  0.00     0.157 HD
ATOM     26  H31 UNL     1    -104.343 -19.616  45.002  1.00  0.00     0.157 HD
ENDBRANCH  12  24
ENDBRANCH   8  10
ENDBRANCH   5   8
BRANCH   7  27
HETATM   27  S1  UNL     1     -95.775 -17.570  47.270  1.00  0.00     0.172 S 
HETATM   28  C22 UNL     1     -95.490 -18.650  48.636  1.00  0.00     0.167 C 
HETATM   29  O2  UNL     1     -97.119 -16.906  47.758  1.00  0.00    -0.223 OA
HETATM   30  O3  UNL     1     -94.968 -16.295  47.408  1.00  0.00    -0.223 OA
ENDBRANCH   7  27
BRANCH   1  31
HETATM   31  C7  UNL     1     -93.639 -18.427  44.944  1.00  0.00     0.022 C 
HETATM   32  C8  UNL     1     -93.129 -19.873  44.896  1.00  0.00     0.015 C 
BRANCH  31  33
HETATM   33  C3  UNL     1     -92.914 -17.476  44.081  1.00  0.00    -0.003 C 
BRANCH  33  34
HETATM   34  C2  UNL     1     -92.579 -16.234  44.935  1.00  0.00     0.001 C 
HETATM   35  C1  UNL     1     -93.097 -14.918  44.695  1.00  0.00     0.005 C 
ENDBRANCH  33  34
BRANCH  33  36
HETATM   36  C4  UNL     1     -91.528 -17.928  43.668  1.00  0.00    -0.018 C 
HETATM   37  C5  UNL     1     -90.397 -17.526  44.540  1.00  0.00     0.010 C 
HETATM   38  C6  UNL     1     -91.191 -17.674  42.202  1.00  0.00     0.010 C 
ENDBRANCH  33  36
ENDBRANCH  31  33
ENDBRANCH   1  31
TORSDOF 8
ENDMDL
MODEL 4
REMARK VINA RESULT: -7.591994537      4.271      5.663
REMARK  8 active torsions:
REMARK  status: ('A' for Active; 'I' for Inactive)
REMARK    1  A    between atoms: C2_2  and  C3_3 
REMARK    2  A    between atoms: C3_3  and  C4_4 
REMARK    3  A    between atoms: C3_3  and  C7_7 
REMARK    4  A    between atoms: C7_7  and  C9_9 
REMARK    5  A    between atoms: C12_13  and  N1_14 
REMARK    6  A    between atoms: N1_14  and  C13_16 
REMARK    7  A    between atoms: C14_19  and  N3_20 
REMARK    8  A    between atoms: C21_34  and  S1_35 
ROOT
HETATM    1  C9  UNL     1     -98.839 -18.624  48.944  1.00  0.00    -0.011 A 
HETATM    2  C10 UNL     1     -98.799 -18.654  47.513  1.00  0.00     0.044 A 
HETATM    3 CL1  UNL     1     -97.456 -17.850  46.670  1.00  0.00    -0.084 Cl
HETATM    4  C11 UNL     1     -99.716 -19.251  46.735  1.00  0.00     0.054 A 
HETATM    5  C12 UNL     1    -100.773 -19.881  47.357  1.00  0.00     0.052 A 
HETATM    6  C20 UNL     1    -100.839 -19.867  48.704  1.00  0.00     0.054 A 
HETATM    7  C21 UNL     1     -99.872 -19.232  49.563  1.00  0.00     0.069 A 
ENDROOT
BRANCH   5   8
HETATM    8  N1  UNL     1    -101.760 -20.531  46.571  1.00  0.00    -0.192 N 
ATOM      9  H1  UNL     1    -101.657 -20.434  45.561  1.00  0.00     0.184 HD
BRANCH   8  10
HETATM   10  C13 UNL     1    -102.746 -21.210  46.957  1.00  0.00     0.684 A 
HETATM   11  N2  UNL     1    -103.103 -22.360  46.393  1.00  0.00    -0.176 N 
HETATM   12  C14 UNL     1    -104.152 -23.030  46.906  1.00  0.00     0.127 A 
ATOM     13  H2  UNL     1    -102.593 -22.727  45.590  1.00  0.00     0.186 HD
HETATM   14  C15 UNL     1    -104.862 -22.563  47.991  1.00  0.00     0.042 A 
HETATM   15  C16 UNL     1    -105.938 -23.223  48.539  1.00  0.00     0.035 A 
HETATM   16  C19 UNL     1    -104.473 -21.371  48.557  1.00  0.00     0.131 A 
HETATM   17  C17 UNL     1    -106.616 -22.692  49.646  1.00  0.00     0.092 A 
HETATM   18  N4  UNL     1    -106.221 -21.533  50.180  1.00  0.00    -0.332 N 
HETATM   19  C18 UNL     1    -105.172 -20.873  49.658  1.00  0.00     0.273 A 
ATOM     20  H4  UNL     1    -106.716 -21.148  50.985  1.00  0.00     0.168 HD
HETATM   21  O1  UNL     1    -104.807 -19.785  50.164  1.00  0.00    -0.266 OA
HETATM   22  N5  UNL     1    -103.429 -20.704  48.043  1.00  0.00    -0.185 N 
ATOM     23  H5  UNL     1    -103.138 -19.819  48.458  1.00  0.00     0.184 HD
BRANCH  12  24
HETATM   24  N3  UNL     1    -104.494 -24.137  46.357  1.00  0.00    -0.384 N 
ATOM     25  H32 UNL     1    -104.110 -25.013  46.711  1.00  0.00     0.157 HD
ATOM     26  H31 UNL     1    -105.149 -24.107  45.575  1.00  0.00     0.157 HD
ENDBRANCH  12  24
ENDBRANCH   8  10
ENDBRANCH   5   8
BRANCH   7  27
HETATM   27  S1  UNL     1    -100.263 -19.268  51.189  1.00  0.00     0.172 S 
HETATM   28  C22 UNL     1     -99.485 -20.424  52.273  1.00  0.00     0.167 C 
HETATM   29  O2  UNL     1    -101.755 -19.756  51.339  1.00  0.00    -0.223 OA
HETATM   30  O3  UNL     1    -100.510 -17.948  51.888  1.00  0.00    -0.223 OA
ENDBRANCH   7  27
BRANCH   1  31
HETATM   31  C7  UNL     1     -97.849 -17.749  49.586  1.00  0.00     0.022 C 
HETATM   32  C8  UNL     1     -98.607 -16.431  49.786  1.00  0.00     0.015 C 
BRANCH  31  33
HETATM   33  C3  UNL     1     -97.098 -18.228  50.761  1.00  0.00    -0.003 C 
BRANCH  33  34
HETATM   34  C2  UNL     1     -95.651 -18.511  50.306  1.00  0.00     0.001 C 
HETATM   35  C1  UNL     1     -95.112 -19.821  50.078  1.00  0.00     0.005 C 
ENDBRANCH  33  34
BRANCH  33  36
HETATM   36  C4  UNL     1     -96.867 -17.181  51.832  1.00  0.00    -0.018 C 
HETATM   37  C5  UNL     1     -95.567 -16.465  51.809  1.00  0.00     0.010 C 
HETATM   38  C6  UNL     1     -97.201 -17.640  53.248  1.00  0.00     0.010 C 
ENDBRANCH  33  36
ENDBRANCH  31  33
ENDBRANCH   1  31
TORSDOF 8
ENDMDL
MODEL 5
REMARK VINA RESULT: -7.527792385      4.225      5.727
REMARK  8 active torsions:
REMARK  status: ('A' for Active; 'I' for Inactive)
REMARK    1  A    between atoms: C2_2  and  C3_3 
REMARK    2  A    between atoms: C3_3  and  C4_4 
REMARK    3  A    between atoms: C3_3  and  C7_7 
REMARK    4  A    between atoms: C7_7  and  C9_9 
REMARK    5  A    between atoms: C12_13  and  N1_14 
REMARK    6  A    between atoms: N1_14  and  C13_16 
REMARK    7  A    between atoms: C14_19  and  N3_20 
REMARK    8  A    between atoms: C21_34  and  S1_35 
ROOT
HETATM    1  C9  UNL     1     -98.213 -19.588  49.202  1.00  0.00    -0.011 A 
HETATM    2  C10 UNL     1     -98.379 -19.128  47.856  1.00  0.00     0.044 A 
HETATM    3 CL1  UNL     1     -97.101 -18.135  47.120  1.00  0.00    -0.084 Cl
HETATM    4  C11 UNL     1     -99.446 -19.388  47.085  1.00  0.00     0.054 A 
HETATM    5  C12 UNL     1    -100.457 -20.154  47.627  1.00  0.00     0.052 A 
HETATM    6  C20 UNL     1    -100.332 -20.598  48.894  1.00  0.00     0.054 A 
HETATM    7  C21 UNL     1     -99.199 -20.332  49.744  1.00  0.00     0.069 A 
ENDROOT
BRANCH   5   8
HETATM    8  N1  UNL     1    -101.600 -20.459  46.841  1.00  0.00    -0.192 N 
ATOM      9  H1  UNL     1    -101.612 -20.062  45.902  1.00  0.00     0.184 HD
BRANCH   8  10
HETATM   10  C13 UNL     1    -102.601 -21.155  47.153  1.00  0.00     0.684 A 
HETATM   11  N2  UNL     1    -102.928 -22.280  46.524  1.00  0.00    -0.176 N 
HETATM   12  C14 UNL     1    -103.997 -22.972  46.960  1.00  0.00     0.127 A 
ATOM     13  H2  UNL     1    -102.382 -22.611  45.730  1.00  0.00     0.186 HD
HETATM   14  C15 UNL     1    -104.757 -22.554  48.031  1.00  0.00     0.042 A 
HETATM   15  C16 UNL     1    -105.855 -23.238  48.501  1.00  0.00     0.035 A 
HETATM   16  C19 UNL     1    -104.397 -21.387  48.665  1.00  0.00     0.131 A 
HETATM   17  C17 UNL     1    -106.583 -22.756  49.598  1.00  0.00     0.092 A 
HETATM   18  N4  UNL     1    -106.216 -21.621  50.199  1.00  0.00    -0.332 N 
HETATM   19  C18 UNL     1    -105.146 -20.938  49.755  1.00  0.00     0.273 A 
ATOM     20  H4  UNL     1    -106.747 -21.272  50.997  1.00  0.00     0.168 HD
HETATM   21  O1  UNL     1    -104.807 -19.873  50.322  1.00  0.00    -0.266 OA
HETATM   22  N5  UNL     1    -103.333 -20.698  48.228  1.00  0.00    -0.185 N 
ATOM     23  H5  UNL     1    -103.064 -19.831  48.693  1.00  0.00     0.184 HD
BRANCH  12  24
HETATM   24  N3  UNL     1    -104.311 -24.055  46.348  1.00  0.00    -0.384 N 
ATOM     25  H32 UNL     1    -104.963 -24.707  46.785  1.00  0.00     0.157 HD
ATOM     26  H31 UNL     1    -103.897 -24.232  45.433  1.00  0.00     0.157 HD
ENDBRANCH  12  24
ENDBRANCH   8  10
ENDBRANCH   5   8
BRANCH   7  27
HETATM   27  S1  UNL     1     -99.360 -20.906  51.307  1.00  0.00     0.172 S 
HETATM   28  C22 UNL     1     -98.289 -22.173  51.910  1.00  0.00     0.167 C 
HETATM   29  O2  UNL     1    -100.734 -21.669  51.427  1.00  0.00    -0.223 OA
HETATM   30  O3  UNL     1     -99.692 -19.910  52.398  1.00  0.00    -0.223 OA
ENDBRANCH   7  27
BRANCH   1  31
HETATM   31  C7  UNL     1     -97.068 -19.022  49.927  1.00  0.00     0.022 C 
HETATM   32  C8  UNL     1     -95.885 -19.880  49.462  1.00  0.00     0.015 C 
BRANCH  31  33
HETATM   33  C3  UNL     1     -96.834 -17.566  49.909  1.00  0.00    -0.003 C 
BRANCH  33  34
HETATM   34  C2  UNL     1     -97.959 -16.903  50.731  1.00  0.00     0.001 C 
HETATM   35  C1  UNL     1     -99.211 -16.461  50.188  1.00  0.00     0.005 C 
ENDBRANCH  33  34
BRANCH  33  36
HETATM   36  C4  UNL     1     -95.608 -17.114  50.675  1.00  0.00    -0.018 C 
HETATM   37  C5  UNL     1     -95.827 -16.203  51.826  1.00  0.00     0.010 C 
HETATM   38  C6  UNL     1     -94.466 -16.606  49.800  1.00  0.00     0.010 C 
ENDBRANCH  33  36
ENDBRANCH  31  33
ENDBRANCH   1  31
TORSDOF 8
ENDMDL
