MODEL 1
REMARK VINA RESULT: -8.026801029      0.000      0.000
REMARK  10 active torsions:
REMARK  status: ('A' for Active; 'I' for Inactive)
REMARK    1  A    between atoms: O1_2  and  C2_3 
REMARK    2  A    between atoms: C3_4  and  O2_5 
REMARK    3  A    between atoms: O2_5  and  C4_6 
REMARK    4  A    between atoms: C9_13  and  N2_14 
REMARK    5  A    between atoms: N2_14  and  N3_16 
REMARK    6  A    between atoms: N3_16  and  C10_18 
REMARK    7  A    between atoms: C10_18  and  O3_19 
REMARK    8  A    between atoms: C10_18  and  C11_21 
REMARK    9  A    between atoms: C15_26  and  C16_27 
REMARK   10  A    between atoms: C16_27  and  N4_28 
ROOT
HETATM    1  N2  UNL     1     -97.689 -19.933  49.750  1.00  0.00    -0.130 N 
ATOM      2  H2  UNL     1     -97.241 -19.888  50.666  1.00  0.00     0.205 HD
ENDROOT
BRANCH   1   3
HETATM    3  C9  UNL     1     -98.972 -20.088  49.692  1.00  0.00     0.698 A 
HETATM    4  N1  UNL     1     -99.689 -20.884  48.887  1.00  0.00    -0.188 N 
HETATM    5  C8  UNL     1    -101.003 -20.768  49.122  1.00  0.00     0.080 A 
ATOM      6  H1  UNL     1     -99.285 -21.502  48.183  1.00  0.00     0.184 HD
HETATM    7  C7  UNL     1    -102.147 -21.362  48.570  1.00  0.00     0.072 A 
HETATM    8  C19 UNL     1    -101.122 -19.848  50.130  1.00  0.00     0.085 A 
HETATM    9  C3  UNL     1    -103.422 -21.070  48.992  1.00  0.00     0.105 A 
HETATM   10  C2  UNL     1    -103.514 -20.120  50.031  1.00  0.00     0.109 A 
HETATM   11  C20 UNL     1    -102.390 -19.539  50.569  1.00  0.00     0.004 A 
HETATM   12  C21 UNL     1    -102.524 -18.535  51.669  1.00  0.00     0.054 C 
HETATM   13  N5  UNL     1     -99.882 -19.451  50.458  1.00  0.00    -0.188 N 
ATOM     14  H5  UNL     1     -99.661 -18.766  51.181  1.00  0.00     0.184 HD
BRANCH   9  15
HETATM   15  O2  UNL     1    -104.587 -21.605  48.506  1.00  0.00    -0.344 OA
BRANCH  15  16
HETATM   16  C4  UNL     1    -104.979 -22.929  48.695  1.00  0.00     0.121 C 
HETATM   17  C5  UNL     1    -106.280 -23.029  49.483  1.00  0.00     0.040 C 
HETATM   18  C6  UNL     1    -105.201 -23.640  47.363  1.00  0.00     0.040 C 
ENDBRANCH  15  16
ENDBRANCH   9  15
BRANCH  10  19
HETATM   19  O1  UNL     1    -104.789 -19.799  50.483  1.00  0.00    -0.352 OA
HETATM   20  C1  UNL     1    -105.756 -19.145  49.713  1.00  0.00     0.210 C 
ENDBRANCH  10  19
ENDBRANCH   1   3
BRANCH   1  21
HETATM   21  N3  UNL     1     -96.893 -19.827  48.608  1.00  0.00    -0.265 N 
ATOM     22  H3  UNL     1     -96.173 -20.526  48.426  1.00  0.00     0.189 HD
BRANCH  21  23
HETATM   23  C10 UNL     1     -97.072 -18.782  47.723  1.00  0.00     0.166 C 
BRANCH  23  24
HETATM   24  O3  UNL     1     -96.941 -17.605  48.289  1.00  0.00    -0.344 OA
ATOM     25  H3  UNL     1     -97.515 -16.948  47.913  1.00  0.00     0.219 HD
ENDBRANCH  23  24
BRANCH  23  26
HETATM   26  C11 UNL     1     -97.374 -18.754  46.325  1.00  0.00     0.024 A 
HETATM   27  C12 UNL     1     -98.719 -18.829  45.931  1.00  0.00     0.035 A 
HETATM   28  C13 UNL     1     -99.122 -18.854  44.619  1.00  0.00     0.012 A 
HETATM   29 BR1  UNL     1    -100.982 -18.959  44.238  1.00  0.00    -0.051 Br
HETATM   30  C14 UNL     1     -98.179 -18.804  43.621  1.00  0.00     0.028 A 
HETATM   31  C15 UNL     1     -96.871 -18.732  43.958  1.00  0.00    -0.025 A 
HETATM   32  C17 UNL     1     -96.469 -18.705  45.308  1.00  0.00    -0.040 A 
HETATM   33  C18 UNL     1     -95.035 -18.592  45.595  1.00  0.00     0.050 C 
BRANCH  31  34
HETATM   34  C16 UNL     1     -95.817 -18.670  42.905  1.00  0.00     0.268 C 
BRANCH  34  35
HETATM   35  N4  UNL     1     -96.299 -17.725  41.882  1.00  0.00    -0.075 N 
ATOM     36  H43 UNL     1     -96.438 -18.156  40.968  1.00  0.00     0.274 HD
ATOM     37  H42 UNL     1     -97.263 -17.428  42.030  1.00  0.00     0.274 HD
ATOM     38  H41 UNL     1     -95.636 -16.950  41.866  1.00  0.00     0.274 HD
ENDBRANCH  34  35
ENDBRANCH  31  34
ENDBRANCH  23  26
ENDBRANCH  21  23
ENDBRANCH   1  21
TORSDOF 10
ENDMDL
MODEL 2
REMARK VINA RESULT: -7.852718163      3.257      9.508
REMARK  10 active torsions:
REMARK  status: ('A' for Active; 'I' for Inactive)
REMARK    1  A    between atoms: O1_2  and  C2_3 
REMARK    2  A    between atoms: C3_4  and  O2_5 
REMARK    3  A    between atoms: O2_5  and  C4_6 
REMARK    4  A    between atoms: C9_13  and  N2_14 
REMARK    5  A    between atoms: N2_14  and  N3_16 
REMARK    6  A    between atoms: N3_16  and  C10_18 
REMARK    7  A    between atoms: C10_18  and  O3_19 
REMARK    8  A    between atoms: C10_18  and  C11_21 
REMARK    9  A    between atoms: C15_26  and  C16_27 
REMARK   10  A    between atoms: C16_27  and  N4_28 
ROOT
HETATM    1  N2  UNL     1    -101.390 -19.425  44.804  1.00  0.00    -0.130 N 
ATOM      2  H2  UNL     1    -101.948 -19.287  43.961  1.00  0.00     0.205 HD
ENDROOT
BRANCH   1   3
HETATM    3  C9  UNL     1    -100.119 -19.187  44.754  1.00  0.00     0.698 A 
HETATM    4  N1  UNL     1     -99.349 -18.951  43.682  1.00  0.00    -0.188 N 
HETATM    5  C8  UNL     1     -98.070 -18.749  44.030  1.00  0.00     0.080 A 
ATOM      6  H1  UNL     1     -99.692 -18.927  42.723  1.00  0.00     0.184 HD
HETATM    7  C7  UNL     1     -96.899 -18.472  43.312  1.00  0.00     0.072 A 
HETATM    8  C19 UNL     1     -98.032 -18.864  45.395  1.00  0.00     0.085 A 
HETATM    9  C3  UNL     1     -95.673 -18.304  43.912  1.00  0.00     0.105 A 
HETATM   10  C2  UNL     1     -95.664 -18.427  45.317  1.00  0.00     0.109 A 
HETATM   11  C20 UNL     1     -96.816 -18.699  46.018  1.00  0.00     0.004 A 
HETATM   12  C21 UNL     1     -96.770 -18.825  47.508  1.00  0.00     0.054 C 
HETATM   13  N5  UNL     1     -99.282 -19.130  45.810  1.00  0.00    -0.188 N 
ATOM     14  H5  UNL     1     -99.557 -19.268  46.782  1.00  0.00     0.184 HD
BRANCH   9  15
HETATM   15  O2  UNL     1     -94.485 -18.032  43.284  1.00  0.00    -0.344 OA
BRANCH  15  16
HETATM   16  C4  UNL     1     -94.322 -17.051  42.308  1.00  0.00     0.121 C 
HETATM   17  C5  UNL     1     -93.487 -15.881  42.812  1.00  0.00     0.040 C 
HETATM   18  C6  UNL     1     -93.623 -17.607  41.070  1.00  0.00     0.040 C 
ENDBRANCH  15  16
ENDBRANCH   9  15
BRANCH  10  19
HETATM   19  O1  UNL     1     -94.442 -18.263  45.959  1.00  0.00    -0.352 OA
HETATM   20  C1  UNL     1     -93.928 -17.028  46.369  1.00  0.00     0.210 C 
ENDBRANCH  10  19
ENDBRANCH   1   3
BRANCH   1  21
HETATM   21  N3  UNL     1    -102.027 -19.865  45.966  1.00  0.00    -0.265 N 
ATOM     22  H3  UNL     1    -101.469 -20.163  46.766  1.00  0.00     0.189 HD
BRANCH  21  23
HETATM   23  C10 UNL     1    -103.406 -19.899  46.041  1.00  0.00     0.166 C 
BRANCH  23  24
HETATM   24  O3  UNL     1    -103.988 -19.403  44.973  1.00  0.00    -0.344 OA
ATOM     25  H3  UNL     1    -103.957 -18.454  44.942  1.00  0.00     0.219 HD
ENDBRANCH  23  24
BRANCH  23  26
HETATM   26  C11 UNL     1    -104.297 -20.366  47.057  1.00  0.00     0.024 A 
HETATM   27  C12 UNL     1    -105.059 -19.420  47.762  1.00  0.00     0.035 A 
HETATM   28  C13 UNL     1    -105.913 -19.750  48.786  1.00  0.00     0.012 A 
HETATM   29 BR1  UNL     1    -106.879 -18.360  49.651  1.00  0.00    -0.051 Br
HETATM   30  C14 UNL     1    -106.048 -21.066  49.156  1.00  0.00     0.028 A 
HETATM   31  C15 UNL     1    -105.331 -22.009  48.501  1.00  0.00    -0.025 A 
HETATM   32  C17 UNL     1    -104.459 -21.660  47.452  1.00  0.00    -0.040 A 
HETATM   33  C18 UNL     1    -103.741 -22.740  46.768  1.00  0.00     0.050 C 
BRANCH  31  34
HETATM   34  C16 UNL     1    -105.453 -23.448  48.870  1.00  0.00     0.268 C 
BRANCH  34  35
HETATM   35  N4  UNL     1    -106.435 -23.520  49.967  1.00  0.00    -0.075 N 
ATOM     36  H43 UNL     1    -106.030 -23.826  50.852  1.00  0.00     0.274 HD
ATOM     37  H42 UNL     1    -106.754 -22.604  50.283  1.00  0.00     0.274 HD
ATOM     38  H41 UNL     1    -107.193 -24.120  49.641  1.00  0.00     0.274 HD
ENDBRANCH  34  35
ENDBRANCH  31  34
ENDBRANCH  23  26
ENDBRANCH  21  23
ENDBRANCH   1  21
TORSDOF 10
ENDMDL
MODEL 3
REMARK VINA RESULT: -7.784147146      3.010      4.481
REMARK  10 active torsions:
REMARK  status: ('A' for Active; 'I' for Inactive)
REMARK    1  A    between atoms: O1_2  and  C2_3 
REMARK    2  A    between atoms: C3_4  and  O2_5 
REMARK    3  A    between atoms: O2_5  and  C4_6 
REMARK    4  A    between atoms: C9_13  and  N2_14 
REMARK    5  A    between atoms: N2_14  and  N3_16 
REMARK    6  A    between atoms: N3_16  and  C10_18 
REMARK    7  A    between atoms: C10_18  and  O3_19 
REMARK    8  A    between atoms: C10_18  and  C11_21 
REMARK    9  A    between atoms: C15_26  and  C16_27 
REMARK   10  A    between atoms: C16_27  and  N4_28 
ROOT
HETATM    1  N2  UNL     1     -98.751 -18.206  43.866  1.00  0.00    -0.130 N 
ATOM      2  H2  UNL     1     -98.818 -17.194  43.753  1.00  0.00     0.205 HD
ENDROOT
BRANCH   1   3
HETATM    3  C9  UNL     1     -99.507 -18.784  44.743  1.00  0.00     0.698 A 
HETATM    4  N1  UNL     1    -100.799 -19.126  44.646  1.00  0.00    -0.188 N 
HETATM    5  C8  UNL     1    -101.241 -19.709  45.769  1.00  0.00     0.080 A 
ATOM      6  H1  UNL     1    -101.375 -18.963  43.820  1.00  0.00     0.184 HD
HETATM    7  C7  UNL     1    -102.476 -20.235  46.172  1.00  0.00     0.072 A 
HETATM    8  C19 UNL     1    -100.168 -19.736  46.621  1.00  0.00     0.085 A 
HETATM    9  C3  UNL     1    -102.686 -20.794  47.410  1.00  0.00     0.105 A 
HETATM   10  C2  UNL     1    -101.564 -20.809  48.266  1.00  0.00     0.109 A 
HETATM   11  C20 UNL     1    -100.354 -20.292  47.867  1.00  0.00     0.004 A 
HETATM   12  C21 UNL     1     -99.186 -20.323  48.800  1.00  0.00     0.054 C 
HETATM   13  N5  UNL     1     -99.132 -19.172  45.980  1.00  0.00    -0.188 N 
ATOM     14  H5  UNL     1     -98.198 -19.053  46.371  1.00  0.00     0.184 HD
BRANCH   9  15
HETATM   15  O2  UNL     1    -103.858 -21.328  47.879  1.00  0.00    -0.344 OA
BRANCH  15  16
HETATM   16  C4  UNL     1    -104.096 -22.694  48.017  1.00  0.00     0.121 C 
HETATM   17  C5  UNL     1    -105.431 -22.972  48.698  1.00  0.00     0.040 C 
HETATM   18  C6  UNL     1    -104.125 -23.395  46.661  1.00  0.00     0.040 C 
ENDBRANCH  15  16
ENDBRANCH   9  15
BRANCH  10  19
HETATM   19  O1  UNL     1    -101.738 -21.368  49.527  1.00  0.00    -0.352 OA
HETATM   20  C1  UNL     1    -102.166 -20.655  50.652  1.00  0.00     0.210 C 
ENDBRANCH  10  19
ENDBRANCH   1   3
BRANCH   1  21
HETATM   21  N3  UNL     1     -97.848 -18.912  43.070  1.00  0.00    -0.265 N 
ATOM     22  H3  UNL     1     -98.129 -19.798  42.651  1.00  0.00     0.189 HD
BRANCH  21  23
HETATM   23  C10 UNL     1     -96.577 -18.419  42.844  1.00  0.00     0.166 C 
BRANCH  23  24
HETATM   24  O3  UNL     1     -96.565 -17.394  42.025  1.00  0.00    -0.344 OA
ATOM     25  H3  UNL     1     -95.734 -16.935  42.020  1.00  0.00     0.219 HD
ENDBRANCH  23  24
BRANCH  23  26
HETATM   26  C11 UNL     1     -95.295 -18.823  43.333  1.00  0.00     0.024 A 
HETATM   27  C12 UNL     1     -94.405 -19.442  42.440  1.00  0.00     0.035 A 
HETATM   28  C13 UNL     1     -93.168 -19.908  42.809  1.00  0.00     0.012 A 
HETATM   29 BR1  UNL     1     -92.072 -20.727  41.489  1.00  0.00    -0.051 Br
HETATM   30  C14 UNL     1     -92.754 -19.772  44.112  1.00  0.00     0.028 A 
HETATM   31  C15 UNL     1     -93.582 -19.180  45.004  1.00  0.00    -0.025 A 
HETATM   32  C17 UNL     1     -94.849 -18.704  44.615  1.00  0.00    -0.040 A 
HETATM   33  C18 UNL     1     -95.677 -18.045  45.631  1.00  0.00     0.050 C 
BRANCH  31  34
HETATM   34  C16 UNL     1     -93.168 -19.009  46.426  1.00  0.00     0.268 C 
BRANCH  34  35
HETATM   35  N4  UNL     1     -92.264 -20.130  46.740  1.00  0.00    -0.075 N 
ATOM     36  H43 UNL     1     -92.497 -20.603  47.613  1.00  0.00     0.274 HD
ATOM     37  H42 UNL     1     -92.388 -20.932  46.122  1.00  0.00     0.274 HD
ATOM     38  H41 UNL     1     -91.316 -19.753  46.726  1.00  0.00     0.274 HD
ENDBRANCH  34  35
ENDBRANCH  31  34
ENDBRANCH  23  26
ENDBRANCH  21  23
ENDBRANCH   1  21
TORSDOF 10
ENDMDL
MODEL 4
REMARK VINA RESULT: -7.758368779      3.288      5.215
REMARK  10 active torsions:
REMARK  status: ('A' for Active; 'I' for Inactive)
REMARK    1  A    between atoms: O1_2  and  C2_3 
REMARK    2  A    between atoms: C3_4  and  O2_5 
REMARK    3  A    between atoms: O2_5  and  C4_6 
REMARK    4  A    between atoms: C9_13  and  N2_14 
REMARK    5  A    between atoms: N2_14  and  N3_16 
REMARK    6  A    between atoms: N3_16  and  C10_18 
REMARK    7  A    between atoms: C10_18  and  O3_19 
REMARK    8  A    between atoms: C10_18  and  C11_21 
REMARK    9  A    between atoms: C15_26  and  C16_27 
REMARK   10  A    between atoms: C16_27  and  N4_28 
ROOT
HETATM    1  N2  UNL     1     -97.085 -18.135  43.011  1.00  0.00    -0.130 N 
ATOM      2  H2  UNL     1     -97.278 -17.224  42.594  1.00  0.00     0.205 HD
ENDROOT
BRANCH   1   3
HETATM    3  C9  UNL     1     -97.858 -18.563  43.957  1.00  0.00     0.698 A 
HETATM    4  N1  UNL     1     -99.189 -18.717  43.951  1.00  0.00    -0.188 N 
HETATM    5  C8  UNL     1     -99.636 -19.184  45.125  1.00  0.00     0.080 A 
ATOM      6  H1  UNL     1     -99.788 -18.505  43.153  1.00  0.00     0.184 HD
HETATM    7  C7  UNL     1    -100.906 -19.509  45.623  1.00  0.00     0.072 A 
HETATM    8  C19 UNL     1     -98.526 -19.333  45.914  1.00  0.00     0.085 A 
HETATM    9  C3  UNL     1    -101.113 -19.982  46.897  1.00  0.00     0.105 A 
HETATM   10  C2  UNL     1     -99.953 -20.126  47.687  1.00  0.00     0.109 A 
HETATM   11  C20 UNL     1     -98.710 -19.806  47.194  1.00  0.00     0.004 A 
HETATM   12  C21 UNL     1     -97.500 -19.969  48.059  1.00  0.00     0.054 C 
HETATM   13  N5  UNL     1     -97.464 -18.951  45.187  1.00  0.00    -0.188 N 
ATOM     14  H5  UNL     1     -96.499 -18.954  45.518  1.00  0.00     0.184 HD
BRANCH   9  15
HETATM   15  O2  UNL     1    -102.317 -20.321  47.458  1.00  0.00    -0.344 OA
BRANCH  15  16
HETATM   16  C4  UNL     1    -103.455 -20.656  46.726  1.00  0.00     0.121 C 
HETATM   17  C5  UNL     1    -103.874 -22.103  46.958  1.00  0.00     0.040 C 
HETATM   18  C6  UNL     1    -104.642 -19.775  47.107  1.00  0.00     0.040 C 
ENDBRANCH  15  16
ENDBRANCH   9  15
BRANCH  10  19
HETATM   19  O1  UNL     1    -100.124 -20.603  48.981  1.00  0.00    -0.352 OA
HETATM   20  C1  UNL     1    -100.369 -19.790  50.093  1.00  0.00     0.210 C 
ENDBRANCH  10  19
ENDBRANCH   1   3
BRANCH   1  21
HETATM   21  N3  UNL     1     -95.997 -18.872  42.539  1.00  0.00    -0.265 N 
ATOM     22  H3  UNL     1     -96.139 -19.574  41.813  1.00  0.00     0.189 HD
BRANCH  21  23
HETATM   23  C10 UNL     1     -94.731 -18.657  43.046  1.00  0.00     0.166 C 
BRANCH  23  24
HETATM   24  O3  UNL     1     -93.838 -19.487  42.558  1.00  0.00    -0.344 OA
ATOM     25  H3  UNL     1     -93.040 -19.051  42.283  1.00  0.00     0.219 HD
ENDBRANCH  23  24
BRANCH  23  26
HETATM   26  C11 UNL     1     -94.228 -17.711  43.994  1.00  0.00     0.024 A 
HETATM   27  C12 UNL     1     -94.264 -18.048  45.356  1.00  0.00     0.035 A 
HETATM   28  C13 UNL     1     -93.850 -17.201  46.355  1.00  0.00     0.012 A 
HETATM   29 BR1  UNL     1     -93.961 -17.796  48.157  1.00  0.00    -0.051 Br
HETATM   30  C14 UNL     1     -93.369 -15.956  46.030  1.00  0.00     0.028 A 
HETATM   31  C15 UNL     1     -93.317 -15.593  44.728  1.00  0.00    -0.025 A 
HETATM   32  C17 UNL     1     -93.744 -16.469  43.711  1.00  0.00    -0.040 A 
HETATM   33  C18 UNL     1     -93.626 -16.017  42.321  1.00  0.00     0.050 C 
BRANCH  31  34
HETATM   34  C16 UNL     1     -92.797 -14.252  44.334  1.00  0.00     0.268 C 
BRANCH  34  35
HETATM   35  N4  UNL     1     -93.508 -13.264  45.164  1.00  0.00    -0.075 N 
ATOM     36  H43 UNL     1     -94.452 -13.555  45.417  1.00  0.00     0.274 HD
ATOM     37  H42 UNL     1     -93.138 -13.194  46.112  1.00  0.00     0.274 HD
ATOM     38  H41 UNL     1     -93.481 -12.381  44.654  1.00  0.00     0.274 HD
ENDBRANCH  34  35
ENDBRANCH  31  34
ENDBRANCH  23  26
ENDBRANCH  21  23
ENDBRANCH   1  21
TORSDOF 10
ENDMDL
MODEL 5
REMARK VINA RESULT: -7.743661559      3.256      5.535
REMARK  10 active torsions:
REMARK  status: ('A' for Active; 'I' for Inactive)
REMARK    1  A    between atoms: O1_2  and  C2_3 
REMARK    2  A    between atoms: C3_4  and  O2_5 
REMARK    3  A    between atoms: O2_5  and  C4_6 
REMARK    4  A    between atoms: C9_13  and  N2_14 
REMARK    5  A    between atoms: N2_14  and  N3_16 
REMARK    6  A    between atoms: N3_16  and  C10_18 
REMARK    7  A    between atoms: C10_18  and  O3_19 
REMARK    8  A    between atoms: C10_18  and  C11_21 
REMARK    9  A    between atoms: C15_26  and  C16_27 
REMARK   10  A    between atoms: C16_27  and  N4_28 
ROOT
HETATM    1  N2  UNL     1     -96.935 -18.185  42.919  1.00  0.00    -0.130 N 
ATOM      2  H2  UNL     1     -97.069 -17.285  42.457  1.00  0.00     0.205 HD
ENDROOT
BRANCH   1   3
HETATM    3  C9  UNL     1     -97.804 -18.568  43.797  1.00  0.00     0.698 A 
HETATM    4  N1  UNL     1     -97.601 -19.002  45.049  1.00  0.00    -0.188 N 
HETATM    5  C8  UNL     1     -98.755 -19.313  45.656  1.00  0.00     0.080 A 
ATOM      6  H1  UNL     1     -96.684 -19.086  45.486  1.00  0.00     0.184 HD
HETATM    7  C7  UNL     1     -99.085 -19.799  46.929  1.00  0.00     0.072 A 
HETATM    8  C19 UNL     1     -99.740 -19.061  44.737  1.00  0.00     0.085 A 
HETATM    9  C3  UNL     1    -100.378 -20.046  47.326  1.00  0.00     0.105 A 
HETATM   10  C2  UNL     1    -101.370 -19.777  46.360  1.00  0.00     0.109 A 
HETATM   11  C20 UNL     1    -101.042 -19.301  45.112  1.00  0.00     0.004 A 
HETATM   12  C21 UNL     1    -102.120 -19.027  44.111  1.00  0.00     0.054 C 
HETATM   13  N5  UNL     1     -99.141 -18.612  43.622  1.00  0.00    -0.188 N 
ATOM     14  H5  UNL     1     -99.627 -18.344  42.766  1.00  0.00     0.184 HD
BRANCH   9  15
HETATM   15  O2  UNL     1    -100.783 -20.519  48.547  1.00  0.00    -0.344 OA
BRANCH  15  16
HETATM   16  C4  UNL     1    -100.581 -19.849  49.752  1.00  0.00     0.121 C 
HETATM   17  C5  UNL     1    -101.382 -18.554  49.824  1.00  0.00     0.040 C 
HETATM   18  C6  UNL     1    -100.999 -20.706  50.944  1.00  0.00     0.040 C 
ENDBRANCH  15  16
ENDBRANCH   9  15
BRANCH  10  19
HETATM   19  O1  UNL     1    -102.690 -20.015  46.726  1.00  0.00    -0.352 OA
HETATM   20  C1  UNL     1    -103.286 -21.280  46.743  1.00  0.00     0.210 C 
ENDBRANCH  10  19
ENDBRANCH   1   3
BRANCH   1  21
HETATM   21  N3  UNL     1     -95.820 -18.954  42.580  1.00  0.00    -0.265 N 
ATOM     22  H3  UNL     1     -95.911 -19.698  41.888  1.00  0.00     0.189 HD
BRANCH  21  23
HETATM   23  C10 UNL     1     -94.596 -18.716  43.173  1.00  0.00     0.166 C 
BRANCH  23  24
HETATM   24  O3  UNL     1     -93.666 -19.554  42.778  1.00  0.00    -0.344 OA
ATOM     25  H3  UNL     1     -92.888 -19.526  43.323  1.00  0.00     0.219 HD
ENDBRANCH  23  24
BRANCH  23  26
HETATM   26  C11 UNL     1     -94.169 -17.739  44.127  1.00  0.00     0.024 A 
HETATM   27  C12 UNL     1     -94.293 -18.041  45.492  1.00  0.00     0.035 A 
HETATM   28  C13 UNL     1     -93.956 -17.164  46.493  1.00  0.00     0.012 A 
HETATM   29 BR1  UNL     1     -94.180 -17.713  48.300  1.00  0.00    -0.051 Br
HETATM   30  C14 UNL     1     -93.470 -15.921  46.168  1.00  0.00     0.028 A 
HETATM   31  C15 UNL     1     -93.335 -15.590  44.863  1.00  0.00    -0.025 A 
HETATM   32  C17 UNL     1     -93.682 -16.498  43.844  1.00  0.00    -0.040 A 
HETATM   33  C18 UNL     1     -93.478 -16.081  42.453  1.00  0.00     0.050 C 
BRANCH  31  34
HETATM   34  C16 UNL     1     -92.806 -14.253  44.469  1.00  0.00     0.268 C 
BRANCH  34  35
HETATM   35  N4  UNL     1     -93.572 -13.255  45.236  1.00  0.00    -0.075 N 
ATOM     36  H43 UNL     1     -94.162 -12.663  44.651  1.00  0.00     0.274 HD
ATOM     37  H42 UNL     1     -94.317 -13.664  45.798  1.00  0.00     0.274 HD
ATOM     38  H41 UNL     1     -92.893 -12.728  45.787  1.00  0.00     0.274 HD
ENDBRANCH  34  35
ENDBRANCH  31  34
ENDBRANCH  23  26
ENDBRANCH  21  23
ENDBRANCH   1  21
TORSDOF 10
ENDMDL
