MODEL 1
REMARK VINA RESULT: -8.080189117      0.000      0.000
REMARK  9 active torsions:
REMARK  status: ('A' for Active; 'I' for Inactive)
REMARK    1  A    between atoms: N1_2  and  C2_4 
REMARK    2  A    between atoms: C3_7  and  N3_8 
REMARK    3  A    between atoms: N3_8  and  C4_10 
REMARK    4  A    between atoms: C4_10  and  C5_11 
REMARK    5  A    between atoms: C5_11  and  C7_13 
REMARK    6  A    between atoms: C16_27  and  N6_28 
REMARK    7  A    between atoms: N6_28  and  C17_30 
REMARK    8  A    between atoms: C20_33  and  O1_34 
REMARK    9  A    between atoms: C22_36  and  O2_37 
ROOT
HETATM    1  C2  UNL     1    -103.042 -19.862  52.876  1.00  0.00     0.706 A 
HETATM    2  N2  UNL     1    -103.745 -20.106  51.773  1.00  0.00    -0.022 N 
ATOM      3  H2  UNL     1    -104.351 -20.927  51.777  1.00  0.00     0.203 HD
HETATM    4  C3  UNL     1    -103.723 -19.347  50.636  1.00  0.00     0.707 A 
HETATM    5  N5  UNL     1    -102.914 -18.276  50.670  1.00  0.00    -0.021 N 
ATOM      6  H5  UNL     1    -102.863 -17.677  49.846  1.00  0.00     0.203 HD
HETATM    7  C16 UNL     1    -102.160 -17.954  51.760  1.00  0.00     0.711 A 
HETATM    8  N7  UNL     1    -102.230 -18.734  52.832  1.00  0.00    -0.021 N 
ATOM      9  H7  UNL     1    -101.669 -18.499  53.651  1.00  0.00     0.203 HD
ENDROOT
BRANCH   4  10
HETATM   10  N3  UNL     1    -104.454 -19.724  49.722  1.00  0.00    -0.224 N 
ATOM     11  H3  UNL     1    -105.450 -19.623  49.915  1.00  0.00     0.177 HD
BRANCH  10  12
HETATM   12  C4  UNL     1    -104.157 -20.285  48.421  1.00  0.00     0.147 C 
BRANCH  12  13
HETATM   13  C5  UNL     1    -102.866 -21.143  48.620  1.00  0.00     0.036 C 
HETATM   14  C6  UNL     1    -103.218 -22.318  47.625  1.00  0.00     0.017 C 
BRANCH  13  15
HETATM   15  C7  UNL     1    -101.629 -20.570  48.191  1.00  0.00    -0.018 A 
HETATM   16  C8  UNL     1    -100.447 -20.643  49.004  1.00  0.00     0.013 A 
HETATM   17  C9  UNL     1    -100.524 -21.095  50.423  1.00  0.00     0.068 C 
HETATM   18  N4  UNL     1     -99.473 -20.206  48.255  1.00  0.00    -0.359 N 
HETATM   19  C10 UNL     1     -99.881 -19.846  47.023  1.00  0.00     0.043 A 
ATOM     20  H4  UNL     1     -98.505 -20.144  48.569  1.00  0.00     0.166 HD
HETATM   21  C11 UNL     1     -99.227 -19.382  45.905  1.00  0.00     0.033 A 
HETATM   22  C15 UNL     1    -101.262 -20.074  46.970  1.00  0.00     0.002 A 
HETATM   23  C12 UNL     1     -99.880 -19.133  44.727  1.00  0.00     0.044 A 
HETATM   24  C13 UNL     1    -101.246 -19.350  44.629  1.00  0.00     0.117 A 
HETATM   25  F1  UNL     1    -101.941 -19.142  43.462  1.00  0.00    -0.206 F 
HETATM   26  C14 UNL     1    -101.898 -19.810  45.748  1.00  0.00     0.056 A 
ENDBRANCH  13  15
ENDBRANCH  12  13
ENDBRANCH  10  12
ENDBRANCH   4  10
BRANCH   1  27
HETATM   27  N1  UNL     1    -102.912 -20.545  53.907  1.00  0.00    -0.229 N 
HETATM   28  C1  UNL     1    -101.708 -21.033  54.489  1.00  0.00     0.165 C 
ATOM     29  H1  UNL     1    -103.774 -20.785  54.396  1.00  0.00     0.177 HD
ENDBRANCH   1  27
BRANCH   7  30
HETATM   30  N6  UNL     1    -101.396 -16.922  51.722  1.00  0.00    -0.191 N 
ATOM     31  H6  UNL     1    -101.775 -16.006  51.959  1.00  0.00     0.184 HD
BRANCH  30  32
HETATM   32  C17 UNL     1    -100.011 -17.041  51.348  1.00  0.00     0.052 A 
HETATM   33  C18 UNL     1     -99.660 -17.004  50.007  1.00  0.00     0.033 A 
HETATM   34  C19 UNL     1     -98.294 -17.110  49.665  1.00  0.00     0.042 A 
HETATM   35  C20 UNL     1     -97.325 -17.245  50.601  1.00  0.00     0.101 A 
HETATM   36  C22 UNL     1     -97.683 -17.284  51.982  1.00  0.00     0.103 A 
HETATM   37  C24 UNL     1     -99.035 -17.172  52.275  1.00  0.00     0.069 A 
BRANCH  35  38
HETATM   38  O1  UNL     1     -95.991 -17.354  50.272  1.00  0.00    -0.353 OA
HETATM   39  C21 UNL     1     -95.503 -17.467  48.967  1.00  0.00     0.210 C 
ENDBRANCH  35  38
BRANCH  36  40
HETATM   40  O2  UNL     1     -96.684 -17.420  52.888  1.00  0.00    -0.353 OA
HETATM   41  C23 UNL     1     -96.311 -16.435  53.827  1.00  0.00     0.210 C 
ENDBRANCH  36  40
ENDBRANCH  30  32
ENDBRANCH   7  30
TORSDOF 9
ENDMDL
MODEL 2
REMARK VINA RESULT: -8.065778867      3.219      6.041
REMARK  9 active torsions:
REMARK  status: ('A' for Active; 'I' for Inactive)
REMARK    1  A    between atoms: N1_2  and  C2_4 
REMARK    2  A    between atoms: C3_7  and  N3_8 
REMARK    3  A    between atoms: N3_8  and  C4_10 
REMARK    4  A    between atoms: C4_10  and  C5_11 
REMARK    5  A    between atoms: C5_11  and  C7_13 
REMARK    6  A    between atoms: C16_27  and  N6_28 
REMARK    7  A    between atoms: N6_28  and  C17_30 
REMARK    8  A    between atoms: C20_33  and  O1_34 
REMARK    9  A    between atoms: C22_36  and  O2_37 
ROOT
HETATM    1  C2  UNL     1     -99.525 -17.201  51.759  1.00  0.00     0.706 A 
HETATM    2  N2  UNL     1     -98.713 -17.390  50.723  1.00  0.00    -0.022 N 
ATOM      3  H2  UNL     1     -97.727 -17.161  50.853  1.00  0.00     0.203 HD
HETATM    4  C3  UNL     1     -99.089 -17.867  49.498  1.00  0.00     0.707 A 
HETATM    5  N5  UNL     1    -100.394 -18.158  49.366  1.00  0.00    -0.021 N 
ATOM      6  H5  UNL     1    -100.725 -18.518  48.471  1.00  0.00     0.203 HD
HETATM    7  C16 UNL     1    -101.293 -17.994  50.378  1.00  0.00     0.711 A 
HETATM    8  N7  UNL     1    -100.859 -17.527  51.542  1.00  0.00    -0.021 N 
ATOM      9  H7  UNL     1    -101.527 -17.402  52.303  1.00  0.00     0.203 HD
ENDROOT
BRANCH   4  10
HETATM   10  N3  UNL     1     -98.191 -17.988  48.667  1.00  0.00    -0.224 N 
ATOM     11  H3  UNL     1     -98.301 -17.396  47.844  1.00  0.00     0.177 HD
BRANCH  10  12
HETATM   12  C4  UNL     1     -97.007 -18.819  48.645  1.00  0.00     0.147 C 
BRANCH  12  13
HETATM   13  C5  UNL     1     -97.188 -19.776  47.422  1.00  0.00     0.036 C 
HETATM   14  C6  UNL     1     -98.267 -20.744  48.048  1.00  0.00     0.017 C 
BRANCH  13  15
HETATM   15  C7  UNL     1     -97.749 -19.216  46.232  1.00  0.00    -0.018 A 
HETATM   16  C8  UNL     1     -96.916 -18.682  45.191  1.00  0.00     0.013 A 
HETATM   17  C9  UNL     1     -95.458 -18.464  45.415  1.00  0.00     0.068 C 
HETATM   18  N4  UNL     1     -97.715 -18.436  44.190  1.00  0.00    -0.359 N 
HETATM   19  C10 UNL     1     -98.998 -18.748  44.454  1.00  0.00     0.043 A 
ATOM     20  H4  UNL     1     -97.401 -18.047  43.300  1.00  0.00     0.166 HD
HETATM   21  C11 UNL     1    -100.156 -18.705  43.713  1.00  0.00     0.033 A 
HETATM   22  C15 UNL     1     -99.032 -19.249  45.762  1.00  0.00     0.002 A 
HETATM   23  C12 UNL     1    -101.357 -19.141  44.208  1.00  0.00     0.044 A 
HETATM   24  C13 UNL     1    -101.436 -19.649  45.496  1.00  0.00     0.117 A 
HETATM   25  F1  UNL     1    -102.610 -20.123  46.029  1.00  0.00    -0.206 F 
HETATM   26  C14 UNL     1    -100.278 -19.687  46.236  1.00  0.00     0.056 A 
ENDBRANCH  13  15
ENDBRANCH  12  13
ENDBRANCH  10  12
ENDBRANCH   4  10
BRANCH   1  27
HETATM   27  N1  UNL     1     -99.302 -16.675  52.864  1.00  0.00    -0.229 N 
HETATM   28  C1  UNL     1     -98.373 -17.090  53.859  1.00  0.00     0.165 C 
ATOM     29  H1  UNL     1     -99.851 -15.845  53.083  1.00  0.00     0.177 HD
ENDBRANCH   1  27
BRANCH   7  30
HETATM   30  N6  UNL     1    -102.531 -18.278  50.180  1.00  0.00    -0.191 N 
ATOM     31  H6  UNL     1    -103.248 -17.593  50.415  1.00  0.00     0.184 HD
BRANCH  30  32
HETATM   32  C17 UNL     1    -102.919 -19.550  49.629  1.00  0.00     0.052 A 
HETATM   33  C18 UNL     1    -101.944 -20.487  49.323  1.00  0.00     0.033 A 
HETATM   34  C19 UNL     1    -102.349 -21.733  48.795  1.00  0.00     0.042 A 
HETATM   35  C20 UNL     1    -103.651 -22.036  48.582  1.00  0.00     0.101 A 
HETATM   36  C22 UNL     1    -104.657 -21.073  48.895  1.00  0.00     0.103 A 
HETATM   37  C24 UNL     1    -104.217 -19.864  49.416  1.00  0.00     0.069 A 
BRANCH  35  38
HETATM   38  O1  UNL     1    -104.051 -23.248  48.062  1.00  0.00    -0.353 OA
HETATM   39  C21 UNL     1    -103.999 -23.585  46.706  1.00  0.00     0.210 C 
ENDBRANCH  35  38
BRANCH  36  40
HETATM   40  O2  UNL     1    -105.949 -21.415  48.666  1.00  0.00    -0.353 OA
HETATM   41  C23 UNL     1    -106.688 -22.328  49.448  1.00  0.00     0.210 C 
ENDBRANCH  36  40
ENDBRANCH  30  32
ENDBRANCH   7  30
TORSDOF 9
ENDMDL
MODEL 3
REMARK VINA RESULT: -7.975211772      0.779      1.610
REMARK  9 active torsions:
REMARK  status: ('A' for Active; 'I' for Inactive)
REMARK    1  A    between atoms: N1_2  and  C2_4 
REMARK    2  A    between atoms: C3_7  and  N3_8 
REMARK    3  A    between atoms: N3_8  and  C4_10 
REMARK    4  A    between atoms: C4_10  and  C5_11 
REMARK    5  A    between atoms: C5_11  and  C7_13 
REMARK    6  A    between atoms: C16_27  and  N6_28 
REMARK    7  A    between atoms: N6_28  and  C17_30 
REMARK    8  A    between atoms: C20_33  and  O1_34 
REMARK    9  A    between atoms: C22_36  and  O2_37 
ROOT
HETATM    1  C2  UNL     1    -102.705 -19.780  52.907  1.00  0.00     0.706 A 
HETATM    2  N2  UNL     1    -103.433 -19.886  51.799  1.00  0.00    -0.022 N 
ATOM      3  H2  UNL     1    -104.107 -20.650  51.753  1.00  0.00     0.203 HD
HETATM    4  C3  UNL     1    -103.352 -19.054  50.717  1.00  0.00     0.707 A 
HETATM    5  N5  UNL     1    -102.454 -18.060  50.816  1.00  0.00    -0.021 N 
ATOM      6  H5  UNL     1    -102.356 -17.412  50.035  1.00  0.00     0.203 HD
HETATM    7  C16 UNL     1    -101.669 -17.881  51.917  1.00  0.00     0.711 A 
HETATM    8  N7  UNL     1    -101.799 -18.726  52.932  1.00  0.00    -0.021 N 
ATOM      9  H7  UNL     1    -101.215 -18.597  53.759  1.00  0.00     0.203 HD
ENDROOT
BRANCH   4  10
HETATM   10  N3  UNL     1    -104.118 -19.302  49.788  1.00  0.00    -0.224 N 
ATOM     11  H3  UNL     1    -105.087 -19.038  49.963  1.00  0.00     0.177 HD
BRANCH  10  12
HETATM   12  C4  UNL     1    -103.894 -19.900  48.489  1.00  0.00     0.147 C 
BRANCH  12  13
HETATM   13  C5  UNL     1    -102.661 -20.844  48.670  1.00  0.00     0.036 C 
HETATM   14  C6  UNL     1    -103.147 -22.031  47.749  1.00  0.00     0.017 C 
BRANCH  13  15
HETATM   15  C7  UNL     1    -101.408 -20.386  48.159  1.00  0.00    -0.018 A 
HETATM   16  C8  UNL     1    -100.191 -20.547  48.905  1.00  0.00     0.013 A 
HETATM   17  C9  UNL     1    -100.222 -20.968  50.336  1.00  0.00     0.068 C 
HETATM   18  N4  UNL     1     -99.229 -20.206  48.092  1.00  0.00    -0.359 N 
HETATM   19  C10 UNL     1     -99.677 -19.832  46.879  1.00  0.00     0.043 A 
ATOM     20  H4  UNL     1     -98.242 -20.222  48.349  1.00  0.00     0.166 HD
HETATM   21  C11 UNL     1     -99.053 -19.443  45.716  1.00  0.00     0.033 A 
HETATM   22  C15 UNL     1    -101.073 -19.942  46.910  1.00  0.00     0.002 A 
HETATM   23  C12 UNL     1     -99.750 -19.158  44.572  1.00  0.00     0.044 A 
HETATM   24  C13 UNL     1    -101.133 -19.259  44.557  1.00  0.00     0.117 A 
HETATM   25  F1  UNL     1    -101.876 -19.010  43.428  1.00  0.00    -0.206 F 
HETATM   26  C14 UNL     1    -101.755 -19.644  45.721  1.00  0.00     0.056 A 
ENDBRANCH  13  15
ENDBRANCH  12  13
ENDBRANCH  10  12
ENDBRANCH   4  10
BRANCH   1  27
HETATM   27  N1  UNL     1    -102.627 -20.542  53.887  1.00  0.00    -0.229 N 
HETATM   28  C1  UNL     1    -101.479 -21.225  54.378  1.00  0.00     0.165 C 
ATOM     29  H1  UNL     1    -103.493 -20.697  54.403  1.00  0.00     0.177 HD
ENDBRANCH   1  27
BRANCH   7  30
HETATM   30  N6  UNL     1    -100.819 -16.918  51.940  1.00  0.00    -0.191 N 
ATOM     31  H6  UNL     1    -101.140 -15.967  52.122  1.00  0.00     0.184 HD
BRANCH  30  32
HETATM   32  C17 UNL     1     -99.418 -17.161  51.714  1.00  0.00     0.052 A 
HETATM   33  C18 UNL     1     -98.526 -17.048  52.770  1.00  0.00     0.033 A 
HETATM   34  C19 UNL     1     -97.159 -17.304  52.527  1.00  0.00     0.042 A 
HETATM   35  C20 UNL     1     -96.697 -17.653  51.304  1.00  0.00     0.101 A 
HETATM   36  C22 UNL     1     -97.613 -17.769  50.214  1.00  0.00     0.103 A 
HETATM   37  C24 UNL     1     -98.947 -17.515  50.496  1.00  0.00     0.069 A 
BRANCH  35  38
HETATM   38  O1  UNL     1     -95.363 -17.899  51.060  1.00  0.00    -0.353 OA
HETATM   39  C21 UNL     1     -94.388 -16.907  50.919  1.00  0.00     0.210 C 
ENDBRANCH  35  38
BRANCH  36  40
HETATM   40  O2  UNL     1     -97.111 -18.121  49.004  1.00  0.00    -0.353 OA
HETATM   41  C23 UNL     1     -96.915 -17.231  47.927  1.00  0.00     0.210 C 
ENDBRANCH  36  40
ENDBRANCH  30  32
ENDBRANCH   7  30
TORSDOF 9
ENDMDL
MODEL 4
REMARK VINA RESULT: -7.895652418      3.657      7.575
REMARK  9 active torsions:
REMARK  status: ('A' for Active; 'I' for Inactive)
REMARK    1  A    between atoms: N1_2  and  C2_4 
REMARK    2  A    between atoms: C3_7  and  N3_8 
REMARK    3  A    between atoms: N3_8  and  C4_10 
REMARK    4  A    between atoms: C4_10  and  C5_11 
REMARK    5  A    between atoms: C5_11  and  C7_13 
REMARK    6  A    between atoms: C16_27  and  N6_28 
REMARK    7  A    between atoms: N6_28  and  C17_30 
REMARK    8  A    between atoms: C20_33  and  O1_34 
REMARK    9  A    between atoms: C22_36  and  O2_37 
ROOT
HETATM    1  C2  UNL     1     -98.968 -18.787  44.667  1.00  0.00     0.706 A 
HETATM    2  N2  UNL     1     -98.436 -19.093  45.847  1.00  0.00    -0.022 N 
ATOM      3  H2  UNL     1     -97.436 -18.928  45.966  1.00  0.00     0.203 HD
HETATM    4  C3  UNL     1     -99.118 -19.610  46.912  1.00  0.00     0.707 A 
HETATM    5  N5  UNL     1    -100.431 -19.812  46.717  1.00  0.00    -0.021 N 
ATOM      6  H5  UNL     1    -100.985 -20.196  47.482  1.00  0.00     0.203 HD
HETATM    7  C16 UNL     1    -101.055 -19.525  45.538  1.00  0.00     0.711 A 
HETATM    8  N7  UNL     1    -100.332 -19.025  44.544  1.00  0.00    -0.021 N 
ATOM      9  H7  UNL     1    -100.793 -18.807  43.661  1.00  0.00     0.203 HD
ENDROOT
BRANCH   4  10
HETATM   10  N3  UNL     1     -98.457 -19.816  47.929  1.00  0.00    -0.224 N 
ATOM     11  H3  UNL     1     -98.046 -18.976  48.337  1.00  0.00     0.177 HD
BRANCH  10  12
HETATM   12  C4  UNL     1     -98.155 -21.033  48.650  1.00  0.00     0.147 C 
BRANCH  12  13
HETATM   13  C5  UNL     1     -98.024 -20.611  50.150  1.00  0.00     0.036 C 
HETATM   14  C6  UNL     1     -97.864 -19.055  49.935  1.00  0.00     0.017 C 
BRANCH  13  15
HETATM   15  C7  UNL     1     -99.164 -20.816  50.987  1.00  0.00    -0.018 A 
HETATM   16  C8  UNL     1     -99.063 -21.531  52.229  1.00  0.00     0.013 A 
HETATM   17  C9  UNL     1     -97.830 -22.298  52.570  1.00  0.00     0.068 C 
HETATM   18  N4  UNL     1    -100.213 -21.374  52.823  1.00  0.00    -0.359 N 
HETATM   19  C10 UNL     1    -101.075 -20.628  52.108  1.00  0.00     0.043 A 
ATOM     20  H4  UNL     1    -100.435 -21.774  53.735  1.00  0.00     0.166 HD
HETATM   21  C11 UNL     1    -102.352 -20.170  52.338  1.00  0.00     0.033 A 
HETATM   22  C15 UNL     1    -100.414 -20.265  50.927  1.00  0.00     0.002 A 
HETATM   23  C12 UNL     1    -103.010 -19.361  51.450  1.00  0.00     0.044 A 
HETATM   24  C13 UNL     1    -102.391 -18.973  50.272  1.00  0.00     0.117 A 
HETATM   25  F1  UNL     1    -102.998 -18.141  49.362  1.00  0.00    -0.206 F 
HETATM   26  C14 UNL     1    -101.117 -19.435  50.041  1.00  0.00     0.056 A 
ENDBRANCH  13  15
ENDBRANCH  12  13
ENDBRANCH  10  12
ENDBRANCH   4  10
BRANCH   1  27
HETATM   27  N1  UNL     1     -98.417 -18.420  43.613  1.00  0.00    -0.229 N 
HETATM   28  C1  UNL     1     -97.063 -18.613  43.220  1.00  0.00     0.165 C 
ATOM     29  H1  UNL     1     -99.008 -17.920  42.950  1.00  0.00     0.177 HD
ENDBRANCH   1  27
BRANCH   7  30
HETATM   30  N6  UNL     1    -102.313 -19.757  45.413  1.00  0.00    -0.191 N 
ATOM     31  H6  UNL     1    -102.780 -19.537  44.533  1.00  0.00     0.184 HD
BRANCH  30  32
HETATM   32  C17 UNL     1    -103.072 -20.324  46.496  1.00  0.00     0.052 A 
HETATM   33  C18 UNL     1    -102.582 -21.435  47.166  1.00  0.00     0.033 A 
HETATM   34  C19 UNL     1    -103.339 -21.966  48.233  1.00  0.00     0.042 A 
HETATM   35  C20 UNL     1    -104.519 -21.427  48.618  1.00  0.00     0.101 A 
HETATM   36  C22 UNL     1    -105.027 -20.284  47.930  1.00  0.00     0.103 A 
HETATM   37  C24 UNL     1    -104.251 -19.791  46.891  1.00  0.00     0.069 A 
BRANCH  35  38
HETATM   38  O1  UNL     1    -105.264 -21.945  49.656  1.00  0.00    -0.353 OA
HETATM   39  C21 UNL     1    -106.260 -22.914  49.509  1.00  0.00     0.210 C 
ENDBRANCH  35  38
BRANCH  36  40
HETATM   40  O2  UNL     1    -106.213 -19.774  48.346  1.00  0.00    -0.353 OA
HETATM   41  C23 UNL     1    -106.352 -18.702  49.252  1.00  0.00     0.210 C 
ENDBRANCH  36  40
ENDBRANCH  30  32
ENDBRANCH   7  30
TORSDOF 9
ENDMDL
MODEL 5
REMARK VINA RESULT: -7.812665565      3.163      5.836
REMARK  9 active torsions:
REMARK  status: ('A' for Active; 'I' for Inactive)
REMARK    1  A    between atoms: N1_2  and  C2_4 
REMARK    2  A    between atoms: C3_7  and  N3_8 
REMARK    3  A    between atoms: N3_8  and  C4_10 
REMARK    4  A    between atoms: C4_10  and  C5_11 
REMARK    5  A    between atoms: C5_11  and  C7_13 
REMARK    6  A    between atoms: C16_27  and  N6_28 
REMARK    7  A    between atoms: N6_28  and  C17_30 
REMARK    8  A    between atoms: C20_33  and  O1_34 
REMARK    9  A    between atoms: C22_36  and  O2_37 
ROOT
HETATM    1  C2  UNL     1    -100.512 -18.090  52.870  1.00  0.00     0.706 A 
HETATM    2  N2  UNL     1     -99.519 -18.098  51.986  1.00  0.00    -0.022 N 
ATOM      3  H2  UNL     1     -98.569 -18.014  52.349  1.00  0.00     0.203 HD
HETATM    4  C3  UNL     1     -99.665 -18.210  50.631  1.00  0.00     0.707 A 
HETATM    5  N5  UNL     1    -100.930 -18.320  50.192  1.00  0.00    -0.021 N 
ATOM      6  H5  UNL     1    -101.092 -18.406  49.189  1.00  0.00     0.203 HD
HETATM    7  C16 UNL     1    -102.005 -18.321  51.031  1.00  0.00     0.711 A 
HETATM    8  N7  UNL     1    -101.791 -18.209  52.336  1.00  0.00    -0.021 N 
ATOM      9  H7  UNL     1    -102.591 -18.210  52.969  1.00  0.00     0.203 HD
ENDROOT
BRANCH   4  10
HETATM   10  N3  UNL     1     -98.625 -18.212  49.974  1.00  0.00    -0.224 N 
ATOM     11  H3  UNL     1     -98.686 -17.702  49.094  1.00  0.00     0.177 HD
BRANCH  10  12
HETATM   12  C4  UNL     1     -97.331 -18.808  50.225  1.00  0.00     0.147 C 
BRANCH  12  13
HETATM   13  C5  UNL     1     -96.945 -19.545  48.901  1.00  0.00     0.036 C 
HETATM   14  C6  UNL     1     -97.807 -20.852  49.108  1.00  0.00     0.017 C 
BRANCH  13  15
HETATM   15  C7  UNL     1     -97.361 -18.943  47.674  1.00  0.00    -0.018 A 
HETATM   16  C8  UNL     1     -96.522 -18.010  46.975  1.00  0.00     0.013 A 
HETATM   17  C9  UNL     1     -95.302 -17.446  47.622  1.00  0.00     0.068 C 
HETATM   18  N4  UNL     1     -97.102 -17.805  45.825  1.00  0.00    -0.359 N 
HETATM   19  C10 UNL     1     -98.243 -18.503  45.681  1.00  0.00     0.043 A 
ATOM     20  H4  UNL     1     -96.729 -17.181  45.109  1.00  0.00     0.166 HD
HETATM   21  C11 UNL     1     -99.150 -18.640  44.655  1.00  0.00     0.033 A 
HETATM   22  C15 UNL     1     -98.421 -19.237  46.862  1.00  0.00     0.002 A 
HETATM   23  C12 UNL     1    -100.231 -19.477  44.741  1.00  0.00     0.044 A 
HETATM   24  C13 UNL     1    -100.442 -20.225  45.889  1.00  0.00     0.117 A 
HETATM   25  F1  UNL     1    -101.496 -21.098  46.014  1.00  0.00    -0.206 F 
HETATM   26  C14 UNL     1     -99.538 -20.084  46.915  1.00  0.00     0.056 A 
ENDBRANCH  13  15
ENDBRANCH  12  13
ENDBRANCH  10  12
ENDBRANCH   4  10
BRANCH   1  27
HETATM   27  N1  UNL     1    -100.488 -17.885  54.097  1.00  0.00    -0.229 N 
HETATM   28  C1  UNL     1    -100.295 -18.834  55.140  1.00  0.00     0.165 C 
ATOM     29  H1  UNL     1    -100.625 -16.918  54.391  1.00  0.00     0.177 HD
ENDBRANCH   1  27
BRANCH   7  30
HETATM   30  N6  UNL     1    -103.191 -18.414  50.544  1.00  0.00    -0.191 N 
ATOM     31  H6  UNL     1    -103.919 -17.778  50.868  1.00  0.00     0.184 HD
BRANCH  30  32
HETATM   32  C17 UNL     1    -103.504 -19.402  49.546  1.00  0.00     0.052 A 
HETATM   33  C18 UNL     1    -103.416 -20.749  49.867  1.00  0.00     0.033 A 
HETATM   34  C19 UNL     1    -103.741 -21.700  48.876  1.00  0.00     0.042 A 
HETATM   35  C20 UNL     1    -104.134 -21.340  47.632  1.00  0.00     0.101 A 
HETATM   36  C22 UNL     1    -104.225 -19.954  47.297  1.00  0.00     0.103 A 
HETATM   37  C24 UNL     1    -103.902 -19.053  48.301  1.00  0.00     0.069 A 
BRANCH  35  38
HETATM   38  O1  UNL     1    -104.446 -22.265  46.659  1.00  0.00    -0.353 OA
HETATM   39  C21 UNL     1    -104.036 -23.601  46.674  1.00  0.00     0.210 C 
ENDBRANCH  35  38
BRANCH  36  40
HETATM   40  O2  UNL     1    -104.621 -19.635  46.041  1.00  0.00    -0.353 OA
HETATM   41  C23 UNL     1    -103.865 -18.862  45.133  1.00  0.00     0.210 C 
ENDBRANCH  36  40
ENDBRANCH  30  32
ENDBRANCH   7  30
TORSDOF 9
ENDMDL
