MODEL 1
REMARK VINA RESULT: -9.145459649      0.000      0.000
REMARK  8 active torsions:
REMARK  status: ('A' for Active; 'I' for Inactive)
REMARK    1  A    between atoms: C2_2  and  C3_3 
REMARK    2  A    between atoms: C7_8  and  C8_9 
REMARK    3  A    between atoms: C8_9  and  N1_10 
REMARK    4  A    between atoms: N1_10  and  C9_12 
REMARK    5  A    between atoms: N3_16  and  C11_18 
REMARK    6  A    between atoms: C18_29  and  N6_30 
REMARK    7  A    between atoms: N6_30  and  C19_32 
REMARK    8  A    between atoms: C23_38  and  O1_39 
ROOT
HETATM    1  C9  UNL     1     -86.614 -17.313   9.749  1.00  0.00     0.130 C 
HETATM    2  N2  UNL     1     -85.649 -16.548   9.234  1.00  0.00    -0.325 N 
ATOM      3  H2  UNL     1     -84.895 -16.362   9.896  1.00  0.00     0.169 HD
HETATM    4  C10 UNL     1     -85.448 -15.959   8.021  1.00  0.00     0.132 C 
HETATM    5  N3  UNL     1     -84.354 -15.485   7.860  1.00  0.00    -0.370 N 
ATOM      6  H3  UNL     1     -83.920 -15.704   8.757  1.00  0.00     0.161 HD
HETATM    7  C14 UNL     1     -86.431 -15.899   7.022  1.00  0.00     0.103 A 
HETATM    8  N4  UNL     1     -86.266 -15.219   5.879  1.00  0.00    -0.297 N 
ATOM      9  H4  UNL     1     -85.440 -14.686   5.607  1.00  0.00     0.187 HD
HETATM   10  N5  UNL     1     -87.367 -15.367   5.169  1.00  0.00    -0.310 N 
ATOM     11  H5  UNL     1     -87.517 -14.954   4.249  1.00  0.00     0.186 HD
HETATM   12  C15 UNL     1     -88.264 -16.125   5.808  1.00  0.00     0.121 A 
HETATM   13  C16 UNL     1     -87.680 -16.478   7.002  1.00  0.00     0.015 A 
HETATM   14  C17 UNL     1     -88.322 -17.270   7.938  1.00  0.00     0.048 C 
HETATM   15  C18 UNL     1     -87.871 -17.505   9.209  1.00  0.00     0.079 C 
ENDROOT
BRANCH   1  16
HETATM   16  N1  UNL     1     -86.442 -17.965  10.827  1.00  0.00    -0.370 N 
ATOM     17  H1  UNL     1     -86.677 -18.957  10.784  1.00  0.00     0.161 HD
BRANCH  16  18
HETATM   18  C8  UNL     1     -85.963 -17.499  12.087  1.00  0.00     0.163 C 
BRANCH  18  19
HETATM   19  C7  UNL     1     -86.924 -16.491  12.637  1.00  0.00    -0.001 A 
HETATM   20  C6  UNL     1     -86.711 -15.136  12.498  1.00  0.00     0.015 A 
HETATM   21  C5  UNL     1     -87.616 -14.243  13.013  1.00  0.00     0.043 A 
HETATM   22  C4  UNL     1     -88.743 -14.677  13.672  1.00  0.00     0.125 A 
HETATM   23  C3  UNL     1     -88.960 -16.038  13.814  1.00  0.00     0.019 A 
HETATM   24  F1  UNL     1     -89.652 -13.801  14.190  1.00  0.00    -0.205 F 
HETATM   25  C25 UNL     1     -88.061 -16.963  13.302  1.00  0.00     0.133 A 
HETATM   26  F2  UNL     1     -88.303 -18.283  13.457  1.00  0.00    -0.205 F 
BRANCH  23  27
HETATM   27  C2  UNL     1     -90.187 -16.501  14.530  1.00  0.00     0.040 C 
HETATM   28  C1  UNL     1     -91.219 -16.788  13.448  1.00  0.00     0.010 C 
ENDBRANCH  23  27
ENDBRANCH  18  19
ENDBRANCH  16  18
ENDBRANCH   1  16
BRANCH  15  29
HETATM   29  N6  UNL     1     -88.858 -18.024  10.074  1.00  0.00    -0.339 N 
ATOM     30  H6  UNL     1     -88.571 -18.259  11.024  1.00  0.00     0.167 HD
BRANCH  29  31
HETATM   31  C19 UNL     1     -90.079 -18.224   9.765  1.00  0.00     0.110 A 
HETATM   32  C20 UNL     1     -90.550 -19.440   9.285  1.00  0.00     0.073 A 
HETATM   33  C21 UNL     1     -91.866 -19.623   8.964  1.00  0.00     0.012 A 
HETATM   34  C22 UNL     1     -92.370 -20.938   8.445  1.00  0.00     0.068 C 
HETATM   35  N7  UNL     1     -92.714 -18.591   9.122  1.00  0.00    -0.326 N 
HETATM   36  C23 UNL     1     -92.294 -17.399   9.585  1.00  0.00     0.224 A 
ATOM     37  H7  UNL     1     -93.698 -18.715   8.886  1.00  0.00     0.169 HD
HETATM   38  N8  UNL     1     -90.996 -17.247   9.892  1.00  0.00    -0.308 N 
ATOM     39  H8  UNL     1     -90.686 -16.340  10.242  1.00  0.00     0.171 HD
BRANCH  36  40
HETATM   40  O1  UNL     1     -93.209 -16.340   9.738  1.00  0.00    -0.327 OA
HETATM   41  C24 UNL     1     -93.920 -16.227  10.950  1.00  0.00     0.213 C 
ENDBRANCH  36  40
ENDBRANCH  29  31
ENDBRANCH  15  29
BRANCH   5  42
HETATM   42  C11 UNL     1     -83.340 -14.846   7.242  1.00  0.00     0.075 C 
HETATM   43  C12 UNL     1     -82.193 -14.419   8.212  1.00  0.00     0.031 C 
HETATM   44  C13 UNL     1     -82.649 -15.833   6.273  1.00  0.00     0.031 C 
ENDBRANCH   5  42
TORSDOF 8
ENDMDL
MODEL 2
REMARK VINA RESULT: -9.123643706      4.426      6.985
REMARK  8 active torsions:
REMARK  status: ('A' for Active; 'I' for Inactive)
REMARK    1  A    between atoms: C2_2  and  C3_3 
REMARK    2  A    between atoms: C7_8  and  C8_9 
REMARK    3  A    between atoms: C8_9  and  N1_10 
REMARK    4  A    between atoms: N1_10  and  C9_12 
REMARK    5  A    between atoms: N3_16  and  C11_18 
REMARK    6  A    between atoms: C18_29  and  N6_30 
REMARK    7  A    between atoms: N6_30  and  C19_32 
REMARK    8  A    between atoms: C23_38  and  O1_39 
ROOT
HETATM    1  C9  UNL     1     -88.153 -18.518  14.017  1.00  0.00     0.130 C 
HETATM    2  N2  UNL     1     -88.092 -17.849  15.170  1.00  0.00    -0.325 N 
ATOM      3  H2  UNL     1     -88.241 -18.445  15.983  1.00  0.00     0.169 HD
HETATM    4  C10 UNL     1     -87.875 -16.544  15.502  1.00  0.00     0.132 C 
HETATM    5  N3  UNL     1     -87.708 -16.338  16.675  1.00  0.00    -0.370 N 
ATOM      6  H3  UNL     1     -87.792 -17.284  17.047  1.00  0.00     0.161 HD
HETATM    7  C14 UNL     1     -87.848 -15.505  14.560  1.00  0.00     0.103 A 
HETATM    8  N4  UNL     1     -87.750 -14.213  14.904  1.00  0.00    -0.297 N 
ATOM      9  H4  UNL     1     -87.686 -13.844  15.853  1.00  0.00     0.187 HD
HETATM   10  N5  UNL     1     -87.752 -13.506  13.791  1.00  0.00    -0.310 N 
ATOM     11  H5  UNL     1     -87.687 -12.489  13.757  1.00  0.00     0.186 HD
HETATM   12  C15 UNL     1     -87.849 -14.290  12.713  1.00  0.00     0.121 A 
HETATM   13  C16 UNL     1     -87.912 -15.580  13.187  1.00  0.00     0.015 A 
HETATM   14  C17 UNL     1     -88.021 -16.676  12.348  1.00  0.00     0.048 C 
HETATM   15  C18 UNL     1     -88.267 -17.958  12.759  1.00  0.00     0.079 C 
ENDROOT
BRANCH   1  16
HETATM   16  N1  UNL     1     -88.099 -19.788  13.982  1.00  0.00    -0.370 N 
ATOM     17  H1  UNL     1     -88.858 -20.247  13.479  1.00  0.00     0.161 HD
BRANCH  16  18
HETATM   18  C8  UNL     1     -87.122 -20.657  14.550  1.00  0.00     0.163 C 
BRANCH  18  19
HETATM   19  C7  UNL     1     -87.771 -21.952  14.928  1.00  0.00    -0.001 A 
HETATM   20  C6  UNL     1     -87.464 -23.132  14.283  1.00  0.00     0.015 A 
HETATM   21  C5  UNL     1     -88.078 -24.299  14.660  1.00  0.00     0.043 A 
HETATM   22  C4  UNL     1     -89.004 -24.316  15.677  1.00  0.00     0.125 A 
HETATM   23  C3  UNL     1     -89.316 -23.133  16.327  1.00  0.00     0.019 A 
HETATM   24  F1  UNL     1     -89.623 -25.470  16.062  1.00  0.00    -0.205 F 
HETATM   25  C25 UNL     1     -88.709 -21.937  15.966  1.00  0.00     0.133 A 
HETATM   26  F2  UNL     1     -89.035 -20.801  16.620  1.00  0.00    -0.205 F 
BRANCH  23  27
HETATM   27  C2  UNL     1     -90.321 -23.160  17.431  1.00  0.00     0.040 C 
HETATM   28  C1  UNL     1     -91.666 -22.871  16.780  1.00  0.00     0.010 C 
ENDBRANCH  23  27
ENDBRANCH  18  19
ENDBRANCH  16  18
ENDBRANCH   1  16
BRANCH  15  29
HETATM   29  N6  UNL     1     -88.695 -18.814  11.723  1.00  0.00    -0.339 N 
ATOM     30  H6  UNL     1     -88.407 -19.791  11.773  1.00  0.00     0.167 HD
BRANCH  29  31
HETATM   31  C19 UNL     1     -89.414 -18.466  10.728  1.00  0.00     0.110 A 
HETATM   32  C20 UNL     1     -88.887 -17.889   9.579  1.00  0.00     0.073 A 
HETATM   33  C21 UNL     1     -89.684 -17.529   8.528  1.00  0.00     0.012 A 
HETATM   34  C22 UNL     1     -89.111 -16.906   7.288  1.00  0.00     0.068 C 
HETATM   35  N7  UNL     1     -91.008 -17.744   8.623  1.00  0.00    -0.326 N 
HETATM   36  C23 UNL     1     -91.553 -18.300   9.722  1.00  0.00     0.224 A 
ATOM     37  H7  UNL     1     -91.613 -17.479   7.846  1.00  0.00     0.169 HD
HETATM   38  N8  UNL     1     -90.747 -18.644  10.738  1.00  0.00    -0.308 N 
ATOM     39  H8  UNL     1     -91.169 -19.066  11.566  1.00  0.00     0.171 HD
BRANCH  36  40
HETATM   40  O1  UNL     1     -92.944 -18.511   9.789  1.00  0.00    -0.327 OA
HETATM   41  C24 UNL     1     -93.524 -18.830  11.033  1.00  0.00     0.213 C 
ENDBRANCH  36  40
ENDBRANCH  29  31
ENDBRANCH  15  29
BRANCH   5  42
HETATM   42  C11 UNL     1     -87.479 -15.644  17.809  1.00  0.00     0.075 C 
HETATM   43  C12 UNL     1     -88.365 -16.108  19.008  1.00  0.00     0.031 C 
HETATM   44  C13 UNL     1     -86.037 -15.936  18.286  1.00  0.00     0.031 C 
ENDBRANCH   5  42
TORSDOF 8
ENDMDL
MODEL 3
REMARK VINA RESULT: -9.060831597      4.287      6.734
REMARK  8 active torsions:
REMARK  status: ('A' for Active; 'I' for Inactive)
REMARK    1  A    between atoms: C2_2  and  C3_3 
REMARK    2  A    between atoms: C7_8  and  C8_9 
REMARK    3  A    between atoms: C8_9  and  N1_10 
REMARK    4  A    between atoms: N1_10  and  C9_12 
REMARK    5  A    between atoms: N3_16  and  C11_18 
REMARK    6  A    between atoms: C18_29  and  N6_30 
REMARK    7  A    between atoms: N6_30  and  C19_32 
REMARK    8  A    between atoms: C23_38  and  O1_39 
ROOT
HETATM    1  C9  UNL     1     -88.089 -18.234  13.859  1.00  0.00     0.130 C 
HETATM    2  N2  UNL     1     -87.748 -17.498  14.918  1.00  0.00    -0.325 N 
ATOM      3  H2  UNL     1     -87.656 -18.049  15.771  1.00  0.00     0.169 HD
HETATM    4  C10 UNL     1     -87.494 -16.172  15.113  1.00  0.00     0.132 C 
HETATM    5  N3  UNL     1     -87.029 -15.895  16.188  1.00  0.00    -0.370 N 
ATOM      6  H3  UNL     1     -86.980 -16.820  16.616  1.00  0.00     0.161 HD
HETATM    7  C14 UNL     1     -87.751 -15.189  14.146  1.00  0.00     0.103 A 
HETATM    8  N4  UNL     1     -87.609 -13.878  14.385  1.00  0.00    -0.297 N 
ATOM      9  H4  UNL     1     -87.308 -13.454  15.262  1.00  0.00     0.187 HD
HETATM   10  N5  UNL     1     -87.928 -13.237  13.278  1.00  0.00    -0.310 N 
ATOM     11  H5  UNL     1     -87.909 -12.223  13.176  1.00  0.00     0.186 HD
HETATM   12  C15 UNL     1     -88.282 -14.084  12.306  1.00  0.00     0.121 A 
HETATM   13  C16 UNL     1     -88.174 -15.345  12.845  1.00  0.00     0.015 A 
HETATM   14  C17 UNL     1     -88.465 -16.490  12.123  1.00  0.00     0.048 C 
HETATM   15  C18 UNL     1     -88.551 -17.750  12.650  1.00  0.00     0.079 C 
ENDROOT
BRANCH   1  16
HETATM   16  N1  UNL     1     -88.005 -19.502  13.876  1.00  0.00    -0.370 N 
ATOM     17  H1  UNL     1     -88.740 -19.999  13.372  1.00  0.00     0.161 HD
BRANCH  16  18
HETATM   18  C8  UNL     1     -87.022 -20.324  14.502  1.00  0.00     0.163 C 
BRANCH  18  19
HETATM   19  C7  UNL     1     -87.636 -21.641  14.862  1.00  0.00    -0.001 A 
HETATM   20  C6  UNL     1     -87.315 -22.799  14.185  1.00  0.00     0.015 A 
HETATM   21  C5  UNL     1     -87.896 -23.988  14.546  1.00  0.00     0.043 A 
HETATM   22  C4  UNL     1     -88.801 -24.049  15.580  1.00  0.00     0.125 A 
HETATM   23  C3  UNL     1     -89.127 -22.888  16.262  1.00  0.00     0.019 A 
HETATM   24  F1  UNL     1     -89.387 -25.225  15.950  1.00  0.00    -0.205 F 
HETATM   25  C25 UNL     1     -88.553 -21.671  15.918  1.00  0.00     0.133 A 
HETATM   26  F2  UNL     1     -88.892 -20.558  16.603  1.00  0.00    -0.205 F 
BRANCH  23  27
HETATM   27  C2  UNL     1     -90.110 -22.963  17.384  1.00  0.00     0.040 C 
HETATM   28  C1  UNL     1     -91.477 -22.729  16.759  1.00  0.00     0.010 C 
ENDBRANCH  23  27
ENDBRANCH  18  19
ENDBRANCH  16  18
ENDBRANCH   1  16
BRANCH  15  29
HETATM   29  N6  UNL     1     -89.210 -18.672  11.810  1.00  0.00    -0.339 N 
ATOM     30  H6  UNL     1     -88.773 -19.585  11.683  1.00  0.00     0.167 HD
BRANCH  29  31
HETATM   31  C19 UNL     1     -90.308 -18.458  11.197  1.00  0.00     0.110 A 
HETATM   32  C20 UNL     1     -91.290 -17.602  11.679  1.00  0.00     0.073 A 
HETATM   33  C21 UNL     1     -92.456 -17.393  10.997  1.00  0.00     0.012 A 
HETATM   34  C22 UNL     1     -93.515 -16.467  11.522  1.00  0.00     0.068 C 
HETATM   35  N7  UNL     1     -92.643 -18.038   9.832  1.00  0.00    -0.326 N 
HETATM   36  C23 UNL     1     -91.713 -18.875   9.335  1.00  0.00     0.224 A 
ATOM     37  H7  UNL     1     -93.509 -17.890   9.314  1.00  0.00     0.169 HD
HETATM   38  N8  UNL     1     -90.578 -19.062  10.025  1.00  0.00    -0.308 N 
ATOM     39  H8  UNL     1     -89.879 -19.698   9.640  1.00  0.00     0.171 HD
BRANCH  36  40
HETATM   40  O1  UNL     1     -91.941 -19.535   8.112  1.00  0.00    -0.327 OA
HETATM   41  C24 UNL     1     -92.203 -20.919   8.125  1.00  0.00     0.213 C 
ENDBRANCH  36  40
ENDBRANCH  29  31
ENDBRANCH  15  29
BRANCH   5  42
HETATM   42  C11 UNL     1     -86.531 -15.133  17.182  1.00  0.00     0.075 C 
HETATM   43  C12 UNL     1     -87.551 -14.876  18.336  1.00  0.00     0.031 C 
HETATM   44  C13 UNL     1     -85.385 -15.907  17.875  1.00  0.00     0.031 C 
ENDBRANCH   5  42
TORSDOF 8
ENDMDL
MODEL 4
REMARK VINA RESULT: -9.027814978      2.077      3.125
REMARK  8 active torsions:
REMARK  status: ('A' for Active; 'I' for Inactive)
REMARK    1  A    between atoms: C2_2  and  C3_3 
REMARK    2  A    between atoms: C7_8  and  C8_9 
REMARK    3  A    between atoms: C8_9  and  N1_10 
REMARK    4  A    between atoms: N1_10  and  C9_12 
REMARK    5  A    between atoms: N3_16  and  C11_18 
REMARK    6  A    between atoms: C18_29  and  N6_30 
REMARK    7  A    between atoms: N6_30  and  C19_32 
REMARK    8  A    between atoms: C23_38  and  O1_39 
ROOT
HETATM    1  C9  UNL     1     -85.629 -17.117   9.503  1.00  0.00     0.130 C 
HETATM    2  N2  UNL     1     -84.822 -16.481   8.652  1.00  0.00    -0.325 N 
ATOM      3  H2  UNL     1     -83.881 -16.348   9.022  1.00  0.00     0.169 HD
HETATM    4  C10 UNL     1     -84.976 -15.969   7.397  1.00  0.00     0.132 C 
HETATM    5  N3  UNL     1     -83.957 -15.620   6.861  1.00  0.00    -0.370 N 
ATOM      6  H3  UNL     1     -83.275 -15.846   7.586  1.00  0.00     0.161 HD
HETATM    7  C14 UNL     1     -86.221 -15.848   6.763  1.00  0.00     0.103 A 
HETATM    8  N4  UNL     1     -86.379 -15.239   5.579  1.00  0.00    -0.297 N 
ATOM      9  H4  UNL     1     -85.643 -14.808   5.020  1.00  0.00     0.187 HD
HETATM   10  N5  UNL     1     -87.659 -15.299   5.272  1.00  0.00    -0.310 N 
ATOM     11  H5  UNL     1     -88.064 -14.912   4.419  1.00  0.00     0.186 HD
HETATM   12  C15 UNL     1     -88.362 -15.930   6.218  1.00  0.00     0.121 A 
HETATM   13  C16 UNL     1     -87.454 -16.291   7.186  1.00  0.00     0.015 A 
HETATM   14  C17 UNL     1     -87.823 -16.971   8.334  1.00  0.00     0.048 C 
HETATM   15  C18 UNL     1     -87.005 -17.198   9.408  1.00  0.00     0.079 C 
ENDROOT
BRANCH   1  16
HETATM   16  N1  UNL     1     -85.173 -17.738  10.514  1.00  0.00    -0.370 N 
ATOM     17  H1  UNL     1     -85.640 -18.616  10.740  1.00  0.00     0.161 HD
BRANCH  16  18
HETATM   18  C8  UNL     1     -84.096 -17.373  11.375  1.00  0.00     0.163 C 
BRANCH  18  19
HETATM   19  C7  UNL     1     -84.597 -16.420  12.416  1.00  0.00    -0.001 A 
HETATM   20  C6  UNL     1     -84.426 -15.057  12.292  1.00  0.00     0.015 A 
HETATM   21  C5  UNL     1     -84.902 -14.215  13.265  1.00  0.00     0.043 A 
HETATM   22  C4  UNL     1     -85.552 -14.709  14.373  1.00  0.00     0.125 A 
HETATM   23  C3  UNL     1     -85.725 -16.078  14.501  1.00  0.00     0.019 A 
HETATM   24  F1  UNL     1     -86.031 -13.884  15.349  1.00  0.00    -0.205 F 
HETATM   25  C25 UNL     1     -85.254 -16.952  13.531  1.00  0.00     0.133 A 
HETATM   26  F2  UNL     1     -85.439 -18.281  13.686  1.00  0.00    -0.205 F 
BRANCH  23  27
HETATM   27  C2  UNL     1     -86.433 -16.605  15.706  1.00  0.00     0.040 C 
HETATM   28  C1  UNL     1     -87.901 -16.704  15.318  1.00  0.00     0.010 C 
ENDBRANCH  23  27
ENDBRANCH  18  19
ENDBRANCH  16  18
ENDBRANCH   1  16
BRANCH  15  29
HETATM   29  N6  UNL     1     -87.698 -17.573  10.579  1.00  0.00    -0.339 N 
ATOM     30  H6  UNL     1     -87.563 -18.524  10.919  1.00  0.00     0.167 HD
BRANCH  29  31
HETATM   31  C19 UNL     1     -88.480 -16.818  11.248  1.00  0.00     0.110 A 
HETATM   32  C20 UNL     1     -88.108 -15.560  11.707  1.00  0.00     0.073 A 
HETATM   33  C21 UNL     1     -88.970 -14.774  12.419  1.00  0.00     0.012 A 
HETATM   34  C22 UNL     1     -88.565 -13.416  12.913  1.00  0.00     0.068 C 
HETATM   35  N7  UNL     1     -90.204 -15.243  12.675  1.00  0.00    -0.326 N 
HETATM   36  C23 UNL     1     -90.598 -16.457  12.246  1.00  0.00     0.224 A 
ATOM     37  H7  UNL     1     -90.856 -14.666  13.206  1.00  0.00     0.169 HD
HETATM   38  N8  UNL     1     -89.732 -17.208  11.548  1.00  0.00    -0.308 N 
ATOM     39  H8  UNL     1     -90.039 -18.126  11.228  1.00  0.00     0.171 HD
BRANCH  36  40
HETATM   40  O1  UNL     1     -91.898 -16.918  12.532  1.00  0.00    -0.327 OA
HETATM   41  C24 UNL     1     -92.526 -17.789  11.619  1.00  0.00     0.213 C 
ENDBRANCH  36  40
ENDBRANCH  29  31
ENDBRANCH  15  29
BRANCH   5  42
HETATM   42  C11 UNL     1     -83.148 -15.119   5.906  1.00  0.00     0.075 C 
HETATM   43  C12 UNL     1     -81.641 -15.102   6.316  1.00  0.00     0.031 C 
HETATM   44  C13 UNL     1     -83.182 -16.064   4.681  1.00  0.00     0.031 C 
ENDBRANCH   5  42
TORSDOF 8
ENDMDL
MODEL 5
REMARK VINA RESULT: -8.929813864      2.167      3.487
REMARK  8 active torsions:
REMARK  status: ('A' for Active; 'I' for Inactive)
REMARK    1  A    between atoms: C2_2  and  C3_3 
REMARK    2  A    between atoms: C7_8  and  C8_9 
REMARK    3  A    between atoms: C8_9  and  N1_10 
REMARK    4  A    between atoms: N1_10  and  C9_12 
REMARK    5  A    between atoms: N3_16  and  C11_18 
REMARK    6  A    between atoms: C18_29  and  N6_30 
REMARK    7  A    between atoms: N6_30  and  C19_32 
REMARK    8  A    between atoms: C23_38  and  O1_39 
ROOT
HETATM    1  C9  UNL     1     -85.840 -17.276   9.488  1.00  0.00     0.130 C 
HETATM    2  N2  UNL     1     -84.969 -16.677   8.674  1.00  0.00    -0.325 N 
ATOM      3  H2  UNL     1     -84.031 -16.621   9.070  1.00  0.00     0.169 HD
HETATM    4  C10 UNL     1     -85.055 -16.122   7.431  1.00  0.00     0.132 C 
HETATM    5  N3  UNL     1     -84.001 -15.833   6.929  1.00  0.00    -0.370 N 
ATOM      6  H3  UNL     1     -83.355 -16.125   7.663  1.00  0.00     0.161 HD
HETATM    7  C14 UNL     1     -86.272 -15.896   6.772  1.00  0.00     0.103 A 
HETATM    8  N4  UNL     1     -86.357 -15.246   5.603  1.00  0.00    -0.297 N 
ATOM      9  H4  UNL     1     -85.579 -14.854   5.072  1.00  0.00     0.187 HD
HETATM   10  N5  UNL     1     -87.630 -15.207   5.264  1.00  0.00    -0.310 N 
ATOM     11  H5  UNL     1     -87.985 -14.770   4.413  1.00  0.00     0.186 HD
HETATM   12  C15 UNL     1     -88.399 -15.812   6.175  1.00  0.00     0.121 A 
HETATM   13  C16 UNL     1     -87.544 -16.262   7.153  1.00  0.00     0.015 A 
HETATM   14  C17 UNL     1     -87.988 -16.944   8.274  1.00  0.00     0.048 C 
HETATM   15  C18 UNL     1     -87.216 -17.257   9.359  1.00  0.00     0.079 C 
ENDROOT
BRANCH   1  16
HETATM   16  N1  UNL     1     -85.454 -17.954  10.492  1.00  0.00    -0.370 N 
ATOM     17  H1  UNL     1     -85.766 -18.925  10.514  1.00  0.00     0.161 HD
BRANCH  16  18
HETATM   18  C8  UNL     1     -84.644 -17.541  11.591  1.00  0.00     0.163 C 
BRANCH  18  19
HETATM   19  C7  UNL     1     -85.284 -17.982  12.870  1.00  0.00    -0.001 A 
HETATM   20  C6  UNL     1     -85.591 -19.305  13.108  1.00  0.00     0.015 A 
HETATM   21  C5  UNL     1     -86.175 -19.671  14.294  1.00  0.00     0.043 A 
HETATM   22  C4  UNL     1     -86.462 -18.735  15.260  1.00  0.00     0.125 A 
HETATM   23  C3  UNL     1     -86.155 -17.405  15.025  1.00  0.00     0.019 A 
HETATM   24  F1  UNL     1     -87.042 -19.085  16.445  1.00  0.00    -0.205 F 
HETATM   25  C25 UNL     1     -85.564 -17.007  13.834  1.00  0.00     0.133 A 
HETATM   26  F2  UNL     1     -85.277 -15.702  13.636  1.00  0.00    -0.205 F 
BRANCH  23  27
HETATM   27  C2  UNL     1     -86.470 -16.395  16.080  1.00  0.00     0.040 C 
HETATM   28  C1  UNL     1     -87.927 -16.011  15.871  1.00  0.00     0.010 C 
ENDBRANCH  23  27
ENDBRANCH  18  19
ENDBRANCH  16  18
ENDBRANCH   1  16
BRANCH  15  29
HETATM   29  N6  UNL     1     -87.962 -17.612  10.503  1.00  0.00    -0.339 N 
ATOM     30  H6  UNL     1     -87.967 -18.595  10.771  1.00  0.00     0.167 HD
BRANCH  29  31
HETATM   31  C19 UNL     1     -88.632 -16.803  11.228  1.00  0.00     0.110 A 
HETATM   32  C20 UNL     1     -88.091 -15.639  11.761  1.00  0.00     0.073 A 
HETATM   33  C21 UNL     1     -88.835 -14.792  12.532  1.00  0.00     0.012 A 
HETATM   34  C22 UNL     1     -88.247 -13.535  13.107  1.00  0.00     0.068 C 
HETATM   35  N7  UNL     1     -90.120 -15.106  12.775  1.00  0.00    -0.326 N 
HETATM   36  C23 UNL     1     -90.677 -16.225  12.276  1.00  0.00     0.224 A 
ATOM     37  H7  UNL     1     -90.686 -14.482  13.350  1.00  0.00     0.169 HD
HETATM   38  N8  UNL     1     -89.923 -17.039  11.520  1.00  0.00    -0.308 N 
ATOM     39  H8  UNL     1     -90.354 -17.885  11.146  1.00  0.00     0.171 HD
BRANCH  36  40
HETATM   40  O1  UNL     1     -92.026 -16.524  12.549  1.00  0.00    -0.327 OA
HETATM   41  C24 UNL     1     -92.882 -16.844  11.476  1.00  0.00     0.213 C 
ENDBRANCH  36  40
ENDBRANCH  29  31
ENDBRANCH  15  29
BRANCH   5  42
HETATM   42  C11 UNL     1     -83.135 -15.365   6.007  1.00  0.00     0.075 C 
HETATM   43  C12 UNL     1     -81.647 -15.726   6.315  1.00  0.00     0.031 C 
HETATM   44  C13 UNL     1     -83.411 -16.076   4.661  1.00  0.00     0.031 C 
ENDBRANCH   5  42
TORSDOF 8
ENDMDL
