MODEL 1
REMARK VINA RESULT: -8.733024639      0.000      0.000
REMARK  9 active torsions:
REMARK  status: ('A' for Active; 'I' for Inactive)
REMARK    1  A    between atoms: N1_4  and  C4_5 
REMARK    2  A    between atoms: C4_5  and  C5_6 
REMARK    3  A    between atoms: C5_6  and  O1_7 
REMARK    4  A    between atoms: C5_6  and  C6_9 
REMARK    5  A    between atoms: C6_9  and  O2_10 
REMARK    6  A    between atoms: O2_10  and  C7_11 
REMARK    7  A    between atoms: C9_15  and  N3_16 
REMARK    8  A    between atoms: N3_16  and  C10_18 
REMARK    9  A    between atoms: C14_22  and  O3_23 
ROOT
HETATM    1  C7  UNL     1     -89.636 -15.305  12.729  1.00  0.00     0.097 A 
HETATM    2  C8  UNL     1     -89.441 -14.860  14.000  1.00  0.00     0.127 A 
HETATM    3  N2  UNL     1     -88.268 -14.482  14.493  1.00  0.00    -0.348 N 
ATOM      4  H2  UNL     1     -88.196 -14.159  15.458  1.00  0.00     0.167 HD
HETATM    5  C9  UNL     1     -87.154 -14.529  13.697  1.00  0.00     0.129 A 
HETATM    6  C16 UNL     1     -87.248 -14.967  12.385  1.00  0.00     0.090 A 
HETATM    7  N4  UNL     1     -86.343 -15.115  11.384  1.00  0.00    -0.343 N 
ATOM      8  H4  UNL     1     -85.347 -14.907  11.448  1.00  0.00     0.167 HD
HETATM    9  C17 UNL     1     -86.988 -15.589  10.280  1.00  0.00     0.104 A 
HETATM   10 CL1  UNL     1     -86.244 -15.935   8.755  1.00  0.00    -0.065 Cl
HETATM   11  C18 UNL     1     -88.314 -15.733  10.612  1.00  0.00     0.059 A 
HETATM   12  C19 UNL     1     -88.486 -15.346  11.928  1.00  0.00     0.032 A 
ENDROOT
BRANCH   1  13
HETATM   13  O2  UNL     1     -90.804 -15.696  12.188  1.00  0.00    -0.346 OA
BRANCH  13  14
HETATM   14  C6  UNL     1     -91.865 -16.457  12.542  1.00  0.00     0.209 C 
BRANCH  14  15
HETATM   15  C5  UNL     1     -93.050 -16.518  11.630  1.00  0.00     0.160 C 
BRANCH  15  16
HETATM   16  C4  UNL     1     -93.322 -17.987  11.242  1.00  0.00     0.155 C 
BRANCH  16  17
HETATM   17  N1  UNL     1     -92.915 -18.303   9.924  1.00  0.00    -0.390 N 
HETATM   18  C3  UNL     1     -92.216 -19.505   9.708  1.00  0.00     0.064 C 
HETATM   19  C2  UNL     1     -90.743 -19.328   9.426  1.00  0.00     0.038 C 
HETATM   20  C1  UNL     1     -90.023 -18.743  10.619  1.00  0.00     0.017 C 
HETATM   21  C23 UNL     1     -90.610 -18.412   8.227  1.00  0.00     0.096 C 
HETATM   22  C21 UNL     1     -91.243 -17.104   8.570  1.00  0.00     0.018 C 
HETATM   23 CL2  UNL     1     -88.877 -18.075   7.889  1.00  0.00    -0.124 Cl
HETATM   24  C20 UNL     1     -92.660 -17.219   9.057  1.00  0.00     0.127 C 
HETATM   25  C22 UNL     1     -91.292 -16.274   7.281  1.00  0.00     0.013 C 
ENDBRANCH  16  17
ENDBRANCH  15  16
BRANCH  15  26
HETATM   26  O1  UNL     1     -94.223 -16.060  12.275  1.00  0.00    -0.392 OA
ATOM     27  H1  UNL     1     -94.474 -15.261  11.826  1.00  0.00     0.210 HD
ENDBRANCH  15  26
ENDBRANCH  14  15
ENDBRANCH  13  14
ENDBRANCH   1  13
BRANCH   5  28
HETATM   28  N3  UNL     1     -86.098 -14.178  14.214  1.00  0.00    -0.370 N 
ATOM     29  H3  UNL     1     -85.746 -13.389  13.671  1.00  0.00     0.161 HD
BRANCH  28  30
HETATM   30  C10 UNL     1     -85.187 -14.410  15.230  1.00  0.00     0.085 C 
HETATM   31  C11 UNL     1     -84.567 -13.063  15.620  1.00  0.00     0.025 C 
HETATM   32  C12 UNL     1     -83.607 -13.203  16.761  1.00  0.00     0.004 C 
HETATM   33  C13 UNL     1     -84.069 -14.215  17.786  1.00  0.00     0.032 C 
HETATM   34  C14 UNL     1     -85.556 -14.365  17.721  1.00  0.00     0.120 C 
HETATM   35  C15 UNL     1     -85.916 -15.015  16.415  1.00  0.00     0.056 C 
BRANCH  34  36
HETATM   36  O3  UNL     1     -86.245 -13.173  17.934  1.00  0.00    -0.396 OA
ATOM     37  H3  UNL     1     -87.000 -13.065  17.367  1.00  0.00     0.210 HD
ENDBRANCH  34  36
ENDBRANCH  28  30
ENDBRANCH   5  28
TORSDOF 9
ENDMDL
MODEL 2
REMARK VINA RESULT: -8.711307008      3.099      8.273
REMARK  9 active torsions:
REMARK  status: ('A' for Active; 'I' for Inactive)
REMARK    1  A    between atoms: N1_4  and  C4_5 
REMARK    2  A    between atoms: C4_5  and  C5_6 
REMARK    3  A    between atoms: C5_6  and  O1_7 
REMARK    4  A    between atoms: C5_6  and  C6_9 
REMARK    5  A    between atoms: C6_9  and  O2_10 
REMARK    6  A    between atoms: O2_10  and  C7_11 
REMARK    7  A    between atoms: C9_15  and  N3_16 
REMARK    8  A    between atoms: N3_16  and  C10_18 
REMARK    9  A    between atoms: C14_22  and  O3_23 
ROOT
HETATM    1  C7  UNL     1     -87.236 -17.177   8.534  1.00  0.00     0.097 A 
HETATM    2  C8  UNL     1     -88.067 -16.971   7.476  1.00  0.00     0.127 A 
HETATM    3  N2  UNL     1     -89.392 -17.017   7.539  1.00  0.00    -0.348 N 
ATOM      4  H2  UNL     1     -89.953 -16.851   6.703  1.00  0.00     0.167 HD
HETATM    5  C9  UNL     1     -90.001 -17.288   8.736  1.00  0.00     0.129 A 
HETATM    6  C16 UNL     1     -89.243 -17.512   9.875  1.00  0.00     0.090 A 
HETATM    7  N4  UNL     1     -89.558 -17.793  11.165  1.00  0.00    -0.343 N 
ATOM      8  H4  UNL     1     -90.501 -17.894  11.538  1.00  0.00     0.167 HD
HETATM    9  C17 UNL     1     -88.402 -17.916  11.878  1.00  0.00     0.104 A 
HETATM   10 CL1  UNL     1     -88.301 -18.271  13.570  1.00  0.00    -0.065 Cl
HETATM   11  C18 UNL     1     -87.360 -17.706  11.007  1.00  0.00     0.059 A 
HETATM   12  C19 UNL     1     -87.877 -17.452   9.750  1.00  0.00     0.032 A 
ENDROOT
BRANCH   1  13
HETATM   13  O2  UNL     1     -85.892 -17.139   8.516  1.00  0.00    -0.346 OA
BRANCH  13  14
HETATM   14  C6  UNL     1     -84.919 -16.206   8.398  1.00  0.00     0.209 C 
BRANCH  14  15
HETATM   15  C5  UNL     1     -84.976 -14.986   9.263  1.00  0.00     0.160 C 
BRANCH  15  16
HETATM   16  C4  UNL     1     -84.469 -15.338  10.677  1.00  0.00     0.155 C 
BRANCH  16  17
HETATM   17  N1  UNL     1     -84.945 -14.459  11.679  1.00  0.00    -0.390 N 
HETATM   18  C3  UNL     1     -84.261 -14.406  12.907  1.00  0.00     0.064 C 
HETATM   19  C2  UNL     1     -84.984 -15.066  14.056  1.00  0.00     0.038 C 
HETATM   20  C1  UNL     1     -85.130 -16.553  13.829  1.00  0.00     0.017 C 
HETATM   21  C23 UNL     1     -86.347 -14.415  14.178  1.00  0.00     0.096 C 
HETATM   22  C21 UNL     1     -87.080 -14.630  12.896  1.00  0.00     0.018 C 
HETATM   23 CL2  UNL     1     -87.308 -15.217  15.467  1.00  0.00    -0.124 Cl
HETATM   24  C20 UNL     1     -86.329 -14.178  11.676  1.00  0.00     0.127 C 
HETATM   25  C22 UNL     1     -88.358 -13.784  12.959  1.00  0.00     0.013 C 
ENDBRANCH  16  17
ENDBRANCH  15  16
BRANCH  15  26
HETATM   26  O1  UNL     1     -84.119 -13.970   8.782  1.00  0.00    -0.392 OA
ATOM     27  H1  UNL     1     -84.137 -14.038   7.835  1.00  0.00     0.210 HD
ENDBRANCH  15  26
ENDBRANCH  14  15
ENDBRANCH  13  14
ENDBRANCH   1  13
BRANCH   5  28
HETATM   28  N3  UNL     1     -91.228 -17.328   8.728  1.00  0.00    -0.370 N 
ATOM     29  H3  UNL     1     -91.552 -16.486   8.252  1.00  0.00     0.161 HD
BRANCH  28  30
HETATM   30  C10 UNL     1     -92.353 -18.045   9.098  1.00  0.00     0.085 C 
HETATM   31  C11 UNL     1     -91.888 -19.404   9.633  1.00  0.00     0.025 C 
HETATM   32  C12 UNL     1     -93.036 -20.233  10.119  1.00  0.00     0.004 C 
HETATM   33  C13 UNL     1     -94.095 -19.405  10.812  1.00  0.00     0.032 C 
HETATM   34  C14 UNL     1     -93.491 -18.145  11.343  1.00  0.00     0.120 C 
HETATM   35  C15 UNL     1     -93.088 -17.279  10.183  1.00  0.00     0.056 C 
BRANCH  34  36
HETATM   36  O3  UNL     1     -92.445 -18.363  12.238  1.00  0.00    -0.396 OA
ATOM     37  H3  UNL     1     -91.791 -17.674  12.231  1.00  0.00     0.210 HD
ENDBRANCH  34  36
ENDBRANCH  28  30
ENDBRANCH   5  28
TORSDOF 9
ENDMDL
MODEL 3
REMARK VINA RESULT: -8.547966764      5.446      6.759
REMARK  9 active torsions:
REMARK  status: ('A' for Active; 'I' for Inactive)
REMARK    1  A    between atoms: N1_4  and  C4_5 
REMARK    2  A    between atoms: C4_5  and  C5_6 
REMARK    3  A    between atoms: C5_6  and  O1_7 
REMARK    4  A    between atoms: C5_6  and  C6_9 
REMARK    5  A    between atoms: C6_9  and  O2_10 
REMARK    6  A    between atoms: O2_10  and  C7_11 
REMARK    7  A    between atoms: C9_15  and  N3_16 
REMARK    8  A    between atoms: N3_16  and  C10_18 
REMARK    9  A    between atoms: C14_22  and  O3_23 
ROOT
HETATM    1  C7  UNL     1     -88.063 -18.106  14.192  1.00  0.00     0.097 A 
HETATM    2  C8  UNL     1     -87.890 -19.378  13.740  1.00  0.00     0.127 A 
HETATM    3  N2  UNL     1     -87.740 -20.440  14.522  1.00  0.00    -0.348 N 
ATOM      4  H2  UNL     1     -87.615 -21.366  14.113  1.00  0.00     0.167 HD
HETATM    5  C9  UNL     1     -87.756 -20.284  15.883  1.00  0.00     0.129 A 
HETATM    6  C16 UNL     1     -87.928 -19.028  16.443  1.00  0.00     0.090 A 
HETATM    7  N4  UNL     1     -87.988 -18.577  17.722  1.00  0.00    -0.343 N 
ATOM      8  H4  UNL     1     -87.907 -19.152  18.560  1.00  0.00     0.167 HD
HETATM    9  C17 UNL     1     -88.176 -17.226  17.699  1.00  0.00     0.104 A 
HETATM   10 CL1  UNL     1     -88.315 -16.210  19.094  1.00  0.00    -0.065 Cl
HETATM   11  C18 UNL     1     -88.232 -16.844  16.380  1.00  0.00     0.059 A 
HETATM   12  C19 UNL     1     -88.078 -17.965  15.587  1.00  0.00     0.032 A 
ENDROOT
BRANCH   1  13
HETATM   13  O2  UNL     1     -88.219 -17.003  13.438  1.00  0.00    -0.346 OA
BRANCH  13  14
HETATM   14  C6  UNL     1     -89.215 -16.148  13.110  1.00  0.00     0.209 C 
BRANCH  14  15
HETATM   15  C5  UNL     1     -89.419 -15.790  11.671  1.00  0.00     0.160 C 
BRANCH  15  16
HETATM   16  C4  UNL     1     -90.810 -16.280  11.215  1.00  0.00     0.155 C 
BRANCH  16  17
HETATM   17  N1  UNL     1     -90.963 -17.685  11.293  1.00  0.00    -0.390 N 
HETATM   18  C3  UNL     1     -90.006 -18.502  10.664  1.00  0.00     0.064 C 
HETATM   19  C2  UNL     1     -90.490 -19.171   9.399  1.00  0.00     0.038 C 
HETATM   20  C1  UNL     1     -90.805 -18.153   8.327  1.00  0.00     0.017 C 
HETATM   21  C23 UNL     1     -91.727 -19.973   9.747  1.00  0.00     0.096 C 
HETATM   22  C21 UNL     1     -92.758 -19.030  10.274  1.00  0.00     0.018 C 
HETATM   23 CL2  UNL     1     -92.419 -20.724   8.268  1.00  0.00    -0.124 Cl
HETATM   24  C20 UNL     1     -92.281 -18.177  11.415  1.00  0.00     0.127 C 
HETATM   25  C22 UNL     1     -93.911 -19.882  10.820  1.00  0.00     0.013 C 
ENDBRANCH  16  17
ENDBRANCH  15  16
BRANCH  15  26
HETATM   26  O1  UNL     1     -89.417 -14.389  11.480  1.00  0.00    -0.392 OA
ATOM     27  H1  UNL     1     -90.222 -14.070  11.871  1.00  0.00     0.210 HD
ENDBRANCH  15  26
ENDBRANCH  14  15
ENDBRANCH  13  14
ENDBRANCH   1  13
BRANCH   5  28
HETATM   28  N3  UNL     1     -87.602 -21.302  16.552  1.00  0.00    -0.370 N 
ATOM     29  H3  UNL     1     -86.611 -21.358  16.789  1.00  0.00     0.161 HD
BRANCH  28  30
HETATM   30  C10 UNL     1     -88.218 -22.406  17.116  1.00  0.00     0.085 C 
HETATM   31  C11 UNL     1     -88.720 -23.297  15.974  1.00  0.00     0.025 C 
HETATM   32  C12 UNL     1     -89.351 -24.554  16.486  1.00  0.00     0.004 C 
HETATM   33  C13 UNL     1     -88.635 -25.109  17.698  1.00  0.00     0.032 C 
HETATM   34  C14 UNL     1     -87.216 -24.639  17.712  1.00  0.00     0.120 C 
HETATM   35  C15 UNL     1     -87.204 -23.156  17.959  1.00  0.00     0.056 C 
BRANCH  34  36
HETATM   36  O3  UNL     1     -86.499 -24.997  16.572  1.00  0.00    -0.396 OA
ATOM     37  H3  UNL     1     -86.946 -25.637  16.028  1.00  0.00     0.210 HD
ENDBRANCH  34  36
ENDBRANCH  28  30
ENDBRANCH   5  28
TORSDOF 9
ENDMDL
MODEL 4
REMARK VINA RESULT: -8.480385216      3.387      8.066
REMARK  9 active torsions:
REMARK  status: ('A' for Active; 'I' for Inactive)
REMARK    1  A    between atoms: N1_4  and  C4_5 
REMARK    2  A    between atoms: C4_5  and  C5_6 
REMARK    3  A    between atoms: C5_6  and  O1_7 
REMARK    4  A    between atoms: C5_6  and  C6_9 
REMARK    5  A    between atoms: C6_9  and  O2_10 
REMARK    6  A    between atoms: O2_10  and  C7_11 
REMARK    7  A    between atoms: C9_15  and  N3_16 
REMARK    8  A    between atoms: N3_16  and  C10_18 
REMARK    9  A    between atoms: C14_22  and  O3_23 
ROOT
HETATM    1  C7  UNL     1     -87.551 -16.385   9.158  1.00  0.00     0.097 A 
HETATM    2  C8  UNL     1     -88.059 -16.955   8.031  1.00  0.00     0.127 A 
HETATM    3  N2  UNL     1     -89.333 -17.290   7.865  1.00  0.00    -0.348 N 
ATOM      4  H2  UNL     1     -89.643 -17.714   6.991  1.00  0.00     0.167 HD
HETATM    5  C9  UNL     1     -90.227 -17.062   8.878  1.00  0.00     0.129 A 
HETATM    6  C16 UNL     1     -89.809 -16.484  10.067  1.00  0.00     0.090 A 
HETATM    7  N4  UNL     1     -90.449 -16.144  11.214  1.00  0.00    -0.343 N 
ATOM      8  H4  UNL     1     -91.443 -16.274  11.401  1.00  0.00     0.167 HD
HETATM    9  C17 UNL     1     -89.542 -15.599  12.074  1.00  0.00     0.104 A 
HETATM   10 CL1  UNL     1     -89.894 -15.014  13.665  1.00  0.00    -0.065 Cl
HETATM   11  C18 UNL     1     -88.323 -15.606  11.439  1.00  0.00     0.059 A 
HETATM   12  C19 UNL     1     -88.481 -16.158  10.182  1.00  0.00     0.032 A 
ENDROOT
BRANCH   1  13
HETATM   13  O2  UNL     1     -86.271 -16.029   9.367  1.00  0.00    -0.346 OA
BRANCH  13  14
HETATM   14  C6  UNL     1     -85.097 -16.639   9.651  1.00  0.00     0.209 C 
BRANCH  14  15
HETATM   15  C5  UNL     1     -84.683 -16.783  11.082  1.00  0.00     0.160 C 
BRANCH  15  16
HETATM   16  C4  UNL     1     -85.395 -18.004  11.701  1.00  0.00     0.155 C 
BRANCH  16  17
HETATM   17  N1  UNL     1     -85.392 -17.998  13.116  1.00  0.00    -0.390 N 
HETATM   18  C3  UNL     1     -85.847 -19.144  13.793  1.00  0.00     0.064 C 
HETATM   19  C2  UNL     1     -87.202 -18.991  14.443  1.00  0.00     0.038 C 
HETATM   20  C1  UNL     1     -88.283 -18.773  13.408  1.00  0.00     0.017 C 
HETATM   21  C23 UNL     1     -87.129 -17.808  15.386  1.00  0.00     0.096 C 
HETATM   22  C21 UNL     1     -86.785 -16.596  14.586  1.00  0.00     0.018 C 
HETATM   23 CL2  UNL     1     -88.738 -17.502  16.127  1.00  0.00    -0.124 Cl
HETATM   24  C20 UNL     1     -85.547 -16.745  13.749  1.00  0.00     0.127 C 
HETATM   25  C22 UNL     1     -86.503 -15.463  15.581  1.00  0.00     0.013 C 
ENDBRANCH  16  17
ENDBRANCH  15  16
BRANCH  15  26
HETATM   26  O1  UNL     1     -83.297 -17.040  11.196  1.00  0.00    -0.392 OA
ATOM     27  H1  UNL     1     -82.869 -16.441  10.597  1.00  0.00     0.210 HD
ENDBRANCH  15  26
ENDBRANCH  14  15
ENDBRANCH  13  14
ENDBRANCH   1  13
BRANCH   5  28
HETATM   28  N3  UNL     1     -91.388 -17.404   8.669  1.00  0.00    -0.370 N 
ATOM     29  H3  UNL     1     -91.720 -16.865   7.869  1.00  0.00     0.161 HD
BRANCH  28  30
HETATM   30  C10 UNL     1     -92.432 -18.219   9.071  1.00  0.00     0.085 C 
HETATM   31  C11 UNL     1     -91.827 -19.454   9.747  1.00  0.00     0.025 C 
HETATM   32  C12 UNL     1     -92.885 -20.373  10.275  1.00  0.00     0.004 C 
HETATM   33  C13 UNL     1     -94.066 -19.625  10.853  1.00  0.00     0.032 C 
HETATM   34  C14 UNL     1     -93.643 -18.256  11.279  1.00  0.00     0.120 C 
HETATM   35  C15 UNL     1     -93.300 -17.455  10.054  1.00  0.00     0.056 C 
BRANCH  34  36
HETATM   36  O3  UNL     1     -92.617 -18.258  12.222  1.00  0.00    -0.396 OA
ATOM     37  H3  UNL     1     -91.911 -17.657  12.016  1.00  0.00     0.210 HD
ENDBRANCH  34  36
ENDBRANCH  28  30
ENDBRANCH   5  28
TORSDOF 9
ENDMDL
MODEL 5
REMARK VINA RESULT: -8.453340000      2.802      7.786
REMARK  9 active torsions:
REMARK  status: ('A' for Active; 'I' for Inactive)
REMARK    1  A    between atoms: N1_4  and  C4_5 
REMARK    2  A    between atoms: C4_5  and  C5_6 
REMARK    3  A    between atoms: C5_6  and  O1_7 
REMARK    4  A    between atoms: C5_6  and  C6_9 
REMARK    5  A    between atoms: C6_9  and  O2_10 
REMARK    6  A    between atoms: O2_10  and  C7_11 
REMARK    7  A    between atoms: C9_15  and  N3_16 
REMARK    8  A    between atoms: N3_16  and  C10_18 
REMARK    9  A    between atoms: C14_22  and  O3_23 
ROOT
HETATM    1  C7  UNL     1     -87.536 -16.840  10.622  1.00  0.00     0.097 A 
HETATM    2  C8  UNL     1     -88.558 -17.456  11.275  1.00  0.00     0.127 A 
HETATM    3  N2  UNL     1     -89.659 -17.912  10.691  1.00  0.00    -0.348 N 
ATOM      4  H2  UNL     1     -90.386 -18.365  11.245  1.00  0.00     0.167 HD
HETATM    5  C9  UNL     1     -89.814 -17.768   9.337  1.00  0.00     0.129 A 
HETATM    6  C16 UNL     1     -88.828 -17.154   8.580  1.00  0.00     0.090 A 
HETATM    7  N4  UNL     1     -88.703 -16.880   7.257  1.00  0.00    -0.343 N 
ATOM      8  H4  UNL     1     -89.388 -17.107   6.536  1.00  0.00     0.167 HD
HETATM    9  C17 UNL     1     -87.510 -16.253   7.052  1.00  0.00     0.104 A 
HETATM   10 CL1  UNL     1     -86.912 -15.710   5.521  1.00  0.00    -0.065 Cl
HETATM   11  C18 UNL     1     -86.893 -16.141   8.275  1.00  0.00     0.059 A 
HETATM   12  C19 UNL     1     -87.710 -16.702   9.237  1.00  0.00     0.032 A 
ENDROOT
BRANCH   1  13
HETATM   13  O2  UNL     1     -86.404 -16.365  11.172  1.00  0.00    -0.346 OA
BRANCH  13  14
HETATM   14  C6  UNL     1     -86.012 -15.273  11.867  1.00  0.00     0.209 C 
BRANCH  14  15
HETATM   15  C5  UNL     1     -87.008 -14.567  12.733  1.00  0.00     0.160 C 
BRANCH  15  16
HETATM   16  C4  UNL     1     -86.439 -14.430  14.161  1.00  0.00     0.155 C 
BRANCH  16  17
HETATM   17  N1  UNL     1     -87.242 -15.052  15.147  1.00  0.00    -0.390 N 
HETATM   18  C3  UNL     1     -86.611 -15.831  16.133  1.00  0.00     0.064 C 
HETATM   19  C2  UNL     1     -86.799 -17.321  15.969  1.00  0.00     0.038 C 
HETATM   20  C1  UNL     1     -86.150 -17.818  14.698  1.00  0.00     0.017 C 
HETATM   21  C23 UNL     1     -88.288 -17.597  15.945  1.00  0.00     0.096 C 
HETATM   22  C21 UNL     1     -88.878 -16.858  14.790  1.00  0.00     0.018 C 
HETATM   23 CL2  UNL     1     -88.594 -19.344  15.655  1.00  0.00    -0.124 Cl
HETATM   24  C20 UNL     1     -88.562 -15.390  14.775  1.00  0.00     0.127 C 
HETATM   25  C22 UNL     1     -90.403 -16.973  14.913  1.00  0.00     0.013 C 
ENDBRANCH  16  17
ENDBRANCH  15  16
BRANCH  15  26
HETATM   26  O1  UNL     1     -87.247 -13.249  12.279  1.00  0.00    -0.392 OA
ATOM     27  H1  UNL     1     -86.398 -12.897  12.039  1.00  0.00     0.210 HD
ENDBRANCH  15  26
ENDBRANCH  14  15
ENDBRANCH  13  14
ENDBRANCH   1  13
BRANCH   5  28
HETATM   28  N3  UNL     1     -90.858 -18.199   8.858  1.00  0.00    -0.370 N 
ATOM     29  H3  UNL     1     -90.740 -18.212   7.845  1.00  0.00     0.161 HD
BRANCH  28  30
HETATM   30  C10 UNL     1     -92.130 -18.674   9.125  1.00  0.00     0.085 C 
HETATM   31  C11 UNL     1     -91.986 -19.995   9.890  1.00  0.00     0.025 C 
HETATM   32  C12 UNL     1     -93.317 -20.560  10.280  1.00  0.00     0.004 C 
HETATM   33  C13 UNL     1     -94.304 -19.487  10.685  1.00  0.00     0.032 C 
HETATM   34  C14 UNL     1     -93.573 -18.269  11.149  1.00  0.00     0.120 C 
HETATM   35  C15 UNL     1     -92.867 -17.655   9.973  1.00  0.00     0.056 C 
BRANCH  34  36
HETATM   36  O3  UNL     1     -92.717 -18.509  12.222  1.00  0.00    -0.396 OA
ATOM     37  H3  UNL     1     -92.058 -17.833  12.341  1.00  0.00     0.210 HD
ENDBRANCH  34  36
ENDBRANCH  28  30
ENDBRANCH   5  28
TORSDOF 9
ENDMDL
