MODEL 1
REMARK VINA RESULT: -7.036725683      0.000      0.000
REMARK  10 active torsions:
REMARK  status: ('A' for Active; 'I' for Inactive)
REMARK    1  A    between atoms: C2_2  and  C3_3 
REMARK    2  A    between atoms: C2_2  and  C25_34 
REMARK    3  A    between atoms: C4_4  and  C5_5 
REMARK    4  A    between atoms: C7_7  and  C8_8 
REMARK    5  A    between atoms: C9_9  and  C10_10 
REMARK    6  A    between atoms: C10_10  and  O1_11 
REMARK    7  A    between atoms: C12_14  and  O2_15 
REMARK    8  A    between atoms: C18_23  and  C19_24 
REMARK    9  A    between atoms: C20_26  and  O4_27 
REMARK   10  A    between atoms: C25_34  and  O5_35 
ROOT
HETATM    1  C5  UNL     1     -87.879 -17.360  11.781  1.00  0.00     0.051 C 
HETATM    2  C6  UNL     1     -86.898 -17.519  10.574  1.00  0.00     0.058 C 
HETATM    3  C7  UNL     1     -87.851 -16.509   9.399  1.00  0.00    -0.058 C 
HETATM    4  C11 UNL     1     -88.102 -15.777  10.306  1.00  0.00     0.019 C 
HETATM    5  C12 UNL     1     -87.721 -15.855  11.706  1.00  0.00     0.094 C 
HETATM    6  C13 UNL     1     -88.434 -14.924  12.526  1.00  0.00     0.021 C 
HETATM    7  C14 UNL     1     -88.118 -13.519  11.936  1.00  0.00     0.013 C 
HETATM    8  C15 UNL     1     -88.228 -14.712  13.959  1.00  0.00     0.010 C 
HETATM    9  C16 UNL     1     -86.849 -14.745  14.515  1.00  0.00     0.034 C 
HETATM   10  C17 UNL     1     -86.452 -16.248  14.644  1.00  0.00     0.141 C 
HETATM   11  O3  UNL     1     -87.073 -16.889  13.792  1.00  0.00    -0.368 OA
HETATM   12  C18 UNL     1     -87.157 -17.943  12.983  1.00  0.00     0.114 C 
HETATM   13  C20 UNL     1     -85.830 -18.558  12.807  1.00  0.00     0.155 C 
HETATM   14  C21 UNL     1     -85.076 -18.631  14.109  1.00  0.00     0.040 C 
HETATM   15  C22 UNL     1     -84.244 -17.446  14.489  1.00  0.00     0.005 C 
HETATM   16  C23 UNL     1     -83.097 -17.116  13.589  1.00  0.00     0.011 C 
HETATM   17  C24 UNL     1     -85.006 -16.241  14.945  1.00  0.00     0.115 C 
HETATM   18 CL2  UNL     1     -84.151 -14.716  14.479  1.00  0.00    -0.122 Cl
ENDROOT
BRANCH   1  19
HETATM   19  C4  UNL     1     -89.036 -17.990  11.199  1.00  0.00    -0.010 C 
HETATM   20  C3  UNL     1     -90.426 -18.023  11.519  1.00  0.00     0.001 C 
BRANCH  20  21
HETATM   21  C2  UNL     1     -91.398 -17.471  10.843  1.00  0.00    -0.061 C 
HETATM   22  C1  UNL     1     -91.408 -17.690   9.317  1.00  0.00     0.045 C 
BRANCH  21  23
HETATM   23  C25 UNL     1     -92.492 -16.601  11.289  1.00  0.00     0.198 C 
BRANCH  23  24
HETATM   24  O5  UNL     1     -92.371 -16.526  12.716  1.00  0.00    -0.397 OA
ATOM     25  H5  UNL     1     -93.258 -16.568  13.051  1.00  0.00     0.209 HD
ENDBRANCH  23  24
ENDBRANCH  21  23
ENDBRANCH  20  21
ENDBRANCH   1  19
BRANCH   5  26
HETATM   26  O2  UNL     1     -86.377 -15.449  11.689  1.00  0.00    -0.384 OA
ATOM     27  H2  UNL     1     -86.205 -14.721  12.275  1.00  0.00     0.211 HD
ENDBRANCH   5  26
BRANCH  12  28
HETATM   28  C19 UNL     1     -87.948 -18.942  13.794  1.00  0.00     0.156 C 
HETATM   29 CL1  UNL     1     -89.092 -18.274  14.959  1.00  0.00    -0.127 Cl
ENDBRANCH  12  28
BRANCH   3  30
HETATM   30  C8  UNL     1     -87.549 -17.391   8.307  1.00  0.00     0.005 C 
HETATM   31  C9  UNL     1     -88.160 -17.168   7.114  1.00  0.00    -0.001 C 
BRANCH  31  32
HETATM   32  C10 UNL     1     -89.098 -16.095   6.839  1.00  0.00     0.191 C 
BRANCH  32  33
HETATM   33  O1  UNL     1     -89.100 -15.743   5.468  1.00  0.00    -0.397 OA
ATOM     34  H1  UNL     1     -89.599 -14.950   5.311  1.00  0.00     0.209 HD
ENDBRANCH  32  33
ENDBRANCH  31  32
ENDBRANCH   3  30
BRANCH  13  35
HETATM   35  O4  UNL     1     -84.929 -18.178  11.907  1.00  0.00    -0.392 OA
ATOM     36  H4  UNL     1     -84.185 -18.699  11.629  1.00  0.00     0.210 HD
ENDBRANCH  13  35
TORSDOF 10
ENDMDL
MODEL 2
REMARK VINA RESULT: -7.033696435      4.495      7.527
REMARK  10 active torsions:
REMARK  status: ('A' for Active; 'I' for Inactive)
REMARK    1  A    between atoms: C2_2  and  C3_3 
REMARK    2  A    between atoms: C2_2  and  C25_34 
REMARK    3  A    between atoms: C4_4  and  C5_5 
REMARK    4  A    between atoms: C7_7  and  C8_8 
REMARK    5  A    between atoms: C9_9  and  C10_10 
REMARK    6  A    between atoms: C10_10  and  O1_11 
REMARK    7  A    between atoms: C12_14  and  O2_15 
REMARK    8  A    between atoms: C18_23  and  C19_24 
REMARK    9  A    between atoms: C20_26  and  O4_27 
REMARK   10  A    between atoms: C25_34  and  O5_35 
ROOT
HETATM    1  C5  UNL     1     -87.005 -19.508  16.348  1.00  0.00     0.051 C 
HETATM    2  C6  UNL     1     -86.785 -19.574  17.894  1.00  0.00     0.058 C 
HETATM    3  C7  UNL     1     -85.737 -21.061  17.891  1.00  0.00    -0.058 C 
HETATM    4  C11 UNL     1     -85.232 -20.644  16.893  1.00  0.00     0.019 C 
HETATM    5  C12 UNL     1     -85.506 -19.432  16.141  1.00  0.00     0.094 C 
HETATM    6  C13 UNL     1     -84.864 -19.417  14.862  1.00  0.00     0.021 C 
HETATM    7  C14 UNL     1     -83.343 -19.565  15.155  1.00  0.00     0.013 C 
HETATM    8  C15 UNL     1     -84.890 -18.312  13.904  1.00  0.00     0.010 C 
HETATM    9  C16 UNL     1     -84.809 -16.912  14.396  1.00  0.00     0.034 C 
HETATM   10  C17 UNL     1     -86.230 -16.537  14.921  1.00  0.00     0.141 C 
HETATM   11  O3  UNL     1     -86.791 -17.569  15.294  1.00  0.00    -0.368 OA
HETATM   12  C18 UNL     1     -87.680 -18.174  16.081  1.00  0.00     0.114 C 
HETATM   13  C20 UNL     1     -88.036 -17.300  17.212  1.00  0.00     0.155 C 
HETATM   14  C21 UNL     1     -88.229 -15.873  16.770  1.00  0.00     0.040 C 
HETATM   15  C22 UNL     1     -87.019 -14.992  16.744  1.00  0.00     0.005 C 
HETATM   16  C23 UNL     1     -86.355 -14.728  18.057  1.00  0.00     0.011 C 
HETATM   17  C24 UNL     1     -86.052 -15.254  15.631  1.00  0.00     0.115 C 
HETATM   18 CL2  UNL     1     -84.353 -14.915  16.153  1.00  0.00    -0.122 Cl
ENDROOT
BRANCH   1  19
HETATM   19  C4  UNL     1     -87.690 -20.763  16.177  1.00  0.00    -0.010 C 
HETATM   20  C3  UNL     1     -87.995 -21.594  15.058  1.00  0.00     0.001 C 
BRANCH  20  21
HETATM   21  C2  UNL     1     -87.487 -22.767  14.793  1.00  0.00    -0.061 C 
HETATM   22  C1  UNL     1     -86.097 -22.799  14.126  1.00  0.00     0.045 C 
BRANCH  21  23
HETATM   23  C25 UNL     1     -88.049 -24.110  14.974  1.00  0.00     0.198 C 
BRANCH  23  24
HETATM   24  O5  UNL     1     -87.999 -24.729  13.681  1.00  0.00    -0.397 OA
ATOM     25  H5  UNL     1     -88.304 -24.069  13.069  1.00  0.00     0.209 HD
ENDBRANCH  23  24
ENDBRANCH  21  23
ENDBRANCH  20  21
ENDBRANCH   1  19
BRANCH   5  26
HETATM   26  O2  UNL     1     -84.899 -18.434  16.922  1.00  0.00    -0.384 OA
ATOM     27  H2  UNL     1     -83.950 -18.469  16.891  1.00  0.00     0.211 HD
ENDBRANCH   5  26
BRANCH  12  28
HETATM   28  C19 UNL     1     -88.921 -18.234  15.223  1.00  0.00     0.156 C 
HETATM   29 CL1  UNL     1     -88.667 -18.462  13.493  1.00  0.00    -0.127 Cl
ENDBRANCH  12  28
BRANCH   3  30
HETATM   30  C8  UNL     1     -86.345 -21.564  19.090  1.00  0.00     0.005 C 
HETATM   31  C9  UNL     1     -86.620 -22.893  19.163  1.00  0.00    -0.001 C 
BRANCH  31  32
HETATM   32  C10 UNL     1     -86.340 -23.865  18.123  1.00  0.00     0.191 C 
BRANCH  32  33
HETATM   33  O1  UNL     1     -86.088 -25.148  18.663  1.00  0.00    -0.397 OA
ATOM     34  H1  UNL     1     -86.741 -25.780  18.385  1.00  0.00     0.209 HD
ENDBRANCH  32  33
ENDBRANCH  31  32
ENDBRANCH   3  30
BRANCH  13  35
HETATM   35  O4  UNL     1     -87.362 -17.220  18.354  1.00  0.00    -0.392 OA
ATOM     36  H4  UNL     1     -86.416 -17.169  18.425  1.00  0.00     0.210 HD
ENDBRANCH  13  35
TORSDOF 10
ENDMDL
MODEL 3
REMARK VINA RESULT: -6.911206204      4.365      7.253
REMARK  10 active torsions:
REMARK  status: ('A' for Active; 'I' for Inactive)
REMARK    1  A    between atoms: C2_2  and  C3_3 
REMARK    2  A    between atoms: C2_2  and  C25_34 
REMARK    3  A    between atoms: C4_4  and  C5_5 
REMARK    4  A    between atoms: C7_7  and  C8_8 
REMARK    5  A    between atoms: C9_9  and  C10_10 
REMARK    6  A    between atoms: C10_10  and  O1_11 
REMARK    7  A    between atoms: C12_14  and  O2_15 
REMARK    8  A    between atoms: C18_23  and  C19_24 
REMARK    9  A    between atoms: C20_26  and  O4_27 
REMARK   10  A    between atoms: C25_34  and  O5_35 
ROOT
HETATM    1  C5  UNL     1     -86.930 -18.755  16.932  1.00  0.00     0.051 C 
HETATM    2  C6  UNL     1     -85.883 -19.049  18.055  1.00  0.00     0.058 C 
HETATM    3  C7  UNL     1     -85.523 -20.762  17.560  1.00  0.00    -0.058 C 
HETATM    4  C11 UNL     1     -85.598 -20.398  16.426  1.00  0.00     0.019 C 
HETATM    5  C12 UNL     1     -85.889 -19.084  15.881  1.00  0.00     0.094 C 
HETATM    6  C13 UNL     1     -86.141 -19.112  14.473  1.00  0.00     0.021 C 
HETATM    7  C14 UNL     1     -84.858 -19.714  13.830  1.00  0.00     0.013 C 
HETATM    8  C15 UNL     1     -86.395 -17.947  13.625  1.00  0.00     0.010 C 
HETATM    9  C16 UNL     1     -85.639 -16.689  13.860  1.00  0.00     0.034 C 
HETATM   10  C17 UNL     1     -86.304 -15.987  15.084  1.00  0.00     0.141 C 
HETATM   11  O3  UNL     1     -86.815 -16.853  15.799  1.00  0.00    -0.368 OA
HETATM   12  C18 UNL     1     -87.209 -17.264  17.003  1.00  0.00     0.114 C 
HETATM   13  C20 UNL     1     -86.567 -16.453  18.052  1.00  0.00     0.155 C 
HETATM   14  C21 UNL     1     -86.555 -14.990  17.693  1.00  0.00     0.040 C 
HETATM   15  C22 UNL     1     -85.394 -14.490  16.891  1.00  0.00     0.005 C 
HETATM   16  C23 UNL     1     -84.048 -14.569  17.539  1.00  0.00     0.011 C 
HETATM   17  C24 UNL     1     -85.382 -14.892  15.449  1.00  0.00     0.115 C 
HETATM   18 CL2  UNL     1     -83.689 -15.106  14.847  1.00  0.00    -0.122 Cl
ENDROOT
BRANCH   1  19
HETATM   19  C4  UNL     1     -87.916 -19.739  17.298  1.00  0.00    -0.010 C 
HETATM   20  C3  UNL     1     -88.977 -20.398  16.609  1.00  0.00     0.001 C 
BRANCH  20  21
HETATM   21  C2  UNL     1     -89.029 -21.659  16.274  1.00  0.00    -0.061 C 
HETATM   22  C1  UNL     1     -88.121 -22.119  15.117  1.00  0.00     0.045 C 
BRANCH  21  23
HETATM   23  C25 UNL     1     -89.870 -22.746  16.789  1.00  0.00     0.198 C 
BRANCH  23  24
HETATM   24  O5  UNL     1     -90.947 -22.105  17.487  1.00  0.00    -0.397 OA
ATOM     25  H5  UNL     1     -90.798 -22.285  18.407  1.00  0.00     0.209 HD
ENDBRANCH  23  24
ENDBRANCH  21  23
ENDBRANCH  20  21
ENDBRANCH   1  19
BRANCH   5  26
HETATM   26  O2  UNL     1     -84.683 -18.390  16.074  1.00  0.00    -0.384 OA
ATOM     27  H2  UNL     1     -84.233 -18.201  15.259  1.00  0.00     0.211 HD
ENDBRANCH   5  26
BRANCH  12  28
HETATM   28  C19 UNL     1     -88.668 -16.877  17.043  1.00  0.00     0.156 C 
HETATM   29 CL1  UNL     1     -89.545 -16.970  15.516  1.00  0.00    -0.127 Cl
ENDBRANCH  12  28
BRANCH   3  30
HETATM   30  C8  UNL     1     -85.435 -21.200  18.924  1.00  0.00     0.005 C 
HETATM   31  C9  UNL     1     -85.833 -22.465  19.220  1.00  0.00    -0.001 C 
BRANCH  31  32
HETATM   32  C10 UNL     1     -86.338 -23.431  18.262  1.00  0.00     0.191 C 
BRANCH  32  33
HETATM   33  O1  UNL     1     -86.040 -24.757  18.653  1.00  0.00    -0.397 OA
ATOM     34  H1  UNL     1     -85.158 -25.006  18.403  1.00  0.00     0.209 HD
ENDBRANCH  32  33
ENDBRANCH  31  32
ENDBRANCH   3  30
BRANCH  13  35
HETATM   35  O4  UNL     1     -85.368 -16.692  18.572  1.00  0.00    -0.392 OA
ATOM     36  H4  UNL     1     -85.049 -17.548  18.834  1.00  0.00     0.210 HD
ENDBRANCH  13  35
TORSDOF 10
ENDMDL
MODEL 4
REMARK VINA RESULT: -6.910600052      4.785      8.015
REMARK  10 active torsions:
REMARK  status: ('A' for Active; 'I' for Inactive)
REMARK    1  A    between atoms: C2_2  and  C3_3 
REMARK    2  A    between atoms: C2_2  and  C25_34 
REMARK    3  A    between atoms: C4_4  and  C5_5 
REMARK    4  A    between atoms: C7_7  and  C8_8 
REMARK    5  A    between atoms: C9_9  and  C10_10 
REMARK    6  A    between atoms: C10_10  and  O1_11 
REMARK    7  A    between atoms: C12_14  and  O2_15 
REMARK    8  A    between atoms: C18_23  and  C19_24 
REMARK    9  A    between atoms: C20_26  and  O4_27 
REMARK   10  A    between atoms: C25_34  and  O5_35 
ROOT
HETATM    1  C5  UNL     1     -86.078 -19.206  17.095  1.00  0.00     0.051 C 
HETATM    2  C6  UNL     1     -87.477 -19.074  17.780  1.00  0.00     0.058 C 
HETATM    3  C7  UNL     1     -87.907 -17.458  17.062  1.00  0.00    -0.058 C 
HETATM    4  C11 UNL     1     -87.395 -17.826  16.050  1.00  0.00     0.019 C 
HETATM    5  C12 UNL     1     -86.736 -19.082  15.736  1.00  0.00     0.094 C 
HETATM    6  C13 UNL     1     -86.027 -19.040  14.494  1.00  0.00     0.021 C 
HETATM    7  C14 UNL     1     -87.091 -18.680  13.417  1.00  0.00     0.013 C 
HETATM    8  C15 UNL     1     -85.322 -20.160  13.871  1.00  0.00     0.010 C 
HETATM    9  C16 UNL     1     -85.908 -21.525  13.938  1.00  0.00     0.034 C 
HETATM   10  C17 UNL     1     -85.600 -22.077  15.364  1.00  0.00     0.141 C 
HETATM   11  O3  UNL     1     -85.504 -21.122  16.139  1.00  0.00    -0.368 OA
HETATM   12  C18 UNL     1     -85.612 -20.625  17.370  1.00  0.00     0.114 C 
HETATM   13  C20 UNL     1     -86.439 -21.513  18.206  1.00  0.00     0.155 C 
HETATM   14  C21 UNL     1     -86.102 -22.963  17.976  1.00  0.00     0.040 C 
HETATM   15  C22 UNL     1     -86.828 -23.672  16.876  1.00  0.00     0.005 C 
HETATM   16  C23 UNL     1     -88.308 -23.812  17.032  1.00  0.00     0.011 C 
HETATM   17  C24 UNL     1     -86.409 -23.306  15.485  1.00  0.00     0.115 C 
HETATM   18 CL2  UNL     1     -87.807 -23.399  14.340  1.00  0.00    -0.122 Cl
ENDROOT
BRANCH   1  19
HETATM   19  C4  UNL     1     -85.440 -18.060  17.691  1.00  0.00    -0.010 C 
HETATM   20  C3  UNL     1     -84.190 -17.399  17.504  1.00  0.00     0.001 C 
BRANCH  20  21
HETATM   21  C2  UNL     1     -83.999 -16.216  16.987  1.00  0.00    -0.061 C 
HETATM   22  C1  UNL     1     -84.297 -16.047  15.484  1.00  0.00     0.045 C 
BRANCH  21  23
HETATM   23  C25 UNL     1     -83.481 -14.984  17.594  1.00  0.00     0.198 C 
BRANCH  23  24
HETATM   24  O5  UNL     1     -84.087 -13.908  16.865  1.00  0.00    -0.397 OA
ATOM     25  H5  UNL     1     -84.669 -13.478  17.481  1.00  0.00     0.209 HD
ENDBRANCH  23  24
ENDBRANCH  21  23
ENDBRANCH  20  21
ENDBRANCH   1  19
BRANCH   5  26
HETATM   26  O2  UNL     1     -87.812 -19.969  15.570  1.00  0.00    -0.384 OA
ATOM     27  H2  UNL     1     -87.548 -20.802  15.197  1.00  0.00     0.211 HD
ENDBRANCH   5  26
BRANCH  12  28
HETATM   28  C19 UNL     1     -84.213 -20.755  17.923  1.00  0.00     0.156 C 
HETATM   29 CL1  UNL     1     -84.049 -20.626  19.674  1.00  0.00    -0.127 Cl
ENDBRANCH  12  28
BRANCH   3  30
HETATM   30  C8  UNL     1     -88.522 -17.015  18.282  1.00  0.00     0.005 C 
HETATM   31  C9  UNL     1     -88.186 -15.789  18.762  1.00  0.00    -0.001 C 
BRANCH  31  32
HETATM   32  C10 UNL     1     -87.254 -14.869  18.135  1.00  0.00     0.191 C 
BRANCH  32  33
HETATM   33  O1  UNL     1     -87.613 -13.521  18.372  1.00  0.00    -0.397 OA
ATOM     34  H1  UNL     1     -87.730 -13.042  17.560  1.00  0.00     0.209 HD
ENDBRANCH  32  33
ENDBRANCH  31  32
ENDBRANCH   3  30
BRANCH  13  35
HETATM   35  O4  UNL     1     -87.766 -21.473  18.277  1.00  0.00    -0.392 OA
ATOM     36  H4  UNL     1     -88.265 -20.836  18.774  1.00  0.00     0.210 HD
ENDBRANCH  13  35
TORSDOF 10
ENDMDL
MODEL 5
REMARK VINA RESULT: -6.884555172      3.285      6.087
REMARK  10 active torsions:
REMARK  status: ('A' for Active; 'I' for Inactive)
REMARK    1  A    between atoms: C2_2  and  C3_3 
REMARK    2  A    between atoms: C2_2  and  C25_34 
REMARK    3  A    between atoms: C4_4  and  C5_5 
REMARK    4  A    between atoms: C7_7  and  C8_8 
REMARK    5  A    between atoms: C9_9  and  C10_10 
REMARK    6  A    between atoms: C10_10  and  O1_11 
REMARK    7  A    between atoms: C12_14  and  O2_15 
REMARK    8  A    between atoms: C18_23  and  C19_24 
REMARK    9  A    between atoms: C20_26  and  O4_27 
REMARK   10  A    between atoms: C25_34  and  O5_35 
ROOT
HETATM    1  C5  UNL     1     -87.504 -17.986  15.635  1.00  0.00     0.051 C 
HETATM    2  C6  UNL     1     -88.999 -18.202  15.236  1.00  0.00     0.058 C 
HETATM    3  C7  UNL     1     -89.043 -16.953  13.914  1.00  0.00    -0.058 C 
HETATM    4  C11 UNL     1     -87.940 -17.297  13.618  1.00  0.00     0.019 C 
HETATM    5  C12 UNL     1     -87.082 -18.306  14.215  1.00  0.00     0.094 C 
HETATM    6  C13 UNL     1     -85.735 -18.241  13.736  1.00  0.00     0.021 C 
HETATM    7  C14 UNL     1     -85.830 -18.426  12.194  1.00  0.00     0.013 C 
HETATM    8  C15 UNL     1     -84.655 -19.160  14.092  1.00  0.00     0.010 C 
HETATM    9  C16 UNL     1     -84.944 -20.611  14.244  1.00  0.00     0.034 C 
HETATM   10  C17 UNL     1     -85.608 -20.792  15.644  1.00  0.00     0.141 C 
HETATM   11  O3  UNL     1     -86.187 -19.744  15.939  1.00  0.00    -0.368 OA
HETATM   12  C18 UNL     1     -87.162 -19.114  16.593  1.00  0.00     0.114 C 
HETATM   13  C20 UNL     1     -88.208 -20.071  16.992  1.00  0.00     0.155 C 
HETATM   14  C21 UNL     1     -87.615 -21.351  17.520  1.00  0.00     0.040 C 
HETATM   15  C22 UNL     1     -87.306 -22.427  16.525  1.00  0.00     0.005 C 
HETATM   16  C23 UNL     1     -88.469 -23.010  15.787  1.00  0.00     0.011 C 
HETATM   17  C24 UNL     1     -86.114 -22.179  15.655  1.00  0.00     0.115 C 
HETATM   18 CL2  UNL     1     -86.346 -22.904  14.013  1.00  0.00    -0.122 Cl
ENDROOT
BRANCH   1  19
HETATM   19  C4  UNL     1     -87.594 -16.614  16.065  1.00  0.00    -0.010 C 
HETATM   20  C3  UNL     1     -86.708 -15.709  16.720  1.00  0.00     0.001 C 
BRANCH  20  21
HETATM   21  C2  UNL     1     -86.139 -14.655  16.198  1.00  0.00    -0.061 C 
HETATM   22  C1  UNL     1     -85.989 -14.622  14.665  1.00  0.00     0.045 C 
BRANCH  21  23
HETATM   23  C25 UNL     1     -85.546 -13.478  16.843  1.00  0.00     0.198 C 
BRANCH  23  24
HETATM   24  O5  UNL     1     -86.495 -13.059  17.833  1.00  0.00    -0.397 OA
ATOM     25  H5  UNL     1     -87.102 -12.485  17.380  1.00  0.00     0.209 HD
ENDBRANCH  23  24
ENDBRANCH  21  23
ENDBRANCH  20  21
ENDBRANCH   1  19
BRANCH   5  26
HETATM   26  O2  UNL     1     -87.634 -19.507  13.741  1.00  0.00    -0.384 OA
ATOM     27  H2  UNL     1     -87.697 -20.174  14.415  1.00  0.00     0.211 HD
ENDBRANCH   5  26
BRANCH  12  28
HETATM   28  C19 UNL     1     -86.501 -18.692  17.883  1.00  0.00     0.156 C 
HETATM   29 CL1  UNL     1     -84.765 -18.386  17.810  1.00  0.00    -0.127 Cl
ENDBRANCH  12  28
BRANCH   3  30
HETATM   30  C8  UNL     1     -90.371 -16.538  14.270  1.00  0.00     0.005 C 
HETATM   31  C9  UNL     1     -91.361 -16.693  13.352  1.00  0.00    -0.001 C 
BRANCH  31  32
HETATM   32  C10 UNL     1     -91.193 -17.259  12.025  1.00  0.00     0.191 C 
BRANCH  32  33
HETATM   33  O1  UNL     1     -92.154 -18.264  11.763  1.00  0.00    -0.397 OA
ATOM     34  H1  UNL     1     -91.744 -19.107  11.609  1.00  0.00     0.209 HD
ENDBRANCH  32  33
ENDBRANCH  31  32
ENDBRANCH   3  30
BRANCH  13  35
HETATM   35  O4  UNL     1     -89.225 -20.451  16.226  1.00  0.00    -0.392 OA
ATOM     36  H4  UNL     1     -89.772 -19.863  15.718  1.00  0.00     0.210 HD
ENDBRANCH  13  35
TORSDOF 10
ENDMDL
