MODEL 1
REMARK VINA RESULT: -8.853020017      0.000      0.000
REMARK  8 active torsions:
REMARK  status: ('A' for Active; 'I' for Inactive)
REMARK    1  A    between atoms: C3_5  and  N2_6 
REMARK    2  A    between atoms: C4_11  and  C5_12 
REMARK    3  A    between atoms: C5_12  and  C6_13 
REMARK    4  A    between atoms: C6_13  and  C7_14 
REMARK    5  A    between atoms: C7_14  and  N4_15 
REMARK    6  A    between atoms: C12_20  and  C13_21 
REMARK    7  A    between atoms: C17_26  and  C18_27 
REMARK    8  A    between atoms: C18_27  and  O1_28 
ROOT
HETATM    1  C1  UNL     1     -91.194 -20.417   8.530  1.00  0.00     0.070 C 
HETATM    2  C2  UNL     1     -91.993 -19.773   9.593  1.00  0.00     0.035 A 
HETATM    3  N1  UNL     1     -93.027 -20.396  10.166  1.00  0.00    -0.195 N 
ATOM      4  H1  UNL     1     -93.288 -21.332   9.854  1.00  0.00     0.184 HD
HETATM    5  C3  UNL     1     -93.722 -19.808  11.141  1.00  0.00     0.676 A 
HETATM    6  N3  UNL     1     -93.384 -18.593  11.550  1.00  0.00    -0.195 N 
ATOM      7  H3  UNL     1     -93.931 -18.166  12.297  1.00  0.00     0.184 HD
HETATM    8  C4  UNL     1     -92.332 -17.874  11.017  1.00  0.00     0.039 A 
HETATM    9  C12 UNL     1     -91.649 -18.496  10.031  1.00  0.00     0.023 A 
ENDROOT
BRANCH   9  10
HETATM   10  C13 UNL     1     -90.480 -17.901   9.422  1.00  0.00     0.018 A 
HETATM   11  C14 UNL     1     -90.653 -17.388   8.125  1.00  0.00     0.034 A 
HETATM   12  C15 UNL     1     -89.585 -16.815   7.497  1.00  0.00     0.012 A 
HETATM   13 BR1  UNL     1     -89.763 -16.103   5.749  1.00  0.00    -0.051 Br
HETATM   14  C16 UNL     1     -88.368 -16.749   8.135  1.00  0.00     0.032 A 
HETATM   15  C17 UNL     1     -88.174 -17.244   9.404  1.00  0.00     0.017 A 
HETATM   16  C23 UNL     1     -89.264 -17.834  10.058  1.00  0.00     0.137 A 
HETATM   17  F1  UNL     1     -89.073 -18.307  11.332  1.00  0.00    -0.204 F 
BRANCH  15  18
HETATM   18  C18 UNL     1     -86.882 -17.200  10.127  1.00  0.00     0.092 C 
HETATM   19  C19 UNL     1     -86.932 -16.027  11.098  1.00  0.00     0.069 C 
HETATM   20  C20 UNL     1     -85.687 -15.979  11.955  1.00  0.00     0.171 C 
HETATM   21  O2  UNL     1     -84.554 -16.195  11.213  1.00  0.00    -0.391 OA
HETATM   22  C21 UNL     1     -84.708 -16.027   9.861  1.00  0.00     0.171 C 
HETATM   23  C22 UNL     1     -85.692 -17.001   9.241  1.00  0.00     0.069 C 
BRANCH  18  24
HETATM   24  O1  UNL     1     -86.691 -18.390  10.848  1.00  0.00    -0.385 OA
ATOM     25  H1  UNL     1     -85.819 -18.408  11.224  1.00  0.00     0.211 HD
ENDBRANCH  18  24
ENDBRANCH  15  18
ENDBRANCH   9  10
BRANCH   8  26
HETATM   26  C5  UNL     1     -92.103 -16.527  11.579  1.00  0.00     0.060 C 
BRANCH  26  27
HETATM   27  C6  UNL     1     -91.455 -16.587  12.911  1.00  0.00     0.036 C 
BRANCH  27  28
HETATM   28  C7  UNL     1     -90.224 -15.677  12.980  1.00  0.00     0.272 C 
BRANCH  28  29
HETATM   29  N4  UNL     1     -89.729 -15.569  14.311  1.00  0.00     0.088 N 
HETATM   30  C8  UNL     1     -89.882 -16.771  15.069  1.00  0.00     0.272 C 
HETATM   31  C9  UNL     1     -88.881 -16.631  16.226  1.00  0.00     0.032 C 
HETATM   32  C10 UNL     1     -87.729 -15.948  15.538  1.00  0.00     0.032 C 
HETATM   33  C11 UNL     1     -88.394 -15.112  14.471  1.00  0.00     0.272 C 
ENDBRANCH  28  29
ENDBRANCH  27  28
ENDBRANCH  26  27
ENDBRANCH   8  26
BRANCH   5  34
HETATM   34  N2  UNL     1     -94.738 -20.379  11.725  1.00  0.00    -0.234 N 
ATOM     35  H22 UNL     1     -94.608 -21.328  12.074  1.00  0.00     0.174 HD
ATOM     36  H21 UNL     1     -95.638 -19.915  11.841  1.00  0.00     0.174 HD
ENDBRANCH   5  34
TORSDOF 8
ENDMDL
MODEL 2
REMARK VINA RESULT: -8.495914740      3.977      6.770
REMARK  8 active torsions:
REMARK  status: ('A' for Active; 'I' for Inactive)
REMARK    1  A    between atoms: C3_5  and  N2_6 
REMARK    2  A    between atoms: C4_11  and  C5_12 
REMARK    3  A    between atoms: C5_12  and  C6_13 
REMARK    4  A    between atoms: C6_13  and  C7_14 
REMARK    5  A    between atoms: C7_14  and  N4_15 
REMARK    6  A    between atoms: C12_20  and  C13_21 
REMARK    7  A    between atoms: C17_26  and  C18_27 
REMARK    8  A    between atoms: C18_27  and  O1_28 
ROOT
HETATM    1  C1  UNL     1     -88.317 -14.551  14.212  1.00  0.00     0.070 C 
HETATM    2  C2  UNL     1     -88.297 -15.549  15.300  1.00  0.00     0.035 A 
HETATM    3  N1  UNL     1     -88.267 -15.184  16.585  1.00  0.00    -0.195 N 
ATOM      4  H1  UNL     1     -88.239 -14.194  16.827  1.00  0.00     0.184 HD
HETATM    5  C3  UNL     1     -88.274 -16.100  17.554  1.00  0.00     0.676 A 
HETATM    6  N3  UNL     1     -88.313 -17.388  17.243  1.00  0.00    -0.195 N 
ATOM      7  H3  UNL     1     -88.318 -18.068  18.003  1.00  0.00     0.184 HD
HETATM    8  C4  UNL     1     -88.346 -17.858  15.945  1.00  0.00     0.039 A 
HETATM    9  C12 UNL     1     -88.337 -16.907  14.986  1.00  0.00     0.023 A 
ENDROOT
BRANCH   9  10
HETATM   10  C13 UNL     1     -88.438 -17.239  13.582  1.00  0.00     0.018 A 
HETATM   11  C14 UNL     1     -87.223 -17.460  12.911  1.00  0.00     0.034 A 
HETATM   12  C15 UNL     1     -87.254 -17.776  11.584  1.00  0.00     0.012 A 
HETATM   13 BR1  UNL     1     -85.646 -18.088  10.630  1.00  0.00    -0.051 Br
HETATM   14  C16 UNL     1     -88.459 -17.872  10.929  1.00  0.00     0.032 A 
HETATM   15  C17 UNL     1     -89.662 -17.661  11.564  1.00  0.00     0.017 A 
HETATM   16  C23 UNL     1     -89.642 -17.336  12.927  1.00  0.00     0.137 A 
HETATM   17  F1  UNL     1     -90.842 -17.148  13.563  1.00  0.00    -0.204 F 
BRANCH  15  18
HETATM   18  C18 UNL     1     -90.982 -17.749  10.899  1.00  0.00     0.092 C 
HETATM   19  C19 UNL     1     -90.812 -18.586   9.637  1.00  0.00     0.069 C 
HETATM   20  C20 UNL     1     -92.142 -18.815   8.955  1.00  0.00     0.171 C 
HETATM   21  O2  UNL     1     -92.891 -17.667   8.909  1.00  0.00    -0.391 OA
HETATM   22  C21 UNL     1     -92.187 -16.509   9.114  1.00  0.00     0.171 C 
HETATM   23  C22 UNL     1     -91.550 -16.426  10.488  1.00  0.00     0.069 C 
BRANCH  18  24
HETATM   24  O1  UNL     1     -91.910 -18.374  11.748  1.00  0.00    -0.385 OA
ATOM     25  H1  UNL     1     -92.354 -19.075  11.286  1.00  0.00     0.211 HD
ENDBRANCH  18  24
ENDBRANCH  15  18
ENDBRANCH   9  10
BRANCH   8  26
HETATM   26  C5  UNL     1     -88.371 -19.326  15.777  1.00  0.00     0.060 C 
BRANCH  26  27
HETATM   27  C6  UNL     1     -87.251 -19.984  16.489  1.00  0.00     0.036 C 
BRANCH  27  28
HETATM   28  C7  UNL     1     -87.668 -21.343  17.062  1.00  0.00     0.272 C 
BRANCH  28  29
HETATM   29  N4  UNL     1     -87.199 -22.417  16.252  1.00  0.00     0.088 N 
HETATM   30  C8  UNL     1     -88.167 -22.874  15.306  1.00  0.00     0.272 C 
HETATM   31  C9  UNL     1     -87.349 -23.626  14.246  1.00  0.00     0.032 C 
HETATM   32  C10 UNL     1     -86.109 -22.776  14.170  1.00  0.00     0.032 C 
HETATM   33  C11 UNL     1     -85.969 -22.224  15.568  1.00  0.00     0.272 C 
ENDBRANCH  28  29
ENDBRANCH  27  28
ENDBRANCH  26  27
ENDBRANCH   8  26
BRANCH   5  34
HETATM   34  N2  UNL     1     -88.243 -15.787  18.819  1.00  0.00    -0.234 N 
ATOM     35  H22 UNL     1     -88.725 -14.935  19.105  1.00  0.00     0.174 HD
ATOM     36  H21 UNL     1     -87.763 -16.356  19.516  1.00  0.00     0.174 HD
ENDBRANCH   5  34
TORSDOF 8
ENDMDL
MODEL 3
REMARK VINA RESULT: -8.280933067      3.600      6.398
REMARK  8 active torsions:
REMARK  status: ('A' for Active; 'I' for Inactive)
REMARK    1  A    between atoms: C3_5  and  N2_6 
REMARK    2  A    between atoms: C4_11  and  C5_12 
REMARK    3  A    between atoms: C5_12  and  C6_13 
REMARK    4  A    between atoms: C6_13  and  C7_14 
REMARK    5  A    between atoms: C7_14  and  N4_15 
REMARK    6  A    between atoms: C12_20  and  C13_21 
REMARK    7  A    between atoms: C17_26  and  C18_27 
REMARK    8  A    between atoms: C18_27  and  O1_28 
ROOT
HETATM    1  C1  UNL     1     -88.295 -13.377  11.911  1.00  0.00     0.070 C 
HETATM    2  C2  UNL     1     -87.774 -14.316  12.925  1.00  0.00     0.035 A 
HETATM    3  N1  UNL     1     -87.384 -13.898  14.132  1.00  0.00    -0.195 N 
ATOM      4  H1  UNL     1     -87.427 -12.904  14.359  1.00  0.00     0.184 HD
HETATM    5  C3  UNL     1     -86.939 -14.764  15.043  1.00  0.00     0.676 A 
HETATM    6  N3  UNL     1     -86.883 -16.056  14.751  1.00  0.00    -0.195 N 
ATOM      7  H3  UNL     1     -86.540 -16.698  15.465  1.00  0.00     0.184 HD
HETATM    8  C4  UNL     1     -87.265 -16.579  13.531  1.00  0.00     0.039 A 
HETATM    9  C12 UNL     1     -87.710 -15.677  12.629  1.00  0.00     0.023 A 
ENDROOT
BRANCH   9  10
HETATM   10  C13 UNL     1     -88.211 -16.078  11.334  1.00  0.00     0.018 A 
HETATM   11  C14 UNL     1     -87.313 -15.952  10.259  1.00  0.00     0.034 A 
HETATM   12  C15 UNL     1     -87.728 -16.313   9.011  1.00  0.00     0.012 A 
HETATM   13 BR1  UNL     1     -86.558 -16.169   7.526  1.00  0.00    -0.051 Br
HETATM   14  C16 UNL     1     -89.004 -16.790   8.822  1.00  0.00     0.032 A 
HETATM   15  C17 UNL     1     -89.902 -16.921   9.858  1.00  0.00     0.017 A 
HETATM   16  C23 UNL     1     -89.486 -16.553  11.144  1.00  0.00     0.137 A 
HETATM   17  F1  UNL     1     -90.374 -16.707  12.178  1.00  0.00    -0.204 F 
BRANCH  15  18
HETATM   18  C18 UNL     1     -91.286 -17.423   9.701  1.00  0.00     0.092 C 
HETATM   19  C19 UNL     1     -92.230 -16.366  10.260  1.00  0.00     0.069 C 
HETATM   20  C20 UNL     1     -93.674 -16.757  10.037  1.00  0.00     0.171 C 
HETATM   21  O2  UNL     1     -93.891 -18.079  10.329  1.00  0.00    -0.391 OA
HETATM   22  C21 UNL     1     -92.921 -18.667  11.099  1.00  0.00     0.171 C 
HETATM   23  C22 UNL     1     -91.560 -18.701  10.430  1.00  0.00     0.069 C 
BRANCH  18  24
HETATM   24  O1  UNL     1     -91.574 -17.629   8.342  1.00  0.00    -0.385 OA
ATOM     25  H1  UNL     1     -92.460 -17.957   8.242  1.00  0.00     0.211 HD
ENDBRANCH  18  24
ENDBRANCH  15  18
ENDBRANCH   9  10
BRANCH   8  26
HETATM   26  C5  UNL     1     -87.125 -18.041  13.368  1.00  0.00     0.060 C 
BRANCH  26  27
HETATM   27  C6  UNL     1     -88.211 -18.781  14.053  1.00  0.00     0.036 C 
BRANCH  27  28
HETATM   28  C7  UNL     1     -87.657 -19.779  15.075  1.00  0.00     0.272 C 
BRANCH  28  29
HETATM   29  N4  UNL     1     -87.449 -21.062  14.491  1.00  0.00     0.088 N 
HETATM   30  C8  UNL     1     -86.070 -21.373  14.286  1.00  0.00     0.272 C 
HETATM   31  C9  UNL     1     -86.033 -22.902  14.147  1.00  0.00     0.032 C 
HETATM   32  C10 UNL     1     -87.078 -23.316  15.149  1.00  0.00     0.032 C 
HETATM   33  C11 UNL     1     -88.063 -22.172  15.130  1.00  0.00     0.272 C 
ENDBRANCH  28  29
ENDBRANCH  27  28
ENDBRANCH  26  27
ENDBRANCH   8  26
BRANCH   5  34
HETATM   34  N2  UNL     1     -86.546 -14.398  16.231  1.00  0.00    -0.234 N 
ATOM     35  H22 UNL     1     -86.435 -13.399  16.402  1.00  0.00     0.174 HD
ATOM     36  H21 UNL     1     -86.353 -15.065  16.977  1.00  0.00     0.174 HD
ENDBRANCH   5  34
TORSDOF 8
ENDMDL
MODEL 4
REMARK VINA RESULT: -8.265857248      4.029      6.830
REMARK  8 active torsions:
REMARK  status: ('A' for Active; 'I' for Inactive)
REMARK    1  A    between atoms: C3_5  and  N2_6 
REMARK    2  A    between atoms: C4_11  and  C5_12 
REMARK    3  A    between atoms: C5_12  and  C6_13 
REMARK    4  A    between atoms: C6_13  and  C7_14 
REMARK    5  A    between atoms: C7_14  and  N4_15 
REMARK    6  A    between atoms: C12_20  and  C13_21 
REMARK    7  A    between atoms: C17_26  and  C18_27 
REMARK    8  A    between atoms: C18_27  and  O1_28 
ROOT
HETATM    1  C1  UNL     1     -88.383 -14.638  14.269  1.00  0.00     0.070 C 
HETATM    2  C2  UNL     1     -88.333 -15.663  15.331  1.00  0.00     0.035 A 
HETATM    3  N1  UNL     1     -88.321 -15.332  16.625  1.00  0.00    -0.195 N 
ATOM      4  H1  UNL     1     -88.328 -14.347  16.893  1.00  0.00     0.184 HD
HETATM    5  C3  UNL     1     -88.301 -16.272  17.569  1.00  0.00     0.676 A 
HETATM    6  N3  UNL     1     -88.294 -17.553  17.224  1.00  0.00    -0.195 N 
ATOM      7  H3  UNL     1     -88.279 -18.253  17.966  1.00  0.00     0.184 HD
HETATM    8  C4  UNL     1     -88.306 -17.989  15.914  1.00  0.00     0.039 A 
HETATM    9  C12 UNL     1     -88.325 -17.012  14.980  1.00  0.00     0.023 A 
ENDROOT
BRANCH   9  10
HETATM   10  C13 UNL     1     -88.410 -17.310  13.568  1.00  0.00     0.018 A 
HETATM   11  C14 UNL     1     -87.186 -17.499  12.903  1.00  0.00     0.034 A 
HETATM   12  C15 UNL     1     -87.200 -17.781  11.568  1.00  0.00     0.012 A 
HETATM   13 BR1  UNL     1     -85.579 -18.049  10.622  1.00  0.00    -0.051 Br
HETATM   14  C16 UNL     1     -88.398 -17.877  10.899  1.00  0.00     0.032 A 
HETATM   15  C17 UNL     1     -89.609 -17.697  11.528  1.00  0.00     0.017 A 
HETATM   16  C23 UNL     1     -89.605 -17.406  12.898  1.00  0.00     0.137 A 
HETATM   17  F1  UNL     1     -90.814 -17.250  13.528  1.00  0.00    -0.204 F 
BRANCH  15  18
HETATM   18  C18 UNL     1     -90.921 -17.785  10.848  1.00  0.00     0.092 C 
HETATM   19  C19 UNL     1     -90.741 -18.636   9.597  1.00  0.00     0.069 C 
HETATM   20  C20 UNL     1     -92.065 -18.865   8.902  1.00  0.00     0.171 C 
HETATM   21  O2  UNL     1     -92.807 -17.714   8.836  1.00  0.00    -0.391 OA
HETATM   22  C21 UNL     1     -92.099 -16.557   9.037  1.00  0.00     0.171 C 
HETATM   23  C22 UNL     1     -91.478 -16.464  10.418  1.00  0.00     0.069 C 
BRANCH  18  24
HETATM   24  O1  UNL     1     -91.863 -18.398  11.692  1.00  0.00    -0.385 OA
ATOM     25  H1  UNL     1     -92.224 -19.169  11.273  1.00  0.00     0.211 HD
ENDBRANCH  18  24
ENDBRANCH  15  18
ENDBRANCH   9  10
BRANCH   8  26
HETATM   26  C5  UNL     1     -88.281 -19.451  15.707  1.00  0.00     0.060 C 
BRANCH  26  27
HETATM   27  C6  UNL     1     -88.327 -20.193  16.989  1.00  0.00     0.036 C 
BRANCH  27  28
HETATM   28  C7  UNL     1     -87.898 -21.653  16.813  1.00  0.00     0.272 C 
BRANCH  28  29
HETATM   29  N4  UNL     1     -88.951 -22.444  16.269  1.00  0.00     0.088 N 
HETATM   30  C8  UNL     1     -88.637 -23.837  16.211  1.00  0.00     0.272 C 
HETATM   31  C9  UNL     1     -90.000 -24.537  16.096  1.00  0.00     0.032 C 
HETATM   32  C10 UNL     1     -90.851 -23.675  16.991  1.00  0.00     0.032 C 
HETATM   33  C11 UNL     1     -90.236 -22.303  16.856  1.00  0.00     0.272 C 
ENDBRANCH  28  29
ENDBRANCH  27  28
ENDBRANCH  26  27
ENDBRANCH   8  26
BRANCH   5  34
HETATM   34  N2  UNL     1     -88.286 -15.992  18.842  1.00  0.00    -0.234 N 
ATOM     35  H22 UNL     1     -87.387 -15.754  19.261  1.00  0.00     0.174 HD
ATOM     36  H21 UNL     1     -89.127 -16.002  19.419  1.00  0.00     0.174 HD
ENDBRANCH   5  34
TORSDOF 8
ENDMDL
MODEL 5
REMARK VINA RESULT: -8.194701094      4.006      6.707
REMARK  8 active torsions:
REMARK  status: ('A' for Active; 'I' for Inactive)
REMARK    1  A    between atoms: C3_5  and  N2_6 
REMARK    2  A    between atoms: C4_11  and  C5_12 
REMARK    3  A    between atoms: C5_12  and  C6_13 
REMARK    4  A    between atoms: C6_13  and  C7_14 
REMARK    5  A    between atoms: C7_14  and  N4_15 
REMARK    6  A    between atoms: C12_20  and  C13_21 
REMARK    7  A    between atoms: C17_26  and  C18_27 
REMARK    8  A    between atoms: C18_27  and  O1_28 
ROOT
HETATM    1  C1  UNL     1     -88.947 -14.664  13.854  1.00  0.00     0.070 C 
HETATM    2  C2  UNL     1     -88.700 -15.724  14.854  1.00  0.00     0.035 A 
HETATM    3  N1  UNL     1     -88.675 -15.459  16.163  1.00  0.00    -0.195 N 
ATOM      4  H1  UNL     1     -88.810 -14.501  16.486  1.00  0.00     0.184 HD
HETATM    5  C3  UNL     1     -88.475 -16.433  17.052  1.00  0.00     0.676 A 
HETATM    6  N3  UNL     1     -88.300 -17.680  16.635  1.00  0.00    -0.195 N 
ATOM      7  H3  UNL     1     -88.150 -18.406  17.334  1.00  0.00     0.184 HD
HETATM    8  C4  UNL     1     -88.311 -18.047  15.303  1.00  0.00     0.039 A 
HETATM    9  C12 UNL     1     -88.515 -17.038  14.428  1.00  0.00     0.023 A 
ENDROOT
BRANCH   9  10
HETATM   10  C13 UNL     1     -88.623 -17.274  13.005  1.00  0.00     0.018 A 
HETATM   11  C14 UNL     1     -87.409 -17.420  12.311  1.00  0.00     0.034 A 
HETATM   12  C15 UNL     1     -87.446 -17.643  10.965  1.00  0.00     0.012 A 
HETATM   13 BR1  UNL     1     -85.840 -17.852   9.979  1.00  0.00    -0.051 Br
HETATM   14  C16 UNL     1     -88.655 -17.721  10.314  1.00  0.00     0.032 A 
HETATM   15  C17 UNL     1     -89.856 -17.582  10.973  1.00  0.00     0.017 A 
HETATM   16  C23 UNL     1     -89.830 -17.352  12.354  1.00  0.00     0.137 A 
HETATM   17  F1  UNL     1     -91.028 -17.236  13.012  1.00  0.00    -0.204 F 
BRANCH  15  18
HETATM   18  C18 UNL     1     -91.180 -17.653  10.313  1.00  0.00     0.092 C 
HETATM   19  C19 UNL     1     -91.917 -16.352  10.608  1.00  0.00     0.069 C 
HETATM   20  C20 UNL     1     -93.240 -16.301   9.876  1.00  0.00     0.171 C 
HETATM   21  O2  UNL     1     -93.911 -17.493   9.961  1.00  0.00    -0.391 OA
HETATM   22  C21 UNL     1     -93.482 -18.328  10.959  1.00  0.00     0.171 C 
HETATM   23  C22 UNL     1     -92.043 -18.778  10.791  1.00  0.00     0.069 C 
BRANCH  18  24
HETATM   24  O1  UNL     1     -91.021 -17.789   8.924  1.00  0.00    -0.385 OA
ATOM     25  H1  UNL     1     -90.949 -18.707   8.692  1.00  0.00     0.211 HD
ENDBRANCH  18  24
ENDBRANCH  15  18
ENDBRANCH   9  10
BRANCH   8  26
HETATM   26  C5  UNL     1     -88.086 -19.478  15.013  1.00  0.00     0.060 C 
BRANCH  26  27
HETATM   27  C6  UNL     1     -88.577 -20.348  16.107  1.00  0.00     0.036 C 
BRANCH  27  28
HETATM   28  C7  UNL     1     -88.350 -21.830  15.795  1.00  0.00     0.272 C 
BRANCH  28  29
HETATM   29  N4  UNL     1     -89.112 -22.669  16.659  1.00  0.00     0.088 N 
HETATM   30  C8  UNL     1     -90.466 -22.241  16.810  1.00  0.00     0.272 C 
HETATM   31  C9  UNL     1     -91.211 -23.483  17.321  1.00  0.00     0.032 C 
HETATM   32  C10 UNL     1     -90.522 -24.579  16.552  1.00  0.00     0.032 C 
HETATM   33  C11 UNL     1     -89.116 -24.060  16.374  1.00  0.00     0.272 C 
ENDBRANCH  28  29
ENDBRANCH  27  28
ENDBRANCH  26  27
ENDBRANCH   8  26
BRANCH   5  34
HETATM   34  N2  UNL     1     -88.439 -16.218  18.337  1.00  0.00    -0.234 N 
ATOM     35  H22 UNL     1     -87.610 -15.760  18.714  1.00  0.00     0.174 HD
ATOM     36  H21 UNL     1     -89.199 -16.486  18.961  1.00  0.00     0.174 HD
ENDBRANCH   5  34
TORSDOF 8
ENDMDL
