MODEL 1
REMARK VINA RESULT: -8.113702925      0.000      0.000
REMARK  9 active torsions:
REMARK  status: ('A' for Active; 'I' for Inactive)
REMARK    1  A    between atoms: C5_6  and  O1_7 
REMARK    2  A    between atoms: C7_10  and  O2_11 
REMARK    3  A    between atoms: C9_14  and  O3_16 
REMARK    4  A    between atoms: C11_18  and  C12_19 
REMARK    5  A    between atoms: C12_19  and  C13_20 
REMARK    6  A    between atoms: C13_20  and  C14_21 
REMARK    7  A    between atoms: C14_21  and  C16_23 
REMARK    8  A    between atoms: C17_24  and  C18_25 
REMARK    9  A    between atoms: C19_26  and  C20_27 
ROOT
HETATM    1  C1  UNL     1     129.409  37.675 -23.802  1.00  0.00     0.016 C 
HETATM    2  C2  UNL     1     129.808  37.566 -25.029  1.00  0.00    -0.067 C 
HETATM    3  C3  UNL     1     130.184  38.733 -25.838  1.00  0.00     0.093 C 
HETATM    4 BR1  UNL     1     129.909  40.339 -24.813  1.00  0.00    -0.086 Br
HETATM    5  C4  UNL     1     131.653  38.615 -26.127  1.00  0.00     0.042 C 
HETATM    6  C5  UNL     1     132.371  39.253 -24.929  1.00  0.00     0.126 C 
HETATM    7  C6  UNL     1     133.678  38.523 -24.919  1.00  0.00     0.064 C 
HETATM    8  C7  UNL     1     133.268  37.105 -25.226  1.00  0.00     0.128 C 
HETATM    9  C8  UNL     1     132.176  37.263 -26.285  1.00  0.00     0.057 C 
HETATM   10  C9  UNL     1     131.257  36.094 -26.355  1.00  0.00     0.068 C 
HETATM   11  C10 UNL     1     131.057  35.689 -27.800  1.00  0.00     0.047 C 
HETATM   12  C11 UNL     1     129.908  36.241 -25.709  1.00  0.00     0.049 C 
ENDROOT
BRANCH  12  13
HETATM   13  C12 UNL     1     129.528  35.205 -24.727  1.00  0.00     0.013 C 
BRANCH  13  14
HETATM   14  C13 UNL     1     128.254  34.478 -24.866  1.00  0.00     0.009 C 
BRANCH  14  15
HETATM   15  C14 UNL     1     127.255  34.662 -23.755  1.00  0.00     0.004 C 
HETATM   16  C15 UNL     1     126.385  33.436 -23.565  1.00  0.00     0.014 C 
BRANCH  15  17
HETATM   17  C16 UNL     1     126.327  35.747 -24.214  1.00  0.00    -0.023 C 
HETATM   18  C17 UNL     1     126.242  36.087 -25.487  1.00  0.00    -0.004 C 
BRANCH  18  19
HETATM   19  C18 UNL     1     125.374  37.117 -25.988  1.00  0.00    -0.002 C 
HETATM   20  C19 UNL     1     125.815  38.321 -26.295  1.00  0.00     0.008 C 
BRANCH  20  21
HETATM   21  C20 UNL     1     124.931  39.381 -26.810  1.00  0.00     0.179 A 
HETATM   22  O4  UNL     1     125.256  39.750 -28.209  1.00  0.00    -0.366 OA
HETATM   23  C21 UNL     1     125.424  40.689 -27.111  1.00  0.00     0.084 A 
HETATM   24  C22 UNL     1     124.500  41.859 -27.244  1.00  0.00     0.049 C 
HETATM   25  C23 UNL     1     126.877  41.047 -26.905  1.00  0.00     0.049 C 
ENDBRANCH  20  21
ENDBRANCH  18  19
ENDBRANCH  15  17
ENDBRANCH  14  15
ENDBRANCH  13  14
ENDBRANCH  12  13
BRANCH  10  26
HETATM   26  O3  UNL     1     131.926  35.050 -25.718  1.00  0.00    -0.389 OA
ATOM     27  H3  UNL     1     132.292  34.518 -26.414  1.00  0.00     0.210 HD
ENDBRANCH  10  26
BRANCH   8  28
HETATM   28  O2  UNL     1     132.838  36.504 -24.073  1.00  0.00    -0.395 OA
ATOM     29  H2  UNL     1     131.905  36.654 -23.974  1.00  0.00     0.210 HD
ENDBRANCH   8  28
BRANCH   6  30
HETATM   30  O1  UNL     1     132.590  40.600 -25.137  1.00  0.00    -0.395 OA
ATOM     31  H1  UNL     1     132.853  41.033 -24.334  1.00  0.00     0.210 HD
ENDBRANCH   6  30
TORSDOF 9
ENDMDL
MODEL 2
REMARK VINA RESULT: -7.836746178      2.482      5.949
REMARK  9 active torsions:
REMARK  status: ('A' for Active; 'I' for Inactive)
REMARK    1  A    between atoms: C5_6  and  O1_7 
REMARK    2  A    between atoms: C7_10  and  O2_11 
REMARK    3  A    between atoms: C9_14  and  O3_16 
REMARK    4  A    between atoms: C11_18  and  C12_19 
REMARK    5  A    between atoms: C12_19  and  C13_20 
REMARK    6  A    between atoms: C13_20  and  C14_21 
REMARK    7  A    between atoms: C14_21  and  C16_23 
REMARK    8  A    between atoms: C17_24  and  C18_25 
REMARK    9  A    between atoms: C19_26  and  C20_27 
ROOT
HETATM    1  C1  UNL     1     129.190  37.961 -23.329  1.00  0.00     0.016 C 
HETATM    2  C2  UNL     1     128.093  38.375 -22.781  1.00  0.00    -0.067 C 
HETATM    3  C3  UNL     1     128.061  39.520 -21.860  1.00  0.00     0.093 C 
HETATM    4 BR1  UNL     1     129.850  40.177 -21.592  1.00  0.00    -0.086 Br
HETATM    5  C4  UNL     1     127.266  40.603 -22.531  1.00  0.00     0.042 C 
HETATM    6  C5  UNL     1     128.263  41.376 -23.408  1.00  0.00     0.126 C 
HETATM    7  C6  UNL     1     127.382  41.905 -24.497  1.00  0.00     0.064 C 
HETATM    8  C7  UNL     1     126.466  40.740 -24.777  1.00  0.00     0.128 C 
HETATM    9  C8  UNL     1     126.170  40.167 -23.390  1.00  0.00     0.057 C 
HETATM   10  C9  UNL     1     125.752  38.739 -23.425  1.00  0.00     0.068 C 
HETATM   11  C10 UNL     1     124.532  38.544 -22.551  1.00  0.00     0.047 C 
HETATM   12  C11 UNL     1     126.781  37.712 -23.045  1.00  0.00     0.049 C 
ENDROOT
BRANCH  12  13
HETATM   13  C12 UNL     1     127.019  36.622 -24.013  1.00  0.00     0.013 C 
BRANCH  13  14
HETATM   14  C13 UNL     1     126.539  35.258 -23.731  1.00  0.00     0.009 C 
BRANCH  14  15
HETATM   15  C14 UNL     1     127.409  34.130 -24.217  1.00  0.00     0.004 C 
HETATM   16  C15 UNL     1     128.028  33.355 -23.072  1.00  0.00     0.014 C 
BRANCH  15  17
HETATM   17  C16 UNL     1     128.558  34.778 -24.932  1.00  0.00    -0.023 C 
HETATM   18  C17 UNL     1     129.808  34.453 -24.661  1.00  0.00    -0.004 C 
BRANCH  18  19
HETATM   19  C18 UNL     1     130.950  35.037 -25.310  1.00  0.00    -0.002 C 
HETATM   20  C19 UNL     1     131.649  36.010 -24.761  1.00  0.00     0.008 C 
BRANCH  20  21
HETATM   21  C20 UNL     1     132.821  36.612 -25.420  1.00  0.00     0.179 A 
HETATM   22  O4  UNL     1     132.817  38.093 -25.325  1.00  0.00    -0.366 OA
HETATM   23  C21 UNL     1     132.691  37.407 -26.602  1.00  0.00     0.084 A 
HETATM   24  C22 UNL     1     133.865  37.683 -27.490  1.00  0.00     0.049 C 
HETATM   25  C23 UNL     1     131.343  37.658 -27.235  1.00  0.00     0.049 C 
ENDBRANCH  20  21
ENDBRANCH  18  19
ENDBRANCH  15  17
ENDBRANCH  14  15
ENDBRANCH  13  14
ENDBRANCH  12  13
BRANCH  10  26
HETATM   26  O3  UNL     1     125.366  38.491 -24.741  1.00  0.00    -0.389 OA
ATOM     27  H3  UNL     1     126.161  38.545 -25.256  1.00  0.00     0.210 HD
ENDBRANCH  10  26
BRANCH   8  28
HETATM   28  O2  UNL     1     127.101  39.862 -25.614  1.00  0.00    -0.395 OA
ATOM     29  H2  UNL     1     127.106  40.221 -26.494  1.00  0.00     0.210 HD
ENDBRANCH   8  28
BRANCH   6  30
HETATM   30  O1  UNL     1     128.828  42.426 -22.714  1.00  0.00    -0.395 OA
ATOM     31  H1  UNL     1     129.774  42.426 -22.801  1.00  0.00     0.210 HD
ENDBRANCH   6  30
TORSDOF 9
ENDMDL
MODEL 3
REMARK VINA RESULT: -7.763845725      2.666      5.215
REMARK  9 active torsions:
REMARK  status: ('A' for Active; 'I' for Inactive)
REMARK    1  A    between atoms: C5_6  and  O1_7 
REMARK    2  A    between atoms: C7_10  and  O2_11 
REMARK    3  A    between atoms: C9_14  and  O3_16 
REMARK    4  A    between atoms: C11_18  and  C12_19 
REMARK    5  A    between atoms: C12_19  and  C13_20 
REMARK    6  A    between atoms: C13_20  and  C14_21 
REMARK    7  A    between atoms: C14_21  and  C16_23 
REMARK    8  A    between atoms: C17_24  and  C18_25 
REMARK    9  A    between atoms: C19_26  and  C20_27 
ROOT
HETATM    1  C1  UNL     1     131.320  39.336 -23.445  1.00  0.00     0.016 C 
HETATM    2  C2  UNL     1     130.099  39.042 -23.760  1.00  0.00    -0.067 C 
HETATM    3  C3  UNL     1     128.996  39.137 -22.794  1.00  0.00     0.093 C 
HETATM    4 BR1  UNL     1     129.689  39.669 -21.079  1.00  0.00    -0.086 Br
HETATM    5  C4  UNL     1     128.078  40.223 -23.279  1.00  0.00     0.042 C 
HETATM    6  C5  UNL     1     128.644  41.535 -22.715  1.00  0.00     0.126 C 
HETATM    7  C6  UNL     1     128.180  42.538 -23.726  1.00  0.00     0.064 C 
HETATM    8  C7  UNL     1     128.390  41.814 -25.032  1.00  0.00     0.128 C 
HETATM    9  C8  UNL     1     127.963  40.377 -24.725  1.00  0.00     0.057 C 
HETATM   10  C9  UNL     1     128.567  39.379 -25.648  1.00  0.00     0.068 C 
HETATM   11  C10 UNL     1     127.500  38.420 -26.131  1.00  0.00     0.047 C 
HETATM   12  C11 UNL     1     129.730  38.580 -25.130  1.00  0.00     0.049 C 
ENDROOT
BRANCH  12  13
HETATM   13  C12 UNL     1     130.958  38.588 -25.951  1.00  0.00     0.013 C 
BRANCH  13  14
HETATM   14  C13 UNL     1     131.132  37.612 -27.041  1.00  0.00     0.009 C 
BRANCH  14  15
HETATM   15  C14 UNL     1     131.395  36.189 -26.627  1.00  0.00     0.004 C 
HETATM   16  C15 UNL     1     131.803  35.322 -27.801  1.00  0.00     0.014 C 
BRANCH  15  17
HETATM   17  C16 UNL     1     130.075  35.646 -26.165  1.00  0.00    -0.023 C 
HETATM   18  C17 UNL     1     129.943  35.073 -24.984  1.00  0.00    -0.004 C 
BRANCH  18  19
HETATM   19  C18 UNL     1     128.707  34.534 -24.485  1.00  0.00    -0.002 C 
HETATM   20  C19 UNL     1     127.648  35.289 -24.268  1.00  0.00     0.008 C 
BRANCH  20  21
HETATM   21  C20 UNL     1     126.378  34.744 -23.757  1.00  0.00     0.179 A 
HETATM   22  O4  UNL     1     125.221  35.137 -24.599  1.00  0.00    -0.366 OA
HETATM   23  C21 UNL     1     125.358  35.591 -23.224  1.00  0.00     0.084 A 
HETATM   24  C22 UNL     1     124.266  35.048 -22.356  1.00  0.00     0.049 C 
HETATM   25  C23 UNL     1     125.540  37.089 -23.152  1.00  0.00     0.049 C 
ENDBRANCH  20  21
ENDBRANCH  18  19
ENDBRANCH  15  17
ENDBRANCH  14  15
ENDBRANCH  13  14
ENDBRANCH  12  13
BRANCH  10  26
HETATM   26  O3  UNL     1     129.006  40.105 -26.754  1.00  0.00    -0.389 OA
ATOM     27  H3  UNL     1     129.849  40.465 -26.507  1.00  0.00     0.210 HD
ENDBRANCH  10  26
BRANCH   8  28
HETATM   28  O2  UNL     1     129.702  41.934 -25.404  1.00  0.00    -0.395 OA
ATOM     29  H2  UNL     1     129.976  42.837 -25.291  1.00  0.00     0.210 HD
ENDBRANCH   8  28
BRANCH   6  30
HETATM   30  O1  UNL     1     128.094  41.826 -21.483  1.00  0.00    -0.395 OA
ATOM     31  H1  UNL     1     128.535  42.563 -21.077  1.00  0.00     0.210 HD
ENDBRANCH   6  30
TORSDOF 9
ENDMDL
MODEL 4
REMARK VINA RESULT: -7.552098183      2.906      5.791
REMARK  9 active torsions:
REMARK  status: ('A' for Active; 'I' for Inactive)
REMARK    1  A    between atoms: C5_6  and  O1_7 
REMARK    2  A    between atoms: C7_10  and  O2_11 
REMARK    3  A    between atoms: C9_14  and  O3_16 
REMARK    4  A    between atoms: C11_18  and  C12_19 
REMARK    5  A    between atoms: C12_19  and  C13_20 
REMARK    6  A    between atoms: C13_20  and  C14_21 
REMARK    7  A    between atoms: C14_21  and  C16_23 
REMARK    8  A    between atoms: C17_24  and  C18_25 
REMARK    9  A    between atoms: C19_26  and  C20_27 
ROOT
HETATM    1  C1  UNL     1     126.427  39.233 -25.298  1.00  0.00     0.016 C 
HETATM    2  C2  UNL     1     127.482  39.312 -24.552  1.00  0.00    -0.067 C 
HETATM    3  C3  UNL     1     128.706  39.995 -24.996  1.00  0.00     0.093 C 
HETATM    4 BR1  UNL     1     128.469  40.627 -26.798  1.00  0.00    -0.086 Br
HETATM    5  C4  UNL     1     128.890  41.192 -24.107  1.00  0.00     0.042 C 
HETATM    6  C5  UNL     1     128.066  42.321 -24.743  1.00  0.00     0.126 C 
HETATM    7  C6  UNL     1     127.722  43.168 -23.558  1.00  0.00     0.064 C 
HETATM    8  C7  UNL     1     127.401  42.142 -22.500  1.00  0.00     0.128 C 
HETATM    9  C8  UNL     1     128.446  41.047 -22.725  1.00  0.00     0.057 C 
HETATM   10  C9  UNL     1     128.026  39.722 -22.194  1.00  0.00     0.068 C 
HETATM   11  C10 UNL     1     129.163  39.105 -21.407  1.00  0.00     0.047 C 
HETATM   12  C11 UNL     1     127.529  38.710 -23.187  1.00  0.00     0.049 C 
ENDROOT
BRANCH  12  13
HETATM   13  C12 UNL     1     126.206  38.111 -22.917  1.00  0.00     0.013 C 
BRANCH  13  14
HETATM   14  C13 UNL     1     126.068  36.655 -22.748  1.00  0.00     0.009 C 
BRANCH  14  15
HETATM   15  C14 UNL     1     125.470  35.901 -23.906  1.00  0.00     0.004 C 
HETATM   16  C15 UNL     1     124.859  34.584 -23.472  1.00  0.00     0.014 C 
BRANCH  15  17
HETATM   17  C16 UNL     1     126.621  35.538 -24.796  1.00  0.00    -0.023 C 
HETATM   18  C17 UNL     1     127.751  35.068 -24.302  1.00  0.00    -0.004 C 
BRANCH  18  19
HETATM   19  C18 UNL     1     128.889  34.703 -25.101  1.00  0.00    -0.002 C 
HETATM   20  C19 UNL     1     129.874  35.543 -25.347  1.00  0.00     0.008 C 
BRANCH  20  21
HETATM   21  C20 UNL     1     131.043  35.175 -26.165  1.00  0.00     0.179 A 
HETATM   22  O4  UNL     1     132.265  35.912 -25.759  1.00  0.00    -0.366 OA
HETATM   23  C21 UNL     1     131.653  36.104 -27.064  1.00  0.00     0.084 A 
HETATM   24  C22 UNL     1     132.556  35.646 -28.166  1.00  0.00     0.049 C 
HETATM   25  C23 UNL     1     131.118  37.509 -27.224  1.00  0.00     0.049 C 
ENDBRANCH  20  21
ENDBRANCH  18  19
ENDBRANCH  15  17
ENDBRANCH  14  15
ENDBRANCH  13  14
ENDBRANCH  12  13
BRANCH  10  26
HETATM   26  O3  UNL     1     126.993  39.985 -21.296  1.00  0.00    -0.389 OA
ATOM     27  H3  UNL     1     127.361  39.846 -20.432  1.00  0.00     0.210 HD
ENDBRANCH  10  26
BRANCH   8  28
HETATM   28  O2  UNL     1     126.110  41.717 -22.665  1.00  0.00    -0.395 OA
ATOM     29  H2  UNL     1     125.855  41.197 -21.912  1.00  0.00     0.210 HD
ENDBRANCH   8  28
BRANCH   6  30
HETATM   30  O1  UNL     1     128.826  43.052 -25.634  1.00  0.00    -0.395 OA
ATOM     31  H1  UNL     1     128.285  43.428 -26.318  1.00  0.00     0.210 HD
ENDBRANCH   6  30
TORSDOF 9
ENDMDL
MODEL 5
REMARK VINA RESULT: -7.526274229      2.787      4.405
REMARK  9 active torsions:
REMARK  status: ('A' for Active; 'I' for Inactive)
REMARK    1  A    between atoms: C5_6  and  O1_7 
REMARK    2  A    between atoms: C7_10  and  O2_11 
REMARK    3  A    between atoms: C9_14  and  O3_16 
REMARK    4  A    between atoms: C11_18  and  C12_19 
REMARK    5  A    between atoms: C12_19  and  C13_20 
REMARK    6  A    between atoms: C13_20  and  C14_21 
REMARK    7  A    between atoms: C14_21  and  C16_23 
REMARK    8  A    between atoms: C17_24  and  C18_25 
REMARK    9  A    between atoms: C19_26  and  C20_27 
ROOT
HETATM    1  C1  UNL     1     129.410  37.666 -23.851  1.00  0.00     0.016 C 
HETATM    2  C2  UNL     1     129.848  37.600 -25.067  1.00  0.00    -0.067 C 
HETATM    3  C3  UNL     1     130.119  38.801 -25.869  1.00  0.00     0.093 C 
HETATM    4 BR1  UNL     1     129.651  40.368 -24.855  1.00  0.00    -0.086 Br
HETATM    5  C4  UNL     1     131.599  38.838 -26.122  1.00  0.00     0.042 C 
HETATM    6  C5  UNL     1     132.215  39.548 -24.907  1.00  0.00     0.126 C 
HETATM    7  C6  UNL     1     133.592  38.960 -24.864  1.00  0.00     0.064 C 
HETATM    8  C7  UNL     1     133.341  37.506 -25.177  1.00  0.00     0.128 C 
HETATM    9  C8  UNL     1     132.265  37.548 -26.264  1.00  0.00     0.057 C 
HETATM   10  C9  UNL     1     131.477  36.289 -26.353  1.00  0.00     0.068 C 
HETATM   11  C10 UNL     1     131.357  35.865 -27.802  1.00  0.00     0.047 C 
HETATM   12  C11 UNL     1     130.105  36.293 -25.741  1.00  0.00     0.049 C 
ENDROOT
BRANCH  12  13
HETATM   13  C12 UNL     1     129.811  35.222 -24.766  1.00  0.00     0.013 C 
BRANCH  13  14
HETATM   14  C13 UNL     1     128.553  34.460 -24.852  1.00  0.00     0.009 C 
BRANCH  14  15
HETATM   15  C14 UNL     1     128.137  33.717 -23.612  1.00  0.00     0.004 C 
HETATM   16  C15 UNL     1     128.623  32.281 -23.620  1.00  0.00     0.014 C 
BRANCH  15  17
HETATM   17  C16 UNL     1     126.640  33.635 -23.666  1.00  0.00    -0.023 C 
HETATM   18  C17 UNL     1     125.912  34.642 -24.112  1.00  0.00    -0.004 C 
BRANCH  18  19
HETATM   19  C18 UNL     1     124.477  34.625 -24.188  1.00  0.00    -0.002 C 
HETATM   20  C19 UNL     1     123.770  33.548 -23.908  1.00  0.00     0.008 C 
BRANCH  20  21
HETATM   21  C20 UNL     1     122.299  33.523 -23.984  1.00  0.00     0.179 A 
HETATM   22  O4  UNL     1     121.685  32.945 -22.764  1.00  0.00    -0.366 OA
HETATM   23  C21 UNL     1     121.572  32.295 -24.060  1.00  0.00     0.084 A 
HETATM   24  C22 UNL     1     120.152  32.257 -24.531  1.00  0.00     0.049 C 
HETATM   25  C23 UNL     1     122.282  30.961 -24.074  1.00  0.00     0.049 C 
ENDBRANCH  20  21
ENDBRANCH  18  19
ENDBRANCH  15  17
ENDBRANCH  14  15
ENDBRANCH  13  14
ENDBRANCH  12  13
BRANCH  10  26
HETATM   26  O3  UNL     1     132.236  35.321 -25.698  1.00  0.00    -0.389 OA
ATOM     27  H3  UNL     1     131.962  34.489 -26.064  1.00  0.00     0.210 HD
ENDBRANCH  10  26
BRANCH   8  28
HETATM   28  O2  UNL     1     132.948  36.863 -24.034  1.00  0.00    -0.395 OA
ATOM     29  H2  UNL     1     133.141  35.936 -24.118  1.00  0.00     0.210 HD
ENDBRANCH   8  28
BRANCH   6  30
HETATM   30  O1  UNL     1     132.296  40.910 -25.114  1.00  0.00    -0.395 OA
ATOM     31  H1  UNL     1     133.160  41.239 -24.895  1.00  0.00     0.210 HD
ENDBRANCH   6  30
TORSDOF 9
ENDMDL
