MODEL 1
REMARK VINA RESULT: -8.239794264      0.000      0.000
REMARK  7 active torsions:
REMARK  status: ('A' for Active; 'I' for Inactive)
REMARK    1  A    between atoms: C6_8  and  O1_9 
REMARK    2  A    between atoms: O1_9  and  C7_10 
REMARK    3  A    between atoms: C7_10  and  C8_11 
REMARK    4  A    between atoms: C8_11  and  O2_12 
REMARK    5  A    between atoms: C8_11  and  C9_14 
REMARK    6  A    between atoms: C9_14  and  N2_15 
REMARK    7  A    between atoms: N3_19  and  C13_20 
ROOT
HETATM    1  C7  UNL     1     131.109  35.202 -25.395  1.00  0.00     0.210 C 
ENDROOT
BRANCH   1   2
HETATM    2  O1  UNL     1     129.900  34.925 -25.067  1.00  0.00    -0.333 OA
BRANCH   2   3
HETATM    3  C6  UNL     1     128.671  34.645 -24.736  1.00  0.00     0.152 A 
HETATM    4  C4  UNL     1     128.372  33.432 -24.110  1.00  0.00     0.017 A 
HETATM    5  C3  UNL     1     127.119  33.036 -23.721  1.00  0.00     0.057 A 
HETATM    6  C5  UNL     1     129.499  32.493 -23.838  1.00  0.00     0.055 C 
HETATM    7  N1  UNL     1     126.611  31.943 -23.121  1.00  0.00    -0.358 N 
HETATM    8  C23 UNL     1     126.091  33.929 -23.982  1.00  0.00     0.043 A 
HETATM    9  C2  UNL     1     125.294  32.110 -22.990  1.00  0.00     0.012 A 
ATOM     10  H1  UNL     1     127.142  31.128 -22.816  1.00  0.00     0.166 HD
HETATM   11  C1  UNL     1     124.360  31.131 -22.375  1.00  0.00     0.068 C 
HETATM   12  C24 UNL     1     124.958  33.326 -23.516  1.00  0.00    -0.024 A 
HETATM   13  C25 UNL     1     123.599  33.951 -23.600  1.00  0.00     0.051 C 
HETATM   14  C22 UNL     1     126.370  35.128 -24.597  1.00  0.00     0.114 A 
HETATM   15  N4  UNL     1     127.599  35.487 -24.965  1.00  0.00    -0.322 N 
HETATM   16  N5  UNL     1     125.357  35.911 -24.808  1.00  0.00    -0.385 N 
ATOM     17  H4  UNL     1     127.750  36.389 -25.417  1.00  0.00     0.169 HD
ATOM     18  H52 UNL     1     125.564  36.800 -25.264  1.00  0.00     0.157 HD
ATOM     19  H51 UNL     1     124.416  35.636 -24.526  1.00  0.00     0.157 HD
ENDBRANCH   2   3
ENDBRANCH   1   2
BRANCH   1  20
HETATM   20  C8  UNL     1     131.850  36.310 -24.591  1.00  0.00     0.160 C 
BRANCH  20  21
HETATM   21  O2  UNL     1     133.160  35.923 -24.402  1.00  0.00    -0.392 OA
ATOM     22  H2  UNL     1     133.609  35.941 -25.239  1.00  0.00     0.210 HD
ENDBRANCH  20  21
BRANCH  20  23
HETATM   23  C9  UNL     1     131.673  37.575 -25.351  1.00  0.00     0.160 C 
BRANCH  23  24
HETATM   24  N2  UNL     1     130.497  38.310 -25.047  1.00  0.00    -0.370 N 
HETATM   25  C10 UNL     1     129.482  38.378 -26.017  1.00  0.00     0.065 C 
HETATM   26  C11 UNL     1     129.104  39.825 -26.225  1.00  0.00     0.064 C 
HETATM   27  C12 UNL     1     128.730  40.371 -24.867  1.00  0.00     0.122 C 
HETATM   28  N3  UNL     1     127.959  39.395 -24.188  1.00  0.00    -0.403 N 
HETATM   29  C20 UNL     1     128.667  38.430 -23.427  1.00  0.00     0.162 C 
HETATM   30  C21 UNL     1     130.128  38.354 -23.691  1.00  0.00     0.082 C 
BRANCH  28  31
HETATM   31  C13 UNL     1     126.747  39.861 -23.600  1.00  0.00     0.079 C 
HETATM   32  C14 UNL     1     126.495  39.288 -22.228  1.00  0.00     0.028 C 
HETATM   33  C15 UNL     1     125.354  40.037 -21.602  1.00  0.00     0.045 C 
HETATM   34  C16 UNL     1     124.100  39.990 -22.443  1.00  0.00     0.100 C 
HETATM   35  C17 UNL     1     123.427  38.648 -22.334  1.00  0.00     0.051 C 
HETATM   36  F1  UNL     1     123.228  40.941 -21.952  1.00  0.00    -0.243 F 
HETATM   37  C18 UNL     1     124.367  40.313 -23.888  1.00  0.00     0.045 C 
HETATM   38  C19 UNL     1     125.531  39.539 -24.447  1.00  0.00     0.028 C 
ENDBRANCH  28  31
ENDBRANCH  23  24
ENDBRANCH  20  23
ENDBRANCH   1  20
TORSDOF 7
ENDMDL
MODEL 2
REMARK VINA RESULT: -8.231453201      3.150      7.218
REMARK  7 active torsions:
REMARK  status: ('A' for Active; 'I' for Inactive)
REMARK    1  A    between atoms: C6_8  and  O1_9 
REMARK    2  A    between atoms: O1_9  and  C7_10 
REMARK    3  A    between atoms: C7_10  and  C8_11 
REMARK    4  A    between atoms: C8_11  and  O2_12 
REMARK    5  A    between atoms: C8_11  and  C9_14 
REMARK    6  A    between atoms: C9_14  and  N2_15 
REMARK    7  A    between atoms: N3_19  and  C13_20 
ROOT
HETATM    1  C7  UNL     1     127.600  41.867 -23.747  1.00  0.00     0.210 C 
ENDROOT
BRANCH   1   2
HETATM    2  O1  UNL     1     128.570  41.170 -24.218  1.00  0.00    -0.333 OA
BRANCH   2   3
HETATM    3  C6  UNL     1     129.556  40.465 -24.695  1.00  0.00     0.152 A 
HETATM    4  C4  UNL     1     129.300  39.397 -25.561  1.00  0.00     0.017 A 
HETATM    5  C3  UNL     1     130.257  38.591 -26.119  1.00  0.00     0.057 A 
HETATM    6  C5  UNL     1     127.879  39.111 -25.911  1.00  0.00     0.055 C 
HETATM    7  N1  UNL     1     130.242  37.535 -26.953  1.00  0.00    -0.358 N 
HETATM    8  C23 UNL     1     131.570  38.881 -25.779  1.00  0.00     0.043 A 
HETATM    9  C2  UNL     1     131.500  37.143 -27.157  1.00  0.00     0.012 A 
ATOM     10  H1  UNL     1     129.410  37.107 -27.361  1.00  0.00     0.166 HD
HETATM   11  C1  UNL     1     131.917  36.006 -28.020  1.00  0.00     0.068 C 
HETATM   12  C24 UNL     1     132.329  37.960 -26.442  1.00  0.00    -0.024 A 
HETATM   13  C25 UNL     1     133.823  37.909 -26.353  1.00  0.00     0.051 C 
HETATM   14  C22 UNL     1     131.837  39.930 -24.929  1.00  0.00     0.114 A 
HETATM   15  N4  UNL     1     130.886  40.698 -24.401  1.00  0.00    -0.322 N 
HETATM   16  N5  UNL     1     133.089  40.140 -24.659  1.00  0.00    -0.385 N 
ATOM     17  H4  UNL     1     131.140  41.463 -23.777  1.00  0.00     0.169 HD
ATOM     18  H52 UNL     1     133.287  40.918 -24.029  1.00  0.00     0.157 HD
ATOM     19  H51 UNL     1     133.818  39.552 -25.064  1.00  0.00     0.157 HD
ENDBRANCH   2   3
ENDBRANCH   1   2
BRANCH   1  20
HETATM   20  C8  UNL     1     127.195  41.645 -22.260  1.00  0.00     0.160 C 
BRANCH  20  21
HETATM   21  O2  UNL     1     127.234  42.857 -21.603  1.00  0.00    -0.392 OA
ATOM     22  H2  UNL     1     126.564  42.862 -20.930  1.00  0.00     0.210 HD
ENDBRANCH  20  21
BRANCH  20  23
HETATM   23  C9  UNL     1     125.864  40.983 -22.278  1.00  0.00     0.160 C 
BRANCH  23  24
HETATM   24  N2  UNL     1     125.868  39.615 -22.657  1.00  0.00    -0.370 N 
HETATM   25  C10 UNL     1     125.254  39.256 -23.869  1.00  0.00     0.065 C 
HETATM   26  C11 UNL     1     124.289  38.126 -23.609  1.00  0.00     0.064 C 
HETATM   27  C12 UNL     1     125.082  37.026 -22.942  1.00  0.00     0.122 C 
HETATM   28  N3  UNL     1     126.336  36.921 -23.593  1.00  0.00    -0.403 N 
HETATM   29  C20 UNL     1     127.383  37.748 -23.113  1.00  0.00     0.162 C 
HETATM   30  C21 UNL     1     126.962  38.852 -22.210  1.00  0.00     0.082 C 
BRANCH  28  31
HETATM   31  C13 UNL     1     126.730  35.604 -23.972  1.00  0.00     0.079 C 
HETATM   32  C14 UNL     1     126.515  34.584 -22.882  1.00  0.00     0.028 C 
HETATM   33  C15 UNL     1     126.707  33.215 -23.468  1.00  0.00     0.045 C 
HETATM   34  C16 UNL     1     128.066  33.043 -24.105  1.00  0.00     0.100 C 
HETATM   35  C17 UNL     1     129.134  32.868 -23.060  1.00  0.00     0.051 C 
HETATM   36  F1  UNL     1     128.030  31.893 -24.870  1.00  0.00    -0.243 F 
HETATM   37  C18 UNL     1     128.421  34.188 -25.015  1.00  0.00     0.045 C 
HETATM   38  C19 UNL     1     128.191  35.530 -24.370  1.00  0.00     0.028 C 
ENDBRANCH  28  31
ENDBRANCH  23  24
ENDBRANCH  20  23
ENDBRANCH   1  20
TORSDOF 7
ENDMDL
MODEL 3
REMARK VINA RESULT: -8.201790765      0.934      1.200
REMARK  7 active torsions:
REMARK  status: ('A' for Active; 'I' for Inactive)
REMARK    1  A    between atoms: C6_8  and  O1_9 
REMARK    2  A    between atoms: O1_9  and  C7_10 
REMARK    3  A    between atoms: C7_10  and  C8_11 
REMARK    4  A    between atoms: C8_11  and  O2_12 
REMARK    5  A    between atoms: C8_11  and  C9_14 
REMARK    6  A    between atoms: C9_14  and  N2_15 
REMARK    7  A    between atoms: N3_19  and  C13_20 
ROOT
HETATM    1  C7  UNL     1     131.168  35.294 -25.348  1.00  0.00     0.210 C 
ENDROOT
BRANCH   1   2
HETATM    2  O1  UNL     1     129.955  35.011 -25.036  1.00  0.00    -0.333 OA
BRANCH   2   3
HETATM    3  C6  UNL     1     128.724  34.725 -24.722  1.00  0.00     0.152 A 
HETATM    4  C4  UNL     1     128.423  33.511 -24.097  1.00  0.00     0.017 A 
HETATM    5  C3  UNL     1     127.168  33.107 -23.725  1.00  0.00     0.057 A 
HETATM    6  C5  UNL     1     129.552  32.581 -23.806  1.00  0.00     0.055 C 
HETATM    7  N1  UNL     1     126.658  32.013 -23.129  1.00  0.00    -0.358 N 
HETATM    8  C23 UNL     1     126.138  33.993 -24.004  1.00  0.00     0.043 A 
HETATM    9  C2  UNL     1     125.338  32.172 -23.019  1.00  0.00     0.012 A 
ATOM     10  H1  UNL     1     127.190  31.202 -22.815  1.00  0.00     0.166 HD
HETATM   11  C1  UNL     1     124.402  31.188 -22.414  1.00  0.00     0.068 C 
HETATM   12  C24 UNL     1     125.002  33.384 -23.552  1.00  0.00    -0.024 A 
HETATM   13  C25 UNL     1     123.641  33.999 -23.659  1.00  0.00     0.051 C 
HETATM   14  C22 UNL     1     126.418  35.193 -24.618  1.00  0.00     0.114 A 
HETATM   15  N4  UNL     1     127.650  35.559 -24.969  1.00  0.00    -0.322 N 
HETATM   16  N5  UNL     1     125.403  35.968 -24.845  1.00  0.00    -0.385 N 
ATOM     17  H4  UNL     1     127.801  36.460 -25.421  1.00  0.00     0.169 HD
ATOM     18  H52 UNL     1     125.611  36.857 -25.301  1.00  0.00     0.157 HD
ATOM     19  H51 UNL     1     124.459  35.687 -24.577  1.00  0.00     0.157 HD
ENDBRANCH   2   3
ENDBRANCH   1   2
BRANCH   1  20
HETATM   20  C8  UNL     1     131.842  36.506 -24.640  1.00  0.00     0.160 C 
BRANCH  20  21
HETATM   21  O2  UNL     1     133.189  36.246 -24.499  1.00  0.00    -0.392 OA
ATOM     22  H2  UNL     1     133.430  36.364 -23.588  1.00  0.00     0.210 HD
ENDBRANCH  20  21
BRANCH  20  23
HETATM   23  C9  UNL     1     131.516  37.706 -25.453  1.00  0.00     0.160 C 
BRANCH  23  24
HETATM   24  N2  UNL     1     130.509  38.552 -24.918  1.00  0.00    -0.370 N 
HETATM   25  C10 UNL     1     129.308  38.696 -25.633  1.00  0.00     0.065 C 
HETATM   26  C11 UNL     1     129.018  40.167 -25.804  1.00  0.00     0.064 C 
HETATM   27  C12 UNL     1     129.014  40.769 -24.418  1.00  0.00     0.122 C 
HETATM   28  N3  UNL     1     128.339  39.880 -23.546  1.00  0.00    -0.403 N 
HETATM   29  C20 UNL     1     129.118  38.867 -22.930  1.00  0.00     0.162 C 
HETATM   30  C21 UNL     1     130.467  38.653 -23.516  1.00  0.00     0.082 C 
BRANCH  28  31
HETATM   31  C13 UNL     1     127.340  40.466 -22.715  1.00  0.00     0.079 C 
HETATM   32  C14 UNL     1     126.035  39.710 -22.735  1.00  0.00     0.028 C 
HETATM   33  C15 UNL     1     125.158  40.248 -21.641  1.00  0.00     0.045 C 
HETATM   34  C16 UNL     1     124.921  41.734 -21.766  1.00  0.00     0.100 C 
HETATM   35  C17 UNL     1     123.931  42.033 -22.859  1.00  0.00     0.051 C 
HETATM   36  F1  UNL     1     124.380  42.177 -20.575  1.00  0.00    -0.243 F 
HETATM   37  C18 UNL     1     126.194  42.500 -22.005  1.00  0.00     0.045 C 
HETATM   38  C19 UNL     1     127.031  41.898 -23.103  1.00  0.00     0.028 C 
ENDBRANCH  28  31
ENDBRANCH  23  24
ENDBRANCH  20  23
ENDBRANCH   1  20
TORSDOF 7
ENDMDL
MODEL 4
REMARK VINA RESULT: -8.173033540      1.276      1.743
REMARK  7 active torsions:
REMARK  status: ('A' for Active; 'I' for Inactive)
REMARK    1  A    between atoms: C6_8  and  O1_9 
REMARK    2  A    between atoms: O1_9  and  C7_10 
REMARK    3  A    between atoms: C7_10  and  C8_11 
REMARK    4  A    between atoms: C8_11  and  O2_12 
REMARK    5  A    between atoms: C8_11  and  C9_14 
REMARK    6  A    between atoms: C9_14  and  N2_15 
REMARK    7  A    between atoms: N3_19  and  C13_20 
ROOT
HETATM    1  C7  UNL     1     131.761  35.544 -25.188  1.00  0.00     0.210 C 
ENDROOT
BRANCH   1   2
HETATM    2  O1  UNL     1     130.532  35.262 -24.949  1.00  0.00    -0.333 OA
BRANCH   2   3
HETATM    3  C6  UNL     1     129.284  34.978 -24.703  1.00  0.00     0.152 A 
HETATM    4  C4  UNL     1     128.944  33.746 -24.138  1.00  0.00     0.017 A 
HETATM    5  C3  UNL     1     127.668  33.343 -23.839  1.00  0.00     0.057 A 
HETATM    6  C5  UNL     1     130.049  32.793 -23.829  1.00  0.00     0.055 C 
HETATM    7  N1  UNL     1     127.121  32.234 -23.308  1.00  0.00    -0.358 N 
HETATM    8  C23 UNL     1     126.661  34.250 -24.132  1.00  0.00     0.043 A 
HETATM    9  C2  UNL     1     125.799  32.403 -23.253  1.00  0.00     0.012 A 
ATOM     10  H1  UNL     1     127.630  31.406 -23.000  1.00  0.00     0.166 HD
HETATM   11  C1  UNL     1     124.827  31.408 -22.729  1.00  0.00     0.068 C 
HETATM   12  C24 UNL     1     125.500  33.638 -23.757  1.00  0.00    -0.024 A 
HETATM   13  C25 UNL     1     124.151  34.271 -23.903  1.00  0.00     0.051 C 
HETATM   14  C22 UNL     1     126.981  35.468 -24.688  1.00  0.00     0.114 A 
HETATM   15  N4  UNL     1     128.231  35.833 -24.968  1.00  0.00    -0.322 N 
HETATM   16  N5  UNL     1     125.985  36.262 -24.934  1.00  0.00    -0.385 N 
ATOM     17  H4  UNL     1     128.412  36.748 -25.379  1.00  0.00     0.169 HD
ATOM     18  H52 UNL     1     126.222  37.165 -25.346  1.00  0.00     0.157 HD
ATOM     19  H51 UNL     1     125.027  35.982 -24.719  1.00  0.00     0.157 HD
ENDBRANCH   2   3
ENDBRANCH   1   2
BRANCH   1  20
HETATM   20  C8  UNL     1     132.380  36.784 -24.479  1.00  0.00     0.160 C 
BRANCH  20  21
HETATM   21  O2  UNL     1     133.750  36.640 -24.445  1.00  0.00    -0.392 OA
ATOM     22  H2  UNL     1     133.972  35.754 -24.708  1.00  0.00     0.210 HD
ENDBRANCH  20  21
BRANCH  20  23
HETATM   23  C9  UNL     1     131.892  37.980 -25.216  1.00  0.00     0.160 C 
BRANCH  23  24
HETATM   24  N2  UNL     1     130.767  38.632 -24.647  1.00  0.00    -0.370 N 
HETATM   25  C10 UNL     1     130.954  39.388 -23.477  1.00  0.00     0.065 C 
HETATM   26  C11 UNL     1     129.938  38.953 -22.449  1.00  0.00     0.064 C 
HETATM   27  C12 UNL     1     128.581  39.099 -23.096  1.00  0.00     0.122 C 
HETATM   28  N3  UNL     1     128.562  40.311 -23.829  1.00  0.00    -0.403 N 
HETATM   29  C20 UNL     1     129.019  40.261 -25.171  1.00  0.00     0.162 C 
HETATM   30  C21 UNL     1     129.763  39.031 -25.547  1.00  0.00     0.082 C 
BRANCH  28  31
HETATM   31  C13 UNL     1     127.435  41.155 -23.603  1.00  0.00     0.079 C 
HETATM   32  C14 UNL     1     127.509  41.909 -22.299  1.00  0.00     0.028 C 
HETATM   33  C15 UNL     1     126.425  42.948 -22.290  1.00  0.00     0.045 C 
HETATM   34  C16 UNL     1     125.051  42.353 -22.489  1.00  0.00     0.100 C 
HETATM   35  C17 UNL     1     124.568  41.676 -21.236  1.00  0.00     0.051 C 
HETATM   36  F1  UNL     1     124.181  43.389 -22.772  1.00  0.00    -0.243 F 
HETATM   37  C18 UNL     1     125.006  41.388 -23.643  1.00  0.00     0.045 C 
HETATM   38  C19 UNL     1     126.128  40.385 -23.599  1.00  0.00     0.028 C 
ENDBRANCH  28  31
ENDBRANCH  23  24
ENDBRANCH  20  23
ENDBRANCH   1  20
TORSDOF 7
ENDMDL
MODEL 5
REMARK VINA RESULT: -8.091257756      2.969      6.770
REMARK  7 active torsions:
REMARK  status: ('A' for Active; 'I' for Inactive)
REMARK    1  A    between atoms: C6_8  and  O1_9 
REMARK    2  A    between atoms: O1_9  and  C7_10 
REMARK    3  A    between atoms: C7_10  and  C8_11 
REMARK    4  A    between atoms: C8_11  and  O2_12 
REMARK    5  A    between atoms: C8_11  and  C9_14 
REMARK    6  A    between atoms: C9_14  and  N2_15 
REMARK    7  A    between atoms: N3_19  and  C13_20 
ROOT
HETATM    1  C7  UNL     1     129.119  39.037 -21.770  1.00  0.00     0.210 C 
ENDROOT
BRANCH   1   2
HETATM    2  O1  UNL     1     129.915  38.804 -22.750  1.00  0.00    -0.333 OA
BRANCH   2   3
HETATM    3  C6  UNL     1     130.723  38.570 -23.745  1.00  0.00     0.152 A 
HETATM    4  C4  UNL     1     130.533  37.446 -24.554  1.00  0.00     0.017 A 
HETATM    5  C3  UNL     1     131.319  37.104 -25.622  1.00  0.00     0.057 A 
HETATM    6  C5  UNL     1     129.384  36.549 -24.238  1.00  0.00     0.055 C 
HETATM    7  N1  UNL     1     131.324  36.097 -26.516  1.00  0.00    -0.358 N 
HETATM    8  C23 UNL     1     132.377  37.958 -25.896  1.00  0.00     0.043 A 
HETATM    9  C2  UNL     1     132.349  36.281 -27.350  1.00  0.00     0.012 A 
ATOM     10  H1  UNL     1     130.658  35.326 -26.550  1.00  0.00     0.166 HD
HETATM   11  C1  UNL     1     132.704  35.388 -28.484  1.00  0.00     0.068 C 
HETATM   12  C24 UNL     1     133.007  37.421 -26.982  1.00  0.00    -0.024 A 
HETATM   13  C25 UNL     1     134.219  38.031 -27.615  1.00  0.00     0.051 C 
HETATM   14  C22 UNL     1     132.577  39.069 -25.109  1.00  0.00     0.114 A 
HETATM   15  N4  UNL     1     131.795  39.378 -24.076  1.00  0.00    -0.322 N 
HETATM   16  N5  UNL     1     133.586  39.820 -25.428  1.00  0.00    -0.385 N 
ATOM     17  H4  UNL     1     131.988  40.214 -23.525  1.00  0.00     0.169 HD
ATOM     18  H52 UNL     1     133.734  40.644 -24.844  1.00  0.00     0.157 HD
ATOM     19  H51 UNL     1     134.185  39.584 -26.219  1.00  0.00     0.157 HD
ENDBRANCH   2   3
ENDBRANCH   1   2
BRANCH   1  20
HETATM   20  C8  UNL     1     127.802  39.812 -22.067  1.00  0.00     0.160 C 
BRANCH  20  21
HETATM   21  O2  UNL     1     127.947  41.115 -21.642  1.00  0.00    -0.392 OA
ATOM     22  H2  UNL     1     127.562  41.694 -22.289  1.00  0.00     0.210 HD
ENDBRANCH  20  21
BRANCH  20  23
HETATM   23  C9  UNL     1     127.534  39.652 -23.521  1.00  0.00     0.160 C 
BRANCH  23  24
HETATM   24  N2  UNL     1     126.593  38.645 -23.861  1.00  0.00    -0.370 N 
HETATM   25  C10 UNL     1     126.645  38.091 -25.152  1.00  0.00     0.065 C 
HETATM   26  C11 UNL     1     125.266  38.153 -25.763  1.00  0.00     0.064 C 
HETATM   27  C12 UNL     1     124.338  37.448 -24.800  1.00  0.00     0.122 C 
HETATM   28  N3  UNL     1     124.988  36.286 -24.320  1.00  0.00    -0.403 N 
HETATM   29  C20 UNL     1     125.807  36.433 -23.171  1.00  0.00     0.162 C 
HETATM   30  C21 UNL     1     126.146  37.833 -22.804  1.00  0.00     0.082 C 
BRANCH  28  31
HETATM   31  C13 UNL     1     124.225  35.083 -24.370  1.00  0.00     0.079 C 
HETATM   32  C14 UNL     1     122.807  35.259 -23.887  1.00  0.00     0.028 C 
HETATM   33  C15 UNL     1     122.032  34.020 -24.228  1.00  0.00     0.045 C 
HETATM   34  C16 UNL     1     122.647  32.772 -23.642  1.00  0.00     0.100 C 
HETATM   35  C17 UNL     1     122.370  32.674 -22.166  1.00  0.00     0.051 C 
HETATM   36  F1  UNL     1     122.058  31.683 -24.255  1.00  0.00    -0.243 F 
HETATM   37  C18 UNL     1     124.129  32.692 -23.891  1.00  0.00     0.045 C 
HETATM   38  C19 UNL     1     124.842  33.972 -23.542  1.00  0.00     0.028 C 
ENDBRANCH  28  31
ENDBRANCH  23  24
ENDBRANCH  20  23
ENDBRANCH   1  20
TORSDOF 7
ENDMDL
