MODEL 1
REMARK VINA RESULT: -8.025992614      0.000      0.000
REMARK  7 active torsions:
REMARK  status: ('A' for Active; 'I' for Inactive)
REMARK    1  A    between atoms: N2_15  and  C13_16 
REMARK    2  A    between atoms: C13_16  and  C14_17 
REMARK    3  A    between atoms: C15_20  and  C16_21 
REMARK    4  A    between atoms: C16_21  and  N3_22 
REMARK    5  A    between atoms: C21_30  and  C22_31 
REMARK    6  A    between atoms: C22_31  and  C23_32 
REMARK    7  A    between atoms: C23_32  and  O3_33 
ROOT
HETATM    1  C1  UNL     1     133.401  36.944 -24.428  1.00  0.00     0.021 C 
HETATM    2  C2  UNL     1     132.415  37.201 -25.507  1.00  0.00    -0.004 C 
HETATM    3  C3  UNL     1     132.867  36.475 -26.743  1.00  0.00     0.021 C 
HETATM    4  C4  UNL     1     132.253  38.682 -25.877  1.00  0.00     0.016 C 
HETATM    5  C5  UNL     1     131.944  39.303 -24.588  1.00  0.00     0.015 C 
HETATM    6  C6  UNL     1     130.499  39.071 -24.068  1.00  0.00    -0.016 C 
HETATM    7  C7  UNL     1     129.823  40.167 -24.873  1.00  0.00     0.020 C 
HETATM    8  C8  UNL     1     130.751  39.395 -22.626  1.00  0.00     0.020 C 
HETATM    9  C9  UNL     1     130.149  37.710 -24.420  1.00  0.00     0.002 A 
HETATM   10  C10 UNL     1     131.045  36.836 -25.076  1.00  0.00     0.027 A 
HETATM   11  N1  UNL     1     130.472  35.642 -25.268  1.00  0.00    -0.358 N 
ATOM     12  H1  UNL     1     130.911  34.840 -25.719  1.00  0.00     0.165 HD
HETATM   13  C11 UNL     1     129.230  35.671 -24.772  1.00  0.00     0.059 A 
HETATM   14  C12 UNL     1     129.014  36.945 -24.244  1.00  0.00     0.066 A 
HETATM   15  N2  UNL     1     127.702  37.176 -23.648  1.00  0.00    -0.346 N 
HETATM   16  C15 UNL     1     126.644  36.283 -24.029  1.00  0.00     0.209 C 
HETATM   17  N4  UNL     1     126.953  35.233 -24.929  1.00  0.00    -0.390 N 
ATOM     18  H4  UNL     1     126.308  34.960 -25.671  1.00  0.00     0.156 HD
HETATM   19  C21 UNL     1     128.181  34.590 -24.754  1.00  0.00     0.133 C 
ENDROOT
BRANCH  16  20
HETATM   20  C16 UNL     1     125.327  36.843 -24.447  1.00  0.00     0.318 C 
BRANCH  20  21
HETATM   21  N3  UNL     1     124.197  36.739 -23.611  1.00  0.00     0.093 N 
HETATM   22  C17 UNL     1     124.480  36.168 -22.308  1.00  0.00     0.274 C 
HETATM   23  C18 UNL     1     123.357  35.200 -22.051  1.00  0.00     0.052 C 
HETATM   24  C19 UNL     1     123.063  34.669 -23.437  1.00  0.00     0.112 C 
HETATM   25 CL1  UNL     1     124.265  33.478 -23.944  1.00  0.00    -0.123 Cl
HETATM   26  C20 UNL     1     123.190  35.953 -24.251  1.00  0.00     0.292 C 
ENDBRANCH  20  21
ENDBRANCH  16  20
BRANCH  15  27
HETATM   27  C13 UNL     1     127.588  38.218 -22.701  1.00  0.00     0.238 C 
BRANCH  27  28
HETATM   28  C14 UNL     1     126.620  39.304 -23.048  1.00  0.00     0.191 C 
HETATM   29  O1  UNL     1     125.777  39.589 -22.166  1.00  0.00    -0.647 OA
HETATM   30  O2  UNL     1     126.719  39.901 -24.277  1.00  0.00    -0.647 OA
ENDBRANCH  27  28
ENDBRANCH  15  27
BRANCH  19  31
HETATM   31  C22 UNL     1     128.337  33.691 -23.573  1.00  0.00     0.057 C 
BRANCH  31  32
HETATM   32  C23 UNL     1     128.940  32.354 -23.978  1.00  0.00     0.166 C 
BRANCH  32  33
HETATM   33  O3  UNL     1     130.287  32.297 -23.619  1.00  0.00    -0.401 OA
ATOM     34  H3  UNL     1     130.775  31.776 -24.245  1.00  0.00     0.209 HD
ENDBRANCH  32  33
ENDBRANCH  31  32
ENDBRANCH  19  31
TORSDOF 7
ENDMDL
MODEL 2
REMARK VINA RESULT: -7.539708167      1.440      1.617
REMARK  7 active torsions:
REMARK  status: ('A' for Active; 'I' for Inactive)
REMARK    1  A    between atoms: N2_15  and  C13_16 
REMARK    2  A    between atoms: C13_16  and  C14_17 
REMARK    3  A    between atoms: C15_20  and  C16_21 
REMARK    4  A    between atoms: C16_21  and  N3_22 
REMARK    5  A    between atoms: C21_30  and  C22_31 
REMARK    6  A    between atoms: C22_31  and  C23_32 
REMARK    7  A    between atoms: C23_32  and  O3_33 
ROOT
HETATM    1  C1  UNL     1     132.823  36.279 -25.054  1.00  0.00     0.021 C 
HETATM    2  C2  UNL     1     131.709  36.560 -25.993  1.00  0.00    -0.004 C 
HETATM    3  C3  UNL     1     131.898  35.711 -27.218  1.00  0.00     0.021 C 
HETATM    4  C4  UNL     1     131.623  38.022 -26.455  1.00  0.00     0.016 C 
HETATM    5  C5  UNL     1     131.573  38.757 -25.190  1.00  0.00     0.015 C 
HETATM    6  C6  UNL     1     130.211  38.705 -24.445  1.00  0.00    -0.016 C 
HETATM    7  C7  UNL     1     129.519  39.807 -25.230  1.00  0.00     0.020 C 
HETATM    8  C8  UNL     1     130.711  39.100 -23.088  1.00  0.00     0.020 C 
HETATM    9  C9  UNL     1     129.692  37.366 -24.629  1.00  0.00     0.002 A 
HETATM   10  C10 UNL     1     130.395  36.364 -25.336  1.00  0.00     0.027 A 
HETATM   11  N1  UNL     1     129.696  35.223 -25.342  1.00  0.00    -0.358 N 
ATOM     12  H1  UNL     1     129.988  34.352 -25.786  1.00  0.00     0.165 HD
HETATM   13  C11 UNL     1     128.553  35.410 -24.673  1.00  0.00     0.059 A 
HETATM   14  C12 UNL     1     128.535  36.732 -24.225  1.00  0.00     0.066 A 
HETATM   15  N2  UNL     1     127.357  37.132 -23.463  1.00  0.00    -0.346 N 
HETATM   16  C15 UNL     1     126.178  36.326 -23.609  1.00  0.00     0.209 C 
HETATM   17  N4  UNL     1     126.249  35.192 -24.455  1.00  0.00    -0.390 N 
ATOM     18  H4  UNL     1     125.476  34.934 -25.069  1.00  0.00     0.156 HD
HETATM   19  C21 UNL     1     127.428  34.443 -24.411  1.00  0.00     0.133 C 
ENDROOT
BRANCH  16  20
HETATM   20  C16 UNL     1     124.866  36.985 -23.873  1.00  0.00     0.318 C 
BRANCH  20  21
HETATM   21  N3  UNL     1     123.655  36.344 -23.547  1.00  0.00     0.093 N 
HETATM   22  C17 UNL     1     122.482  36.976 -24.120  1.00  0.00     0.274 C 
HETATM   23  C18 UNL     1     121.463  36.992 -23.013  1.00  0.00     0.052 C 
HETATM   24  C19 UNL     1     122.323  37.193 -21.784  1.00  0.00     0.112 C 
HETATM   25 CL1  UNL     1     122.844  38.874 -21.626  1.00  0.00    -0.123 Cl
HETATM   26  C20 UNL     1     123.501  36.287 -22.128  1.00  0.00     0.292 C 
ENDBRANCH  20  21
ENDBRANCH  16  20
BRANCH  15  27
HETATM   27  C13 UNL     1     127.483  38.243 -22.599  1.00  0.00     0.238 C 
BRANCH  27  28
HETATM   28  C14 UNL     1     126.621  39.419 -22.926  1.00  0.00     0.191 C 
HETATM   29  O1  UNL     1     126.054  39.972 -21.955  1.00  0.00    -0.647 OA
HETATM   30  O2  UNL     1     126.511  39.806 -24.237  1.00  0.00    -0.647 OA
ENDBRANCH  27  28
ENDBRANCH  15  27
BRANCH  19  31
HETATM   31  C22 UNL     1     127.684  33.615 -23.197  1.00  0.00     0.057 C 
BRANCH  31  32
HETATM   32  C23 UNL     1     128.339  32.290 -23.564  1.00  0.00     0.166 C 
BRANCH  32  33
HETATM   33  O3  UNL     1     129.729  32.413 -23.549  1.00  0.00    -0.401 OA
ATOM     34  H3  UNL     1     130.027  32.897 -24.309  1.00  0.00     0.209 HD
ENDBRANCH  32  33
ENDBRANCH  31  32
ENDBRANCH  19  31
TORSDOF 7
ENDMDL
MODEL 3
REMARK VINA RESULT: -7.461701184      1.239      1.425
REMARK  7 active torsions:
REMARK  status: ('A' for Active; 'I' for Inactive)
REMARK    1  A    between atoms: N2_15  and  C13_16 
REMARK    2  A    between atoms: C13_16  and  C14_17 
REMARK    3  A    between atoms: C15_20  and  C16_21 
REMARK    4  A    between atoms: C16_21  and  N3_22 
REMARK    5  A    between atoms: C21_30  and  C22_31 
REMARK    6  A    between atoms: C22_31  and  C23_32 
REMARK    7  A    between atoms: C23_32  and  O3_33 
ROOT
HETATM    1  C1  UNL     1     132.631  36.256 -25.474  1.00  0.00     0.021 C 
HETATM    2  C2  UNL     1     131.437  36.442 -26.335  1.00  0.00    -0.004 C 
HETATM    3  C3  UNL     1     131.566  35.534 -27.526  1.00  0.00     0.021 C 
HETATM    4  C4  UNL     1     131.255  37.872 -26.865  1.00  0.00     0.016 C 
HETATM    5  C5  UNL     1     131.273  38.673 -25.641  1.00  0.00     0.015 C 
HETATM    6  C6  UNL     1     129.976  38.613 -24.789  1.00  0.00    -0.016 C 
HETATM    7  C7  UNL     1     129.180  39.643 -25.573  1.00  0.00     0.020 C 
HETATM    8  C8  UNL     1     130.562  39.100 -23.498  1.00  0.00     0.020 C 
HETATM    9  C9  UNL     1     129.500  37.247 -24.861  1.00  0.00     0.002 A 
HETATM   10  C10 UNL     1     130.188  36.234 -25.568  1.00  0.00     0.027 A 
HETATM   11  N1  UNL     1     129.537  35.070 -25.459  1.00  0.00    -0.358 N 
ATOM     12  H1  UNL     1     129.830  34.187 -25.877  1.00  0.00     0.165 HD
HETATM   13  C11 UNL     1     128.443  35.251 -24.712  1.00  0.00     0.059 A 
HETATM   14  C12 UNL     1     128.405  36.594 -24.334  1.00  0.00     0.066 A 
HETATM   15  N2  UNL     1     127.273  36.992 -23.502  1.00  0.00    -0.346 N 
HETATM   16  C15 UNL     1     126.121  36.135 -23.512  1.00  0.00     0.209 C 
HETATM   17  N4  UNL     1     126.174  34.959 -24.301  1.00  0.00    -0.390 N 
ATOM     18  H4  UNL     1     125.367  34.640 -24.838  1.00  0.00     0.156 HD
HETATM   19  C21 UNL     1     127.382  34.258 -24.311  1.00  0.00     0.133 C 
ENDROOT
BRANCH  16  20
HETATM   20  C16 UNL     1     124.767  36.730 -23.706  1.00  0.00     0.318 C 
BRANCH  20  21
HETATM   21  N3  UNL     1     123.950  37.046 -22.602  1.00  0.00     0.093 N 
HETATM   22  C17 UNL     1     123.638  35.909 -21.757  1.00  0.00     0.274 C 
HETATM   23  C18 UNL     1     122.172  36.043 -21.443  1.00  0.00     0.052 C 
HETATM   24  C19 UNL     1     121.621  36.641 -22.720  1.00  0.00     0.112 C 
HETATM   25 CL1  UNL     1     121.462  35.423 -23.990  1.00  0.00    -0.123 Cl
HETATM   26  C20 UNL     1     122.729  37.635 -23.053  1.00  0.00     0.292 C 
ENDBRANCH  20  21
ENDBRANCH  16  20
BRANCH  15  27
HETATM   27  C13 UNL     1     127.420  38.152 -22.710  1.00  0.00     0.238 C 
BRANCH  27  28
HETATM   28  C14 UNL     1     126.490  39.278 -23.033  1.00  0.00     0.191 C 
HETATM   29  O1  UNL     1     126.388  39.573 -24.247  1.00  0.00    -0.647 OA
HETATM   30  O2  UNL     1     125.827  39.895 -22.005  1.00  0.00    -0.647 OA
ENDBRANCH  27  28
ENDBRANCH  15  27
BRANCH  19  31
HETATM   31  C22 UNL     1     127.766  33.509 -23.080  1.00  0.00     0.057 C 
BRANCH  31  32
HETATM   32  C23 UNL     1     128.536  32.243 -23.425  1.00  0.00     0.166 C 
BRANCH  32  33
HETATM   33  O3  UNL     1     129.909  32.492 -23.427  1.00  0.00    -0.401 OA
ATOM     34  H3  UNL     1     130.388  31.714 -23.168  1.00  0.00     0.209 HD
ENDBRANCH  32  33
ENDBRANCH  31  32
ENDBRANCH  19  31
TORSDOF 7
ENDMDL
MODEL 4
REMARK VINA RESULT: -7.415980186      1.958      2.496
REMARK  7 active torsions:
REMARK  status: ('A' for Active; 'I' for Inactive)
REMARK    1  A    between atoms: N2_15  and  C13_16 
REMARK    2  A    between atoms: C13_16  and  C14_17 
REMARK    3  A    between atoms: C15_20  and  C16_21 
REMARK    4  A    between atoms: C16_21  and  N3_22 
REMARK    5  A    between atoms: C21_30  and  C22_31 
REMARK    6  A    between atoms: C22_31  and  C23_32 
REMARK    7  A    between atoms: C23_32  and  O3_33 
ROOT
HETATM    1  C1  UNL     1     132.962  36.373 -24.704  1.00  0.00     0.021 C 
HETATM    2  C2  UNL     1     131.950  36.816 -25.694  1.00  0.00    -0.004 C 
HETATM    3  C3  UNL     1     132.161  36.043 -26.965  1.00  0.00     0.021 C 
HETATM    4  C4  UNL     1     132.019  38.308 -26.047  1.00  0.00     0.016 C 
HETATM    5  C5  UNL     1     131.933  38.953 -24.736  1.00  0.00     0.015 C 
HETATM    6  C6  UNL     1     130.519  38.968 -24.094  1.00  0.00    -0.016 C 
HETATM    7  C7  UNL     1     129.980  40.178 -24.837  1.00  0.00     0.020 C 
HETATM    8  C8  UNL     1     130.944  39.220 -22.679  1.00  0.00     0.020 C 
HETATM    9  C9  UNL     1     129.907  37.695 -24.416  1.00  0.00     0.002 A 
HETATM   10  C10 UNL     1     130.578  36.689 -25.148  1.00  0.00     0.027 A 
HETATM   11  N1  UNL     1     129.790  35.617 -25.291  1.00  0.00    -0.358 N 
ATOM     12  H1  UNL     1     130.043  34.757 -25.779  1.00  0.00     0.165 HD
HETATM   13  C11 UNL     1     128.619  35.854 -24.691  1.00  0.00     0.059 A 
HETATM   14  C12 UNL     1     128.675  37.137 -24.144  1.00  0.00     0.066 A 
HETATM   15  N2  UNL     1     127.479  37.583 -23.437  1.00  0.00    -0.346 N 
HETATM   16  C15 UNL     1     126.252  36.895 -23.727  1.00  0.00     0.209 C 
HETATM   17  N4  UNL     1     126.295  35.822 -24.652  1.00  0.00    -0.390 N 
ATOM     18  H4  UNL     1     125.553  35.678 -25.336  1.00  0.00     0.156 HD
HETATM   19  C21 UNL     1     127.402  34.972 -24.583  1.00  0.00     0.133 C 
ENDROOT
BRANCH  16  20
HETATM   20  C16 UNL     1     125.023  37.683 -24.031  1.00  0.00     0.318 C 
BRANCH  20  21
HETATM   21  N3  UNL     1     124.623  37.916 -25.362  1.00  0.00     0.093 N 
HETATM   22  C17 UNL     1     125.467  38.858 -26.073  1.00  0.00     0.274 C 
HETATM   23  C18 UNL     1     124.515  39.751 -26.822  1.00  0.00     0.052 C 
HETATM   24  C19 UNL     1     123.338  39.836 -25.874  1.00  0.00     0.112 C 
HETATM   25 CL1  UNL     1     123.663  40.940 -24.534  1.00  0.00    -0.123 Cl
HETATM   26  C20 UNL     1     123.276  38.392 -25.388  1.00  0.00     0.292 C 
ENDBRANCH  20  21
ENDBRANCH  16  20
BRANCH  15  27
HETATM   27  C13 UNL     1     127.629  38.614 -22.483  1.00  0.00     0.238 C 
BRANCH  27  28
HETATM   28  C14 UNL     1     126.764  39.816 -22.687  1.00  0.00     0.191 C 
HETATM   29  O1  UNL     1     127.013  40.505 -23.704  1.00  0.00    -0.647 OA
HETATM   30  O2  UNL     1     125.778  40.077 -21.771  1.00  0.00    -0.647 OA
ENDBRANCH  27  28
ENDBRANCH  15  27
BRANCH  19  31
HETATM   31  C22 UNL     1     127.497  34.041 -23.422  1.00  0.00     0.057 C 
BRANCH  31  32
HETATM   32  C23 UNL     1     127.680  32.603 -23.885  1.00  0.00     0.166 C 
BRANCH  32  33
HETATM   33  O3  UNL     1     128.712  31.989 -23.174  1.00  0.00    -0.401 OA
ATOM     34  H3  UNL     1     128.435  31.138 -22.856  1.00  0.00     0.209 HD
ENDBRANCH  32  33
ENDBRANCH  31  32
ENDBRANCH  19  31
TORSDOF 7
ENDMDL
MODEL 5
REMARK VINA RESULT: -7.403224958      1.477      1.656
REMARK  7 active torsions:
REMARK  status: ('A' for Active; 'I' for Inactive)
REMARK    1  A    between atoms: N2_15  and  C13_16 
REMARK    2  A    between atoms: C13_16  and  C14_17 
REMARK    3  A    between atoms: C15_20  and  C16_21 
REMARK    4  A    between atoms: C16_21  and  N3_22 
REMARK    5  A    between atoms: C21_30  and  C22_31 
REMARK    6  A    between atoms: C22_31  and  C23_32 
REMARK    7  A    between atoms: C23_32  and  O3_33 
ROOT
HETATM    1  C1  UNL     1     132.801  37.066 -23.817  1.00  0.00     0.021 C 
HETATM    2  C2  UNL     1     131.901  37.528 -24.902  1.00  0.00    -0.004 C 
HETATM    3  C3  UNL     1     132.390  36.949 -26.200  1.00  0.00     0.021 C 
HETATM    4  C4  UNL     1     131.843  39.053 -25.072  1.00  0.00     0.016 C 
HETATM    5  C5  UNL     1     131.488  39.513 -23.728  1.00  0.00     0.015 C 
HETATM    6  C6  UNL     1     130.002  39.303 -23.326  1.00  0.00    -0.016 C 
HETATM    7  C7  UNL     1     129.440  40.539 -24.008  1.00  0.00     0.020 C 
HETATM    8  C8  UNL     1     130.179  39.413 -21.842  1.00  0.00     0.020 C 
HETATM    9  C9  UNL     1     129.601  38.027 -23.883  1.00  0.00     0.002 A 
HETATM   10  C10 UNL     1     130.489  37.195 -24.603  1.00  0.00     0.027 A 
HETATM   11  N1  UNL     1     129.864  36.077 -24.989  1.00  0.00    -0.358 N 
ATOM     12  H1  UNL     1     130.287  35.316 -25.522  1.00  0.00     0.165 HD
HETATM   13  C11 UNL     1     128.597  36.116 -24.564  1.00  0.00     0.059 A 
HETATM   14  C12 UNL     1     128.418  37.318 -23.877  1.00  0.00     0.066 A 
HETATM   15  N2  UNL     1     127.085  37.548 -23.328  1.00  0.00    -0.346 N 
HETATM   16  C15 UNL     1     126.006  36.783 -23.887  1.00  0.00     0.209 C 
HETATM   17  N4  UNL     1     126.314  35.847 -24.905  1.00  0.00    -0.390 N 
ATOM     18  H4  UNL     1     125.704  35.717 -25.713  1.00  0.00     0.156 HD
HETATM   19  C21 UNL     1     127.491  35.110 -24.753  1.00  0.00     0.133 C 
ENDROOT
BRANCH  16  20
HETATM   20  C16 UNL     1     124.751  37.476 -24.296  1.00  0.00     0.318 C 
BRANCH  20  21
HETATM   21  N3  UNL     1     123.528  36.779 -24.364  1.00  0.00     0.093 N 
HETATM   22  C17 UNL     1     122.391  37.617 -24.694  1.00  0.00     0.274 C 
HETATM   23  C18 UNL     1     121.294  37.176 -23.762  1.00  0.00     0.052 C 
HETATM   24  C19 UNL     1     122.060  36.815 -22.508  1.00  0.00     0.112 C 
HETATM   25 CL1  UNL     1     122.544  38.256 -21.607  1.00  0.00    -0.123 Cl
HETATM   26  C20 UNL     1     123.273  36.123 -23.121  1.00  0.00     0.292 C 
ENDBRANCH  20  21
ENDBRANCH  16  20
BRANCH  15  27
HETATM   27  C13 UNL     1     126.968  38.458 -22.254  1.00  0.00     0.238 C 
BRANCH  27  28
HETATM   28  C14 UNL     1     126.165  39.688 -22.533  1.00  0.00     0.191 C 
HETATM   29  O1  UNL     1     125.409  40.071 -21.609  1.00  0.00    -0.647 OA
HETATM   30  O2  UNL     1     126.308  40.302 -23.750  1.00  0.00    -0.647 OA
ENDBRANCH  27  28
ENDBRANCH  15  27
BRANCH  19  31
HETATM   31  C22 UNL     1     127.523  34.053 -23.702  1.00  0.00     0.057 C 
BRANCH  31  32
HETATM   32  C23 UNL     1     128.238  32.805 -24.201  1.00  0.00     0.166 C 
BRANCH  32  33
HETATM   33  O3  UNL     1     128.450  31.911 -23.150  1.00  0.00    -0.401 OA
ATOM     34  H3  UNL     1     128.930  31.150 -23.454  1.00  0.00     0.209 HD
ENDBRANCH  32  33
ENDBRANCH  31  32
ENDBRANCH  19  31
TORSDOF 7
ENDMDL
