MODEL 1
REMARK VINA RESULT: -8.244781272      0.000      0.000
REMARK  12 active torsions:
REMARK  status: ('A' for Active; 'I' for Inactive)
REMARK    1  A    between atoms: C2_2  and  O1_4 
REMARK    2  A    between atoms: C2_2  and  C4_6 
REMARK    3  A    between atoms: C4_6  and  C5_7 
REMARK    4  A    between atoms: C5_7  and  C6_8 
REMARK    5  A    between atoms: C9_12  and  C10_13 
REMARK    6  A    between atoms: C10_13  and  C11_14 
REMARK    7  A    between atoms: C10_13  and  N2_25 
REMARK    8  A    between atoms: C11_14  and  C12_15 
REMARK    9  A    between atoms: C15_18  and  N1_19 
REMARK   10  A    between atoms: N2_25  and  C18_27 
REMARK   11  A    between atoms: C20_29  and  C21_30 
REMARK   12  A    between atoms: C24_39  and  C25_40 
ROOT
HETATM    1  C10 UNL     1     128.765  37.317 -25.088  1.00  0.00     0.133 C 
ENDROOT
BRANCH   1   2
HETATM    2  C9  UNL     1     127.767  36.299 -24.700  1.00  0.00     0.035 A 
HETATM    3  C8  UNL     1     126.446  36.295 -24.988  1.00  0.00     0.071 A 
HETATM    4  C7  UNL     1     125.648  35.263 -24.585  1.00  0.00     0.139 A 
HETATM    5  C6  UNL     1     126.149  34.174 -23.865  1.00  0.00     0.086 A 
HETATM    6  F1  UNL     1     124.336  35.258 -24.871  1.00  0.00    -0.204 F 
HETATM    7  C24 UNL     1     127.497  34.202 -23.582  1.00  0.00     0.092 A 
HETATM    8  N5  UNL     1     128.271  35.239 -23.995  1.00  0.00    -0.354 N 
ATOM      9  H5  UNL     1     129.265  35.228 -23.769  1.00  0.00     0.166 HD
BRANCH   5  10
HETATM   10  C5  UNL     1     125.258  33.117 -23.468  1.00  0.00    -0.058 C 
BRANCH  10  11
HETATM   11  C4  UNL     1     124.495  32.250 -23.144  1.00  0.00    -0.063 C 
BRANCH  11  12
HETATM   12  C2  UNL     1     123.535  31.196 -22.740  1.00  0.00     0.114 C 
HETATM   13  C1  UNL     1     122.585  30.859 -23.867  1.00  0.00     0.060 C 
HETATM   14  C3  UNL     1     122.751  31.764 -21.577  1.00  0.00     0.060 C 
BRANCH  12  15
HETATM   15  O1  UNL     1     124.189  30.061 -22.292  1.00  0.00    -0.378 OA
ATOM     16  H1  UNL     1     125.100  30.068 -22.560  1.00  0.00     0.211 HD
ENDBRANCH  12  15
ENDBRANCH  11  12
ENDBRANCH  10  11
ENDBRANCH   5  10
BRANCH   7  17
HETATM   17  C25 UNL     1     128.087  33.100 -22.834  1.00  0.00     0.289 C 
HETATM   18  O2  UNL     1     128.904  32.338 -23.333  1.00  0.00    -0.300 OA
ENDBRANCH   7  17
ENDBRANCH   1   2
BRANCH   1  19
HETATM   19  C11 UNL     1     129.810  36.950 -26.040  1.00  0.00     0.036 C 
BRANCH  19  20
HETATM   20  C12 UNL     1     131.132  37.580 -26.001  1.00  0.00    -0.012 C 
HETATM   21  C13 UNL     1     132.190  36.907 -26.844  1.00  0.00     0.007 C 
HETATM   22  C14 UNL     1     133.337  37.927 -26.949  1.00  0.00     0.033 C 
HETATM   23  C15 UNL     1     133.854  38.222 -25.562  1.00  0.00     0.183 C 
HETATM   24  C16 UNL     1     133.155  37.427 -24.512  1.00  0.00     0.033 C 
HETATM   25  C17 UNL     1     131.669  37.489 -24.560  1.00  0.00     0.007 C 
BRANCH  23  26
HETATM   26  N1  UNL     1     133.873  39.634 -25.330  1.00  0.00    -0.075 N 
ATOM     27  H13 UNL     1     134.406  40.131 -26.044  1.00  0.00     0.274 HD
ATOM     28  H12 UNL     1     132.962  40.060 -25.500  1.00  0.00     0.274 HD
ATOM     29  H11 UNL     1     134.217  39.834 -24.391  1.00  0.00     0.274 HD
ENDBRANCH  23  26
ENDBRANCH  19  20
ENDBRANCH   1  19
BRANCH   1  30
HETATM   30  N2  UNL     1     128.081  38.506 -25.482  1.00  0.00    -0.365 N 
ATOM     31  H2  UNL     1     127.228  38.342 -26.016  1.00  0.00     0.162 HD
BRANCH  30  32
HETATM   32  C18 UNL     1     128.347  39.721 -25.287  1.00  0.00     0.118 A 
HETATM   33  C19 UNL     1     127.966  40.703 -26.216  1.00  0.00     0.076 A 
HETATM   34  C20 UNL     1     128.384  41.925 -25.746  1.00  0.00     0.033 A 
HETATM   35  N3  UNL     1     128.997  41.695 -24.576  1.00  0.00    -0.303 N 
HETATM   36  N4  UNL     1     128.968  40.393 -24.319  1.00  0.00    -0.286 N 
ATOM     37  H3  UNL     1     129.418  42.406 -23.979  1.00  0.00     0.186 HD
ATOM     38  H4  UNL     1     129.370  39.962 -23.486  1.00  0.00     0.188 HD
BRANCH  34  39
HETATM   39  C21 UNL     1     128.186  43.252 -26.423  1.00  0.00     0.037 A 
HETATM   40  C22 UNL     1     129.521  43.922 -26.854  1.00  0.00     0.011 A 
HETATM   41  C23 UNL     1     128.648  44.491 -25.773  1.00  0.00     0.011 A 
ENDBRANCH  34  39
ENDBRANCH  30  32
ENDBRANCH   1  30
TORSDOF 12
ENDMDL
MODEL 2
REMARK VINA RESULT: -8.153965000      1.763      2.099
REMARK  12 active torsions:
REMARK  status: ('A' for Active; 'I' for Inactive)
REMARK    1  A    between atoms: C2_2  and  O1_4 
REMARK    2  A    between atoms: C2_2  and  C4_6 
REMARK    3  A    between atoms: C4_6  and  C5_7 
REMARK    4  A    between atoms: C5_7  and  C6_8 
REMARK    5  A    between atoms: C9_12  and  C10_13 
REMARK    6  A    between atoms: C10_13  and  C11_14 
REMARK    7  A    between atoms: C10_13  and  N2_25 
REMARK    8  A    between atoms: C11_14  and  C12_15 
REMARK    9  A    between atoms: C15_18  and  N1_19 
REMARK   10  A    between atoms: N2_25  and  C18_27 
REMARK   11  A    between atoms: C20_29  and  C21_30 
REMARK   12  A    between atoms: C24_39  and  C25_40 
ROOT
HETATM    1  C10 UNL     1     129.473  37.566 -24.626  1.00  0.00     0.133 C 
ENDROOT
BRANCH   1   2
HETATM    2  C9  UNL     1     128.587  36.407 -24.389  1.00  0.00     0.035 A 
HETATM    3  C8  UNL     1     128.859  35.105 -24.630  1.00  0.00     0.071 A 
HETATM    4  C7  UNL     1     127.946  34.135 -24.329  1.00  0.00     0.139 A 
HETATM    5  C6  UNL     1     126.703  34.435 -23.764  1.00  0.00     0.086 A 
HETATM    6  F1  UNL     1     128.216  32.841 -24.567  1.00  0.00    -0.204 F 
HETATM    7  C24 UNL     1     126.448  35.768 -23.529  1.00  0.00     0.092 A 
HETATM    8  N5  UNL     1     127.373  36.715 -23.837  1.00  0.00    -0.354 N 
ATOM      9  H5  UNL     1     127.153  37.693 -23.649  1.00  0.00     0.166 HD
BRANCH   5  10
HETATM   10  C5  UNL     1     125.783  33.369 -23.469  1.00  0.00    -0.058 C 
BRANCH  10  11
HETATM   11  C4  UNL     1     125.013  32.490 -23.199  1.00  0.00    -0.063 C 
BRANCH  11  12
HETATM   12  C2  UNL     1     124.053  31.417 -22.845  1.00  0.00     0.114 C 
HETATM   13  C1  UNL     1     123.263  30.970 -24.053  1.00  0.00     0.060 C 
HETATM   14  C3  UNL     1     123.112  32.014 -21.823  1.00  0.00     0.060 C 
BRANCH  12  15
HETATM   15  O1  UNL     1     124.693  30.343 -22.250  1.00  0.00    -0.378 OA
ATOM     16  H1  UNL     1     125.324  30.641 -21.606  1.00  0.00     0.211 HD
ENDBRANCH  12  15
ENDBRANCH  11  12
ENDBRANCH  10  11
ENDBRANCH   5  10
BRANCH   7  17
HETATM   17  C25 UNL     1     125.172  36.154 -22.943  1.00  0.00     0.289 C 
HETATM   18  O2  UNL     1     125.013  36.249 -21.733  1.00  0.00    -0.300 OA
ENDBRANCH   7  17
ENDBRANCH   1   2
BRANCH   1  19
HETATM   19  C11 UNL     1     129.735  37.980 -26.002  1.00  0.00     0.036 C 
BRANCH  19  20
HETATM   20  C12 UNL     1     131.079  37.904 -26.577  1.00  0.00    -0.012 C 
HETATM   21  C13 UNL     1     131.533  36.517 -26.972  1.00  0.00     0.007 C 
HETATM   22  C14 UNL     1     132.761  36.730 -27.872  1.00  0.00     0.033 C 
HETATM   23  C15 UNL     1     133.829  37.446 -27.079  1.00  0.00     0.183 C 
HETATM   24  C16 UNL     1     133.417  37.697 -25.668  1.00  0.00     0.033 C 
HETATM   25  C17 UNL     1     132.091  38.352 -25.505  1.00  0.00     0.007 C 
BRANCH  23  26
HETATM   26  N1  UNL     1     134.278  38.606 -27.787  1.00  0.00    -0.075 N 
ATOM     27  H13 UNL     1     135.137  38.986 -27.390  1.00  0.00     0.274 HD
ATOM     28  H12 UNL     1     134.631  38.373 -28.715  1.00  0.00     0.274 HD
ATOM     29  H11 UNL     1     133.535  39.305 -27.826  1.00  0.00     0.274 HD
ENDBRANCH  23  26
ENDBRANCH  19  20
ENDBRANCH   1  19
BRANCH   1  30
HETATM   30  N2  UNL     1     129.031  38.656 -23.819  1.00  0.00    -0.365 N 
ATOM     31  H2  UNL     1     128.787  38.400 -22.863  1.00  0.00     0.162 HD
BRANCH  30  32
HETATM   32  C18 UNL     1     128.889  39.880 -24.081  1.00  0.00     0.118 A 
HETATM   33  C19 UNL     1     127.638  40.400 -24.453  1.00  0.00     0.076 A 
HETATM   34  C20 UNL     1     127.782  41.749 -24.676  1.00  0.00     0.033 A 
HETATM   35  N3  UNL     1     129.071  42.037 -24.449  1.00  0.00    -0.303 N 
HETATM   36  N4  UNL     1     129.711  40.928 -24.100  1.00  0.00    -0.286 N 
ATOM     37  H3  UNL     1     129.494  42.962 -24.531  1.00  0.00     0.186 HD
ATOM     38  H4  UNL     1     130.705  40.884 -23.875  1.00  0.00     0.188 HD
BRANCH  34  39
HETATM   39  C21 UNL     1     126.697  42.700 -25.094  1.00  0.00     0.037 A 
HETATM   40  C22 UNL     1     126.344  42.599 -26.604  1.00  0.00     0.011 A 
HETATM   41  C23 UNL     1     127.000  43.812 -26.011  1.00  0.00     0.011 A 
ENDBRANCH  34  39
ENDBRANCH  30  32
ENDBRANCH   1  30
TORSDOF 12
ENDMDL
MODEL 3
REMARK VINA RESULT: -8.150420333      1.500      4.442
REMARK  12 active torsions:
REMARK  status: ('A' for Active; 'I' for Inactive)
REMARK    1  A    between atoms: C2_2  and  O1_4 
REMARK    2  A    between atoms: C2_2  and  C4_6 
REMARK    3  A    between atoms: C4_6  and  C5_7 
REMARK    4  A    between atoms: C5_7  and  C6_8 
REMARK    5  A    between atoms: C9_12  and  C10_13 
REMARK    6  A    between atoms: C10_13  and  C11_14 
REMARK    7  A    between atoms: C10_13  and  N2_25 
REMARK    8  A    between atoms: C11_14  and  C12_15 
REMARK    9  A    between atoms: C15_18  and  N1_19 
REMARK   10  A    between atoms: N2_25  and  C18_27 
REMARK   11  A    between atoms: C20_29  and  C21_30 
REMARK   12  A    between atoms: C24_39  and  C25_40 
ROOT
HETATM    1  C10 UNL     1     128.825  37.268 -25.211  1.00  0.00     0.133 C 
ENDROOT
BRANCH   1   2
HETATM    2  C9  UNL     1     127.825  36.264 -24.788  1.00  0.00     0.035 A 
HETATM    3  C8  UNL     1     126.500  36.263 -25.060  1.00  0.00     0.071 A 
HETATM    4  C7  UNL     1     125.701  35.244 -24.624  1.00  0.00     0.139 A 
HETATM    5  C6  UNL     1     126.204  34.169 -23.886  1.00  0.00     0.086 A 
HETATM    6  F1  UNL     1     124.386  35.241 -24.895  1.00  0.00    -0.204 F 
HETATM    7  C24 UNL     1     127.556  34.194 -23.621  1.00  0.00     0.092 A 
HETATM    8  N5  UNL     1     128.331  35.218 -24.065  1.00  0.00    -0.354 N 
ATOM      9  H5  UNL     1     129.328  35.205 -23.852  1.00  0.00     0.166 HD
BRANCH   5  10
HETATM   10  C5  UNL     1     125.312  33.126 -23.455  1.00  0.00    -0.058 C 
BRANCH  10  11
HETATM   11  C4  UNL     1     124.548  32.271 -23.106  1.00  0.00    -0.063 C 
BRANCH  11  12
HETATM   12  C2  UNL     1     123.596  31.210 -22.697  1.00  0.00     0.114 C 
HETATM   13  C1  UNL     1     122.641  30.870 -23.818  1.00  0.00     0.060 C 
HETATM   14  C3  UNL     1     122.817  31.771 -21.528  1.00  0.00     0.060 C 
BRANCH  12  15
HETATM   15  O1  UNL     1     124.260  30.078 -22.256  1.00  0.00    -0.378 OA
ATOM     16  H1  UNL     1     125.032  29.912 -22.784  1.00  0.00     0.211 HD
ENDBRANCH  12  15
ENDBRANCH  11  12
ENDBRANCH  10  11
ENDBRANCH   5  10
BRANCH   7  17
HETATM   17  C25 UNL     1     128.148  33.106 -22.855  1.00  0.00     0.289 C 
HETATM   18  O2  UNL     1     129.091  32.451 -23.278  1.00  0.00    -0.300 OA
ENDBRANCH   7  17
ENDBRANCH   1   2
BRANCH   1  19
HETATM   19  C11 UNL     1     128.394  38.649 -25.409  1.00  0.00     0.036 C 
BRANCH  19  20
HETATM   20  C12 UNL     1     128.198  39.556 -24.276  1.00  0.00    -0.012 C 
HETATM   21  C13 UNL     1     126.757  39.881 -23.954  1.00  0.00     0.007 C 
HETATM   22  C14 UNL     1     126.785  40.507 -22.549  1.00  0.00     0.033 C 
HETATM   23  C15 UNL     1     127.629  41.758 -22.589  1.00  0.00     0.183 C 
HETATM   24  C16 UNL     1     128.147  42.052 -23.957  1.00  0.00     0.033 C 
HETATM   25  C17 UNL     1     128.833  40.915 -24.629  1.00  0.00     0.007 C 
BRANCH  23  26
HETATM   26  N1  UNL     1     128.629  41.714 -21.567  1.00  0.00    -0.075 N 
ATOM     27  H13 UNL     1     128.425  41.003 -20.865  1.00  0.00     0.274 HD
ATOM     28  H12 UNL     1     129.511  41.336 -21.912  1.00  0.00     0.274 HD
ATOM     29  H11 UNL     1     128.748  42.637 -21.149  1.00  0.00     0.274 HD
ENDBRANCH  23  26
ENDBRANCH  19  20
ENDBRANCH   1  19
BRANCH   1  30
HETATM   30  N2  UNL     1     129.956  37.183 -24.345  1.00  0.00    -0.365 N 
ATOM     31  H2  UNL     1     129.739  36.873 -23.398  1.00  0.00     0.162 HD
BRANCH  30  32
HETATM   32  C18 UNL     1     131.175  37.424 -24.546  1.00  0.00     0.118 A 
HETATM   33  C19 UNL     1     131.775  37.136 -25.784  1.00  0.00     0.076 A 
HETATM   34  C20 UNL     1     133.099  37.499 -25.715  1.00  0.00     0.033 A 
HETATM   35  N3  UNL     1     133.297  37.988 -24.483  1.00  0.00    -0.303 N 
HETATM   36  N4  UNL     1     132.156  37.938 -23.806  1.00  0.00    -0.286 N 
ATOM     37  H3  UNL     1     134.182  38.343 -24.123  1.00  0.00     0.186 HD
ATOM     38  H4  UNL     1     132.045  38.252 -22.842  1.00  0.00     0.188 HD
BRANCH  34  39
HETATM   39  C21 UNL     1     134.114  37.366 -26.815  1.00  0.00     0.037 A 
HETATM   40  C22 UNL     1     134.192  38.622 -27.727  1.00  0.00     0.011 A 
HETATM   41  C23 UNL     1     133.679  37.300 -28.220  1.00  0.00     0.011 A 
ENDBRANCH  34  39
ENDBRANCH  30  32
ENDBRANCH   1  30
TORSDOF 12
ENDMDL
MODEL 4
REMARK VINA RESULT: -8.073899716      1.271      1.414
REMARK  12 active torsions:
REMARK  status: ('A' for Active; 'I' for Inactive)
REMARK    1  A    between atoms: C2_2  and  O1_4 
REMARK    2  A    between atoms: C2_2  and  C4_6 
REMARK    3  A    between atoms: C4_6  and  C5_7 
REMARK    4  A    between atoms: C5_7  and  C6_8 
REMARK    5  A    between atoms: C9_12  and  C10_13 
REMARK    6  A    between atoms: C10_13  and  C11_14 
REMARK    7  A    between atoms: C10_13  and  N2_25 
REMARK    8  A    between atoms: C11_14  and  C12_15 
REMARK    9  A    between atoms: C15_18  and  N1_19 
REMARK   10  A    between atoms: N2_25  and  C18_27 
REMARK   11  A    between atoms: C20_29  and  C21_30 
REMARK   12  A    between atoms: C24_39  and  C25_40 
ROOT
HETATM    1  C10 UNL     1     129.457  37.584 -24.622  1.00  0.00     0.133 C 
ENDROOT
BRANCH   1   2
HETATM    2  C9  UNL     1     128.443  36.571 -24.260  1.00  0.00     0.035 A 
HETATM    3  C8  UNL     1     127.171  36.792 -23.859  1.00  0.00     0.071 A 
HETATM    4  C7  UNL     1     126.335  35.746 -23.587  1.00  0.00     0.139 A 
HETATM    5  C6  UNL     1     126.747  34.416 -23.706  1.00  0.00     0.086 A 
HETATM    6  F1  UNL     1     125.071  35.964 -23.190  1.00  0.00    -0.204 F 
HETATM    7  C24 UNL     1     128.047  34.217 -24.115  1.00  0.00     0.092 A 
HETATM    8  N5  UNL     1     128.860  35.272 -24.381  1.00  0.00    -0.354 N 
ATOM      9  H5  UNL     1     129.817  35.090 -24.682  1.00  0.00     0.166 HD
BRANCH   5  10
HETATM   10  C5  UNL     1     125.820  33.357 -23.405  1.00  0.00    -0.058 C 
BRANCH  10  11
HETATM   11  C4  UNL     1     125.032  32.493 -23.141  1.00  0.00    -0.063 C 
BRANCH  11  12
HETATM   12  C2  UNL     1     124.052  31.436 -22.796  1.00  0.00     0.114 C 
HETATM   13  C1  UNL     1     123.225  31.042 -23.998  1.00  0.00     0.060 C 
HETATM   14  C3  UNL     1     123.147  32.031 -21.739  1.00  0.00     0.060 C 
BRANCH  12  15
HETATM   15  O1  UNL     1     124.674  30.330 -22.243  1.00  0.00    -0.378 OA
ATOM     16  H1  UNL     1     125.575  30.268 -22.536  1.00  0.00     0.211 HD
ENDBRANCH  12  15
ENDBRANCH  11  12
ENDBRANCH  10  11
ENDBRANCH   5  10
BRANCH   7  17
HETATM   17  C25 UNL     1     128.544  32.855 -24.260  1.00  0.00     0.289 C 
HETATM   18  O2  UNL     1     129.204  32.307 -23.387  1.00  0.00    -0.300 OA
ENDBRANCH   7  17
ENDBRANCH   1   2
BRANCH   1  19
HETATM   19  C11 UNL     1     129.694  37.868 -26.034  1.00  0.00     0.036 C 
BRANCH  19  20
HETATM   20  C12 UNL     1     131.035  37.773 -26.616  1.00  0.00    -0.012 C 
HETATM   21  C13 UNL     1     131.460  36.382 -27.029  1.00  0.00     0.007 C 
HETATM   22  C14 UNL     1     132.689  36.583 -27.931  1.00  0.00     0.033 C 
HETATM   23  C15 UNL     1     133.773  37.268 -27.134  1.00  0.00     0.183 C 
HETATM   24  C16 UNL     1     133.371  37.509 -25.718  1.00  0.00     0.033 C 
HETATM   25  C17 UNL     1     132.059  38.187 -25.541  1.00  0.00     0.007 C 
BRANCH  23  26
HETATM   26  N1  UNL     1     134.241  38.428 -27.829  1.00  0.00    -0.075 N 
ATOM     27  H13 UNL     1     135.074  38.824 -27.392  1.00  0.00     0.274 HD
ATOM     28  H12 UNL     1     134.645  38.192 -28.735  1.00  0.00     0.274 HD
ATOM     29  H11 UNL     1     133.493  39.116 -27.913  1.00  0.00     0.274 HD
ENDBRANCH  23  26
ENDBRANCH  19  20
ENDBRANCH   1  19
BRANCH   1  30
HETATM   30  N2  UNL     1     129.204  38.774 -23.876  1.00  0.00    -0.365 N 
ATOM     31  H2  UNL     1     129.147  38.635 -22.867  1.00  0.00     0.162 HD
BRANCH  30  32
HETATM   32  C18 UNL     1     129.040  39.966 -24.246  1.00  0.00     0.118 A 
HETATM   33  C19 UNL     1     127.752  40.491 -24.445  1.00  0.00     0.076 A 
HETATM   34  C20 UNL     1     127.877  41.801 -24.842  1.00  0.00     0.033 A 
HETATM   35  N3  UNL     1     129.192  42.063 -24.884  1.00  0.00    -0.303 N 
HETATM   36  N4  UNL     1     129.864  40.974 -24.531  1.00  0.00    -0.286 N 
ATOM     37  H3  UNL     1     129.609  42.956 -25.145  1.00  0.00     0.186 HD
ATOM     38  H4  UNL     1     130.881  40.916 -24.484  1.00  0.00     0.188 HD
BRANCH  34  39
HETATM   39  C21 UNL     1     126.752  42.743 -25.164  1.00  0.00     0.037 A 
HETATM   40  C22 UNL     1     126.242  42.607 -26.626  1.00  0.00     0.011 A 
HETATM   41  C23 UNL     1     126.954  43.834 -26.133  1.00  0.00     0.011 A 
ENDBRANCH  34  39
ENDBRANCH  30  32
ENDBRANCH   1  30
TORSDOF 12
ENDMDL
MODEL 5
REMARK VINA RESULT: -7.974618943      1.117      1.356
REMARK  12 active torsions:
REMARK  status: ('A' for Active; 'I' for Inactive)
REMARK    1  A    between atoms: C2_2  and  O1_4 
REMARK    2  A    between atoms: C2_2  and  C4_6 
REMARK    3  A    between atoms: C4_6  and  C5_7 
REMARK    4  A    between atoms: C5_7  and  C6_8 
REMARK    5  A    between atoms: C9_12  and  C10_13 
REMARK    6  A    between atoms: C10_13  and  C11_14 
REMARK    7  A    between atoms: C10_13  and  N2_25 
REMARK    8  A    between atoms: C11_14  and  C12_15 
REMARK    9  A    between atoms: C15_18  and  N1_19 
REMARK   10  A    between atoms: N2_25  and  C18_27 
REMARK   11  A    between atoms: C20_29  and  C21_30 
REMARK   12  A    between atoms: C24_39  and  C25_40 
ROOT
HETATM    1  C10 UNL     1     128.715  37.254 -25.165  1.00  0.00     0.133 C 
ENDROOT
BRANCH   1   2
HETATM    2  C9  UNL     1     127.722  36.242 -24.748  1.00  0.00     0.035 A 
HETATM    3  C8  UNL     1     126.397  36.233 -25.017  1.00  0.00     0.071 A 
HETATM    4  C7  UNL     1     125.605  35.207 -24.587  1.00  0.00     0.139 A 
HETATM    5  C6  UNL     1     126.117  34.129 -23.858  1.00  0.00     0.086 A 
HETATM    6  F1  UNL     1     124.290  35.197 -24.855  1.00  0.00    -0.204 F 
HETATM    7  C24 UNL     1     127.469  34.161 -23.596  1.00  0.00     0.092 A 
HETATM    8  N5  UNL     1     128.237  35.193 -24.034  1.00  0.00    -0.354 N 
ATOM      9  H5  UNL     1     129.234  35.185 -23.823  1.00  0.00     0.166 HD
BRANCH   5  10
HETATM   10  C5  UNL     1     125.232  33.077 -23.433  1.00  0.00    -0.058 C 
BRANCH  10  11
HETATM   11  C4  UNL     1     124.474  32.217 -23.082  1.00  0.00    -0.063 C 
BRANCH  11  12
HETATM   12  C2  UNL     1     123.525  31.157 -22.668  1.00  0.00     0.114 C 
HETATM   13  C1  UNL     1     122.546  30.837 -23.775  1.00  0.00     0.060 C 
HETATM   14  C3  UNL     1     122.772  31.708 -21.477  1.00  0.00     0.060 C 
BRANCH  12  15
HETATM   15  O1  UNL     1     124.189  30.015 -22.255  1.00  0.00    -0.378 OA
ATOM     16  H1  UNL     1     124.525  29.532 -23.000  1.00  0.00     0.211 HD
ENDBRANCH  12  15
ENDBRANCH  11  12
ENDBRANCH  10  11
ENDBRANCH   5  10
BRANCH   7  17
HETATM   17  C25 UNL     1     128.070  33.071 -22.840  1.00  0.00     0.289 C 
HETATM   18  O2  UNL     1     128.888  32.307 -23.337  1.00  0.00    -0.300 OA
ENDBRANCH   7  17
ENDBRANCH   1   2
BRANCH   1  19
HETATM   19  C11 UNL     1     129.824  36.841 -26.020  1.00  0.00     0.036 C 
BRANCH  19  20
HETATM   20  C12 UNL     1     131.120  37.521 -25.969  1.00  0.00    -0.012 C 
HETATM   21  C13 UNL     1     132.215  36.882 -26.791  1.00  0.00     0.007 C 
HETATM   22  C14 UNL     1     133.323  37.945 -26.889  1.00  0.00     0.033 C 
HETATM   23  C15 UNL     1     133.810  38.271 -25.498  1.00  0.00     0.183 C 
HETATM   24  C16 UNL     1     133.126  37.459 -24.451  1.00  0.00     0.033 C 
HETATM   25  C17 UNL     1     131.640  37.463 -24.519  1.00  0.00     0.007 C 
BRANCH  23  26
HETATM   26  N1  UNL     1     133.771  39.685 -25.279  1.00  0.00    -0.075 N 
ATOM     27  H13 UNL     1     133.561  39.914 -24.307  1.00  0.00     0.274 HD
ATOM     28  H12 UNL     1     134.698  40.105 -25.336  1.00  0.00     0.274 HD
ATOM     29  H11 UNL     1     133.113  40.124 -25.924  1.00  0.00     0.274 HD
ENDBRANCH  23  26
ENDBRANCH  19  20
ENDBRANCH   1  19
BRANCH   1  30
HETATM   30  N2  UNL     1     128.024  38.382 -25.699  1.00  0.00    -0.365 N 
ATOM     31  H2  UNL     1     127.325  38.152 -26.405  1.00  0.00     0.162 HD
BRANCH  30  32
HETATM   32  C18 UNL     1     128.127  39.613 -25.452  1.00  0.00     0.118 A 
HETATM   33  C19 UNL     1     128.046  40.096 -24.135  1.00  0.00     0.076 A 
HETATM   34  C20 UNL     1     128.190  41.462 -24.168  1.00  0.00     0.033 A 
HETATM   35  N3  UNL     1     128.352  41.798 -25.456  1.00  0.00    -0.303 N 
HETATM   36  N4  UNL     1     128.312  40.699 -26.201  1.00  0.00    -0.286 N 
ATOM     37  H3  UNL     1     128.484  42.745 -25.808  1.00  0.00     0.186 HD
ATOM     38  H4  UNL     1     128.410  40.689 -27.216  1.00  0.00     0.188 HD
BRANCH  34  39
HETATM   39  C21 UNL     1     128.168  42.386 -22.983  1.00  0.00     0.037 A 
HETATM   40  C22 UNL     1     126.736  42.856 -22.603  1.00  0.00     0.011 A 
HETATM   41  C23 UNL     1     127.772  43.795 -23.151  1.00  0.00     0.011 A 
ENDBRANCH  34  39
ENDBRANCH  30  32
ENDBRANCH   1  30
TORSDOF 12
ENDMDL
