MODEL 1
REMARK VINA RESULT: -9.082193391      0.000      0.000
REMARK  9 active torsions:
REMARK  status: ('A' for Active; 'I' for Inactive)
REMARK    1  A    between atoms: N1_7  and  C7_8 
REMARK    2  A    between atoms: N2_11  and  C10_12 
REMARK    3  A    between atoms: C11_15  and  N4_16 
REMARK    4  A    between atoms: N4_16  and  C12_18 
REMARK    5  A    between atoms: C14_20  and  C15_21 
REMARK    6  A    between atoms: C19_29  and  N7_30 
REMARK    7  A    between atoms: N7_30  and  C20_32 
REMARK    8  A    between atoms: C20_32  and  C21_33 
REMARK    9  A    between atoms: C21_33  and  C22_34 
ROOT
HETATM    1  C10 UNL     1     -89.653 -12.026  10.895  1.00  0.00     0.683 A 
HETATM    2  N3  UNL     1     -88.969 -12.380   9.812  1.00  0.00    -0.176 N 
ATOM      3  H3  UNL     1     -87.966 -12.196   9.793  1.00  0.00     0.186 HD
HETATM    4  C11 UNL     1     -89.529 -12.968   8.741  1.00  0.00     0.126 A 
HETATM    5  C18 UNL     1     -90.890 -13.204   8.805  1.00  0.00     0.097 A 
HETATM    6  C19 UNL     1     -91.625 -12.849   9.912  1.00  0.00     0.120 A 
HETATM    7  N8  UNL     1     -90.966 -12.256  10.951  1.00  0.00    -0.177 N 
ATOM      8  H8  UNL     1     -91.487 -11.985  11.785  1.00  0.00     0.185 HD
ENDROOT
BRANCH   1   9
HETATM    9  N2  UNL     1     -88.962 -11.393  11.980  1.00  0.00    -0.217 N 
HETATM   10  C9  UNL     1     -89.215 -11.899  13.303  1.00  0.00     0.143 C 
HETATM   11  C8  UNL     1     -87.905 -11.972  14.048  1.00  0.00     0.047 C 
HETATM   12  C7  UNL     1     -87.260 -10.580  14.105  1.00  0.00     0.106 C 
HETATM   13  C24 UNL     1     -86.964 -10.097  12.708  1.00  0.00     0.047 C 
HETATM   14  C23 UNL     1     -88.090 -10.284  11.767  1.00  0.00     0.143 C 
BRANCH  12  15
HETATM   15  N1  UNL     1     -86.183 -10.569  14.927  1.00  0.00    -0.313 N 
HETATM   16  C6  UNL     1     -85.932 -11.815  15.724  1.00  0.00     0.222 C 
HETATM   17  C5  UNL     1     -84.936 -11.444  16.660  1.00  0.00    -0.162 C 
HETATM   18  C4  UNL     1     -83.906 -10.970  17.484  1.00  0.00     0.087 C 
HETATM   19  C3  UNL     1     -83.726  -9.449  17.146  1.00  0.00     0.065 C 
HETATM   20  C2  UNL     1     -84.447  -9.061  15.868  1.00  0.00     0.000 C 
HETATM   21  C1  UNL     1     -83.459  -8.920  14.695  1.00  0.00     0.065 C 
HETATM   22  N9  UNL     1     -85.686  -9.461  15.496  1.00  0.00    -0.310 N 
ATOM     23  H9  UNL     1     -86.402  -8.762  15.694  1.00  0.00     0.186 HD
ENDBRANCH  12  15
ENDBRANCH   1   9
BRANCH   4  24
HETATM   24  N4  UNL     1     -88.805 -13.351   7.593  1.00  0.00    -0.327 N 
ATOM     25  H4  UNL     1     -88.863 -14.327   7.303  1.00  0.00     0.169 HD
BRANCH  24  26
HETATM   26  C12 UNL     1     -88.082 -12.567   6.890  1.00  0.00     0.123 A 
HETATM   27  C13 UNL     1     -86.736 -12.377   7.052  1.00  0.00     0.076 A 
HETATM   28  C14 UNL     1     -86.290 -11.465   6.123  1.00  0.00     0.033 A 
HETATM   29  N5  UNL     1     -87.380 -11.121   5.417  1.00  0.00    -0.303 N 
HETATM   30  N6  UNL     1     -88.436 -11.773   5.871  1.00  0.00    -0.285 N 
ATOM     31  H5  UNL     1     -87.390 -10.455   4.645  1.00  0.00     0.186 HD
ATOM     32  H6  UNL     1     -89.383 -11.683   5.500  1.00  0.00     0.188 HD
BRANCH  28  33
HETATM   33  C15 UNL     1     -84.886 -10.968   5.937  1.00  0.00     0.037 A 
HETATM   34  C16 UNL     1     -84.059 -11.677   4.876  1.00  0.00     0.011 A 
HETATM   35  C17 UNL     1     -83.750 -11.814   6.339  1.00  0.00     0.011 A 
ENDBRANCH  28  33
ENDBRANCH  24  26
ENDBRANCH   4  24
BRANCH   6  36
HETATM   36  N7  UNL     1     -92.890 -13.048  10.007  1.00  0.00    -0.376 N 
ATOM     37  H7  UNL     1     -93.494 -12.781   9.229  1.00  0.00     0.161 HD
BRANCH  36  38
HETATM   38  C20 UNL     1     -93.485 -13.639  11.187  1.00  0.00     0.130 C 
BRANCH  38  39
HETATM   39  C21 UNL     1     -93.960 -15.050  10.875  1.00  0.00     0.137 C 
BRANCH  39  40
HETATM   40  C22 UNL     1     -92.932 -16.056  11.367  1.00  0.00     0.389 C 
HETATM   41  F1  UNL     1     -92.124 -15.420  12.316  1.00  0.00    -0.171 F 
HETATM   42  F2  UNL     1     -93.562 -17.130  11.937  1.00  0.00    -0.171 F 
HETATM   43  F3  UNL     1     -92.155 -16.434  10.286  1.00  0.00    -0.171 F 
ENDBRANCH  39  40
ENDBRANCH  38  39
ENDBRANCH  36  38
ENDBRANCH   6  36
TORSDOF 9
ENDMDL
MODEL 2
REMARK VINA RESULT: -8.970549042      2.415      7.541
REMARK  9 active torsions:
REMARK  status: ('A' for Active; 'I' for Inactive)
REMARK    1  A    between atoms: N1_7  and  C7_8 
REMARK    2  A    between atoms: N2_11  and  C10_12 
REMARK    3  A    between atoms: C11_15  and  N4_16 
REMARK    4  A    between atoms: N4_16  and  C12_18 
REMARK    5  A    between atoms: C14_20  and  C15_21 
REMARK    6  A    between atoms: C19_29  and  N7_30 
REMARK    7  A    between atoms: N7_30  and  C20_32 
REMARK    8  A    between atoms: C20_32  and  C21_33 
REMARK    9  A    between atoms: C21_33  and  C22_34 
ROOT
HETATM    1  C10 UNL     1     -88.405 -12.484   9.544  1.00  0.00     0.683 A 
HETATM    2  N3  UNL     1     -88.812 -11.807  10.612  1.00  0.00    -0.176 N 
ATOM      3  H3  UNL     1     -88.374 -10.907  10.809  1.00  0.00     0.186 HD
HETATM    4  C11 UNL     1     -89.771 -12.245  11.447  1.00  0.00     0.126 A 
HETATM    5  C18 UNL     1     -90.342 -13.468  11.145  1.00  0.00     0.097 A 
HETATM    6  C19 UNL     1     -89.942 -14.192  10.047  1.00  0.00     0.120 A 
HETATM    7  N8  UNL     1     -88.960 -13.663   9.258  1.00  0.00    -0.177 N 
ATOM      8  H8  UNL     1     -88.646 -14.179   8.436  1.00  0.00     0.185 HD
ENDROOT
BRANCH   1   9
HETATM    9  N2  UNL     1     -87.366 -11.933   8.724  1.00  0.00    -0.217 N 
HETATM   10  C9  UNL     1     -86.161 -11.511   9.389  1.00  0.00     0.143 C 
HETATM   11  C8  UNL     1     -84.978 -11.948   8.561  1.00  0.00     0.047 C 
HETATM   12  C7  UNL     1     -85.072 -11.341   7.154  1.00  0.00     0.106 C 
HETATM   13  C24 UNL     1     -86.318 -11.838   6.467  1.00  0.00     0.047 C 
HETATM   14  C23 UNL     1     -87.529 -11.772   7.316  1.00  0.00     0.143 C 
BRANCH  12  15
HETATM   15  N1  UNL     1     -83.936 -11.553   6.447  1.00  0.00    -0.313 N 
HETATM   16  C6  UNL     1     -84.078 -11.635   4.956  1.00  0.00     0.222 C 
HETATM   17  C5  UNL     1     -82.821 -12.109   4.505  1.00  0.00    -0.162 C 
HETATM   18  C4  UNL     1     -81.518 -12.514   4.186  1.00  0.00     0.087 C 
HETATM   19  C3  UNL     1     -80.769 -12.723   5.548  1.00  0.00     0.065 C 
HETATM   20  C2  UNL     1     -81.536 -12.131   6.716  1.00  0.00     0.000 C 
HETATM   21  C1  UNL     1     -80.919 -10.791   7.162  1.00  0.00     0.065 C 
HETATM   22  N9  UNL     1     -82.871 -12.215   6.921  1.00  0.00    -0.310 N 
ATOM     23  H9  UNL     1     -83.123 -12.947   7.585  1.00  0.00     0.186 HD
ENDBRANCH  12  15
ENDBRANCH   1   9
BRANCH   4  24
HETATM   24  N4  UNL     1     -90.210 -11.526  12.577  1.00  0.00    -0.327 N 
ATOM     25  H4  UNL     1     -91.114 -11.058  12.516  1.00  0.00     0.169 HD
BRANCH  24  26
HETATM   26  C12 UNL     1     -89.560 -11.417  13.671  1.00  0.00     0.123 A 
HETATM   27  C13 UNL     1     -89.447 -12.395  14.622  1.00  0.00     0.076 A 
HETATM   28  C14 UNL     1     -88.676 -11.930  15.664  1.00  0.00     0.033 A 
HETATM   29  N5  UNL     1     -88.340 -10.676  15.319  1.00  0.00    -0.303 N 
HETATM   30  N6  UNL     1     -88.862 -10.375  14.142  1.00  0.00    -0.285 N 
ATOM     31  H5  UNL     1     -87.766 -10.048  15.882  1.00  0.00     0.186 HD
ATOM     32  H6  UNL     1     -88.750  -9.481  13.664  1.00  0.00     0.188 HD
BRANCH  28  33
HETATM   33  C15 UNL     1     -88.292 -12.669  16.913  1.00  0.00     0.037 A 
HETATM   34  C16 UNL     1     -86.819 -13.018  17.059  1.00  0.00     0.011 A 
HETATM   35  C17 UNL     1     -87.861 -14.075  16.828  1.00  0.00     0.011 A 
ENDBRANCH  28  33
ENDBRANCH  24  26
ENDBRANCH   4  24
BRANCH   6  36
HETATM   36  N7  UNL     1     -90.446 -15.332   9.736  1.00  0.00    -0.376 N 
ATOM     37  H7  UNL     1     -89.877 -16.172   9.848  1.00  0.00     0.161 HD
BRANCH  36  38
HETATM   38  C20 UNL     1     -91.797 -15.460   9.232  1.00  0.00     0.130 C 
BRANCH  38  39
HETATM   39  C21 UNL     1     -92.582 -16.431  10.100  1.00  0.00     0.137 C 
BRANCH  39  40
HETATM   40  C22 UNL     1     -93.281 -15.669  11.215  1.00  0.00     0.389 C 
HETATM   41  F1  UNL     1     -93.547 -14.375  10.754  1.00  0.00    -0.171 F 
HETATM   42  F2  UNL     1     -94.454 -16.295  11.546  1.00  0.00    -0.171 F 
HETATM   43  F3  UNL     1     -92.416 -15.602  12.293  1.00  0.00    -0.171 F 
ENDBRANCH  39  40
ENDBRANCH  38  39
ENDBRANCH  36  38
ENDBRANCH   6  36
TORSDOF 9
ENDMDL
MODEL 3
REMARK VINA RESULT: -8.944853787      2.319      6.960
REMARK  9 active torsions:
REMARK  status: ('A' for Active; 'I' for Inactive)
REMARK    1  A    between atoms: N1_7  and  C7_8 
REMARK    2  A    between atoms: N2_11  and  C10_12 
REMARK    3  A    between atoms: C11_15  and  N4_16 
REMARK    4  A    between atoms: N4_16  and  C12_18 
REMARK    5  A    between atoms: C14_20  and  C15_21 
REMARK    6  A    between atoms: C19_29  and  N7_30 
REMARK    7  A    between atoms: N7_30  and  C20_32 
REMARK    8  A    between atoms: C20_32  and  C21_33 
REMARK    9  A    between atoms: C21_33  and  C22_34 
ROOT
HETATM    1  C10 UNL     1     -88.439 -13.006   9.090  1.00  0.00     0.683 A 
HETATM    2  N3  UNL     1     -88.798 -12.231  10.108  1.00  0.00    -0.176 N 
ATOM      3  H3  UNL     1     -88.113 -11.574  10.480  1.00  0.00     0.186 HD
HETATM    4  C11 UNL     1     -90.017 -12.267  10.673  1.00  0.00     0.126 A 
HETATM    5  C18 UNL     1     -90.920 -13.169  10.140  1.00  0.00     0.097 A 
HETATM    6  C19 UNL     1     -90.578 -13.984   9.087  1.00  0.00     0.120 A 
HETATM    7  N8  UNL     1     -89.315 -13.874   8.580  1.00  0.00    -0.177 N 
ATOM      8  H8  UNL     1     -89.036 -14.466   7.798  1.00  0.00     0.185 HD
ENDROOT
BRANCH   1   9
HETATM    9  N2  UNL     1     -87.108 -12.898   8.568  1.00  0.00    -0.217 N 
HETATM   10  C9  UNL     1     -86.953 -12.228   7.303  1.00  0.00     0.143 C 
HETATM   11  C8  UNL     1     -85.742 -11.332   7.381  1.00  0.00     0.047 C 
HETATM   12  C7  UNL     1     -84.497 -12.164   7.719  1.00  0.00     0.106 C 
HETATM   13  C24 UNL     1     -84.670 -12.815   9.068  1.00  0.00     0.047 C 
HETATM   14  C23 UNL     1     -85.988 -13.463   9.248  1.00  0.00     0.143 C 
BRANCH  12  15
HETATM   15  N1  UNL     1     -83.366 -11.428   7.608  1.00  0.00    -0.313 N 
HETATM   16  C6  UNL     1     -83.084 -10.457   8.717  1.00  0.00     0.222 C 
HETATM   17  C5  UNL     1     -82.018  -9.661   8.230  1.00  0.00    -0.162 C 
HETATM   18  C4  UNL     1     -80.923  -8.995   7.662  1.00  0.00     0.087 C 
HETATM   19  C3  UNL     1     -80.737  -9.589   6.222  1.00  0.00     0.065 C 
HETATM   20  C2  UNL     1     -81.539 -10.863   6.024  1.00  0.00     0.000 C 
HETATM   21  C1  UNL     1     -80.632 -12.106   6.105  1.00  0.00     0.065 C 
HETATM   22  N9  UNL     1     -82.808 -11.081   6.439  1.00  0.00    -0.310 N 
ATOM     23  H9  UNL     1     -83.495 -10.954   5.696  1.00  0.00     0.186 HD
ENDBRANCH  12  15
ENDBRANCH   1   9
BRANCH   4  24
HETATM   24  N4  UNL     1     -90.404 -11.441  11.748  1.00  0.00    -0.327 N 
ATOM     25  H4  UNL     1     -91.311 -10.978  11.685  1.00  0.00     0.169 HD
BRANCH  24  26
HETATM   26  C12 UNL     1     -89.703 -11.229  12.794  1.00  0.00     0.123 A 
HETATM   27  C13 UNL     1     -89.156 -12.200  13.588  1.00  0.00     0.076 A 
HETATM   28  C14 UNL     1     -88.468 -11.608  14.624  1.00  0.00     0.033 A 
HETATM   29  N5  UNL     1     -88.615 -10.287  14.433  1.00  0.00    -0.303 N 
HETATM   30  N6  UNL     1     -89.344 -10.064  13.352  1.00  0.00    -0.285 N 
ATOM     31  H5  UNL     1     -88.222  -9.561  15.033  1.00  0.00     0.186 HD
ATOM     32  H6  UNL     1     -89.596  -9.142  12.996  1.00  0.00     0.188 HD
BRANCH  28  33
HETATM   33  C15 UNL     1     -87.712 -12.294  15.724  1.00  0.00     0.037 A 
HETATM   34  C16 UNL     1     -88.516 -12.660  16.963  1.00  0.00     0.011 A 
HETATM   35  C17 UNL     1     -87.463 -11.589  16.993  1.00  0.00     0.011 A 
ENDBRANCH  28  33
ENDBRANCH  24  26
ENDBRANCH   4  24
BRANCH   6  36
HETATM   36  N7  UNL     1     -91.387 -14.836   8.567  1.00  0.00    -0.376 N 
ATOM     37  H7  UNL     1     -92.052 -14.521   7.861  1.00  0.00     0.161 HD
BRANCH  36  38
HETATM   38  C20 UNL     1     -91.382 -16.231   8.954  1.00  0.00     0.130 C 
BRANCH  38  39
HETATM   39  C21 UNL     1     -92.760 -16.635   9.452  1.00  0.00     0.137 C 
BRANCH  39  40
HETATM   40  C22 UNL     1     -92.953 -16.142  10.878  1.00  0.00     0.389 C 
HETATM   41  F1  UNL     1     -93.689 -17.107  11.574  1.00  0.00    -0.171 F 
HETATM   42  F2  UNL     1     -91.736 -15.961  11.480  1.00  0.00    -0.171 F 
HETATM   43  F3  UNL     1     -93.678 -14.964  10.827  1.00  0.00    -0.171 F 
ENDBRANCH  39  40
ENDBRANCH  38  39
ENDBRANCH  36  38
ENDBRANCH   6  36
TORSDOF 9
ENDMDL
MODEL 4
REMARK VINA RESULT: -8.928876684      1.314      1.592
REMARK  9 active torsions:
REMARK  status: ('A' for Active; 'I' for Inactive)
REMARK    1  A    between atoms: N1_7  and  C7_8 
REMARK    2  A    between atoms: N2_11  and  C10_12 
REMARK    3  A    between atoms: C11_15  and  N4_16 
REMARK    4  A    between atoms: N4_16  and  C12_18 
REMARK    5  A    between atoms: C14_20  and  C15_21 
REMARK    6  A    between atoms: C19_29  and  N7_30 
REMARK    7  A    between atoms: N7_30  and  C20_32 
REMARK    8  A    between atoms: C20_32  and  C21_33 
REMARK    9  A    between atoms: C21_33  and  C22_34 
ROOT
HETATM    1  C10 UNL     1     -89.016 -12.933  10.623  1.00  0.00     0.683 A 
HETATM    2  N3  UNL     1     -88.779 -12.420   9.421  1.00  0.00    -0.176 N 
ATOM      3  H3  UNL     1     -88.292 -11.526   9.364  1.00  0.00     0.186 HD
HETATM    4  C11 UNL     1     -89.146 -13.018   8.274  1.00  0.00     0.126 A 
HETATM    5  C18 UNL     1     -89.802 -14.231   8.391  1.00  0.00     0.097 A 
HETATM    6  C19 UNL     1     -90.061 -14.786   9.622  1.00  0.00     0.120 A 
HETATM    7  N8  UNL     1     -89.648 -14.103  10.730  1.00  0.00    -0.177 N 
ATOM      8  H8  UNL     1     -89.827 -14.494  11.655  1.00  0.00     0.185 HD
ENDROOT
BRANCH   1   9
HETATM    9  N2  UNL     1     -88.592 -12.208  11.786  1.00  0.00    -0.217 N 
HETATM   10  C9  UNL     1     -88.593 -12.918  13.038  1.00  0.00     0.143 C 
HETATM   11  C8  UNL     1     -87.337 -12.562  13.793  1.00  0.00     0.047 C 
HETATM   12  C7  UNL     1     -87.277 -11.045  14.020  1.00  0.00     0.106 C 
HETATM   13  C24 UNL     1     -87.230 -10.332  12.693  1.00  0.00     0.047 C 
HETATM   14  C23 UNL     1     -88.223 -10.832  11.716  1.00  0.00     0.143 C 
BRANCH  12  15
HETATM   15  N1  UNL     1     -86.266 -10.711  14.857  1.00  0.00    -0.313 N 
HETATM   16  C6  UNL     1     -86.485 -10.977  16.317  1.00  0.00     0.222 C 
HETATM   17  C5  UNL     1     -85.416 -10.312  16.965  1.00  0.00    -0.162 C 
HETATM   18  C4  UNL     1     -84.277  -9.673  17.476  1.00  0.00     0.087 C 
HETATM   19  C3  UNL     1     -83.553  -9.007  16.254  1.00  0.00     0.065 C 
HETATM   20  C2  UNL     1     -84.090  -9.515  14.928  1.00  0.00     0.000 C 
HETATM   21  C1  UNL     1     -83.127 -10.538  14.295  1.00  0.00     0.065 C 
HETATM   22  N9  UNL     1     -85.391  -9.722  14.620  1.00  0.00    -0.310 N 
ATOM     23  H9  UNL     1     -85.799  -8.954  14.087  1.00  0.00     0.186 HD
ENDBRANCH  12  15
ENDBRANCH   1   9
BRANCH   4  24
HETATM   24  N4  UNL     1     -88.890 -12.481   6.996  1.00  0.00    -0.327 N 
ATOM     25  H4  UNL     1     -89.655 -12.482   6.321  1.00  0.00     0.169 HD
BRANCH  24  26
HETATM   26  C12 UNL     1     -87.771 -11.993   6.621  1.00  0.00     0.123 A 
HETATM   27  C13 UNL     1     -86.616 -12.010   7.355  1.00  0.00     0.076 A 
HETATM   28  C14 UNL     1     -85.612 -11.395   6.640  1.00  0.00     0.033 A 
HETATM   29  N5  UNL     1     -86.184 -11.019   5.485  1.00  0.00    -0.303 N 
HETATM   30  N6  UNL     1     -87.458 -11.372   5.475  1.00  0.00    -0.285 N 
ATOM     31  H5  UNL     1     -85.706 -10.532   4.727  1.00  0.00     0.186 HD
ATOM     32  H6  UNL     1     -88.108 -11.198   4.707  1.00  0.00     0.188 HD
BRANCH  28  33
HETATM   33  C15 UNL     1     -84.185 -11.197   7.062  1.00  0.00     0.037 A 
HETATM   34  C16 UNL     1     -83.141 -11.981   6.283  1.00  0.00     0.011 A 
HETATM   35  C17 UNL     1     -83.456 -12.295   7.717  1.00  0.00     0.011 A 
ENDBRANCH  28  33
ENDBRANCH  24  26
ENDBRANCH   4  24
BRANCH   6  36
HETATM   36  N7  UNL     1     -90.670 -15.908   9.771  1.00  0.00    -0.376 N 
ATOM     37  H7  UNL     1     -90.216 -16.651  10.301  1.00  0.00     0.161 HD
BRANCH  36  38
HETATM   38  C20 UNL     1     -91.983 -16.146   9.210  1.00  0.00     0.130 C 
BRANCH  38  39
HETATM   39  C21 UNL     1     -92.908 -16.709  10.278  1.00  0.00     0.137 C 
BRANCH  39  40
HETATM   40  C22 UNL     1     -93.462 -15.573  11.124  1.00  0.00     0.389 C 
HETATM   41  F1  UNL     1     -92.549 -15.315  12.153  1.00  0.00    -0.171 F 
HETATM   42  F2  UNL     1     -93.625 -14.452  10.355  1.00  0.00    -0.171 F 
HETATM   43  F3  UNL     1     -94.660 -15.995  11.672  1.00  0.00    -0.171 F 
ENDBRANCH  39  40
ENDBRANCH  38  39
ENDBRANCH  36  38
ENDBRANCH   6  36
TORSDOF 9
ENDMDL
MODEL 5
REMARK VINA RESULT: -8.927028814      1.046      1.536
REMARK  9 active torsions:
REMARK  status: ('A' for Active; 'I' for Inactive)
REMARK    1  A    between atoms: N1_7  and  C7_8 
REMARK    2  A    between atoms: N2_11  and  C10_12 
REMARK    3  A    between atoms: C11_15  and  N4_16 
REMARK    4  A    between atoms: N4_16  and  C12_18 
REMARK    5  A    between atoms: C14_20  and  C15_21 
REMARK    6  A    between atoms: C19_29  and  N7_30 
REMARK    7  A    between atoms: N7_30  and  C20_32 
REMARK    8  A    between atoms: C20_32  and  C21_33 
REMARK    9  A    between atoms: C21_33  and  C22_34 
ROOT
HETATM    1  C10 UNL     1     -89.340 -12.340  10.443  1.00  0.00     0.683 A 
HETATM    2  N3  UNL     1     -88.705 -12.442   9.281  1.00  0.00    -0.176 N 
ATOM      3  H3  UNL     1     -87.719 -12.184   9.245  1.00  0.00     0.186 HD
HETATM    4  C11 UNL     1     -89.294 -12.867   8.149  1.00  0.00     0.126 A 
HETATM    5  C18 UNL     1     -90.631 -13.210   8.238  1.00  0.00     0.097 A 
HETATM    6  C19 UNL     1     -91.314 -13.116   9.427  1.00  0.00     0.120 A 
HETATM    7  N8  UNL     1     -90.630 -12.673  10.523  1.00  0.00    -0.177 N 
ATOM      8  H8  UNL     1     -91.113 -12.595  11.418  1.00  0.00     0.185 HD
ENDROOT
BRANCH   1   9
HETATM    9  N2  UNL     1     -88.623 -11.863  11.590  1.00  0.00    -0.217 N 
HETATM   10  C9  UNL     1     -87.803 -12.815  12.293  1.00  0.00     0.143 C 
HETATM   11  C8  UNL     1     -86.498 -12.149  12.654  1.00  0.00     0.047 C 
HETATM   12  C7  UNL     1     -86.767 -10.909  13.519  1.00  0.00     0.106 C 
HETATM   13  C24 UNL     1     -87.587  -9.913  12.740  1.00  0.00     0.047 C 
HETATM   14  C23 UNL     1     -88.744 -10.515  12.041  1.00  0.00     0.143 C 
BRANCH  12  15
HETATM   15  N1  UNL     1     -85.617 -10.398  14.020  1.00  0.00    -0.313 N 
HETATM   16  C6  UNL     1     -85.506 -10.333  15.515  1.00  0.00     0.222 C 
HETATM   17  C5  UNL     1     -84.356  -9.542  15.752  1.00  0.00    -0.162 C 
HETATM   18  C4  UNL     1     -83.166  -8.807  15.850  1.00  0.00     0.087 C 
HETATM   19  C3  UNL     1     -82.753  -8.430  14.384  1.00  0.00     0.065 C 
HETATM   20  C2  UNL     1     -83.537  -9.219  13.351  1.00  0.00     0.000 C 
HETATM   21  C1  UNL     1     -82.684 -10.358  12.760  1.00  0.00     0.065 C 
HETATM   22  N9  UNL     1     -84.862  -9.488  13.388  1.00  0.00    -0.310 N 
ATOM     23  H9  UNL     1     -85.410  -8.857  12.803  1.00  0.00     0.186 HD
ENDBRANCH  12  15
ENDBRANCH   1   9
BRANCH   4  24
HETATM   24  N4  UNL     1     -88.621 -12.983   6.916  1.00  0.00    -0.327 N 
ATOM     25  H4  UNL     1     -88.968 -13.676   6.252  1.00  0.00     0.169 HD
BRANCH  24  26
HETATM   26  C12 UNL     1     -87.609 -12.286   6.568  1.00  0.00     0.123 A 
HETATM   27  C13 UNL     1     -86.383 -12.316   7.174  1.00  0.00     0.076 A 
HETATM   28  C14 UNL     1     -85.536 -11.437   6.536  1.00  0.00     0.033 A 
HETATM   29  N5  UNL     1     -86.273 -10.893   5.554  1.00  0.00    -0.303 N 
HETATM   30  N6  UNL     1     -87.495 -11.395   5.573  1.00  0.00    -0.285 N 
ATOM     31  H5  UNL     1     -85.937 -10.195   4.890  1.00  0.00     0.186 HD
ATOM     32  H6  UNL     1     -88.242 -11.141   4.926  1.00  0.00     0.188 HD
BRANCH  28  33
HETATM   33  C15 UNL     1     -84.100 -11.156   6.866  1.00  0.00     0.037 A 
HETATM   34  C16 UNL     1     -83.063 -11.878   6.019  1.00  0.00     0.011 A 
HETATM   35  C17 UNL     1     -83.267 -12.210   7.470  1.00  0.00     0.011 A 
ENDBRANCH  28  33
ENDBRANCH  24  26
ENDBRANCH   4  24
BRANCH   6  36
HETATM   36  N7  UNL     1     -92.556 -13.422   9.549  1.00  0.00    -0.376 N 
ATOM     37  H7  UNL     1     -93.122 -13.540   8.708  1.00  0.00     0.161 HD
BRANCH  36  38
HETATM   38  C20 UNL     1     -93.177 -13.604  10.844  1.00  0.00     0.130 C 
BRANCH  38  39
HETATM   39  C21 UNL     1     -93.902 -14.939  10.887  1.00  0.00     0.137 C 
BRANCH  39  40
HETATM   40  C22 UNL     1     -92.923 -16.042  11.257  1.00  0.00     0.389 C 
HETATM   41  F1  UNL     1     -92.461 -16.626  10.073  1.00  0.00    -0.171 F 
HETATM   42  F2  UNL     1     -91.870 -15.517  11.958  1.00  0.00    -0.171 F 
HETATM   43  F3  UNL     1     -93.607 -16.989  11.998  1.00  0.00    -0.171 F 
ENDBRANCH  39  40
ENDBRANCH  38  39
ENDBRANCH  36  38
ENDBRANCH   6  36
TORSDOF 9
ENDMDL
