MODEL 1
REMARK VINA RESULT: -9.020643391      0.000      0.000
REMARK  8 active torsions:
REMARK  status: ('A' for Active; 'I' for Inactive)
REMARK    1  A    between atoms: N1_1  and  C1_4 
REMARK    2  A    between atoms: C3_8  and  N3_9 
REMARK       I    between atoms: N3_9  and  C4_11 
REMARK       I    between atoms: C4_11  and  N4_13 
REMARK    3  A    between atoms: N4_13  and  C5_14 
REMARK    4  A    between atoms: N4_13  and  C8_17 
REMARK    5  A    between atoms: N5_21  and  C12_22 
REMARK    6  A    between atoms: C12_22  and  C13_23 
REMARK       I    between atoms: C13_23  and  N6_25 
REMARK       I    between atoms: N6_25  and  C14_27 
REMARK    7  A    between atoms: C14_27  and  C15_29 
REMARK    8  A    between atoms: C24_38  and  C25_39 
ROOT
HETATM    1  N3  UNL     1     -88.465 -14.220  12.900  1.00  0.00    -0.307 N 
ATOM      2  H3  UNL     1     -88.046 -13.332  12.624  1.00  0.00     0.170 HD
HETATM    3  C4  UNL     1     -87.649 -15.058  13.683  1.00  0.00     0.327 C 
HETATM    4  O1  UNL     1     -88.163 -16.151  14.039  1.00  0.00    -0.246 OA
HETATM    5  N4  UNL     1     -86.305 -14.723  14.073  1.00  0.00    -0.301 N 
ENDROOT
BRANCH   5   6
HETATM    6  C5  UNL     1     -85.598 -15.704  14.882  1.00  0.00     0.094 A 
HETATM    7  C6  UNL     1     -84.950 -16.900  14.349  1.00  0.00     0.028 A 
HETATM    8  C7  UNL     1     -84.163 -15.764  15.070  1.00  0.00     0.028 A 
ENDBRANCH   5   6
BRANCH   5   9
HETATM    9  C8  UNL     1     -85.658 -13.467  13.697  1.00  0.00     0.012 C 
HETATM   10  C9  UNL     1     -85.197 -12.625  14.811  1.00  0.00     0.056 C 
HETATM   11  C10 UNL     1     -84.003 -11.784  14.599  1.00  0.00     0.025 C 
HETATM   12  C11 UNL     1     -83.091 -12.180  13.466  1.00  0.00     0.118 C 
HETATM   13  N5  UNL     1     -83.810 -12.611  12.326  1.00  0.00    -0.399 N 
HETATM   14  C22 UNL     1     -84.767 -13.638  12.516  1.00  0.00     0.170 C 
BRANCH  13  15
HETATM   15  C12 UNL     1     -84.272 -11.576  11.439  1.00  0.00     0.220 C 
BRANCH  15  16
HETATM   16  C13 UNL     1     -83.867 -11.775  10.038  1.00  0.00     0.241 C 
HETATM   17  O2  UNL     1     -82.657 -11.844   9.747  1.00  0.00    -0.271 OA
HETATM   18  N6  UNL     1     -84.837 -11.885   9.028  1.00  0.00    -0.296 N 
HETATM   19  C14 UNL     1     -86.234 -11.821   9.202  1.00  0.00     0.228 C 
ATOM     20  H6  UNL     1     -84.497 -12.024   8.076  1.00  0.00     0.171 HD
HETATM   21  O3  UNL     1     -86.771 -11.677  10.324  1.00  0.00    -0.273 OA
BRANCH  19  22
HETATM   22  C15 UNL     1     -87.144 -11.923   8.037  1.00  0.00     0.078 C 
HETATM   23  C16 UNL     1     -87.891 -13.232   8.002  1.00  0.00     0.014 C 
HETATM   24  C17 UNL     1     -89.353 -13.033   7.650  1.00  0.00     0.001 C 
HETATM   25  C18 UNL     1     -89.549 -12.190   6.426  1.00  0.00     0.000 C 
HETATM   26  C19 UNL     1     -88.444 -12.370   5.426  1.00  0.00     0.000 C 
HETATM   27  C20 UNL     1     -87.398 -11.284   5.657  1.00  0.00     0.001 C 
HETATM   28  C21 UNL     1     -86.424 -11.767   6.712  1.00  0.00     0.014 C 
ENDBRANCH  19  22
ENDBRANCH  15  16
ENDBRANCH  13  15
ENDBRANCH   5   9
BRANCH   1  29
HETATM   29  C3  UNL     1     -89.781 -14.435  12.445  1.00  0.00     0.052 A 
HETATM   30  C2  UNL     1     -90.908 -14.019  13.099  1.00  0.00     0.119 A 
HETATM   31  N2  UNL     1     -92.157 -14.245  12.585  1.00  0.00    -0.350 N 
HETATM   32  C1  UNL     1     -92.331 -14.883  11.421  1.00  0.00     0.114 A 
ATOM     33  H2  UNL     1     -92.974 -13.919  13.101  1.00  0.00     0.166 HD
HETATM   34  C24 UNL     1     -91.245 -15.333  10.704  1.00  0.00     0.093 A 
HETATM   35  C23 UNL     1     -90.004 -15.102  11.227  1.00  0.00     0.051 A 
BRANCH  32  36
HETATM   36  N1  UNL     1     -93.509 -15.105  10.916  1.00  0.00    -0.385 N 
ATOM     37  H12 UNL     1     -94.222 -15.474  11.544  1.00  0.00     0.157 HD
ATOM     38  H11 UNL     1     -93.727 -14.925   9.936  1.00  0.00     0.157 HD
ENDBRANCH  32  36
BRANCH  34  39
HETATM   39  C25 UNL     1     -91.427 -16.056   9.396  1.00  0.00     0.421 C 
HETATM   40  F1  UNL     1     -91.755 -15.146   8.421  1.00  0.00    -0.166 F 
HETATM   41  F2  UNL     1     -92.401 -17.020   9.472  1.00  0.00    -0.166 F 
HETATM   42  F3  UNL     1     -90.215 -16.622   9.015  1.00  0.00    -0.166 F 
ENDBRANCH  34  39
ENDBRANCH   1  29
TORSDOF 8
ENDMDL
MODEL 2
REMARK VINA RESULT: -8.894789707      1.657      1.981
REMARK  8 active torsions:
REMARK  status: ('A' for Active; 'I' for Inactive)
REMARK    1  A    between atoms: N1_1  and  C1_4 
REMARK    2  A    between atoms: C3_8  and  N3_9 
REMARK       I    between atoms: N3_9  and  C4_11 
REMARK       I    between atoms: C4_11  and  N4_13 
REMARK    3  A    between atoms: N4_13  and  C5_14 
REMARK    4  A    between atoms: N4_13  and  C8_17 
REMARK    5  A    between atoms: N5_21  and  C12_22 
REMARK    6  A    between atoms: C12_22  and  C13_23 
REMARK       I    between atoms: C13_23  and  N6_25 
REMARK       I    between atoms: N6_25  and  C14_27 
REMARK    7  A    between atoms: C14_27  and  C15_29 
REMARK    8  A    between atoms: C24_38  and  C25_39 
ROOT
HETATM    1  N3  UNL     1     -89.440 -12.944  13.396  1.00  0.00    -0.307 N 
ATOM      2  H3  UNL     1     -88.731 -12.352  12.964  1.00  0.00     0.170 HD
HETATM    3  C4  UNL     1     -89.161 -13.361  14.712  1.00  0.00     0.327 C 
HETATM    4  O1  UNL     1     -90.036 -14.082  15.258  1.00  0.00    -0.246 OA
HETATM    5  N4  UNL     1     -87.961 -13.004  15.423  1.00  0.00    -0.301 N 
ENDROOT
BRANCH   5   6
HETATM    6  C5  UNL     1     -87.828 -13.520  16.776  1.00  0.00     0.094 A 
HETATM    7  C6  UNL     1     -87.509 -14.908  17.103  1.00  0.00     0.028 A 
HETATM    8  C7  UNL     1     -86.580 -13.716  17.485  1.00  0.00     0.028 A 
ENDBRANCH   5   6
BRANCH   5   9
HETATM    9  C8  UNL     1     -86.914 -12.165  14.844  1.00  0.00     0.012 C 
HETATM   10  C9  UNL     1     -86.460 -11.041  15.676  1.00  0.00     0.056 C 
HETATM   11  C10 UNL     1     -85.056 -10.605  15.551  1.00  0.00     0.025 C 
HETATM   12  C11 UNL     1     -84.091 -11.600  14.957  1.00  0.00     0.118 C 
HETATM   13  N5  UNL     1     -84.660 -12.320  13.881  1.00  0.00    -0.399 N 
HETATM   14  C22 UNL     1     -85.893 -12.975  14.122  1.00  0.00     0.170 C 
BRANCH  13  15
HETATM   15  C12 UNL     1     -84.612 -11.679  12.593  1.00  0.00     0.220 C 
BRANCH  15  16
HETATM   16  C13 UNL     1     -84.244 -12.587  11.496  1.00  0.00     0.241 C 
HETATM   17  O2  UNL     1     -83.232 -13.307  11.601  1.00  0.00    -0.271 OA
HETATM   18  N6  UNL     1     -85.024 -12.644  10.329  1.00  0.00    -0.296 N 
HETATM   19  C14 UNL     1     -86.186 -11.890  10.064  1.00  0.00     0.228 C 
ATOM     20  H6  UNL     1     -84.721 -13.294   9.603  1.00  0.00     0.171 HD
HETATM   21  O3  UNL     1     -86.668 -11.079  10.887  1.00  0.00    -0.273 OA
BRANCH  19  22
HETATM   22  C15 UNL     1     -86.897 -12.031   8.772  1.00  0.00     0.078 C 
HETATM   23  C16 UNL     1     -87.645 -13.336   8.665  1.00  0.00     0.014 C 
HETATM   24  C17 UNL     1     -89.028 -13.141   8.075  1.00  0.00     0.001 C 
HETATM   25  C18 UNL     1     -89.014 -12.345   6.806  1.00  0.00     0.000 C 
HETATM   26  C19 UNL     1     -87.765 -12.569   6.005  1.00  0.00     0.000 C 
HETATM   27  C20 UNL     1     -86.756 -11.481   6.361  1.00  0.00     0.001 C 
HETATM   28  C21 UNL     1     -85.971 -11.930   7.576  1.00  0.00     0.014 C 
ENDBRANCH  19  22
ENDBRANCH  15  16
ENDBRANCH  13  15
ENDBRANCH   5   9
BRANCH   1  29
HETATM   29  C3  UNL     1     -90.561 -13.232  12.594  1.00  0.00     0.052 A 
HETATM   30  C2  UNL     1     -91.750 -12.557  12.648  1.00  0.00     0.119 A 
HETATM   31  N2  UNL     1     -92.792 -12.878  11.820  1.00  0.00    -0.350 N 
HETATM   32  C1  UNL     1     -92.696 -13.864  10.921  1.00  0.00     0.114 A 
ATOM     33  H2  UNL     1     -93.663 -12.351  11.890  1.00  0.00     0.166 HD
HETATM   34  C24 UNL     1     -91.531 -14.590  10.806  1.00  0.00     0.093 A 
HETATM   35  C23 UNL     1     -90.498 -14.261  11.637  1.00  0.00     0.051 A 
BRANCH  32  36
HETATM   36  N1  UNL     1     -93.674 -14.182  10.125  1.00  0.00    -0.385 N 
ATOM     37  H12 UNL     1     -94.621 -14.077  10.487  1.00  0.00     0.157 HD
ATOM     38  H11 UNL     1     -93.519 -14.524   9.177  1.00  0.00     0.157 HD
ENDBRANCH  32  36
BRANCH  34  39
HETATM   39  C25 UNL     1     -91.410 -15.706   9.803  1.00  0.00     0.421 C 
HETATM   40  F1  UNL     1     -90.179 -16.301   9.937  1.00  0.00    -0.166 F 
HETATM   41  F2  UNL     1     -91.565 -15.258   8.514  1.00  0.00    -0.166 F 
HETATM   42  F3  UNL     1     -92.355 -16.685  10.092  1.00  0.00    -0.166 F 
ENDBRANCH  34  39
ENDBRANCH   1  29
TORSDOF 8
ENDMDL
MODEL 3
REMARK VINA RESULT: -8.856781653      2.253      2.725
REMARK  8 active torsions:
REMARK  status: ('A' for Active; 'I' for Inactive)
REMARK    1  A    between atoms: N1_1  and  C1_4 
REMARK    2  A    between atoms: C3_8  and  N3_9 
REMARK       I    between atoms: N3_9  and  C4_11 
REMARK       I    between atoms: C4_11  and  N4_13 
REMARK    3  A    between atoms: N4_13  and  C5_14 
REMARK    4  A    between atoms: N4_13  and  C8_17 
REMARK    5  A    between atoms: N5_21  and  C12_22 
REMARK    6  A    between atoms: C12_22  and  C13_23 
REMARK       I    between atoms: C13_23  and  N6_25 
REMARK       I    between atoms: N6_25  and  C14_27 
REMARK    7  A    between atoms: C14_27  and  C15_29 
REMARK    8  A    between atoms: C24_38  and  C25_39 
ROOT
HETATM    1  N3  UNL     1     -88.624 -12.853  12.510  1.00  0.00    -0.307 N 
ATOM      2  H3  UNL     1     -87.780 -12.434  12.120  1.00  0.00     0.170 HD
HETATM    3  C4  UNL     1     -88.804 -12.676  13.895  1.00  0.00     0.327 C 
HETATM    4  O1  UNL     1     -89.849 -13.178  14.384  1.00  0.00    -0.246 OA
HETATM    5  N4  UNL     1     -87.871 -11.970  14.735  1.00  0.00    -0.301 N 
ENDROOT
BRANCH   5   6
HETATM    6  C5  UNL     1     -88.207 -11.880  16.148  1.00  0.00     0.094 A 
HETATM    7  C6  UNL     1     -88.216 -13.015  17.068  1.00  0.00     0.028 A 
HETATM    8  C7  UNL     1     -87.255 -11.799  17.237  1.00  0.00     0.028 A 
ENDBRANCH   5   6
BRANCH   5   9
HETATM    9  C8  UNL     1     -86.646 -11.360  14.224  1.00  0.00     0.012 C 
HETATM   10  C9  UNL     1     -86.192 -10.149  14.924  1.00  0.00     0.056 C 
HETATM   11  C10 UNL     1     -84.742  -9.883  14.986  1.00  0.00     0.025 C 
HETATM   12  C11 UNL     1     -83.830 -11.060  14.755  1.00  0.00     0.118 C 
HETATM   13  N5  UNL     1     -84.304 -11.911  13.729  1.00  0.00    -0.399 N 
HETATM   14  C22 UNL     1     -85.634 -12.387  13.848  1.00  0.00     0.170 C 
BRANCH  13  15
HETATM   15  C12 UNL     1     -83.966 -11.532  12.383  1.00  0.00     0.220 C 
BRANCH  15  16
HETATM   16  C13 UNL     1     -83.881 -12.670  11.453  1.00  0.00     0.241 C 
HETATM   17  O2  UNL     1     -83.095 -13.608  11.693  1.00  0.00    -0.271 OA
HETATM   18  N6  UNL     1     -84.679 -12.702  10.297  1.00  0.00    -0.296 N 
HETATM   19  C14 UNL     1     -85.604 -11.719   9.893  1.00  0.00     0.228 C 
ATOM     20  H6  UNL     1     -84.579 -13.517   9.691  1.00  0.00     0.171 HD
HETATM   21  O3  UNL     1     -85.832 -10.687  10.565  1.00  0.00    -0.273 OA
BRANCH  19  22
HETATM   22  C15 UNL     1     -86.360 -11.870   8.629  1.00  0.00     0.078 C 
HETATM   23  C16 UNL     1     -86.924 -13.258   8.457  1.00  0.00     0.014 C 
HETATM   24  C17 UNL     1     -88.353 -13.221   7.947  1.00  0.00     0.001 C 
HETATM   25  C18 UNL     1     -88.521 -12.345   6.743  1.00  0.00     0.000 C 
HETATM   26  C19 UNL     1     -87.300 -12.333   5.871  1.00  0.00     0.000 C 
HETATM   27  C20 UNL     1     -86.433 -11.141   6.262  1.00  0.00     0.001 C 
HETATM   28  C21 UNL     1     -85.526 -11.556   7.403  1.00  0.00     0.014 C 
ENDBRANCH  19  22
ENDBRANCH  15  16
ENDBRANCH  13  15
ENDBRANCH   5   9
BRANCH   1  29
HETATM   29  C3  UNL     1     -89.448 -13.527  11.588  1.00  0.00     0.052 A 
HETATM   30  C2  UNL     1     -89.375 -14.865  11.313  1.00  0.00     0.119 A 
HETATM   31  N2  UNL     1     -90.226 -15.458  10.419  1.00  0.00    -0.350 N 
HETATM   32  C1  UNL     1     -91.166 -14.757   9.773  1.00  0.00     0.114 A 
ATOM     33  H2  UNL     1     -90.141 -16.459  10.240  1.00  0.00     0.166 HD
HETATM   34  C24 UNL     1     -91.301 -13.404   9.997  1.00  0.00     0.093 A 
HETATM   35  C23 UNL     1     -90.447 -12.824  10.891  1.00  0.00     0.051 A 
BRANCH  32  36
HETATM   36  N1  UNL     1     -91.983 -15.303   8.922  1.00  0.00    -0.385 N 
ATOM     37  H12 UNL     1     -92.879 -15.630   9.283  1.00  0.00     0.157 HD
ATOM     38  H11 UNL     1     -91.755 -15.408   7.934  1.00  0.00     0.157 HD
ENDBRANCH  32  36
BRANCH  34  39
HETATM   39  C25 UNL     1     -92.351 -12.603   9.275  1.00  0.00     0.421 C 
HETATM   40  F1  UNL     1     -92.358 -11.322   9.770  1.00  0.00    -0.166 F 
HETATM   41  F2  UNL     1     -93.601 -13.154   9.407  1.00  0.00    -0.166 F 
HETATM   42  F3  UNL     1     -92.006 -12.504   7.931  1.00  0.00    -0.166 F 
ENDBRANCH  34  39
ENDBRANCH   1  29
TORSDOF 8
ENDMDL
MODEL 4
REMARK VINA RESULT: -8.835653342      3.009      5.663
REMARK  8 active torsions:
REMARK  status: ('A' for Active; 'I' for Inactive)
REMARK    1  A    between atoms: N1_1  and  C1_4 
REMARK    2  A    between atoms: C3_8  and  N3_9 
REMARK       I    between atoms: N3_9  and  C4_11 
REMARK       I    between atoms: C4_11  and  N4_13 
REMARK    3  A    between atoms: N4_13  and  C5_14 
REMARK    4  A    between atoms: N4_13  and  C8_17 
REMARK    5  A    between atoms: N5_21  and  C12_22 
REMARK    6  A    between atoms: C12_22  and  C13_23 
REMARK       I    between atoms: C13_23  and  N6_25 
REMARK       I    between atoms: N6_25  and  C14_27 
REMARK    7  A    between atoms: C14_27  and  C15_29 
REMARK    8  A    between atoms: C24_38  and  C25_39 
ROOT
HETATM    1  N3  UNL     1     -87.947 -13.630  10.666  1.00  0.00    -0.307 N 
ATOM      2  H3  UNL     1     -88.608 -13.616  11.443  1.00  0.00     0.170 HD
HETATM    3  C4  UNL     1     -86.630 -14.002  10.996  1.00  0.00     0.327 C 
HETATM    4  O1  UNL     1     -85.811 -14.035  10.041  1.00  0.00    -0.246 OA
HETATM    5  N4  UNL     1     -86.208 -14.333  12.333  1.00  0.00    -0.301 N 
ENDROOT
BRANCH   5   6
HETATM    6  C5  UNL     1     -84.809 -14.695  12.502  1.00  0.00     0.094 A 
HETATM    7  C6  UNL     1     -83.742 -13.745  12.810  1.00  0.00     0.028 A 
HETATM    8  C7  UNL     1     -84.141 -14.907  13.770  1.00  0.00     0.028 A 
ENDBRANCH   5   6
BRANCH   5   9
HETATM    9  C8  UNL     1     -87.114 -14.320  13.479  1.00  0.00     0.012 C 
HETATM   10  C9  UNL     1     -87.329 -15.615  14.141  1.00  0.00     0.056 C 
HETATM   11  C10 UNL     1     -87.599 -15.619  15.592  1.00  0.00     0.025 C 
HETATM   12  C11 UNL     1     -87.185 -14.388  16.358  1.00  0.00     0.118 C 
HETATM   13  N5  UNL     1     -87.442 -13.198  15.639  1.00  0.00    -0.399 N 
HETATM   14  C22 UNL     1     -86.916 -13.110  14.325  1.00  0.00     0.170 C 
BRANCH  13  15
HETATM   15  C12 UNL     1     -88.777 -12.671  15.740  1.00  0.00     0.220 C 
BRANCH  15  16
HETATM   16  C13 UNL     1     -89.134 -11.754  14.646  1.00  0.00     0.241 C 
HETATM   17  O2  UNL     1     -88.600 -10.629  14.582  1.00  0.00    -0.271 OA
HETATM   18  N6  UNL     1     -90.075 -12.139  13.676  1.00  0.00    -0.296 N 
HETATM   19  C14 UNL     1     -90.762 -13.368  13.622  1.00  0.00     0.228 C 
ATOM     20  H6  UNL     1     -90.281 -11.462  12.940  1.00  0.00     0.171 HD
HETATM   21  O3  UNL     1     -90.576 -14.285  14.453  1.00  0.00    -0.273 OA
BRANCH  19  22
HETATM   22  C15 UNL     1     -91.754 -13.630  12.553  1.00  0.00     0.078 C 
HETATM   23  C16 UNL     1     -91.434 -14.873  11.761  1.00  0.00     0.014 C 
HETATM   24  C17 UNL     1     -92.674 -15.709  11.508  1.00  0.00     0.001 C 
HETATM   25  C18 UNL     1     -93.812 -14.910  10.949  1.00  0.00     0.000 C 
HETATM   26  C19 UNL     1     -93.345 -13.785  10.073  1.00  0.00     0.000 C 
HETATM   27  C20 UNL     1     -93.247 -12.519  10.918  1.00  0.00     0.001 C 
HETATM   28  C21 UNL     1     -91.882 -12.479  11.574  1.00  0.00     0.014 C 
ENDBRANCH  19  22
ENDBRANCH  15  16
ENDBRANCH  13  15
ENDBRANCH   5   9
BRANCH   1  29
HETATM   29  C3  UNL     1     -88.480 -13.275   9.412  1.00  0.00     0.052 A 
HETATM   30  C2  UNL     1     -89.779 -13.477   9.033  1.00  0.00     0.119 A 
HETATM   31  N2  UNL     1     -90.234 -13.084   7.802  1.00  0.00    -0.350 N 
HETATM   32  C1  UNL     1     -89.430 -12.487   6.915  1.00  0.00     0.114 A 
ATOM     33  H2  UNL     1     -91.210 -13.252   7.556  1.00  0.00     0.166 HD
HETATM   34  C24 UNL     1     -88.108 -12.250   7.222  1.00  0.00     0.093 A 
HETATM   35  C23 UNL     1     -87.666 -12.645   8.453  1.00  0.00     0.051 A 
BRANCH  32  36
HETATM   36  N1  UNL     1     -89.844 -12.106   5.743  1.00  0.00    -0.385 N 
ATOM     37  H12 UNL     1     -89.681 -11.133   5.485  1.00  0.00     0.157 HD
ATOM     38  H11 UNL     1     -90.315 -12.739   5.096  1.00  0.00     0.157 HD
ENDBRANCH  32  36
BRANCH  34  39
HETATM   39  C25 UNL     1     -87.191 -11.583   6.232  1.00  0.00     0.421 C 
HETATM   40  F1  UNL     1     -85.947 -11.442   6.796  1.00  0.00    -0.166 F 
HETATM   41  F2  UNL     1     -87.661 -10.353   5.843  1.00  0.00    -0.166 F 
HETATM   42  F3  UNL     1     -87.032 -12.412   5.127  1.00  0.00    -0.166 F 
ENDBRANCH  34  39
ENDBRANCH   1  29
TORSDOF 8
ENDMDL
MODEL 5
REMARK VINA RESULT: -8.800121652      3.751      7.857
REMARK  8 active torsions:
REMARK  status: ('A' for Active; 'I' for Inactive)
REMARK    1  A    between atoms: N1_1  and  C1_4 
REMARK    2  A    between atoms: C3_8  and  N3_9 
REMARK       I    between atoms: N3_9  and  C4_11 
REMARK       I    between atoms: C4_11  and  N4_13 
REMARK    3  A    between atoms: N4_13  and  C5_14 
REMARK    4  A    between atoms: N4_13  and  C8_17 
REMARK    5  A    between atoms: N5_21  and  C12_22 
REMARK    6  A    between atoms: C12_22  and  C13_23 
REMARK       I    between atoms: C13_23  and  N6_25 
REMARK       I    between atoms: N6_25  and  C14_27 
REMARK    7  A    between atoms: C14_27  and  C15_29 
REMARK    8  A    between atoms: C24_38  and  C25_39 
ROOT
HETATM    1  N3  UNL     1     -88.868 -12.807   8.113  1.00  0.00    -0.307 N 
ATOM      2  H3  UNL     1     -89.297 -12.092   8.701  1.00  0.00     0.170 HD
HETATM    3  C4  UNL     1     -89.378 -14.110   8.276  1.00  0.00     0.327 C 
HETATM    4  O1  UNL     1     -88.864 -14.997   7.546  1.00  0.00    -0.246 OA
HETATM    5  N4  UNL     1     -90.421 -14.446   9.209  1.00  0.00    -0.301 N 
ENDROOT
BRANCH   5   6
HETATM    6  C5  UNL     1     -90.830 -15.842   9.253  1.00  0.00     0.094 A 
HETATM    7  C6  UNL     1     -92.152 -16.302   9.672  1.00  0.00     0.028 A 
HETATM    8  C7  UNL     1     -91.596 -16.528   8.233  1.00  0.00     0.028 A 
ENDBRANCH   5   6
BRANCH   5   9
HETATM    9  C8  UNL     1     -91.060 -13.459  10.076  1.00  0.00     0.012 C 
HETATM   10  C9  UNL     1     -92.204 -12.740   9.495  1.00  0.00     0.056 C 
HETATM   11  C10 UNL     1     -93.283 -12.302  10.400  1.00  0.00     0.025 C 
HETATM   12  C11 UNL     1     -93.374 -13.004  11.731  1.00  0.00     0.118 C 
HETATM   13  N5  UNL     1     -92.100 -13.256  12.292  1.00  0.00    -0.399 N 
HETATM   14  C22 UNL     1     -91.162 -13.943  11.482  1.00  0.00     0.170 C 
BRANCH  13  15
HETATM   15  C12 UNL     1     -91.509 -12.174  13.034  1.00  0.00     0.220 C 
BRANCH  15  16
HETATM   16  C13 UNL     1     -90.505 -12.612  14.017  1.00  0.00     0.241 C 
HETATM   17  O2  UNL     1     -90.855 -13.303  14.993  1.00  0.00    -0.271 OA
HETATM   18  N6  UNL     1     -89.156 -12.252  13.861  1.00  0.00    -0.296 N 
HETATM   19  C14 UNL     1     -88.614 -11.474  12.818  1.00  0.00     0.228 C 
ATOM     20  H6  UNL     1     -88.505 -12.587  14.572  1.00  0.00     0.171 HD
HETATM   21  O3  UNL     1     -89.307 -11.029  11.876  1.00  0.00    -0.273 OA
BRANCH  19  22
HETATM   22  C15 UNL     1     -87.169 -11.146  12.795  1.00  0.00     0.078 C 
HETATM   23  C16 UNL     1     -86.744 -10.333  13.991  1.00  0.00     0.014 C 
HETATM   24  C17 UNL     1     -85.431 -10.830  14.567  1.00  0.00     0.001 C 
HETATM   25  C18 UNL     1     -84.361 -10.988  13.529  1.00  0.00     0.000 C 
HETATM   26  C19 UNL     1     -84.485  -9.980  12.424  1.00  0.00     0.000 C 
HETATM   27  C20 UNL     1     -85.283 -10.604  11.283  1.00  0.00     0.001 C 
HETATM   28  C21 UNL     1     -86.758 -10.385  11.550  1.00  0.00     0.014 C 
ENDBRANCH  19  22
ENDBRANCH  15  16
ENDBRANCH  13  15
ENDBRANCH   5   9
BRANCH   1  29
HETATM   29  C3  UNL     1     -87.851 -12.354   7.252  1.00  0.00     0.052 A 
HETATM   30  C2  UNL     1     -88.049 -11.941   5.962  1.00  0.00     0.119 A 
HETATM   31  N2  UNL     1     -87.013 -11.491   5.189  1.00  0.00    -0.350 N 
HETATM   32  C1  UNL     1     -85.760 -11.435   5.657  1.00  0.00     0.114 A 
ATOM     33  H2  UNL     1     -87.200 -11.191   4.232  1.00  0.00     0.166 HD
HETATM   34  C24 UNL     1     -85.481 -11.834   6.946  1.00  0.00     0.093 A 
HETATM   35  C23 UNL     1     -86.522 -12.281   7.708  1.00  0.00     0.051 A 
BRANCH  32  36
HETATM   36  N1  UNL     1     -84.764 -11.009   4.938  1.00  0.00    -0.385 N 
ATOM     37  H12 UNL     1     -84.833 -10.064   4.561  1.00  0.00     0.157 HD
ATOM     38  H11 UNL     1     -83.942 -11.581   4.748  1.00  0.00     0.157 HD
ENDBRANCH  32  36
BRANCH  34  39
HETATM   39  C25 UNL     1     -84.076 -11.780   7.484  1.00  0.00     0.421 C 
HETATM   40  F1  UNL     1     -83.769 -10.482   7.811  1.00  0.00    -0.166 F 
HETATM   41  F2  UNL     1     -83.159 -12.256   6.579  1.00  0.00    -0.166 F 
HETATM   42  F3  UNL     1     -84.012 -12.510   8.666  1.00  0.00    -0.166 F 
ENDBRANCH  34  39
ENDBRANCH   1  29
TORSDOF 8
ENDMDL
