MODEL 1
REMARK VINA RESULT: -9.138459018      0.000      0.000
REMARK  7 active torsions:
REMARK  status: ('A' for Active; 'I' for Inactive)
REMARK    1  A    between atoms: O1_2  and  C2_3 
REMARK    2  A    between atoms: C5_7  and  C6_8 
REMARK    3  A    between atoms: C8_12  and  N2_13 
REMARK    4  A    between atoms: C9_16  and  C10_17 
REMARK    5  A    between atoms: C14_25  and  C15_26 
REMARK    6  A    between atoms: C18_29  and  N5_30 
REMARK    7  A    between atoms: C25_39  and  O2_40 
ROOT
HETATM    1  C6  UNL     1     -83.290 -13.613  11.529  1.00  0.00     0.064 A 
HETATM    2  C7  UNL     1     -83.101 -14.861  12.101  1.00  0.00     0.120 A 
HETATM    3  N1  UNL     1     -83.707 -15.937  11.568  1.00  0.00    -0.349 N 
ATOM      4  H1  UNL     1     -83.577 -16.861  11.979  1.00  0.00     0.167 HD
HETATM    5  C8  UNL     1     -84.497 -15.772  10.473  1.00  0.00     0.126 A 
HETATM    6  C9  UNL     1     -84.699 -14.542   9.889  1.00  0.00     0.087 A 
HETATM    7  N6  UNL     1     -84.074 -13.474  10.447  1.00  0.00    -0.351 N 
ATOM      8  H6  UNL     1     -84.203 -12.548  10.037  1.00  0.00     0.166 HD
ENDROOT
BRANCH   6   9
HETATM    9  C10 UNL     1     -85.540 -14.354   8.714  1.00  0.00    -0.005 A 
HETATM   10  C11 UNL     1     -84.999 -13.754   7.577  1.00  0.00     0.016 A 
HETATM   11  C12 UNL     1     -85.724 -13.532   6.426  1.00  0.00     0.033 A 
HETATM   12  C13 UNL     1     -87.047 -13.910   6.363  1.00  0.00     0.060 A 
HETATM   13  N3  UNL     1     -87.972 -13.820   5.390  1.00  0.00    -0.299 N 
HETATM   14  C23 UNL     1     -87.599 -14.505   7.478  1.00  0.00     0.022 A 
HETATM   15  N4  UNL     1     -89.086 -14.339   5.859  1.00  0.00    -0.299 N 
ATOM     16  H3  UNL     1     -87.834 -13.422   4.461  1.00  0.00     0.187 HD
HETATM   17  C14 UNL     1     -88.908 -14.774   7.139  1.00  0.00     0.070 A 
ATOM     18  H4  UNL     1     -89.960 -14.408   5.338  1.00  0.00     0.187 HD
HETATM   19  C24 UNL     1     -86.864 -14.725   8.632  1.00  0.00     0.030 A 
BRANCH  17  20
HETATM   20  C15 UNL     1     -89.931 -15.404   7.966  1.00  0.00    -0.007 A 
HETATM   21  C16 UNL     1     -89.724 -16.624   8.576  1.00  0.00     0.016 A 
HETATM   22  C17 UNL     1     -90.675 -17.241   9.361  1.00  0.00     0.030 A 
HETATM   23  C18 UNL     1     -91.911 -16.636   9.570  1.00  0.00     0.029 A 
HETATM   24  C21 UNL     1     -92.118 -15.412   8.957  1.00  0.00     0.030 A 
HETATM   25  C22 UNL     1     -91.157 -14.799   8.170  1.00  0.00     0.016 A 
BRANCH  23  26
HETATM   26  N5  UNL     1     -92.910 -17.226  10.362  1.00  0.00    -0.390 N 
HETATM   27  C19 UNL     1     -93.082 -18.657  10.391  1.00  0.00     0.149 C 
HETATM   28  C20 UNL     1     -93.776 -16.397  11.161  1.00  0.00     0.149 C 
ENDBRANCH  23  26
ENDBRANCH  17  20
ENDBRANCH   6   9
BRANCH   5  29
HETATM   29  N2  UNL     1     -85.068 -16.800   9.964  1.00  0.00    -0.384 N 
ATOM     30  H22 UNL     1     -85.766 -17.299  10.515  1.00  0.00     0.157 HD
ATOM     31  H21 UNL     1     -84.812 -17.088   9.019  1.00  0.00     0.157 HD
ENDBRANCH   5  29
BRANCH   1  32
HETATM   32  C5  UNL     1     -82.603 -12.476  12.150  1.00  0.00     0.064 A 
HETATM   33  C4  UNL     1     -81.284 -12.285  11.850  1.00  0.00     0.134 A 
HETATM   34  C3  UNL     1     -80.600 -11.218  12.418  1.00  0.00     0.080 A 
HETATM   35  F1  UNL     1     -80.615 -13.107  11.010  1.00  0.00    -0.205 F 
HETATM   36  C2  UNL     1     -81.231 -10.350  13.279  1.00  0.00     0.073 A 
HETATM   37  C27 UNL     1     -82.562 -10.567  13.565  1.00  0.00     0.074 A 
HETATM   38  C25 UNL     1     -83.247 -11.624  13.004  1.00  0.00     0.086 A 
BRANCH  36  39
HETATM   39  O1  UNL     1     -80.507  -9.301  13.821  1.00  0.00    -0.356 OA
HETATM   40  C1  UNL     1     -79.196  -8.968  13.459  1.00  0.00     0.210 C 
ENDBRANCH  36  39
BRANCH  38  41
HETATM   41  O2  UNL     1     -84.583 -11.852  13.282  1.00  0.00    -0.355 OA
HETATM   42  C26 UNL     1     -84.937 -12.293  14.569  1.00  0.00     0.210 C 
ENDBRANCH  38  41
ENDBRANCH   1  32
TORSDOF 7
ENDMDL
MODEL 2
REMARK VINA RESULT: -9.111681029      5.725      8.498
REMARK  7 active torsions:
REMARK  status: ('A' for Active; 'I' for Inactive)
REMARK    1  A    between atoms: O1_2  and  C2_3 
REMARK    2  A    between atoms: C5_7  and  C6_8 
REMARK    3  A    between atoms: C8_12  and  N2_13 
REMARK    4  A    between atoms: C9_16  and  C10_17 
REMARK    5  A    between atoms: C14_25  and  C15_26 
REMARK    6  A    between atoms: C18_29  and  N5_30 
REMARK    7  A    between atoms: C25_39  and  O2_40 
ROOT
HETATM    1  C6  UNL     1     -87.905 -18.014  15.303  1.00  0.00     0.064 A 
HETATM    2  C7  UNL     1     -87.572 -16.863  15.998  1.00  0.00     0.120 A 
HETATM    3  N1  UNL     1     -87.967 -15.666  15.533  1.00  0.00    -0.349 N 
ATOM      4  H1  UNL     1     -87.730 -14.810  16.034  1.00  0.00     0.167 HD
HETATM    5  C8  UNL     1     -88.690 -15.614  14.381  1.00  0.00     0.126 A 
HETATM    6  C9  UNL     1     -89.031 -16.744  13.674  1.00  0.00     0.087 A 
HETATM    7  N6  UNL     1     -88.619 -17.940  14.168  1.00  0.00    -0.351 N 
ATOM      8  H6  UNL     1     -88.857 -18.797  13.668  1.00  0.00     0.166 HD
ENDROOT
BRANCH   6   9
HETATM    9  C10 UNL     1     -89.807 -16.702  12.441  1.00  0.00    -0.005 A 
HETATM   10  C11 UNL     1     -91.139 -17.114  12.459  1.00  0.00     0.016 A 
HETATM   11  C12 UNL     1     -91.942 -17.112  11.338  1.00  0.00     0.033 A 
HETATM   12  C13 UNL     1     -91.436 -16.687  10.130  1.00  0.00     0.060 A 
HETATM   13  N3  UNL     1     -91.981 -16.580   8.905  1.00  0.00    -0.299 N 
HETATM   14  C23 UNL     1     -90.121 -16.275  10.094  1.00  0.00     0.022 A 
HETATM   15  N4  UNL     1     -91.049 -16.113   8.101  1.00  0.00    -0.299 N 
ATOM     16  H3  UNL     1     -92.939 -16.817   8.647  1.00  0.00     0.187 HD
HETATM   17  C14 UNL     1     -89.887 -15.910   8.785  1.00  0.00     0.070 A 
ATOM     18  H4  UNL     1     -91.178 -15.929   7.106  1.00  0.00     0.187 HD
HETATM   19  C24 UNL     1     -89.318 -16.280  11.224  1.00  0.00     0.030 A 
BRANCH  17  20
HETATM   20  C15 UNL     1     -88.648 -15.399   8.210  1.00  0.00    -0.007 A 
HETATM   21  C16 UNL     1     -88.620 -14.778   6.978  1.00  0.00     0.016 A 
HETATM   22  C17 UNL     1     -87.462 -14.286   6.412  1.00  0.00     0.030 A 
HETATM   23  C18 UNL     1     -86.249 -14.405   7.084  1.00  0.00     0.029 A 
HETATM   24  C21 UNL     1     -86.279 -15.030   8.320  1.00  0.00     0.030 A 
HETATM   25  C22 UNL     1     -87.446 -15.519   8.881  1.00  0.00     0.016 A 
BRANCH  23  26
HETATM   26  N5  UNL     1     -85.044 -13.919   6.548  1.00  0.00    -0.390 N 
HETATM   27  C19 UNL     1     -84.845 -13.848   5.122  1.00  0.00     0.149 C 
HETATM   28  C20 UNL     1     -83.991 -13.483   7.429  1.00  0.00     0.149 C 
ENDBRANCH  23  26
ENDBRANCH  17  20
ENDBRANCH   6   9
BRANCH   5  29
HETATM   29  N2  UNL     1     -89.071 -14.472  13.942  1.00  0.00    -0.384 N 
ATOM     30  H22 UNL     1     -88.371 -13.826  13.576  1.00  0.00     0.157 HD
ATOM     31  H21 UNL     1     -90.064 -14.241  13.968  1.00  0.00     0.157 HD
ENDBRANCH   5  29
BRANCH   1  32
HETATM   32  C5  UNL     1     -87.449 -19.293  15.859  1.00  0.00     0.064 A 
HETATM   33  C4  UNL     1     -88.060 -19.751  16.992  1.00  0.00     0.134 A 
HETATM   34  C3  UNL     1     -87.656 -20.958  17.548  1.00  0.00     0.080 A 
HETATM   35  F1  UNL     1     -89.054 -19.062  17.597  1.00  0.00    -0.205 F 
HETATM   36  C2  UNL     1     -86.650 -21.701  16.973  1.00  0.00     0.073 A 
HETATM   37  C27 UNL     1     -86.051 -21.214  15.831  1.00  0.00     0.074 A 
HETATM   38  C25 UNL     1     -86.447 -20.017  15.275  1.00  0.00     0.086 A 
BRANCH  36  39
HETATM   39  O1  UNL     1     -86.282 -22.899  17.564  1.00  0.00    -0.356 OA
HETATM   40  C1  UNL     1     -86.421 -23.191  18.925  1.00  0.00     0.210 C 
ENDBRANCH  36  39
BRANCH  38  41
HETATM   41  O2  UNL     1     -85.854 -19.518  14.128  1.00  0.00    -0.355 OA
HETATM   42  C26 UNL     1     -84.555 -18.988  14.217  1.00  0.00     0.210 C 
ENDBRANCH  38  41
ENDBRANCH   1  32
TORSDOF 7
ENDMDL
MODEL 3
REMARK VINA RESULT: -9.096241157      3.689      7.456
REMARK  7 active torsions:
REMARK  status: ('A' for Active; 'I' for Inactive)
REMARK    1  A    between atoms: O1_2  and  C2_3 
REMARK    2  A    between atoms: C5_7  and  C6_8 
REMARK    3  A    between atoms: C8_12  and  N2_13 
REMARK    4  A    between atoms: C9_16  and  C10_17 
REMARK    5  A    between atoms: C14_25  and  C15_26 
REMARK    6  A    between atoms: C18_29  and  N5_30 
REMARK    7  A    between atoms: C25_39  and  O2_40 
ROOT
HETATM    1  C6  UNL     1     -89.123 -16.067  12.461  1.00  0.00     0.064 A 
HETATM    2  C7  UNL     1     -89.928 -17.192  12.533  1.00  0.00     0.120 A 
HETATM    3  N1  UNL     1     -90.403 -17.745  11.403  1.00  0.00    -0.349 N 
ATOM      4  H1  UNL     1     -90.995 -18.574  11.441  1.00  0.00     0.167 HD
HETATM    5  C8  UNL     1     -90.079 -17.181  10.208  1.00  0.00     0.126 A 
HETATM    6  C9  UNL     1     -89.283 -16.062  10.113  1.00  0.00     0.087 A 
HETATM    7  N6  UNL     1     -88.816 -15.526  11.270  1.00  0.00    -0.351 N 
ATOM      8  H6  UNL     1     -88.222 -14.697  11.234  1.00  0.00     0.166 HD
ENDROOT
BRANCH   6   9
HETATM    9  C10 UNL     1     -88.927 -15.451   8.839  1.00  0.00    -0.005 A 
HETATM   10  C11 UNL     1     -89.898 -15.330   7.846  1.00  0.00     0.016 A 
HETATM   11  C12 UNL     1     -89.646 -14.770   6.612  1.00  0.00     0.033 A 
HETATM   12  C13 UNL     1     -88.387 -14.297   6.315  1.00  0.00     0.060 A 
HETATM   13  N3  UNL     1     -87.871 -13.714   5.218  1.00  0.00    -0.299 N 
HETATM   14  C23 UNL     1     -87.414 -14.408   7.286  1.00  0.00     0.022 A 
HETATM   15  N4  UNL     1     -86.605 -13.456   5.469  1.00  0.00    -0.299 N 
ATOM     16  H3  UNL     1     -88.369 -13.511   4.351  1.00  0.00     0.187 HD
HETATM   17  C14 UNL     1     -86.276 -13.865   6.728  1.00  0.00     0.070 A 
ATOM     18  H4  UNL     1     -85.961 -13.012   4.815  1.00  0.00     0.187 HD
HETATM   19  C24 UNL     1     -87.674 -14.972   8.525  1.00  0.00     0.030 A 
BRANCH  17  20
HETATM   20  C15 UNL     1     -84.959 -13.733   7.340  1.00  0.00    -0.007 A 
HETATM   21  C16 UNL     1     -84.762 -13.000   8.492  1.00  0.00     0.016 A 
HETATM   22  C17 UNL     1     -83.526 -12.860   9.090  1.00  0.00     0.030 A 
HETATM   23  C18 UNL     1     -82.406 -13.470   8.534  1.00  0.00     0.029 A 
HETATM   24  C21 UNL     1     -82.605 -14.204   7.377  1.00  0.00     0.030 A 
HETATM   25  C22 UNL     1     -83.849 -14.341   6.784  1.00  0.00     0.016 A 
BRANCH  23  26
HETATM   26  N5  UNL     1     -81.128 -13.356   9.107  1.00  0.00    -0.390 N 
HETATM   27  C19 UNL     1     -80.056 -12.705   8.398  1.00  0.00     0.149 C 
HETATM   28  C20 UNL     1     -80.880 -13.893  10.421  1.00  0.00     0.149 C 
ENDBRANCH  23  26
ENDBRANCH  17  20
ENDBRANCH   6   9
BRANCH   5  29
HETATM   29  N2  UNL     1     -90.528 -17.713   9.132  1.00  0.00    -0.384 N 
ATOM     30  H22 UNL     1     -89.898 -18.276   8.561  1.00  0.00     0.157 HD
ATOM     31  H21 UNL     1     -91.505 -17.563   8.880  1.00  0.00     0.157 HD
ENDBRANCH   5  29
BRANCH   1  32
HETATM   32  C5  UNL     1     -88.631 -15.508  13.724  1.00  0.00     0.064 A 
HETATM   33  C4  UNL     1     -89.458 -14.667  14.416  1.00  0.00     0.134 A 
HETATM   34  C3  UNL     1     -89.029 -14.119  15.617  1.00  0.00     0.080 A 
HETATM   35  F1  UNL     1     -90.693 -14.348  13.965  1.00  0.00    -0.205 F 
HETATM   36  C2  UNL     1     -87.782 -14.410  16.123  1.00  0.00     0.073 A 
HETATM   37  C27 UNL     1     -86.969 -15.260  15.404  1.00  0.00     0.074 A 
HETATM   38  C25 UNL     1     -87.390 -15.808  14.211  1.00  0.00     0.086 A 
BRANCH  36  39
HETATM   39  O1  UNL     1     -87.398 -13.839  17.325  1.00  0.00    -0.356 OA
HETATM   40  C1  UNL     1     -87.904 -14.205  18.577  1.00  0.00     0.210 C 
ENDBRANCH  36  39
BRANCH  38  41
HETATM   41  O2  UNL     1     -86.583 -16.663  13.481  1.00  0.00    -0.355 OA
HETATM   42  C26 UNL     1     -86.060 -17.802  14.117  1.00  0.00     0.210 C 
ENDBRANCH  38  41
ENDBRANCH   1  32
TORSDOF 7
ENDMDL
MODEL 4
REMARK VINA RESULT: -9.054973758      1.221      1.757
REMARK  7 active torsions:
REMARK  status: ('A' for Active; 'I' for Inactive)
REMARK    1  A    between atoms: O1_2  and  C2_3 
REMARK    2  A    between atoms: C5_7  and  C6_8 
REMARK    3  A    between atoms: C8_12  and  N2_13 
REMARK    4  A    between atoms: C9_16  and  C10_17 
REMARK    5  A    between atoms: C14_25  and  C15_26 
REMARK    6  A    between atoms: C18_29  and  N5_30 
REMARK    7  A    between atoms: C25_39  and  O2_40 
ROOT
HETATM    1  C6  UNL     1     -83.272 -13.639  11.330  1.00  0.00     0.064 A 
HETATM    2  C7  UNL     1     -83.101 -14.880  11.923  1.00  0.00     0.120 A 
HETATM    3  N1  UNL     1     -83.746 -15.950  11.427  1.00  0.00    -0.349 N 
ATOM      4  H1  UNL     1     -83.629 -16.869  11.852  1.00  0.00     0.167 HD
HETATM    5  C8  UNL     1     -84.558 -15.787  10.347  1.00  0.00     0.126 A 
HETATM    6  C9  UNL     1     -84.744 -14.564   9.744  1.00  0.00     0.087 A 
HETATM    7  N6  UNL     1     -84.079 -13.501  10.265  1.00  0.00    -0.351 N 
ATOM      8  H6  UNL     1     -84.195 -12.580   9.839  1.00  0.00     0.166 HD
ENDROOT
BRANCH   6   9
HETATM    9  C10 UNL     1     -85.608 -14.377   8.586  1.00  0.00    -0.005 A 
HETATM   10  C11 UNL     1     -85.088 -13.787   7.434  1.00  0.00     0.016 A 
HETATM   11  C12 UNL     1     -85.837 -13.568   6.298  1.00  0.00     0.033 A 
HETATM   12  C13 UNL     1     -87.163 -13.939   6.265  1.00  0.00     0.060 A 
HETATM   13  N3  UNL     1     -88.107 -13.849   5.311  1.00  0.00    -0.299 N 
HETATM   14  C23 UNL     1     -87.694 -14.524   7.394  1.00  0.00     0.022 A 
HETATM   15  N4  UNL     1     -89.214 -14.359   5.807  1.00  0.00    -0.299 N 
ATOM     16  H3  UNL     1     -87.987 -13.457   4.377  1.00  0.00     0.187 HD
HETATM   17  C14 UNL     1     -89.012 -14.788   7.085  1.00  0.00     0.070 A 
ATOM     18  H4  UNL     1     -90.100 -14.426   5.305  1.00  0.00     0.187 HD
HETATM   19  C24 UNL     1     -86.937 -14.741   8.534  1.00  0.00     0.030 A 
BRANCH  17  20
HETATM   20  C15 UNL     1     -90.020 -15.408   7.937  1.00  0.00    -0.007 A 
HETATM   21  C16 UNL     1     -89.815 -16.635   8.532  1.00  0.00     0.016 A 
HETATM   22  C17 UNL     1     -90.753 -17.243   9.341  1.00  0.00     0.030 A 
HETATM   23  C18 UNL     1     -91.972 -16.620   9.589  1.00  0.00     0.029 A 
HETATM   24  C21 UNL     1     -92.177 -15.388   8.991  1.00  0.00     0.030 A 
HETATM   25  C22 UNL     1     -91.229 -14.785   8.181  1.00  0.00     0.016 A 
BRANCH  23  26
HETATM   26  N5  UNL     1     -92.957 -17.199  10.407  1.00  0.00    -0.390 N 
HETATM   27  C19 UNL     1     -93.095 -18.631  10.497  1.00  0.00     0.149 C 
HETATM   28  C20 UNL     1     -93.844 -16.357  11.170  1.00  0.00     0.149 C 
ENDBRANCH  23  26
ENDBRANCH  17  20
ENDBRANCH   6   9
BRANCH   5  29
HETATM   29  N2  UNL     1     -85.167 -16.809   9.873  1.00  0.00    -0.384 N 
ATOM     30  H22 UNL     1     -85.949 -17.204  10.397  1.00  0.00     0.157 HD
ATOM     31  H21 UNL     1     -84.857 -17.198   8.983  1.00  0.00     0.157 HD
ENDBRANCH   5  29
BRANCH   1  32
HETATM   32  C5  UNL     1     -82.542 -12.507  11.911  1.00  0.00     0.064 A 
HETATM   33  C4  UNL     1     -82.984 -12.006  13.102  1.00  0.00     0.134 A 
HETATM   34  C3  UNL     1     -82.318 -10.936  13.685  1.00  0.00     0.080 A 
HETATM   35  F1  UNL     1     -84.060 -12.522  13.740  1.00  0.00    -0.205 F 
HETATM   36  C2  UNL     1     -81.218 -10.372  13.080  1.00  0.00     0.073 A 
HETATM   37  C27 UNL     1     -80.794 -10.898  11.878  1.00  0.00     0.074 A 
HETATM   38  C25 UNL     1     -81.451 -11.960  11.295  1.00  0.00     0.086 A 
BRANCH  36  39
HETATM   39  O1  UNL     1     -80.587  -9.306  13.699  1.00  0.00    -0.356 OA
HETATM   40  C1  UNL     1     -79.253  -8.939  13.489  1.00  0.00     0.210 C 
ENDBRANCH  36  39
BRANCH  38  41
HETATM   41  O2  UNL     1     -81.035 -12.498  10.089  1.00  0.00    -0.355 OA
HETATM   42  C26 UNL     1     -81.198 -11.734   8.920  1.00  0.00     0.210 C 
ENDBRANCH  38  41
ENDBRANCH   1  32
TORSDOF 7
ENDMDL
MODEL 5
REMARK VINA RESULT: -9.031822921      4.267      7.035
REMARK  7 active torsions:
REMARK  status: ('A' for Active; 'I' for Inactive)
REMARK    1  A    between atoms: O1_2  and  C2_3 
REMARK    2  A    between atoms: C5_7  and  C6_8 
REMARK    3  A    between atoms: C8_12  and  N2_13 
REMARK    4  A    between atoms: C9_16  and  C10_17 
REMARK    5  A    between atoms: C14_25  and  C15_26 
REMARK    6  A    between atoms: C18_29  and  N5_30 
REMARK    7  A    between atoms: C25_39  and  O2_40 
ROOT
HETATM    1  C6  UNL     1     -86.774 -14.266  15.041  1.00  0.00     0.064 A 
HETATM    2  C7  UNL     1     -86.612 -12.927  15.359  1.00  0.00     0.120 A 
HETATM    3  N1  UNL     1     -87.095 -11.983  14.532  1.00  0.00    -0.349 N 
ATOM      4  H1  UNL     1     -86.984 -10.994  14.753  1.00  0.00     0.167 HD
HETATM    5  C8  UNL     1     -87.734 -12.369  13.394  1.00  0.00     0.126 A 
HETATM    6  C9  UNL     1     -87.905 -13.692  13.059  1.00  0.00     0.087 A 
HETATM    7  N6  UNL     1     -87.409 -14.624  13.913  1.00  0.00    -0.351 N 
ATOM      8  H6  UNL     1     -87.520 -15.615  13.693  1.00  0.00     0.166 HD
ENDROOT
BRANCH   6   9
HETATM    9  C10 UNL     1     -88.590 -14.119  11.845  1.00  0.00    -0.005 A 
HETATM   10  C11 UNL     1     -89.939 -14.468  11.910  1.00  0.00     0.016 A 
HETATM   11  C12 UNL     1     -90.661 -14.887  10.813  1.00  0.00     0.033 A 
HETATM   12  C13 UNL     1     -90.052 -14.974   9.581  1.00  0.00     0.060 A 
HETATM   13  N3  UNL     1     -90.504 -15.342   8.369  1.00  0.00    -0.299 N 
HETATM   14  C23 UNL     1     -88.719 -14.632   9.498  1.00  0.00     0.022 A 
HETATM   15  N4  UNL     1     -89.498 -15.241   7.528  1.00  0.00    -0.299 N 
ATOM     16  H3  UNL     1     -91.453 -15.643   8.144  1.00  0.00     0.187 HD
HETATM   17  C14 UNL     1     -88.377 -14.809   8.174  1.00  0.00     0.070 A 
ATOM     18  H4  UNL     1     -89.548 -15.455   6.532  1.00  0.00     0.187 HD
HETATM   19  C24 UNL     1     -87.998 -14.212  10.604  1.00  0.00     0.030 A 
BRANCH  17  20
HETATM   20  C15 UNL     1     -87.078 -14.583   7.551  1.00  0.00    -0.007 A 
HETATM   21  C16 UNL     1     -86.963 -14.097   6.265  1.00  0.00     0.016 A 
HETATM   22  C17 UNL     1     -85.746 -13.876   5.653  1.00  0.00     0.030 A 
HETATM   23  C18 UNL     1     -84.562 -14.145   6.332  1.00  0.00     0.029 A 
HETATM   24  C21 UNL     1     -84.679 -14.634   7.622  1.00  0.00     0.030 A 
HETATM   25  C22 UNL     1     -85.905 -14.852   8.229  1.00  0.00     0.016 A 
BRANCH  23  26
HETATM   26  N5  UNL     1     -83.300 -13.935   5.751  1.00  0.00    -0.390 N 
HETATM   27  C19 UNL     1     -83.179 -13.364   4.433  1.00  0.00     0.149 C 
HETATM   28  C20 UNL     1     -82.106 -14.290   6.476  1.00  0.00     0.149 C 
ENDBRANCH  23  26
ENDBRANCH  17  20
ENDBRANCH   6   9
BRANCH   5  29
HETATM   29  N2  UNL     1     -88.198 -11.468  12.611  1.00  0.00    -0.384 N 
ATOM     30  H22 UNL     1     -87.588 -11.079  11.891  1.00  0.00     0.157 HD
ATOM     31  H21 UNL     1     -89.166 -11.166  12.726  1.00  0.00     0.157 HD
ENDBRANCH   5  29
BRANCH   1  32
HETATM   32  C5  UNL     1     -86.230 -15.252  15.981  1.00  0.00     0.064 A 
HETATM   33  C4  UNL     1     -84.947 -15.679  15.787  1.00  0.00     0.134 A 
HETATM   34  C3  UNL     1     -84.396 -16.611  16.656  1.00  0.00     0.080 A 
HETATM   35  F1  UNL     1     -84.187 -15.220  14.766  1.00  0.00    -0.205 F 
HETATM   36  C2  UNL     1     -85.124 -17.111  17.712  1.00  0.00     0.073 A 
HETATM   37  C27 UNL     1     -86.416 -16.663  17.883  1.00  0.00     0.074 A 
HETATM   38  C25 UNL     1     -86.968 -15.738  17.024  1.00  0.00     0.086 A 
BRANCH  36  39
HETATM   39  O1  UNL     1     -84.531 -18.039  18.552  1.00  0.00    -0.356 OA
HETATM   40  C1  UNL     1     -85.223 -19.033  19.254  1.00  0.00     0.210 C 
ENDBRANCH  36  39
BRANCH  38  41
HETATM   41  O2  UNL     1     -88.264 -15.279  17.186  1.00  0.00    -0.355 OA
HETATM   42  C26 UNL     1     -88.635 -14.734  18.428  1.00  0.00     0.210 C 
ENDBRANCH  38  41
ENDBRANCH   1  32
TORSDOF 7
ENDMDL
