MODEL 1
REMARK VINA RESULT: -6.884545444      0.000      0.000
REMARK  12 active torsions:
REMARK  status: ('A' for Active; 'I' for Inactive)
REMARK    1  A    between atoms: N1_2  and  C2_5 
REMARK    2  A    between atoms: C2_5  and  C3_6 
REMARK    3  A    between atoms: N3_9  and  C4_10 
REMARK    4  A    between atoms: C8_16  and  C9_17 
REMARK    5  A    between atoms: C10_18  and  C11_19 
REMARK    6  A    between atoms: C11_19  and  O1_20 
REMARK    7  A    between atoms: C11_19  and  N5_22 
REMARK    8  A    between atoms: N5_22  and  C12_24 
REMARK    9  A    between atoms: C12_24  and  C13_25 
REMARK   10  A    between atoms: C17_29  and  C18_30 
REMARK   11  A    between atoms: C22_34  and  O2_35 
REMARK   12  A    between atoms: C23_37  and  C24_38 
ROOT
HETATM    1  C9  UNL     1     -88.410 -15.901  12.545  1.00  0.00     0.018 A 
HETATM    2  C10 UNL     1     -89.475 -16.345  13.298  1.00  0.00     0.028 A 
HETATM    3  C16 UNL     1     -90.597 -16.839  12.602  1.00  0.00     0.027 A 
HETATM    4  C17 UNL     1     -90.663 -16.890  11.247  1.00  0.00    -0.016 A 
HETATM    5  C22 UNL     1     -89.586 -16.436  10.540  1.00  0.00     0.080 A 
HETATM    6  C23 UNL     1     -88.420 -15.924  11.157  1.00  0.00    -0.003 A 
ENDROOT
BRANCH   1   7
HETATM    7  C8  UNL     1     -87.226 -15.491  13.287  1.00  0.00     0.087 A 
HETATM    8  C3  UNL     1     -86.325 -16.423  13.811  1.00  0.00     0.082 A 
HETATM    9  N2  UNL     1     -85.381 -15.703  14.438  1.00  0.00    -0.284 N 
HETATM   10  N3  UNL     1     -85.637 -14.416  14.337  1.00  0.00    -0.225 N 
ATOM     11  H2  UNL     1     -84.578 -16.098  14.926  1.00  0.00     0.188 HD
HETATM   12  N4  UNL     1     -86.746 -14.299  13.646  1.00  0.00    -0.281 N 
ATOM     13  H4  UNL     1     -87.186 -13.409  13.413  1.00  0.00     0.189 HD
BRANCH   8  14
HETATM   14  C2  UNL     1     -86.317 -17.905  13.738  1.00  0.00     0.292 C 
BRANCH  14  15
HETATM   15  N1  UNL     1     -86.724 -18.468  15.038  1.00  0.00    -0.074 N 
HETATM   16  C1  UNL     1     -86.801 -19.911  14.901  1.00  0.00     0.267 C 
ATOM     17  H12 UNL     1     -87.589 -18.059  15.391  1.00  0.00     0.277 HD
ATOM     18  H11 UNL     1     -86.114 -18.177  15.802  1.00  0.00     0.277 HD
ENDBRANCH  14  15
ENDBRANCH   8  14
BRANCH  10  19
HETATM   19  C4  UNL     1     -84.762 -13.401  14.916  1.00  0.00     0.060 C 
HETATM   20  C5  UNL     1     -85.525 -12.681  16.029  1.00  0.00     0.041 C 
HETATM   21  C6  UNL     1     -83.521 -13.979  15.538  1.00  0.00     0.041 C 
HETATM   22  C7  UNL     1     -84.373 -12.355  13.919  1.00  0.00     0.041 C 
ENDBRANCH  10  19
ENDBRANCH   1   7
BRANCH   2  23
HETATM   23  C11 UNL     1     -89.638 -16.309  14.718  1.00  0.00     0.147 C 
BRANCH  23  24
HETATM   24  O1  UNL     1     -89.586 -17.462  15.331  1.00  0.00    -0.346 OA
ATOM     25  H1  UNL     1     -89.326 -17.438  16.244  1.00  0.00     0.219 HD
ENDBRANCH  23  24
BRANCH  23  26
HETATM   26  N5  UNL     1     -89.858 -15.230  15.579  1.00  0.00    -0.370 N 
ATOM     27  H5  UNL     1     -90.804 -14.877  15.723  1.00  0.00     0.161 HD
BRANCH  26  28
HETATM   28  C12 UNL     1     -88.717 -14.601  16.283  1.00  0.00     0.125 C 
BRANCH  28  29
HETATM   29  C13 UNL     1     -88.423 -15.285  17.586  1.00  0.00    -0.005 C 
HETATM   30  C14 UNL     1     -88.387 -14.281  18.736  1.00  0.00     0.011 C 
HETATM   31  C15 UNL     1     -87.078 -15.978  17.518  1.00  0.00     0.011 C 
ENDBRANCH  28  29
ENDBRANCH  26  28
ENDBRANCH  23  26
ENDBRANCH   2  23
BRANCH   6  32
HETATM   32  C24 UNL     1     -87.345 -15.395  10.356  1.00  0.00    -0.021 C 
HETATM   33  C25 UNL     1     -85.979 -16.055  10.542  1.00  0.00     0.019 C 
HETATM   34  C26 UNL     1     -87.232 -13.882  10.563  1.00  0.00     0.019 C 
HETATM   35  C27 UNL     1     -87.547 -15.511   8.835  1.00  0.00     0.019 C 
ENDBRANCH   6  32
BRANCH   5  36
HETATM   36  O2  UNL     1     -89.610 -16.468   9.187  1.00  0.00    -0.359 OA
ATOM     37  H2  UNL     1     -88.955 -16.970   8.717  1.00  0.00     0.217 HD
ENDBRANCH   5  36
BRANCH   4  38
HETATM   38  C18 UNL     1     -91.871 -17.411  10.594  1.00  0.00    -0.021 C 
HETATM   39  C19 UNL     1     -92.750 -18.070  11.678  1.00  0.00     0.019 C 
HETATM   40  C20 UNL     1     -92.651 -16.231  10.021  1.00  0.00     0.019 C 
HETATM   41  C21 UNL     1     -91.634 -18.475   9.569  1.00  0.00     0.019 C 
ENDBRANCH   4  38
TORSDOF 12
ENDMDL
MODEL 2
REMARK VINA RESULT: -6.791361180      1.494      2.686
REMARK  12 active torsions:
REMARK  status: ('A' for Active; 'I' for Inactive)
REMARK    1  A    between atoms: N1_2  and  C2_5 
REMARK    2  A    between atoms: C2_5  and  C3_6 
REMARK    3  A    between atoms: N3_9  and  C4_10 
REMARK    4  A    between atoms: C8_16  and  C9_17 
REMARK    5  A    between atoms: C10_18  and  C11_19 
REMARK    6  A    between atoms: C11_19  and  O1_20 
REMARK    7  A    between atoms: C11_19  and  N5_22 
REMARK    8  A    between atoms: N5_22  and  C12_24 
REMARK    9  A    between atoms: C12_24  and  C13_25 
REMARK   10  A    between atoms: C17_29  and  C18_30 
REMARK   11  A    between atoms: C22_34  and  O2_35 
REMARK   12  A    between atoms: C23_37  and  C24_38 
ROOT
HETATM    1  C9  UNL     1     -88.353 -16.518  12.070  1.00  0.00     0.018 A 
HETATM    2  C10 UNL     1     -89.328 -17.204  12.760  1.00  0.00     0.028 A 
HETATM    3  C16 UNL     1     -90.485 -17.574  12.047  1.00  0.00     0.027 A 
HETATM    4  C17 UNL     1     -90.670 -17.283  10.734  1.00  0.00    -0.016 A 
HETATM    5  C22 UNL     1     -89.679 -16.598  10.089  1.00  0.00     0.080 A 
HETATM    6  C23 UNL     1     -88.486 -16.188  10.728  1.00  0.00    -0.003 A 
ENDROOT
BRANCH   1   7
HETATM    7  C8  UNL     1     -87.126 -16.236  12.801  1.00  0.00     0.087 A 
HETATM    8  C3  UNL     1     -86.990 -15.099  13.604  1.00  0.00     0.082 A 
HETATM    9  N2  UNL     1     -85.745 -15.151  14.100  1.00  0.00    -0.284 N 
HETATM   10  N3  UNL     1     -85.118 -16.224  13.666  1.00  0.00    -0.225 N 
ATOM     11  H2  UNL     1     -85.340 -14.456  14.727  1.00  0.00     0.188 HD
HETATM   12  N4  UNL     1     -85.953 -16.867  12.887  1.00  0.00    -0.281 N 
ATOM     13  H4  UNL     1     -85.735 -17.740  12.407  1.00  0.00     0.189 HD
BRANCH   8  14
HETATM   14  C2  UNL     1     -87.955 -14.014  13.911  1.00  0.00     0.292 C 
BRANCH  14  15
HETATM   15  N1  UNL     1     -88.769 -14.390  15.080  1.00  0.00    -0.074 N 
HETATM   16  C1  UNL     1     -88.181 -13.776  16.257  1.00  0.00     0.267 C 
ATOM     17  H12 UNL     1     -88.877 -15.400  15.176  1.00  0.00     0.277 HD
ATOM     18  H11 UNL     1     -89.755 -14.157  14.965  1.00  0.00     0.277 HD
ENDBRANCH  14  15
ENDBRANCH   8  14
BRANCH  10  19
HETATM   19  C4  UNL     1     -83.748 -16.538  14.064  1.00  0.00     0.060 C 
HETATM   20  C5  UNL     1     -82.812 -16.177  12.909  1.00  0.00     0.041 C 
HETATM   21  C6  UNL     1     -83.289 -15.756  15.263  1.00  0.00     0.041 C 
HETATM   22  C7  UNL     1     -83.558 -17.999  14.326  1.00  0.00     0.041 C 
ENDBRANCH  10  19
ENDBRANCH   1   7
BRANCH   2  23
HETATM   23  C11 UNL     1     -89.364 -17.541  14.149  1.00  0.00     0.147 C 
BRANCH  23  24
HETATM   24  O1  UNL     1     -90.412 -17.127  14.812  1.00  0.00    -0.346 OA
ATOM     25  H1  UNL     1     -91.205 -17.639  14.702  1.00  0.00     0.219 HD
ENDBRANCH  23  24
BRANCH  23  26
HETATM   26  N5  UNL     1     -88.448 -18.241  14.938  1.00  0.00    -0.370 N 
ATOM     27  H5  UNL     1     -88.025 -19.101  14.587  1.00  0.00     0.161 HD
BRANCH  26  28
HETATM   28  C12 UNL     1     -88.092 -17.735  16.284  1.00  0.00     0.125 C 
BRANCH  28  29
HETATM   29  C13 UNL     1     -86.608 -17.735  16.502  1.00  0.00    -0.005 C 
HETATM   30  C14 UNL     1     -86.136 -19.074  17.065  1.00  0.00     0.011 C 
HETATM   31  C15 UNL     1     -86.226 -16.646  17.484  1.00  0.00     0.011 C 
ENDBRANCH  28  29
ENDBRANCH  26  28
ENDBRANCH  23  26
ENDBRANCH   2  23
BRANCH   6  32
HETATM   32  C24 UNL     1     -87.508 -15.406  10.012  1.00  0.00    -0.021 C 
HETATM   33  C25 UNL     1     -86.062 -15.891  10.102  1.00  0.00     0.019 C 
HETATM   34  C26 UNL     1     -87.600 -13.937  10.435  1.00  0.00     0.019 C 
HETATM   35  C27 UNL     1     -87.722 -15.330   8.490  1.00  0.00     0.019 C 
ENDBRANCH   6  32
BRANCH   5  36
HETATM   36  O2  UNL     1     -89.822 -16.286   8.780  1.00  0.00    -0.359 OA
ATOM     37  H2  UNL     1     -89.150 -16.541   8.159  1.00  0.00     0.217 HD
ENDBRANCH   5  36
BRANCH   4  38
HETATM   38  C18 UNL     1     -91.909 -17.696  10.061  1.00  0.00    -0.021 C 
HETATM   39  C19 UNL     1     -92.772 -18.464  11.084  1.00  0.00     0.019 C 
HETATM   40  C20 UNL     1     -92.676 -16.439   9.661  1.00  0.00     0.019 C 
HETATM   41  C21 UNL     1     -91.728 -18.632   8.908  1.00  0.00     0.019 C 
ENDBRANCH   4  38
TORSDOF 12
ENDMDL
MODEL 3
REMARK VINA RESULT: -6.733544272      0.125      1.045
REMARK  12 active torsions:
REMARK  status: ('A' for Active; 'I' for Inactive)
REMARK    1  A    between atoms: N1_2  and  C2_5 
REMARK    2  A    between atoms: C2_5  and  C3_6 
REMARK    3  A    between atoms: N3_9  and  C4_10 
REMARK    4  A    between atoms: C8_16  and  C9_17 
REMARK    5  A    between atoms: C10_18  and  C11_19 
REMARK    6  A    between atoms: C11_19  and  O1_20 
REMARK    7  A    between atoms: C11_19  and  N5_22 
REMARK    8  A    between atoms: N5_22  and  C12_24 
REMARK    9  A    between atoms: C12_24  and  C13_25 
REMARK   10  A    between atoms: C17_29  and  C18_30 
REMARK   11  A    between atoms: C22_34  and  O2_35 
REMARK   12  A    between atoms: C23_37  and  C24_38 
ROOT
HETATM    1  C9  UNL     1     -88.333 -15.900  12.611  1.00  0.00     0.018 A 
HETATM    2  C10 UNL     1     -89.390 -16.367  13.360  1.00  0.00     0.028 A 
HETATM    3  C16 UNL     1     -90.500 -16.882  12.661  1.00  0.00     0.027 A 
HETATM    4  C17 UNL     1     -90.563 -16.930  11.306  1.00  0.00    -0.016 A 
HETATM    5  C22 UNL     1     -89.494 -16.453  10.602  1.00  0.00     0.080 A 
HETATM    6  C23 UNL     1     -88.340 -15.919  11.222  1.00  0.00    -0.003 A 
ENDROOT
BRANCH   1   7
HETATM    7  C8  UNL     1     -87.159 -15.468  13.356  1.00  0.00     0.087 A 
HETATM    8  C3  UNL     1     -86.232 -16.383  13.866  1.00  0.00     0.082 A 
HETATM    9  N2  UNL     1     -85.306 -15.646  14.500  1.00  0.00    -0.284 N 
HETATM   10  N3  UNL     1     -85.596 -14.365  14.415  1.00  0.00    -0.225 N 
ATOM     11  H2  UNL     1     -84.492 -16.025  14.982  1.00  0.00     0.188 HD
HETATM   12  N4  UNL     1     -86.709 -14.269  13.729  1.00  0.00    -0.281 N 
ATOM     13  H4  UNL     1     -87.173 -13.387  13.507  1.00  0.00     0.189 HD
BRANCH   8  14
HETATM   14  C2  UNL     1     -86.185 -17.862  13.775  1.00  0.00     0.292 C 
BRANCH  14  15
HETATM   15  N1  UNL     1     -86.628 -18.453  15.050  1.00  0.00    -0.074 N 
HETATM   16  C1  UNL     1     -86.788 -19.882  14.855  1.00  0.00     0.267 C 
ATOM     17  H12 UNL     1     -87.469 -18.009  15.419  1.00  0.00     0.277 HD
ATOM     18  H11 UNL     1     -86.004 -18.229  15.825  1.00  0.00     0.277 HD
ENDBRANCH  14  15
ENDBRANCH   8  14
BRANCH  10  19
HETATM   19  C4  UNL     1     -84.747 -13.335  15.006  1.00  0.00     0.060 C 
HETATM   20  C5  UNL     1     -84.339 -12.352  13.907  1.00  0.00     0.041 C 
HETATM   21  C6  UNL     1     -85.445 -12.536  16.072  1.00  0.00     0.041 C 
HETATM   22  C7  UNL     1     -83.479 -13.900  15.565  1.00  0.00     0.041 C 
ENDBRANCH  10  19
ENDBRANCH   1   7
BRANCH   2  23
HETATM   23  C11 UNL     1     -89.555 -16.338  14.780  1.00  0.00     0.147 C 
BRANCH  23  24
HETATM   24  O1  UNL     1     -89.467 -17.490  15.391  1.00  0.00    -0.346 OA
ATOM     25  H1  UNL     1     -88.887 -17.521  16.143  1.00  0.00     0.219 HD
ENDBRANCH  23  24
BRANCH  23  26
HETATM   26  N5  UNL     1     -89.811 -15.269  15.643  1.00  0.00    -0.370 N 
ATOM     27  H5  UNL     1     -90.769 -14.952  15.793  1.00  0.00     0.161 HD
BRANCH  26  28
HETATM   28  C12 UNL     1     -88.690 -14.595  16.338  1.00  0.00     0.125 C 
BRANCH  28  29
HETATM   29  C13 UNL     1     -88.373 -15.254  17.648  1.00  0.00    -0.005 C 
HETATM   30  C14 UNL     1     -88.323 -14.229  18.779  1.00  0.00     0.011 C 
HETATM   31  C15 UNL     1     -87.027 -15.944  17.571  1.00  0.00     0.011 C 
ENDBRANCH  28  29
ENDBRANCH  26  28
ENDBRANCH  23  26
ENDBRANCH   2  23
BRANCH   6  32
HETATM   32  C24 UNL     1     -87.274 -15.366  10.424  1.00  0.00    -0.021 C 
HETATM   33  C25 UNL     1     -85.896 -16.001  10.610  1.00  0.00     0.019 C 
HETATM   34  C26 UNL     1     -87.191 -13.852  10.637  1.00  0.00     0.019 C 
HETATM   35  C27 UNL     1     -87.473 -15.480   8.903  1.00  0.00     0.019 C 
ENDBRANCH   6  32
BRANCH   5  36
HETATM   36  O2  UNL     1     -89.516 -16.482   9.249  1.00  0.00    -0.359 OA
ATOM     37  H2  UNL     1     -88.699 -16.450   8.765  1.00  0.00     0.217 HD
ENDBRANCH   5  36
BRANCH   4  38
HETATM   38  C18 UNL     1     -91.760 -17.475  10.649  1.00  0.00    -0.021 C 
HETATM   39  C19 UNL     1     -92.466 -16.316   9.915  1.00  0.00     0.019 C 
HETATM   40  C20 UNL     1     -91.308 -18.482   9.596  1.00  0.00     0.019 C 
HETATM   41  C21 UNL     1     -92.788 -18.051  11.571  1.00  0.00     0.019 C 
ENDBRANCH   4  38
TORSDOF 12
ENDMDL
MODEL 4
REMARK VINA RESULT: -6.702097823      2.186      2.855
REMARK  12 active torsions:
REMARK  status: ('A' for Active; 'I' for Inactive)
REMARK    1  A    between atoms: N1_2  and  C2_5 
REMARK    2  A    between atoms: C2_5  and  C3_6 
REMARK    3  A    between atoms: N3_9  and  C4_10 
REMARK    4  A    between atoms: C8_16  and  C9_17 
REMARK    5  A    between atoms: C10_18  and  C11_19 
REMARK    6  A    between atoms: C11_19  and  O1_20 
REMARK    7  A    between atoms: C11_19  and  N5_22 
REMARK    8  A    between atoms: N5_22  and  C12_24 
REMARK    9  A    between atoms: C12_24  and  C13_25 
REMARK   10  A    between atoms: C17_29  and  C18_30 
REMARK   11  A    between atoms: C22_34  and  O2_35 
REMARK   12  A    between atoms: C23_37  and  C24_38 
ROOT
HETATM    1  C9  UNL     1     -87.752 -14.341  11.302  1.00  0.00     0.018 A 
HETATM    2  C10 UNL     1     -89.024 -14.320  11.828  1.00  0.00     0.028 A 
HETATM    3  C16 UNL     1     -90.087 -14.650  10.962  1.00  0.00     0.027 A 
HETATM    4  C17 UNL     1     -89.903 -14.977   9.658  1.00  0.00    -0.016 A 
HETATM    5  C22 UNL     1     -88.624 -14.981   9.177  1.00  0.00     0.080 A 
HETATM    6  C23 UNL     1     -87.501 -14.664   9.975  1.00  0.00    -0.003 A 
ENDROOT
BRANCH   1   7
HETATM    7  C8  UNL     1     -86.665 -14.096  12.240  1.00  0.00     0.087 A 
HETATM    8  C3  UNL     1     -86.052 -15.137  12.946  1.00  0.00     0.082 A 
HETATM    9  N2  UNL     1     -85.123 -14.553  13.718  1.00  0.00    -0.284 N 
HETATM   10  N3  UNL     1     -85.122 -13.249  13.538  1.00  0.00    -0.225 N 
ATOM     11  H2  UNL     1     -84.502 -15.050  14.357  1.00  0.00     0.188 HD
HETATM   12  N4  UNL     1     -86.051 -12.985  12.651  1.00  0.00    -0.281 N 
ATOM     13  H4  UNL     1     -86.277 -12.048  12.317  1.00  0.00     0.189 HD
BRANCH   8  14
HETATM   14  C2  UNL     1     -86.296 -16.600  12.915  1.00  0.00     0.292 C 
BRANCH  14  15
HETATM   15  N1  UNL     1     -85.009 -17.317  12.882  1.00  0.00    -0.074 N 
HETATM   16  C1  UNL     1     -85.062 -18.383  13.866  1.00  0.00     0.267 C 
ATOM     17  H12 UNL     1     -84.209 -16.698  13.016  1.00  0.00     0.277 HD
ATOM     18  H11 UNL     1     -84.769 -17.653  11.950  1.00  0.00     0.277 HD
ENDBRANCH  14  15
ENDBRANCH   8  14
BRANCH  10  19
HETATM   19  C4  UNL     1     -84.198 -12.367  14.244  1.00  0.00     0.060 C 
HETATM   20  C5  UNL     1     -83.029 -13.204  14.765  1.00  0.00     0.041 C 
HETATM   21  C6  UNL     1     -83.613 -11.299  13.362  1.00  0.00     0.041 C 
HETATM   22  C7  UNL     1     -84.830 -11.727  15.440  1.00  0.00     0.041 C 
ENDBRANCH  10  19
ENDBRANCH   1   7
BRANCH   2  23
HETATM   23  C11 UNL     1     -89.438 -13.934  13.141  1.00  0.00     0.147 C 
BRANCH  23  24
HETATM   24  O1  UNL     1     -89.723 -12.669  13.304  1.00  0.00    -0.346 OA
ATOM     25  H1  UNL     1     -89.173 -12.053  12.834  1.00  0.00     0.219 HD
ENDBRANCH  23  24
BRANCH  23  26
HETATM   26  N5  UNL     1     -89.583 -14.691  14.307  1.00  0.00    -0.370 N 
ATOM     27  H5  UNL     1     -88.798 -14.794  14.949  1.00  0.00     0.161 HD
BRANCH  26  28
HETATM   28  C12 UNL     1     -90.878 -15.344  14.608  1.00  0.00     0.125 C 
BRANCH  28  29
HETATM   29  C13 UNL     1     -90.806 -16.831  14.428  1.00  0.00    -0.005 C 
HETATM   30  C14 UNL     1     -89.386 -17.343  14.660  1.00  0.00     0.011 C 
HETATM   31  C15 UNL     1     -91.223 -17.206  13.021  1.00  0.00     0.011 C 
ENDBRANCH  28  29
ENDBRANCH  26  28
ENDBRANCH  23  26
ENDBRANCH   2  23
BRANCH   6  32
HETATM   32  C24 UNL     1     -86.183 -14.617   9.392  1.00  0.00    -0.021 C 
HETATM   33  C25 UNL     1     -85.291 -15.831   9.647  1.00  0.00     0.019 C 
HETATM   34  C26 UNL     1     -85.464 -13.334   9.821  1.00  0.00     0.019 C 
HETATM   35  C27 UNL     1     -86.153 -14.520   7.857  1.00  0.00     0.019 C 
ENDBRANCH   6  32
BRANCH   5  36
HETATM   36  O2  UNL     1     -88.396 -15.301   7.882  1.00  0.00    -0.359 OA
ATOM     37  H2  UNL     1     -88.783 -16.088   7.516  1.00  0.00     0.217 HD
ENDBRANCH   5  36
BRANCH   4  38
HETATM   38  C18 UNL     1     -91.063 -15.301   8.816  1.00  0.00    -0.021 C 
HETATM   39  C19 UNL     1     -91.199 -16.837   8.766  1.00  0.00     0.019 C 
HETATM   40  C20 UNL     1     -92.314 -14.749   9.494  1.00  0.00     0.019 C 
HETATM   41  C21 UNL     1     -90.959 -14.861   7.390  1.00  0.00     0.019 C 
ENDBRANCH   4  38
TORSDOF 12
ENDMDL
MODEL 5
REMARK VINA RESULT: -6.664847566      1.721      2.898
REMARK  12 active torsions:
REMARK  status: ('A' for Active; 'I' for Inactive)
REMARK    1  A    between atoms: N1_2  and  C2_5 
REMARK    2  A    between atoms: C2_5  and  C3_6 
REMARK    3  A    between atoms: N3_9  and  C4_10 
REMARK    4  A    between atoms: C8_16  and  C9_17 
REMARK    5  A    between atoms: C10_18  and  C11_19 
REMARK    6  A    between atoms: C11_19  and  O1_20 
REMARK    7  A    between atoms: C11_19  and  N5_22 
REMARK    8  A    between atoms: N5_22  and  C12_24 
REMARK    9  A    between atoms: C12_24  and  C13_25 
REMARK   10  A    between atoms: C17_29  and  C18_30 
REMARK   11  A    between atoms: C22_34  and  O2_35 
REMARK   12  A    between atoms: C23_37  and  C24_38 
ROOT
HETATM    1  C9  UNL     1     -88.901 -16.387  12.208  1.00  0.00     0.018 A 
HETATM    2  C10 UNL     1     -89.844 -16.985  13.013  1.00  0.00     0.028 A 
HETATM    3  C16 UNL     1     -91.025 -17.443  12.394  1.00  0.00     0.027 A 
HETATM    4  C17 UNL     1     -91.259 -17.317  11.063  1.00  0.00    -0.016 A 
HETATM    5  C22 UNL     1     -90.297 -16.714  10.303  1.00  0.00     0.080 A 
HETATM    6  C23 UNL     1     -89.084 -16.225  10.841  1.00  0.00    -0.003 A 
ENDROOT
BRANCH   1   7
HETATM    7  C8  UNL     1     -87.649 -16.014  12.853  1.00  0.00     0.087 A 
HETATM    8  C3  UNL     1     -87.517 -14.819  13.569  1.00  0.00     0.082 A 
HETATM    9  N2  UNL     1     -86.247 -14.795  14.001  1.00  0.00    -0.284 N 
HETATM   10  N3  UNL     1     -85.602 -15.873  13.608  1.00  0.00    -0.225 N 
ATOM     11  H2  UNL     1     -85.837 -14.045  14.558  1.00  0.00     0.188 HD
HETATM   12  N4  UNL     1     -86.451 -16.597  12.919  1.00  0.00    -0.281 N 
ATOM     13  H4  UNL     1     -86.225 -17.493  12.488  1.00  0.00     0.189 HD
BRANCH   8  14
HETATM   14  C2  UNL     1     -88.504 -13.749  13.853  1.00  0.00     0.292 C 
BRANCH  14  15
HETATM   15  N1  UNL     1     -87.800 -12.483  14.124  1.00  0.00    -0.074 N 
HETATM   16  C1  UNL     1     -87.897 -11.651  12.939  1.00  0.00     0.267 C 
ATOM     17  H12 UNL     1     -86.837 -12.625  14.428  1.00  0.00     0.277 HD
ATOM     18  H11 UNL     1     -88.142 -12.015  14.963  1.00  0.00     0.277 HD
ENDBRANCH  14  15
ENDBRANCH   8  14
BRANCH  10  19
HETATM   19  C4  UNL     1     -84.204 -16.112  13.953  1.00  0.00     0.060 C 
HETATM   20  C5  UNL     1     -83.321 -15.371  12.948  1.00  0.00     0.041 C 
HETATM   21  C6  UNL     1     -83.838 -15.601  15.319  1.00  0.00     0.041 C 
HETATM   22  C7  UNL     1     -83.838 -17.560  13.855  1.00  0.00     0.041 C 
ENDBRANCH  10  19
ENDBRANCH   1   7
BRANCH   2  23
HETATM   23  C11 UNL     1     -89.828 -17.147  14.433  1.00  0.00     0.147 C 
BRANCH  23  24
HETATM   24  O1  UNL     1     -90.777 -16.535  15.092  1.00  0.00    -0.346 OA
ATOM     25  H1  UNL     1     -90.683 -16.515  16.037  1.00  0.00     0.219 HD
ENDBRANCH  23  24
BRANCH  23  26
HETATM   26  N5  UNL     1     -88.947 -17.854  15.256  1.00  0.00    -0.370 N 
ATOM     27  H5  UNL     1     -88.843 -18.863  15.145  1.00  0.00     0.161 HD
BRANCH  26  28
HETATM   28  C12 UNL     1     -88.165 -17.138  16.290  1.00  0.00     0.125 C 
BRANCH  28  29
HETATM   29  C13 UNL     1     -86.779 -17.695  16.423  1.00  0.00    -0.005 C 
HETATM   30  C14 UNL     1     -86.662 -19.048  15.726  1.00  0.00     0.011 C 
HETATM   31  C15 UNL     1     -86.432 -17.882  17.886  1.00  0.00     0.011 C 
ENDBRANCH  28  29
ENDBRANCH  26  28
ENDBRANCH  23  26
ENDBRANCH   2  23
BRANCH   6  32
HETATM   32  C24 UNL     1     -88.139 -15.535   9.998  1.00  0.00    -0.021 C 
HETATM   33  C25 UNL     1     -86.687 -16.001  10.094  1.00  0.00     0.019 C 
HETATM   34  C26 UNL     1     -88.226 -14.025  10.239  1.00  0.00     0.019 C 
HETATM   35  C27 UNL     1     -88.408 -15.649   8.488  1.00  0.00     0.019 C 
ENDBRANCH   6  32
BRANCH   5  36
HETATM   36  O2  UNL     1     -90.490 -16.567   8.971  1.00  0.00    -0.359 OA
ATOM     37  H2  UNL     1     -89.742 -16.558   8.385  1.00  0.00     0.217 HD
ENDBRANCH   5  36
BRANCH   4  38
HETATM   38  C18 UNL     1     -92.519 -17.814  10.492  1.00  0.00    -0.021 C 
HETATM   39  C19 UNL     1     -93.218 -18.675  11.564  1.00  0.00     0.019 C 
HETATM   40  C20 UNL     1     -93.418 -16.614  10.206  1.00  0.00     0.019 C 
HETATM   41  C21 UNL     1     -92.372 -18.701   9.297  1.00  0.00     0.019 C 
ENDBRANCH   4  38
TORSDOF 12
ENDMDL
