MODEL 1
REMARK VINA RESULT: -8.320559828      0.000      0.000
REMARK  7 active torsions:
REMARK  status: ('A' for Active; 'I' for Inactive)
REMARK    1  A    between atoms: O1_2  and  C2_3 
REMARK    2  A    between atoms: C7_10  and  C8_11 
REMARK    3  A    between atoms: N3_19  and  C12_21 
REMARK    4  A    between atoms: C12_21  and  C13_22 
REMARK    5  A    between atoms: C13_22  and  C14_23 
REMARK    6  A    between atoms: C14_23  and  C15_24 
REMARK    7  A    between atoms: C15_24  and  O2_25 
ROOT
HETATM    1  C8  UNL     1     -90.598 -16.865   8.334  1.00  0.00     0.076 A 
HETATM    2  N1  UNL     1     -91.362 -16.803   7.211  1.00  0.00    -0.298 N 
ATOM      3  H1  UNL     1     -92.358 -17.020   7.167  1.00  0.00     0.187 HD
HETATM    4  N2  UNL     1     -90.626 -16.422   6.189  1.00  0.00    -0.297 N 
ATOM      5  H2  UNL     1     -90.968 -16.299   5.236  1.00  0.00     0.187 HD
HETATM    6  C9  UNL     1     -89.342 -16.214   6.589  1.00  0.00     0.092 A 
HETATM    7  C10 UNL     1     -89.331 -16.492   7.933  1.00  0.00     0.051 A 
HETATM    8  C11 UNL     1     -87.954 -16.280   8.431  1.00  0.00     0.057 A 
HETATM    9  N3  UNL     1     -87.645 -16.452   9.622  1.00  0.00    -0.388 N 
ATOM     10  H3  UNL     1     -88.434 -16.748  10.197  1.00  0.00     0.159 HD
HETATM   11  C16 UNL     1     -87.190 -15.858   7.267  1.00  0.00     0.039 A 
HETATM   12  C17 UNL     1     -85.936 -15.470   6.820  1.00  0.00     0.123 A 
HETATM   13  N4  UNL     1     -86.055 -15.221   5.513  1.00  0.00    -0.310 N 
ATOM     14  H4  UNL     1     -85.281 -14.915   4.923  1.00  0.00     0.186 HD
HETATM   15  N5  UNL     1     -87.283 -15.415   5.071  1.00  0.00    -0.298 N 
ATOM     16  H5  UNL     1     -87.621 -15.292   4.116  1.00  0.00     0.187 HD
HETATM   17  C18 UNL     1     -88.003 -15.813   6.154  1.00  0.00     0.091 A 
ENDROOT
BRANCH   1  18
HETATM   18  C7  UNL     1     -91.047 -17.231   9.667  1.00  0.00     0.029 A 
HETATM   19  C2  UNL     1     -91.976 -18.238   9.792  1.00  0.00     0.098 A 
HETATM   20  C3  UNL     1     -92.438 -18.650  11.022  1.00  0.00     0.046 A 
HETATM   21 BR1  UNL     1     -93.724 -20.045  11.191  1.00  0.00    -0.048 Br
HETATM   22  C4  UNL     1     -91.980 -18.059  12.190  1.00  0.00     0.041 A 
HETATM   23  C5  UNL     1     -91.043 -17.043  12.071  1.00  0.00     0.013 A 
HETATM   24 BR2  UNL     1     -90.406 -16.229  13.685  1.00  0.00    -0.051 Br
HETATM   25  C6  UNL     1     -90.590 -16.644  10.825  1.00  0.00     0.035 A 
BRANCH  19  26
HETATM   26  O1  UNL     1     -92.450 -18.841   8.617  1.00  0.00    -0.354 OA
HETATM   27  C1  UNL     1     -91.886 -20.132   8.333  1.00  0.00     0.210 C 
ENDBRANCH  19  26
ENDBRANCH   1  18
BRANCH   9  28
HETATM   28  C12 UNL     1     -86.447 -16.328  10.356  1.00  0.00     0.120 C 
BRANCH  28  29
HETATM   29  C13 UNL     1     -86.239 -14.901  10.890  1.00  0.00     0.022 C 
BRANCH  29  30
HETATM   30  C14 UNL     1     -87.461 -14.556  11.707  1.00  0.00     0.028 C 
BRANCH  30  31
HETATM   31  C15 UNL     1     -87.103 -14.291  13.171  1.00  0.00     0.164 C 
BRANCH  31  32
HETATM   32  O2  UNL     1     -87.906 -13.253  13.632  1.00  0.00    -0.401 OA
ATOM     33  H2  UNL     1     -87.667 -13.072  14.534  1.00  0.00     0.209 HD
ENDBRANCH  31  32
ENDBRANCH  30  31
ENDBRANCH  29  30
ENDBRANCH  28  29
ENDBRANCH   9  28
TORSDOF 7
ENDMDL
MODEL 2
REMARK VINA RESULT: -8.195256954      2.013      2.296
REMARK  7 active torsions:
REMARK  status: ('A' for Active; 'I' for Inactive)
REMARK    1  A    between atoms: O1_2  and  C2_3 
REMARK    2  A    between atoms: C7_10  and  C8_11 
REMARK    3  A    between atoms: N3_19  and  C12_21 
REMARK    4  A    between atoms: C12_21  and  C13_22 
REMARK    5  A    between atoms: C13_22  and  C14_23 
REMARK    6  A    between atoms: C14_23  and  C15_24 
REMARK    7  A    between atoms: C15_24  and  O2_25 
ROOT
HETATM    1  C8  UNL     1     -91.082 -16.587   7.629  1.00  0.00     0.076 A 
HETATM    2  N1  UNL     1     -91.418 -16.240   6.358  1.00  0.00    -0.298 N 
ATOM      3  H1  UNL     1     -92.366 -16.243   5.982  1.00  0.00     0.187 HD
HETATM    4  N2  UNL     1     -90.340 -15.901   5.685  1.00  0.00    -0.297 N 
ATOM      5  H2  UNL     1     -90.329 -15.602   4.710  1.00  0.00     0.187 HD
HETATM    6  C9  UNL     1     -89.240 -16.007   6.480  1.00  0.00     0.092 A 
HETATM    7  C10 UNL     1     -89.711 -16.436   7.696  1.00  0.00     0.051 A 
HETATM    8  C11 UNL     1     -88.556 -16.567   8.611  1.00  0.00     0.057 A 
HETATM    9  N3  UNL     1     -88.683 -16.935   9.790  1.00  0.00    -0.388 N 
ATOM     10  H3  UNL     1     -89.651 -17.129  10.043  1.00  0.00     0.159 HD
HETATM   11  C16 UNL     1     -87.398 -16.177   7.821  1.00  0.00     0.039 A 
HETATM   12  C17 UNL     1     -86.023 -16.004   7.842  1.00  0.00     0.123 A 
HETATM   13  N4  UNL     1     -85.669 -15.587   6.624  1.00  0.00    -0.310 N 
ATOM     14  H4  UNL     1     -84.708 -15.378   6.354  1.00  0.00     0.186 HD
HETATM   15  N5  UNL     1     -86.700 -15.474   5.809  1.00  0.00    -0.298 N 
ATOM     16  H5  UNL     1     -86.686 -15.175   4.834  1.00  0.00     0.187 HD
HETATM   17  C18 UNL     1     -87.787 -15.839   6.541  1.00  0.00     0.091 A 
ENDROOT
BRANCH   1  18
HETATM   18  C7  UNL     1     -91.991 -17.005   8.682  1.00  0.00     0.029 A 
HETATM   19  C2  UNL     1     -92.186 -18.352   8.883  1.00  0.00     0.098 A 
HETATM   20  C3  UNL     1     -93.021 -18.825   9.870  1.00  0.00     0.046 A 
HETATM   21 BR1  UNL     1     -93.288 -20.691  10.145  1.00  0.00    -0.048 Br
HETATM   22  C4  UNL     1     -93.703 -17.952  10.705  1.00  0.00     0.041 A 
HETATM   23  C5  UNL     1     -93.512 -16.592  10.508  1.00  0.00     0.013 A 
HETATM   24 BR2  UNL     1     -94.450 -15.387  11.665  1.00  0.00    -0.051 Br
HETATM   25  C6  UNL     1     -92.667 -16.137   9.511  1.00  0.00     0.035 A 
BRANCH  19  26
HETATM   26  O1  UNL     1     -91.505 -19.244   8.041  1.00  0.00    -0.354 OA
HETATM   27  C1  UNL     1     -90.508 -20.046   8.696  1.00  0.00     0.210 C 
ENDBRANCH  19  26
ENDBRANCH   1  18
BRANCH   9  28
HETATM   28  C12 UNL     1     -87.785 -17.144  10.859  1.00  0.00     0.120 C 
BRANCH  28  29
HETATM   29  C13 UNL     1     -88.477 -17.769  12.082  1.00  0.00     0.022 C 
BRANCH  29  30
HETATM   30  C14 UNL     1     -89.963 -17.617  11.872  1.00  0.00     0.028 C 
BRANCH  30  31
HETATM   31  C15 UNL     1     -90.594 -16.712  12.932  1.00  0.00     0.164 C 
BRANCH  31  32
HETATM   32  O2  UNL     1     -91.684 -17.380  13.479  1.00  0.00    -0.401 OA
ATOM     33  H2  UNL     1     -91.859 -17.009  14.337  1.00  0.00     0.209 HD
ENDBRANCH  31  32
ENDBRANCH  30  31
ENDBRANCH  29  30
ENDBRANCH  28  29
ENDBRANCH   9  28
TORSDOF 7
ENDMDL
MODEL 3
REMARK VINA RESULT: -8.100502580      1.226      1.405
REMARK  7 active torsions:
REMARK  status: ('A' for Active; 'I' for Inactive)
REMARK    1  A    between atoms: O1_2  and  C2_3 
REMARK    2  A    between atoms: C7_10  and  C8_11 
REMARK    3  A    between atoms: N3_19  and  C12_21 
REMARK    4  A    between atoms: C12_21  and  C13_22 
REMARK    5  A    between atoms: C13_22  and  C14_23 
REMARK    6  A    between atoms: C14_23  and  C15_24 
REMARK    7  A    between atoms: C15_24  and  O2_25 
ROOT
HETATM    1  C8  UNL     1     -90.635 -16.854   8.325  1.00  0.00     0.076 A 
HETATM    2  N1  UNL     1     -91.418 -16.738   7.219  1.00  0.00    -0.298 N 
ATOM      3  H1  UNL     1     -92.421 -16.920   7.190  1.00  0.00     0.187 HD
HETATM    4  N2  UNL     1     -90.688 -16.358   6.192  1.00  0.00    -0.297 N 
ATOM      5  H2  UNL     1     -91.044 -16.200   5.249  1.00  0.00     0.187 HD
HETATM    6  C9  UNL     1     -89.390 -16.204   6.571  1.00  0.00     0.092 A 
HETATM    7  C10 UNL     1     -89.364 -16.515   7.908  1.00  0.00     0.051 A 
HETATM    8  C11 UNL     1     -87.971 -16.361   8.383  1.00  0.00     0.057 A 
HETATM    9  N3  UNL     1     -87.646 -16.573   9.563  1.00  0.00    -0.388 N 
ATOM     10  H3  UNL     1     -88.433 -16.856  10.146  1.00  0.00     0.159 HD
HETATM   11  C16 UNL     1     -87.215 -15.938   7.215  1.00  0.00     0.039 A 
HETATM   12  C17 UNL     1     -85.957 -15.582   6.752  1.00  0.00     0.123 A 
HETATM   13  N4  UNL     1     -86.092 -15.298   5.454  1.00  0.00    -0.310 N 
ATOM     14  H4  UNL     1     -85.319 -15.004   4.856  1.00  0.00     0.186 HD
HETATM   15  N5  UNL     1     -87.334 -15.439   5.032  1.00  0.00    -0.298 N 
ATOM     16  H5  UNL     1     -87.685 -15.281   4.087  1.00  0.00     0.187 HD
HETATM   17  C18 UNL     1     -88.047 -15.838   6.119  1.00  0.00     0.091 A 
ENDROOT
BRANCH   1  18
HETATM   18  C7  UNL     1     -91.071 -17.236   9.657  1.00  0.00     0.029 A 
HETATM   19  C2  UNL     1     -91.985 -18.258   9.780  1.00  0.00     0.098 A 
HETATM   20  C3  UNL     1     -92.434 -18.686  11.009  1.00  0.00     0.046 A 
HETATM   21 BR1  UNL     1     -93.699 -20.100  11.174  1.00  0.00    -0.048 Br
HETATM   22  C4  UNL     1     -91.977 -18.097  12.179  1.00  0.00     0.041 A 
HETATM   23  C5  UNL     1     -91.055 -17.066  12.063  1.00  0.00     0.013 A 
HETATM   24 BR2  UNL     1     -90.421 -16.256  13.679  1.00  0.00    -0.051 Br
HETATM   25  C6  UNL     1     -90.616 -16.652  10.818  1.00  0.00     0.035 A 
BRANCH  19  26
HETATM   26  O1  UNL     1     -92.457 -18.858   8.603  1.00  0.00    -0.354 OA
HETATM   27  C1  UNL     1     -91.874 -20.138   8.305  1.00  0.00     0.210 C 
ENDBRANCH  19  26
ENDBRANCH   1  18
BRANCH   9  28
HETATM   28  C12 UNL     1     -86.430 -16.508  10.276  1.00  0.00     0.120 C 
BRANCH  28  29
HETATM   29  C13 UNL     1     -86.490 -15.494  11.432  1.00  0.00     0.022 C 
BRANCH  29  30
HETATM   30  C14 UNL     1     -85.754 -14.259  10.971  1.00  0.00     0.028 C 
BRANCH  30  31
HETATM   31  C15 UNL     1     -84.492 -14.616  10.183  1.00  0.00     0.164 C 
BRANCH  31  32
HETATM   32  O2  UNL     1     -84.386 -13.733   9.113  1.00  0.00    -0.401 OA
ATOM     33  H2  UNL     1     -83.737 -13.075   9.336  1.00  0.00     0.209 HD
ENDBRANCH  31  32
ENDBRANCH  30  31
ENDBRANCH  29  30
ENDBRANCH  28  29
ENDBRANCH   9  28
TORSDOF 7
ENDMDL
MODEL 4
REMARK VINA RESULT: -7.950669017      2.315      5.754
REMARK  7 active torsions:
REMARK  status: ('A' for Active; 'I' for Inactive)
REMARK    1  A    between atoms: O1_2  and  C2_3 
REMARK    2  A    between atoms: C7_10  and  C8_11 
REMARK    3  A    between atoms: N3_19  and  C12_21 
REMARK    4  A    between atoms: C12_21  and  C13_22 
REMARK    5  A    between atoms: C13_22  and  C14_23 
REMARK    6  A    between atoms: C14_23  and  C15_24 
REMARK    7  A    between atoms: C15_24  and  O2_25 
ROOT
HETATM    1  C8  UNL     1     -85.565 -16.589  10.102  1.00  0.00     0.076 A 
HETATM    2  N1  UNL     1     -84.325 -16.232   9.672  1.00  0.00    -0.298 N 
ATOM      3  H1  UNL     1     -83.481 -16.245  10.244  1.00  0.00     0.187 HD
HETATM    4  N2  UNL     1     -84.377 -15.868   8.409  1.00  0.00    -0.297 N 
ATOM      5  H2  UNL     1     -83.577 -15.557   7.857  1.00  0.00     0.187 HD
HETATM    6  C9  UNL     1     -85.652 -15.967   7.945  1.00  0.00     0.092 A 
HETATM    7  C10 UNL     1     -86.391 -16.420   9.009  1.00  0.00     0.051 A 
HETATM    8  C11 UNL     1     -87.795 -16.554   8.564  1.00  0.00     0.057 A 
HETATM    9  N3  UNL     1     -88.696 -16.952   9.321  1.00  0.00    -0.388 N 
ATOM     10  H3  UNL     1     -88.358 -17.170  10.258  1.00  0.00     0.159 HD
HETATM   11  C16 UNL     1     -87.793 -16.145   7.168  1.00  0.00     0.039 A 
HETATM   12  C17 UNL     1     -88.582 -15.967   6.042  1.00  0.00     0.123 A 
HETATM   13  N4  UNL     1     -87.775 -15.532   5.072  1.00  0.00    -0.310 N 
ATOM     14  H4  UNL     1     -88.091 -15.317   4.126  1.00  0.00     0.186 HD
HETATM   15  N5  UNL     1     -86.524 -15.410   5.472  1.00  0.00    -0.298 N 
ATOM     16  H5  UNL     1     -85.727 -15.098   4.917  1.00  0.00     0.187 HD
HETATM   17  C18 UNL     1     -86.518 -15.789   6.779  1.00  0.00     0.091 A 
ENDROOT
BRANCH   1  18
HETATM   18  C7  UNL     1     -85.917 -17.063  11.429  1.00  0.00     0.029 A 
HETATM   19  C2  UNL     1     -86.775 -16.303  12.191  1.00  0.00     0.098 A 
HETATM   20  C3  UNL     1     -87.166 -16.695  13.451  1.00  0.00     0.046 A 
HETATM   21 BR1  UNL     1     -88.354 -15.640  14.502  1.00  0.00    -0.048 Br
HETATM   22  C4  UNL     1     -86.704 -17.880  14.005  1.00  0.00     0.041 A 
HETATM   23  C5  UNL     1     -85.838 -18.651  13.243  1.00  0.00     0.013 A 
HETATM   24 BR2  UNL     1     -85.203 -20.290  14.006  1.00  0.00    -0.051 Br
HETATM   25  C6  UNL     1     -85.458 -18.240  11.977  1.00  0.00     0.035 A 
BRANCH  19  26
HETATM   26  O1  UNL     1     -87.246 -15.101  11.642  1.00  0.00    -0.354 OA
HETATM   27  C1  UNL     1     -86.457 -13.944  11.963  1.00  0.00     0.210 C 
ENDBRANCH  19  26
ENDBRANCH   1  18
BRANCH   9  28
HETATM   28  C12 UNL     1     -90.082 -17.171   9.173  1.00  0.00     0.120 C 
BRANCH  28  29
HETATM   29  C13 UNL     1     -90.490 -18.597   9.582  1.00  0.00     0.022 C 
BRANCH  29  30
HETATM   30  C14 UNL     1     -91.654 -18.989   8.705  1.00  0.00     0.028 C 
BRANCH  30  31
HETATM   31  C15 UNL     1     -91.590 -20.467   8.311  1.00  0.00     0.164 C 
BRANCH  31  32
HETATM   32  O2  UNL     1     -92.724 -20.764   7.561  1.00  0.00    -0.401 OA
ATOM     33  H2  UNL     1     -93.431 -20.202   7.859  1.00  0.00     0.209 HD
ENDBRANCH  31  32
ENDBRANCH  30  31
ENDBRANCH  29  30
ENDBRANCH  28  29
ENDBRANCH   9  28
TORSDOF 7
ENDMDL
MODEL 5
REMARK VINA RESULT: -7.942125911      2.194      5.269
REMARK  7 active torsions:
REMARK  status: ('A' for Active; 'I' for Inactive)
REMARK    1  A    between atoms: O1_2  and  C2_3 
REMARK    2  A    between atoms: C7_10  and  C8_11 
REMARK    3  A    between atoms: N3_19  and  C12_21 
REMARK    4  A    between atoms: C12_21  and  C13_22 
REMARK    5  A    between atoms: C13_22  and  C14_23 
REMARK    6  A    between atoms: C14_23  and  C15_24 
REMARK    7  A    between atoms: C15_24  and  O2_25 
ROOT
HETATM    1  C8  UNL     1     -86.357 -16.252  10.426  1.00  0.00     0.076 A 
HETATM    2  N1  UNL     1     -85.202 -15.548  10.284  1.00  0.00    -0.298 N 
ATOM      3  H1  UNL     1     -84.534 -15.364  11.032  1.00  0.00     0.187 HD
HETATM    4  N2  UNL     1     -85.076 -15.142   9.040  1.00  0.00    -0.297 N 
ATOM      5  H2  UNL     1     -84.293 -14.594   8.680  1.00  0.00     0.187 HD
HETATM    6  C9  UNL     1     -86.141 -15.557   8.301  1.00  0.00     0.092 A 
HETATM    7  C10 UNL     1     -86.939 -16.253   9.175  1.00  0.00     0.051 A 
HETATM    8  C11 UNL     1     -88.119 -16.737   8.425  1.00  0.00     0.057 A 
HETATM    9  N3  UNL     1     -89.016 -17.407   8.962  1.00  0.00    -0.388 N 
ATOM     10  H3  UNL     1     -88.845 -17.578   9.953  1.00  0.00     0.159 HD
HETATM   11  C16 UNL     1     -87.925 -16.265   7.063  1.00  0.00     0.039 A 
HETATM   12  C17 UNL     1     -88.467 -16.245   5.787  1.00  0.00     0.123 A 
HETATM   13  N4  UNL     1     -87.620 -15.553   5.021  1.00  0.00    -0.310 N 
ATOM     14  H4  UNL     1     -87.769 -15.380   4.026  1.00  0.00     0.186 HD
HETATM   15  N5  UNL     1     -86.571 -15.119   5.692  1.00  0.00    -0.298 N 
ATOM     16  H5  UNL     1     -85.790 -14.572   5.329  1.00  0.00     0.187 HD
HETATM   17  C18 UNL     1     -86.746 -15.555   6.968  1.00  0.00     0.091 A 
ENDROOT
BRANCH   1  18
HETATM   18  C7  UNL     1     -86.845 -16.878  11.643  1.00  0.00     0.029 A 
HETATM   19  C2  UNL     1     -88.020 -16.417  12.193  1.00  0.00     0.098 A 
HETATM   20  C3  UNL     1     -88.552 -16.969  13.336  1.00  0.00     0.046 A 
HETATM   21 BR1  UNL     1     -90.178 -16.327  14.092  1.00  0.00    -0.048 Br
HETATM   22  C4  UNL     1     -87.917 -18.020  13.982  1.00  0.00     0.041 A 
HETATM   23  C5  UNL     1     -86.733 -18.490  13.434  1.00  0.00     0.013 A 
HETATM   24 BR2  UNL     1     -85.859 -19.945  14.323  1.00  0.00    -0.051 Br
HETATM   25  C6  UNL     1     -86.215 -17.922  12.283  1.00  0.00     0.035 A 
BRANCH  19  26
HETATM   26  O1  UNL     1     -88.668 -15.351  11.550  1.00  0.00    -0.354 OA
HETATM   27  C1  UNL     1     -88.248 -14.045  11.976  1.00  0.00     0.210 C 
ENDBRANCH  19  26
ENDBRANCH   1  18
BRANCH   9  28
HETATM   28  C12 UNL     1     -90.221 -17.986   8.507  1.00  0.00     0.120 C 
BRANCH  28  29
HETATM   29  C13 UNL     1     -91.226 -18.204   9.651  1.00  0.00     0.022 C 
BRANCH  29  30
HETATM   30  C14 UNL     1     -91.529 -19.682   9.693  1.00  0.00     0.028 C 
BRANCH  30  31
HETATM   31  C15 UNL     1     -91.210 -20.361   8.359  1.00  0.00     0.164 C 
BRANCH  31  32
HETATM   32  O2  UNL     1     -92.303 -21.144   8.000  1.00  0.00    -0.401 OA
ATOM     33  H2  UNL     1     -92.530 -20.939   7.100  1.00  0.00     0.209 HD
ENDBRANCH  31  32
ENDBRANCH  30  31
ENDBRANCH  29  30
ENDBRANCH  28  29
ENDBRANCH   9  28
TORSDOF 7
ENDMDL
