MODEL 1
REMARK VINA RESULT: -7.887789445      0.000      0.000
REMARK  10 active torsions:
REMARK  status: ('A' for Active; 'I' for Inactive)
REMARK    1  A    between atoms: O1_1  and  N1_3 
REMARK    2  A    between atoms: C1_5  and  O2_6 
REMARK    3  A    between atoms: C1_5  and  C2_8 
REMARK    4  A    between atoms: C2_8  and  C3_9 
REMARK    5  A    between atoms: C3_9  and  C4_10 
REMARK    6  A    between atoms: C3_9  and  C10_20 
REMARK    7  A    between atoms: C4_10  and  C5_11 
REMARK    8  A    between atoms: C5_11  and  O3_12 
REMARK    9  A    between atoms: C5_11  and  C6_14 
REMARK   10  A    between atoms: C8_16  and  O4_17 
ROOT
HETATM    1  C3  UNL     1     -90.899 -17.642   9.495  1.00  0.00     0.025 C 
ENDROOT
BRANCH   1   2
HETATM    2  C2  UNL     1     -92.098 -16.816  10.013  1.00  0.00     0.093 C 
BRANCH   2   3
HETATM    3  C1  UNL     1     -93.067 -17.485  10.826  1.00  0.00     0.135 C 
HETATM    4  N1  UNL     1     -93.168 -17.198  12.109  1.00  0.00    -0.251 N 
ATOM      5  H1  UNL     1     -93.867 -17.691  12.664  1.00  0.00     0.196 HD
BRANCH   4   6
HETATM    6  O1  UNL     1     -92.379 -16.271  12.727  1.00  0.00    -0.288 OA
ATOM      7  H1  UNL     1     -92.130 -16.333  13.641  1.00  0.00     0.244 HD
ENDBRANCH   4   6
BRANCH   3   8
HETATM    8  O2  UNL     1     -93.960 -18.453  10.409  1.00  0.00    -0.348 OA
ATOM      9  H2  UNL     1     -94.377 -18.248   9.581  1.00  0.00     0.219 HD
ENDBRANCH   3   8
ENDBRANCH   2   3
ENDBRANCH   1   2
BRANCH   1  10
HETATM   10  C4  UNL     1     -90.845 -17.631   8.028  1.00  0.00     0.039 C 
BRANCH  10  11
HETATM   11  C5  UNL     1     -90.254 -16.433   7.338  1.00  0.00     0.122 C 
BRANCH  11  12
HETATM   12  O3  UNL     1     -91.084 -16.196   6.204  1.00  0.00    -0.395 OA
ATOM     13  H3  UNL     1     -91.083 -15.255   6.078  1.00  0.00     0.210 HD
ENDBRANCH  11  12
BRANCH  11  14
HETATM   14  C6  UNL     1     -88.896 -16.784   6.707  1.00  0.00     0.019 C 
HETATM   15  C7  UNL     1     -87.833 -15.921   7.378  1.00  0.00     0.039 C 
HETATM   16  C8  UNL     1     -87.268 -15.639   6.010  1.00  0.00     0.119 C 
HETATM   17  C9  UNL     1     -88.616 -16.058   5.433  1.00  0.00     0.039 C 
BRANCH  16  18
HETATM   18  O4  UNL     1     -87.004 -14.272   5.808  1.00  0.00    -0.396 OA
ATOM     19  H4  UNL     1     -87.164 -14.000   4.912  1.00  0.00     0.210 HD
ENDBRANCH  16  18
ENDBRANCH  11  14
ENDBRANCH  10  11
ENDBRANCH   1  10
BRANCH   1  20
HETATM   20  C10 UNL     1     -89.745 -17.236  10.303  1.00  0.00     0.127 C 
HETATM   21  C11 UNL     1     -89.167 -18.067  11.346  1.00  0.00     0.044 C 
HETATM   22  C12 UNL     1     -88.525 -17.055  12.317  1.00  0.00     0.051 C 
HETATM   23  C13 UNL     1     -87.066 -17.001  12.185  1.00  0.00    -0.043 A 
HETATM   24  C20 UNL     1     -89.032 -15.762  11.811  1.00  0.00     0.135 C 
HETATM   25  C14 UNL     1     -86.043 -17.849  12.629  1.00  0.00     0.009 A 
HETATM   26  C18 UNL     1     -86.669 -15.885  11.487  1.00  0.00    -0.026 A 
HETATM   27  C15 UNL     1     -84.722 -17.559  12.368  1.00  0.00     0.021 A 
HETATM   28  C16 UNL     1     -84.342 -16.438  11.668  1.00  0.00     0.033 A 
HETATM   29 BR1  UNL     1     -82.498 -16.070  11.326  1.00  0.00    -0.049 Br
HETATM   30  C17 UNL     1     -85.344 -15.598  11.227  1.00  0.00     0.058 A 
HETATM   31 CL1  UNL     1     -84.893 -14.149  10.325  1.00  0.00    -0.082 Cl
HETATM   32  C19 UNL     1     -87.865 -15.130  11.106  1.00  0.00     0.073 C 
HETATM   33  O5  UNL     1     -90.040 -15.987  10.876  1.00  0.00    -0.379 OA
ENDBRANCH   1  20
TORSDOF 10
ENDMDL
MODEL 2
REMARK VINA RESULT: -7.846552695      2.752      5.103
REMARK  10 active torsions:
REMARK  status: ('A' for Active; 'I' for Inactive)
REMARK    1  A    between atoms: O1_1  and  N1_3 
REMARK    2  A    between atoms: C1_5  and  O2_6 
REMARK    3  A    between atoms: C1_5  and  C2_8 
REMARK    4  A    between atoms: C2_8  and  C3_9 
REMARK    5  A    between atoms: C3_9  and  C4_10 
REMARK    6  A    between atoms: C3_9  and  C10_20 
REMARK    7  A    between atoms: C4_10  and  C5_11 
REMARK    8  A    between atoms: C5_11  and  O3_12 
REMARK    9  A    between atoms: C5_11  and  C6_14 
REMARK   10  A    between atoms: C8_16  and  O4_17 
ROOT
HETATM    1  C3  UNL     1     -89.450 -16.895   8.351  1.00  0.00     0.025 C 
ENDROOT
BRANCH   1   2
HETATM    2  C2  UNL     1     -88.581 -16.956   7.074  1.00  0.00     0.093 C 
BRANCH   2   3
HETATM    3  C1  UNL     1     -88.830 -15.986   6.052  1.00  0.00     0.135 C 
HETATM    4  N1  UNL     1     -87.911 -15.090   5.752  1.00  0.00    -0.251 N 
ATOM      5  H1  UNL     1     -88.115 -14.410   5.020  1.00  0.00     0.196 HD
BRANCH   4   6
HETATM    6  O1  UNL     1     -86.699 -15.031   6.377  1.00  0.00    -0.288 OA
ATOM      7  H1  UNL     1     -85.887 -14.859   5.914  1.00  0.00     0.244 HD
ENDBRANCH   4   6
BRANCH   3   8
HETATM    8  O2  UNL     1     -89.981 -15.863   5.299  1.00  0.00    -0.348 OA
ATOM      9  H2  UNL     1     -90.467 -15.068   5.482  1.00  0.00     0.219 HD
ENDBRANCH   3   8
ENDBRANCH   2   3
ENDBRANCH   1   2
BRANCH   1  10
HETATM   10  C4  UNL     1     -90.466 -17.954   8.350  1.00  0.00     0.039 C 
BRANCH  10  11
HETATM   11  C5  UNL     1     -91.229 -18.223   9.617  1.00  0.00     0.122 C 
BRANCH  11  12
HETATM   12  O3  UNL     1     -91.493 -19.623   9.616  1.00  0.00    -0.395 OA
ATOM     13  H3  UNL     1     -92.091 -19.771   8.893  1.00  0.00     0.210 HD
ENDBRANCH  11  12
BRANCH  11  14
HETATM   14  C6  UNL     1     -92.636 -17.605   9.545  1.00  0.00     0.019 C 
HETATM   15  C7  UNL     1     -92.530 -16.150   9.989  1.00  0.00     0.039 C 
HETATM   16  C8  UNL     1     -93.758 -16.369  10.835  1.00  0.00     0.119 C 
HETATM   17  C9  UNL     1     -93.472 -17.865  10.754  1.00  0.00     0.039 C 
BRANCH  16  18
HETATM   18  O4  UNL     1     -93.609 -15.867  12.140  1.00  0.00    -0.396 OA
ATOM     19  H4  UNL     1     -94.080 -16.383  12.784  1.00  0.00     0.210 HD
ENDBRANCH  16  18
ENDBRANCH  11  14
ENDBRANCH  10  11
ENDBRANCH   1  10
BRANCH   1  20
HETATM   20  C10 UNL     1     -88.517 -16.736   9.470  1.00  0.00     0.127 C 
HETATM   21  C11 UNL     1     -88.594 -15.645  10.428  1.00  0.00     0.044 C 
HETATM   22  C12 UNL     1     -87.144 -15.480  10.925  1.00  0.00     0.051 C 
HETATM   23  C13 UNL     1     -86.944 -16.037  12.265  1.00  0.00    -0.043 A 
HETATM   24  C20 UNL     1     -86.389 -16.352  10.000  1.00  0.00     0.135 C 
HETATM   25  C14 UNL     1     -87.276 -15.571  13.544  1.00  0.00     0.009 A 
HETATM   26  C18 UNL     1     -86.300 -17.251  12.211  1.00  0.00    -0.026 A 
HETATM   27  C15 UNL     1     -86.965 -16.305  14.667  1.00  0.00     0.021 A 
HETATM   28  C16 UNL     1     -86.320 -17.517  14.595  1.00  0.00     0.033 A 
HETATM   29 BR1  UNL     1     -85.904 -18.507  16.176  1.00  0.00    -0.049 Br
HETATM   30  C17 UNL     1     -85.989 -17.984  13.338  1.00  0.00     0.058 A 
HETATM   31 CL1  UNL     1     -85.160 -19.537  13.208  1.00  0.00    -0.082 Cl
HETATM   32  C19 UNL     1     -86.039 -17.571  10.805  1.00  0.00     0.073 C 
HETATM   33  O5  UNL     1     -87.212 -16.742   8.946  1.00  0.00    -0.379 OA
ENDBRANCH   1  20
TORSDOF 10
ENDMDL
MODEL 3
REMARK VINA RESULT: -7.828391014      3.186      5.457
REMARK  10 active torsions:
REMARK  status: ('A' for Active; 'I' for Inactive)
REMARK    1  A    between atoms: O1_1  and  N1_3 
REMARK    2  A    between atoms: C1_5  and  O2_6 
REMARK    3  A    between atoms: C1_5  and  C2_8 
REMARK    4  A    between atoms: C2_8  and  C3_9 
REMARK    5  A    between atoms: C3_9  and  C4_10 
REMARK    6  A    between atoms: C3_9  and  C10_20 
REMARK    7  A    between atoms: C4_10  and  C5_11 
REMARK    8  A    between atoms: C5_11  and  O3_12 
REMARK    9  A    between atoms: C5_11  and  C6_14 
REMARK   10  A    between atoms: C8_16  and  O4_17 
ROOT
HETATM    1  C3  UNL     1     -89.494 -16.842   8.550  1.00  0.00     0.025 C 
ENDROOT
BRANCH   1   2
HETATM    2  C2  UNL     1     -88.341 -17.151   7.568  1.00  0.00     0.093 C 
BRANCH   2   3
HETATM    3  C1  UNL     1     -88.024 -16.165   6.582  1.00  0.00     0.135 C 
HETATM    4  N1  UNL     1     -86.976 -15.382   6.740  1.00  0.00    -0.251 N 
ATOM      5  H1  UNL     1     -86.774 -14.687   6.021  1.00  0.00     0.196 HD
BRANCH   4   6
HETATM    6  O1  UNL     1     -86.148 -15.460   7.822  1.00  0.00    -0.288 OA
ATOM      7  H1  UNL     1     -86.046 -14.751   8.446  1.00  0.00     0.244 HD
ENDBRANCH   4   6
BRANCH   3   8
HETATM    8  O2  UNL     1     -88.723 -15.915   5.417  1.00  0.00    -0.348 OA
ATOM      9  H2  UNL     1     -89.651 -16.103   5.487  1.00  0.00     0.219 HD
ENDBRANCH   3   8
ENDBRANCH   2   3
ENDBRANCH   1   2
BRANCH   1  10
HETATM   10  C4  UNL     1     -90.621 -17.759   8.347  1.00  0.00     0.039 C 
BRANCH  10  11
HETATM   11  C5  UNL     1     -91.389 -18.236   9.549  1.00  0.00     0.122 C 
BRANCH  11  12
HETATM   12  O3  UNL     1     -91.657 -19.616   9.310  1.00  0.00    -0.395 OA
ATOM     13  H3  UNL     1     -91.845 -19.991  10.162  1.00  0.00     0.210 HD
ENDBRANCH  11  12
BRANCH  11  14
HETATM   14  C6  UNL     1     -92.793 -17.610   9.581  1.00  0.00     0.019 C 
HETATM   15  C7  UNL     1     -92.646 -16.155  10.011  1.00  0.00     0.039 C 
HETATM   16  C8  UNL     1     -93.809 -16.365  10.947  1.00  0.00     0.119 C 
HETATM   17  C9  UNL     1     -93.539 -17.863  10.849  1.00  0.00     0.039 C 
BRANCH  16  18
HETATM   18  O4  UNL     1     -93.560 -15.861  12.236  1.00  0.00    -0.396 OA
ATOM     19  H4  UNL     1     -93.641 -16.528  12.908  1.00  0.00     0.210 HD
ENDBRANCH  16  18
ENDBRANCH  11  14
ENDBRANCH  10  11
ENDBRANCH   1  10
BRANCH   1  20
HETATM   20  C10 UNL     1     -88.872 -16.679   9.869  1.00  0.00     0.127 C 
HETATM   21  C11 UNL     1     -88.726 -15.394  10.531  1.00  0.00     0.044 C 
HETATM   22  C12 UNL     1     -87.498 -15.581  11.444  1.00  0.00     0.051 C 
HETATM   23  C13 UNL     1     -87.866 -15.751  12.852  1.00  0.00    -0.043 A 
HETATM   24  C20 UNL     1     -86.965 -16.886  10.997  1.00  0.00     0.135 C 
HETATM   25  C14 UNL     1     -88.274 -14.845  13.839  1.00  0.00     0.009 A 
HETATM   26  C18 UNL     1     -87.778 -17.068  13.236  1.00  0.00    -0.026 A 
HETATM   27  C15 UNL     1     -88.565 -15.275  15.115  1.00  0.00     0.021 A 
HETATM   28  C16 UNL     1     -88.471 -16.596  15.483  1.00  0.00     0.033 A 
HETATM   29 BR1  UNL     1     -88.883 -17.154  17.265  1.00  0.00    -0.049 Br
HETATM   30  C17 UNL     1     -88.070 -17.496  14.516  1.00  0.00     0.058 A 
HETATM   31 CL1  UNL     1     -87.938 -19.200  14.953  1.00  0.00    -0.082 Cl
HETATM   32  C19 UNL     1     -87.344 -17.857  12.081  1.00  0.00     0.073 C 
HETATM   33  O5  UNL     1     -87.599 -17.274   9.819  1.00  0.00    -0.379 OA
ENDBRANCH   1  20
TORSDOF 10
ENDMDL
MODEL 4
REMARK VINA RESULT: -7.796407413      2.460      4.912
REMARK  10 active torsions:
REMARK  status: ('A' for Active; 'I' for Inactive)
REMARK    1  A    between atoms: O1_1  and  N1_3 
REMARK    2  A    between atoms: C1_5  and  O2_6 
REMARK    3  A    between atoms: C1_5  and  C2_8 
REMARK    4  A    between atoms: C2_8  and  C3_9 
REMARK    5  A    between atoms: C3_9  and  C4_10 
REMARK    6  A    between atoms: C3_9  and  C10_20 
REMARK    7  A    between atoms: C4_10  and  C5_11 
REMARK    8  A    between atoms: C5_11  and  O3_12 
REMARK    9  A    between atoms: C5_11  and  C6_14 
REMARK   10  A    between atoms: C8_16  and  O4_17 
ROOT
HETATM    1  C3  UNL     1     -88.913 -16.868   8.303  1.00  0.00     0.025 C 
ENDROOT
BRANCH   1   2
HETATM    2  C2  UNL     1     -88.257 -16.834   6.903  1.00  0.00     0.093 C 
BRANCH   2   3
HETATM    3  C1  UNL     1     -88.733 -15.860   5.969  1.00  0.00     0.135 C 
HETATM    4  N1  UNL     1     -87.944 -14.882   5.571  1.00  0.00    -0.251 N 
ATOM      5  H1  UNL     1     -88.310 -14.202   4.905  1.00  0.00     0.196 HD
BRANCH   4   6
HETATM    6  O1  UNL     1     -86.660 -14.737   6.012  1.00  0.00    -0.288 OA
ATOM      7  H1  UNL     1     -86.182 -13.919   5.950  1.00  0.00     0.244 HD
ENDBRANCH   4   6
BRANCH   3   8
HETATM    8  O2  UNL     1     -89.991 -15.815   5.399  1.00  0.00    -0.348 OA
ATOM      9  H2  UNL     1     -89.981 -15.552   4.487  1.00  0.00     0.219 HD
ENDBRANCH   3   8
ENDBRANCH   2   3
ENDBRANCH   1   2
BRANCH   1  10
HETATM   10  C4  UNL     1     -89.886 -17.961   8.403  1.00  0.00     0.039 C 
BRANCH  10  11
HETATM   11  C5  UNL     1     -91.336 -17.621   8.609  1.00  0.00     0.122 C 
BRANCH  11  12
HETATM   12  O3  UNL     1     -91.589 -16.499   7.768  1.00  0.00    -0.395 OA
ATOM     13  H3  UNL     1     -90.773 -16.015   7.733  1.00  0.00     0.210 HD
ENDBRANCH  11  12
BRANCH  11  14
HETATM   14  C6  UNL     1     -91.567 -17.056  10.020  1.00  0.00     0.019 C 
HETATM   15  C7  UNL     1     -91.215 -18.148  11.024  1.00  0.00     0.039 C 
HETATM   16  C8  UNL     1     -92.482 -17.808  11.766  1.00  0.00     0.119 C 
HETATM   17  C9  UNL     1     -92.983 -17.149  10.484  1.00  0.00     0.039 C 
BRANCH  16  18
HETATM   18  O4  UNL     1     -93.230 -18.950  12.105  1.00  0.00    -0.396 OA
ATOM     19  H4  UNL     1     -93.862 -19.182  11.434  1.00  0.00     0.210 HD
ENDBRANCH  16  18
ENDBRANCH  11  14
ENDBRANCH  10  11
ENDBRANCH   1  10
BRANCH   1  20
HETATM   20  C10 UNL     1     -87.818 -16.732   9.269  1.00  0.00     0.127 C 
HETATM   21  C11 UNL     1     -86.413 -16.804   8.901  1.00  0.00     0.044 C 
HETATM   22  C12 UNL     1     -85.716 -17.298  10.184  1.00  0.00     0.051 C 
HETATM   23  C13 UNL     1     -85.007 -16.224  10.885  1.00  0.00    -0.043 A 
HETATM   24  C20 UNL     1     -86.859 -17.667  11.046  1.00  0.00     0.135 C 
HETATM   25  C14 UNL     1     -83.784 -15.584  10.646  1.00  0.00     0.009 A 
HETATM   26  C18 UNL     1     -85.712 -15.794  11.984  1.00  0.00    -0.026 A 
HETATM   27  C15 UNL     1     -83.335 -14.583  11.480  1.00  0.00     0.021 A 
HETATM   28  C16 UNL     1     -84.053 -14.165  12.575  1.00  0.00     0.033 A 
HETATM   29 BR1  UNL     1     -83.398 -12.772  13.709  1.00  0.00    -0.049 Br
HETATM   30  C17 UNL     1     -85.260 -14.790  12.818  1.00  0.00     0.058 A 
HETATM   31 CL1  UNL     1     -86.208 -14.280  14.216  1.00  0.00    -0.082 Cl
HETATM   32  C19 UNL     1     -86.952 -16.570  12.069  1.00  0.00     0.073 C 
HETATM   33  O5  UNL     1     -88.032 -17.668  10.295  1.00  0.00    -0.379 OA
ENDBRANCH   1  20
TORSDOF 10
ENDMDL
MODEL 5
REMARK VINA RESULT: -7.789691064      2.776      5.090
REMARK  10 active torsions:
REMARK  status: ('A' for Active; 'I' for Inactive)
REMARK    1  A    between atoms: O1_1  and  N1_3 
REMARK    2  A    between atoms: C1_5  and  O2_6 
REMARK    3  A    between atoms: C1_5  and  C2_8 
REMARK    4  A    between atoms: C2_8  and  C3_9 
REMARK    5  A    between atoms: C3_9  and  C4_10 
REMARK    6  A    between atoms: C3_9  and  C10_20 
REMARK    7  A    between atoms: C4_10  and  C5_11 
REMARK    8  A    between atoms: C5_11  and  O3_12 
REMARK    9  A    between atoms: C5_11  and  C6_14 
REMARK   10  A    between atoms: C8_16  and  O4_17 
ROOT
HETATM    1  C3  UNL     1     -89.210 -16.962   8.323  1.00  0.00     0.025 C 
ENDROOT
BRANCH   1   2
HETATM    2  C2  UNL     1     -88.443 -16.994   6.982  1.00  0.00     0.093 C 
BRANCH   2   3
HETATM    3  C1  UNL     1     -88.744 -15.979   6.019  1.00  0.00     0.135 C 
HETATM    4  N1  UNL     1     -87.844 -15.065   5.716  1.00  0.00    -0.251 N 
ATOM      5  H1  UNL     1     -88.086 -14.354   5.026  1.00  0.00     0.196 HD
BRANCH   4   6
HETATM    6  O1  UNL     1     -86.603 -15.028   6.283  1.00  0.00    -0.288 OA
ATOM      7  H1  UNL     1     -86.064 -14.246   6.296  1.00  0.00     0.244 HD
ENDBRANCH   4   6
BRANCH   3   8
HETATM    8  O2  UNL     1     -89.931 -15.829   5.328  1.00  0.00    -0.348 OA
ATOM      9  H2  UNL     1     -90.377 -15.013   5.521  1.00  0.00     0.219 HD
ENDBRANCH   3   8
ENDBRANCH   2   3
ENDBRANCH   1   2
BRANCH   1  10
HETATM   10  C4  UNL     1     -90.210 -18.034   8.386  1.00  0.00     0.039 C 
BRANCH  10  11
HETATM   11  C5  UNL     1     -91.659 -17.662   8.534  1.00  0.00     0.122 C 
BRANCH  11  12
HETATM   12  O3  UNL     1     -91.850 -16.525   7.696  1.00  0.00    -0.395 OA
ATOM     13  H3  UNL     1     -92.615 -16.079   8.041  1.00  0.00     0.210 HD
ENDBRANCH  11  12
BRANCH  11  14
HETATM   14  C6  UNL     1     -91.936 -17.107   9.941  1.00  0.00     0.019 C 
HETATM   15  C7  UNL     1     -91.455 -18.140  10.954  1.00  0.00     0.039 C 
HETATM   16  C8  UNL     1     -92.744 -17.932  11.707  1.00  0.00     0.119 C 
HETATM   17  C9  UNL     1     -93.328 -17.350  10.423  1.00  0.00     0.039 C 
BRANCH  16  18
HETATM   18  O4  UNL     1     -93.357 -19.145  12.068  1.00  0.00    -0.396 OA
ATOM     19  H4  UNL     1     -93.457 -19.736  11.331  1.00  0.00     0.210 HD
ENDBRANCH  16  18
ENDBRANCH  11  14
ENDBRANCH  10  11
ENDBRANCH   1  10
BRANCH   1  20
HETATM   20  C10 UNL     1     -88.193 -16.807   9.369  1.00  0.00     0.127 C 
HETATM   21  C11 UNL     1     -88.068 -15.616  10.193  1.00  0.00     0.044 C 
HETATM   22  C12 UNL     1     -86.580 -15.594  10.594  1.00  0.00     0.051 C 
HETATM   23  C13 UNL     1     -86.367 -16.020  11.980  1.00  0.00    -0.043 A 
HETATM   24  C20 UNL     1     -86.004 -16.658   9.744  1.00  0.00     0.135 C 
HETATM   25  C14 UNL     1     -86.553 -15.373  13.209  1.00  0.00     0.009 A 
HETATM   26  C18 UNL     1     -85.889 -17.308  12.039  1.00  0.00    -0.026 A 
HETATM   27  C15 UNL     1     -86.267 -16.013  14.394  1.00  0.00     0.021 A 
HETATM   28  C16 UNL     1     -85.789 -17.301  14.436  1.00  0.00     0.033 A 
HETATM   29 BR1  UNL     1     -85.404 -18.156  16.102  1.00  0.00    -0.049 Br
HETATM   30  C17 UNL     1     -85.603 -17.946  13.229  1.00  0.00     0.058 A 
HETATM   31 CL1  UNL     1     -84.991 -19.602  13.244  1.00  0.00    -0.082 Cl
HETATM   32  C19 UNL     1     -85.763 -17.816  10.671  1.00  0.00     0.073 C 
HETATM   33  O5  UNL     1     -86.937 -17.048   8.786  1.00  0.00    -0.379 OA
ENDBRANCH   1  20
TORSDOF 10
ENDMDL
