MODEL 1
REMARK VINA RESULT: -7.644713374      0.000      0.000
REMARK  13 active torsions:
REMARK  status: ('A' for Active; 'I' for Inactive)
REMARK    1  A    between atoms: C2_2  and  O1_3 
REMARK    2  A    between atoms: C2_2  and  C3_5 
REMARK    3  A    between atoms: C3_5  and  O2_6 
REMARK    4  A    between atoms: C3_5  and  C4_8 
REMARK    5  A    between atoms: C4_8  and  O3_9 
REMARK    6  A    between atoms: C4_8  and  C5_11 
REMARK    7  A    between atoms: C5_11  and  O4_12 
REMARK    8  A    between atoms: C5_11  and  C6_14 
REMARK    9  A    between atoms: C6_14  and  C8_16 
REMARK   10  A    between atoms: C6_14  and  C22_33 
REMARK   11  A    between atoms: C9_17  and  C10_18 
REMARK   12  A    between atoms: C15_24  and  O5_25 
REMARK   13  A    between atoms: O5_25  and  C16_26 
ROOT
HETATM    1  C6  UNL     1     -88.033 -16.104  12.504  1.00  0.00     0.051 C 
HETATM    2  C7  UNL     1     -87.332 -17.097  13.399  1.00  0.00     0.032 C 
ENDROOT
BRANCH   1   3
HETATM    3  C5  UNL     1     -89.107 -16.606  11.674  1.00  0.00     0.170 C 
BRANCH   3   4
HETATM    4  C4  UNL     1     -90.199 -17.483  12.121  1.00  0.00     0.179 C 
BRANCH   4   5
HETATM    5  C3  UNL     1     -91.586 -17.007  11.710  1.00  0.00     0.177 C 
BRANCH   5   6
HETATM    6  C2  UNL     1     -92.449 -18.129  11.193  1.00  0.00     0.145 C 
HETATM    7  C1  UNL     1     -93.598 -17.487  10.436  1.00  0.00     0.042 C 
BRANCH   6   8
HETATM    8  O1  UNL     1     -93.042 -18.818  12.262  1.00  0.00    -0.393 OA
ATOM      9  H1  UNL     1     -92.627 -18.479  13.046  1.00  0.00     0.210 HD
ENDBRANCH   6   8
ENDBRANCH   5   6
BRANCH   5  10
HETATM   10  O2  UNL     1     -92.275 -16.459  12.793  1.00  0.00    -0.390 OA
ATOM     11  H2  UNL     1     -92.343 -17.154  13.438  1.00  0.00     0.210 HD
ENDBRANCH   5  10
ENDBRANCH   4   5
BRANCH   4  12
HETATM   12  O3  UNL     1     -90.039 -18.824  12.088  1.00  0.00    -0.390 OA
ATOM     13  H3  UNL     1     -89.686 -19.195  12.888  1.00  0.00     0.210 HD
ENDBRANCH   4  12
ENDBRANCH   3   4
BRANCH   3  14
HETATM   14  O4  UNL     1     -89.723 -15.455  11.081  1.00  0.00    -0.391 OA
ATOM     15  H4  UNL     1     -89.043 -14.798  10.994  1.00  0.00     0.210 HD
ENDBRANCH   3  14
ENDBRANCH   1   3
BRANCH   1  16
HETATM   16  C8  UNL     1     -86.922 -15.808  11.482  1.00  0.00    -0.088 C 
HETATM   17  C9  UNL     1     -86.037 -15.580  10.690  1.00  0.00    -0.063 C 
BRANCH  17  18
HETATM   18  C10 UNL     1     -84.999 -15.325   9.735  1.00  0.00     0.052 A 
HETATM   19  C11 UNL     1     -84.000 -14.401   9.964  1.00  0.00     0.042 A 
HETATM   20  C12 UNL     1     -82.995 -14.146   9.056  1.00  0.00     0.012 A 
HETATM   21 BR1  UNL     1     -81.631 -12.861   9.406  1.00  0.00    -0.051 Br
HETATM   22  C13 UNL     1     -82.981 -14.829   7.880  1.00  0.00     0.022 A 
HETATM   23  C14 UNL     1     -83.964 -15.755   7.627  1.00  0.00     0.040 A 
HETATM   24  C15 UNL     1     -84.974 -16.012   8.540  1.00  0.00     0.095 A 
BRANCH  24  25
HETATM   25  O5  UNL     1     -85.964 -16.965   8.250  1.00  0.00    -0.309 OA
BRANCH  25  26
HETATM   26  C16 UNL     1     -87.101 -16.565   7.576  1.00  0.00     0.076 A 
HETATM   27  C17 UNL     1     -87.120 -15.707   6.498  1.00  0.00     0.040 A 
HETATM   28  C18 UNL     1     -88.305 -15.350   5.869  1.00  0.00     0.045 A 
HETATM   29  C19 UNL     1     -89.509 -15.850   6.312  1.00  0.00     0.116 A 
HETATM   30  F1  UNL     1     -90.688 -15.524   5.723  1.00  0.00    -0.206 F 
HETATM   31  C20 UNL     1     -89.502 -16.707   7.385  1.00  0.00     0.045 A 
HETATM   32  C21 UNL     1     -88.323 -17.047   7.992  1.00  0.00     0.040 A 
ENDBRANCH  25  26
ENDBRANCH  24  25
ENDBRANCH  17  18
ENDBRANCH   1  16
BRANCH   1  33
HETATM   33  C22 UNL     1     -88.174 -14.804  13.186  1.00  0.00     0.000 C 
HETATM   34  C23 UNL     1     -86.825 -14.325  13.759  1.00  0.00     0.011 C 
HETATM   35  C24 UNL     1     -89.155 -14.622  14.269  1.00  0.00     0.011 C 
ENDBRANCH   1  33
TORSDOF 13
ENDMDL
MODEL 2
REMARK VINA RESULT: -7.604070588      2.862      5.750
REMARK  13 active torsions:
REMARK  status: ('A' for Active; 'I' for Inactive)
REMARK    1  A    between atoms: C2_2  and  O1_3 
REMARK    2  A    between atoms: C2_2  and  C3_5 
REMARK    3  A    between atoms: C3_5  and  O2_6 
REMARK    4  A    between atoms: C3_5  and  C4_8 
REMARK    5  A    between atoms: C4_8  and  O3_9 
REMARK    6  A    between atoms: C4_8  and  C5_11 
REMARK    7  A    between atoms: C5_11  and  O4_12 
REMARK    8  A    between atoms: C5_11  and  C6_14 
REMARK    9  A    between atoms: C6_14  and  C8_16 
REMARK   10  A    between atoms: C6_14  and  C22_33 
REMARK   11  A    between atoms: C9_17  and  C10_18 
REMARK   12  A    between atoms: C15_24  and  O5_25 
REMARK   13  A    between atoms: O5_25  and  C16_26 
ROOT
HETATM    1  C6  UNL     1     -92.197 -18.173  10.227  1.00  0.00     0.051 C 
HETATM    2  C7  UNL     1     -93.103 -17.080   9.713  1.00  0.00     0.032 C 
ENDROOT
BRANCH   1   3
HETATM    3  C5  UNL     1     -92.077 -18.310  11.663  1.00  0.00     0.170 C 
BRANCH   3   4
HETATM    4  C4  UNL     1     -92.009 -17.204  12.629  1.00  0.00     0.179 C 
BRANCH   4   5
HETATM    5  C3  UNL     1     -90.623 -16.976  13.216  1.00  0.00     0.177 C 
BRANCH   5   6
HETATM    6  C2  UNL     1     -90.672 -16.577  14.669  1.00  0.00     0.145 C 
HETATM    7  C1  UNL     1     -89.388 -17.080  15.305  1.00  0.00     0.042 C 
BRANCH   6   8
HETATM    8  O1  UNL     1     -91.708 -17.257  15.325  1.00  0.00    -0.393 OA
ATOM      9  H1  UNL     1     -92.126 -16.609  15.881  1.00  0.00     0.210 HD
ENDBRANCH   6   8
ENDBRANCH   5   6
BRANCH   5  10
HETATM   10  O2  UNL     1     -89.852 -18.138  13.162  1.00  0.00    -0.390 OA
ATOM     11  H2  UNL     1     -90.301 -18.723  12.564  1.00  0.00     0.210 HD
ENDBRANCH   5  10
ENDBRANCH   4   5
BRANCH   4  12
HETATM   12  O3  UNL     1     -92.711 -16.073  12.405  1.00  0.00    -0.390 OA
ATOM     13  H3  UNL     1     -93.528 -16.018  12.887  1.00  0.00     0.210 HD
ENDBRANCH   4  12
ENDBRANCH   3   4
BRANCH   3  14
HETATM   14  O4  UNL     1     -93.166 -19.147  12.075  1.00  0.00    -0.391 OA
ATOM     15  H4  UNL     1     -93.025 -19.994  11.669  1.00  0.00     0.210 HD
ENDBRANCH   3  14
ENDBRANCH   1   3
BRANCH   1  16
HETATM   16  C8  UNL     1     -90.822 -17.618   9.821  1.00  0.00    -0.088 C 
HETATM   17  C9  UNL     1     -89.733 -17.195   9.507  1.00  0.00    -0.063 C 
BRANCH  17  18
HETATM   18  C10 UNL     1     -88.452 -16.691   9.112  1.00  0.00     0.052 A 
HETATM   19  C11 UNL     1     -88.173 -16.329   7.810  1.00  0.00     0.042 A 
HETATM   20  C12 UNL     1     -86.945 -15.843   7.415  1.00  0.00     0.012 A 
HETATM   21 BR1  UNL     1     -86.596 -15.352   5.606  1.00  0.00    -0.051 Br
HETATM   22  C13 UNL     1     -85.959 -15.711   8.343  1.00  0.00     0.022 A 
HETATM   23  C14 UNL     1     -86.210 -16.065   9.647  1.00  0.00     0.040 A 
HETATM   24  C15 UNL     1     -87.444 -16.554  10.044  1.00  0.00     0.095 A 
BRANCH  24  25
HETATM   25  O5  UNL     1     -87.667 -16.906  11.385  1.00  0.00    -0.309 OA
BRANCH  25  26
HETATM   26  C16 UNL     1     -87.325 -16.010  12.378  1.00  0.00     0.076 A 
HETATM   27  C17 UNL     1     -87.906 -14.774  12.561  1.00  0.00     0.040 A 
HETATM   28  C18 UNL     1     -87.511 -13.925  13.585  1.00  0.00     0.045 A 
HETATM   29  C19 UNL     1     -86.513 -14.300  14.457  1.00  0.00     0.116 A 
HETATM   30  F1  UNL     1     -86.100 -13.497  15.470  1.00  0.00    -0.206 F 
HETATM   31  C20 UNL     1     -85.928 -15.530  14.285  1.00  0.00     0.045 A 
HETATM   32  C21 UNL     1     -86.332 -16.353  13.268  1.00  0.00     0.040 A 
ENDBRANCH  25  26
ENDBRANCH  24  25
ENDBRANCH  17  18
ENDBRANCH   1  16
BRANCH   1  33
HETATM   33  C22 UNL     1     -92.305 -19.374   9.378  1.00  0.00     0.000 C 
HETATM   34  C23 UNL     1     -93.379 -20.342   9.913  1.00  0.00     0.011 C 
HETATM   35  C24 UNL     1     -91.124 -20.205   9.093  1.00  0.00     0.011 C 
ENDBRANCH   1  33
TORSDOF 13
ENDMDL
MODEL 3
REMARK VINA RESULT: -7.567331609      2.935      5.597
REMARK  13 active torsions:
REMARK  status: ('A' for Active; 'I' for Inactive)
REMARK    1  A    between atoms: C2_2  and  O1_3 
REMARK    2  A    between atoms: C2_2  and  C3_5 
REMARK    3  A    between atoms: C3_5  and  O2_6 
REMARK    4  A    between atoms: C3_5  and  C4_8 
REMARK    5  A    between atoms: C4_8  and  O3_9 
REMARK    6  A    between atoms: C4_8  and  C5_11 
REMARK    7  A    between atoms: C5_11  and  O4_12 
REMARK    8  A    between atoms: C5_11  and  C6_14 
REMARK    9  A    between atoms: C6_14  and  C8_16 
REMARK   10  A    between atoms: C6_14  and  C22_33 
REMARK   11  A    between atoms: C9_17  and  C10_18 
REMARK   12  A    between atoms: C15_24  and  O5_25 
REMARK   13  A    between atoms: O5_25  and  C16_26 
ROOT
HETATM    1  C6  UNL     1     -92.036 -17.408  10.844  1.00  0.00     0.051 C 
HETATM    2  C7  UNL     1     -92.853 -16.277  10.268  1.00  0.00     0.032 C 
ENDROOT
BRANCH   1   3
HETATM    3  C5  UNL     1     -91.745 -17.358  12.260  1.00  0.00     0.170 C 
BRANCH   3   4
HETATM    4  C4  UNL     1     -90.409 -17.216  12.859  1.00  0.00     0.179 C 
BRANCH   4   5
HETATM    5  C3  UNL     1     -90.371 -16.323  14.091  1.00  0.00     0.177 C 
BRANCH   5   6
HETATM    6  C2  UNL     1     -89.226 -16.661  15.011  1.00  0.00     0.145 C 
HETATM    7  C1  UNL     1     -89.796 -17.521  16.125  1.00  0.00     0.042 C 
BRANCH   6   8
HETATM    8  O1  UNL     1     -88.749 -15.501  15.639  1.00  0.00    -0.393 OA
ATOM      9  H1  UNL     1     -88.076 -15.158  15.063  1.00  0.00     0.210 HD
ENDBRANCH   6   8
ENDBRANCH   5   6
BRANCH   5  10
HETATM   10  O2  UNL     1     -90.200 -14.983  13.741  1.00  0.00    -0.390 OA
ATOM     11  H2  UNL     1     -90.297 -14.488  14.546  1.00  0.00     0.210 HD
ENDBRANCH   5  10
ENDBRANCH   4   5
BRANCH   4  12
HETATM   12  O3  UNL     1     -89.584 -18.284  12.920  1.00  0.00    -0.390 OA
ATOM     13  H3  UNL     1     -88.840 -18.238  12.332  1.00  0.00     0.210 HD
ENDBRANCH   4  12
ENDBRANCH   3   4
BRANCH   3  14
HETATM   14  O4  UNL     1     -92.546 -16.296  12.795  1.00  0.00    -0.391 OA
ATOM     15  H4  UNL     1     -93.440 -16.617  12.818  1.00  0.00     0.210 HD
ENDBRANCH   3  14
ENDBRANCH   1   3
BRANCH   1  16
HETATM   16  C8  UNL     1     -90.666 -17.125  10.203  1.00  0.00    -0.088 C 
HETATM   17  C9  UNL     1     -89.588 -16.889   9.708  1.00  0.00    -0.063 C 
BRANCH  17  18
HETATM   18  C10 UNL     1     -88.304 -16.631   9.130  1.00  0.00     0.052 A 
HETATM   19  C11 UNL     1     -88.155 -16.228   7.819  1.00  0.00     0.042 A 
HETATM   20  C12 UNL     1     -86.925 -15.975   7.249  1.00  0.00     0.012 A 
HETATM   21 BR1  UNL     1     -86.758 -15.419   5.434  1.00  0.00    -0.051 Br
HETATM   22  C13 UNL     1     -85.805 -16.128   8.005  1.00  0.00     0.022 A 
HETATM   23  C14 UNL     1     -85.925 -16.530   9.314  1.00  0.00     0.040 A 
HETATM   24  C15 UNL     1     -87.160 -16.783   9.887  1.00  0.00     0.095 A 
BRANCH  24  25
HETATM   25  O5  UNL     1     -87.248 -17.192  11.227  1.00  0.00    -0.309 OA
BRANCH  25  26
HETATM   26  C16 UNL     1     -86.766 -16.356  12.215  1.00  0.00     0.076 A 
HETATM   27  C17 UNL     1     -85.926 -16.742  13.237  1.00  0.00     0.040 A 
HETATM   28  C18 UNL     1     -85.481 -15.844  14.196  1.00  0.00     0.045 A 
HETATM   29  C19 UNL     1     -85.873 -14.524  14.153  1.00  0.00     0.116 A 
HETATM   30  F1  UNL     1     -85.458 -13.617  15.073  1.00  0.00    -0.206 F 
HETATM   31  C20 UNL     1     -86.709 -14.128  13.139  1.00  0.00     0.045 A 
HETATM   32  C21 UNL     1     -87.137 -15.030  12.202  1.00  0.00     0.040 A 
ENDBRANCH  25  26
ENDBRANCH  24  25
ENDBRANCH  17  18
ENDBRANCH   1  16
BRANCH   1  33
HETATM   33  C22 UNL     1     -92.410 -18.688  10.213  1.00  0.00     0.000 C 
HETATM   34  C23 UNL     1     -93.507 -19.408  11.020  1.00  0.00     0.011 C 
HETATM   35  C24 UNL     1     -91.392 -19.711   9.920  1.00  0.00     0.011 C 
ENDBRANCH   1  33
TORSDOF 13
ENDMDL
MODEL 4
REMARK VINA RESULT: -7.467487450      2.887      5.096
REMARK  13 active torsions:
REMARK  status: ('A' for Active; 'I' for Inactive)
REMARK    1  A    between atoms: C2_2  and  O1_3 
REMARK    2  A    between atoms: C2_2  and  C3_5 
REMARK    3  A    between atoms: C3_5  and  O2_6 
REMARK    4  A    between atoms: C3_5  and  C4_8 
REMARK    5  A    between atoms: C4_8  and  O3_9 
REMARK    6  A    between atoms: C4_8  and  C5_11 
REMARK    7  A    between atoms: C5_11  and  O4_12 
REMARK    8  A    between atoms: C5_11  and  C6_14 
REMARK    9  A    between atoms: C6_14  and  C8_16 
REMARK   10  A    between atoms: C6_14  and  C22_33 
REMARK   11  A    between atoms: C9_17  and  C10_18 
REMARK   12  A    between atoms: C15_24  and  O5_25 
REMARK   13  A    between atoms: O5_25  and  C16_26 
ROOT
HETATM    1  C6  UNL     1     -85.908 -15.947  13.051  1.00  0.00     0.051 C 
HETATM    2  C7  UNL     1     -84.730 -16.846  12.760  1.00  0.00     0.032 C 
ENDROOT
BRANCH   1   3
HETATM    3  C5  UNL     1     -86.831 -16.381  14.077  1.00  0.00     0.170 C 
BRANCH   3   4
HETATM    4  C4  UNL     1     -88.084 -15.706  14.448  1.00  0.00     0.179 C 
BRANCH   4   5
HETATM    5  C3  UNL     1     -89.311 -16.605  14.404  1.00  0.00     0.177 C 
BRANCH   5   6
HETATM    6  C2  UNL     1     -89.886 -16.861  15.773  1.00  0.00     0.145 C 
HETATM    7  C1  UNL     1     -89.165 -18.074  16.332  1.00  0.00     0.042 C 
BRANCH   6   8
HETATM    8  O1  UNL     1     -91.234 -17.238  15.673  1.00  0.00    -0.393 OA
ATOM      9  H1  UNL     1     -91.591 -16.720  14.961  1.00  0.00     0.210 HD
ENDBRANCH   6   8
ENDBRANCH   5   6
BRANCH   5  10
HETATM   10  O2  UNL     1     -90.340 -16.023  13.659  1.00  0.00    -0.390 OA
ATOM     11  H2  UNL     1     -90.069 -16.081  12.751  1.00  0.00     0.210 HD
ENDBRANCH   5  10
ENDBRANCH   4   5
BRANCH   4  12
HETATM   12  O3  UNL     1     -88.089 -14.806  15.455  1.00  0.00    -0.390 OA
ATOM     13  H3  UNL     1     -87.412 -14.142  15.391  1.00  0.00     0.210 HD
ENDBRANCH   4  12
ENDBRANCH   3   4
BRANCH   3  14
HETATM   14  O4  UNL     1     -87.177 -17.735  13.756  1.00  0.00    -0.391 OA
ATOM     15  H4  UNL     1     -87.125 -17.810  12.811  1.00  0.00     0.210 HD
ENDBRANCH   3  14
ENDBRANCH   1   3
BRANCH   1  16
HETATM   16  C8  UNL     1     -86.726 -16.121  11.760  1.00  0.00    -0.088 C 
HETATM   17  C9  UNL     1     -87.376 -16.244  10.749  1.00  0.00    -0.063 C 
BRANCH  17  18
HETATM   18  C10 UNL     1     -88.127 -16.392   9.537  1.00  0.00     0.052 A 
HETATM   19  C11 UNL     1     -87.597 -16.079   8.302  1.00  0.00     0.042 A 
HETATM   20  C12 UNL     1     -88.307 -16.216   7.128  1.00  0.00     0.012 A 
HETATM   21 BR1  UNL     1     -87.543 -15.774   5.438  1.00  0.00    -0.051 Br
HETATM   22  C13 UNL     1     -89.585 -16.678   7.180  1.00  0.00     0.022 A 
HETATM   23  C14 UNL     1     -90.137 -16.996   8.398  1.00  0.00     0.040 A 
HETATM   24  C15 UNL     1     -89.424 -16.859   9.578  1.00  0.00     0.095 A 
BRANCH  24  25
HETATM   25  O5  UNL     1     -90.017 -17.193  10.806  1.00  0.00    -0.309 OA
BRANCH  25  26
HETATM   26  C16 UNL     1     -91.229 -17.855  10.806  1.00  0.00     0.076 A 
HETATM   27  C17 UNL     1     -91.401 -19.189  10.506  1.00  0.00     0.040 A 
HETATM   28  C18 UNL     1     -92.652 -19.788  10.527  1.00  0.00     0.045 A 
HETATM   29  C19 UNL     1     -93.772 -19.055  10.852  1.00  0.00     0.116 A 
HETATM   30  F1  UNL     1     -95.012 -19.606  10.884  1.00  0.00    -0.206 F 
HETATM   31  C20 UNL     1     -93.613 -17.725  11.154  1.00  0.00     0.045 A 
HETATM   32  C21 UNL     1     -92.370 -17.153  11.127  1.00  0.00     0.040 A 
ENDBRANCH  25  26
ENDBRANCH  24  25
ENDBRANCH  17  18
ENDBRANCH   1  16
BRANCH   1  33
HETATM   33  C22 UNL     1     -85.508 -14.530  12.971  1.00  0.00     0.000 C 
HETATM   34  C23 UNL     1     -84.577 -14.280  11.767  1.00  0.00     0.011 C 
HETATM   35  C24 UNL     1     -84.869 -13.859  14.116  1.00  0.00     0.011 C 
ENDBRANCH   1  33
TORSDOF 13
ENDMDL
MODEL 5
REMARK VINA RESULT: -7.459284033      2.784      4.261
REMARK  13 active torsions:
REMARK  status: ('A' for Active; 'I' for Inactive)
REMARK    1  A    between atoms: C2_2  and  O1_3 
REMARK    2  A    between atoms: C2_2  and  C3_5 
REMARK    3  A    between atoms: C3_5  and  O2_6 
REMARK    4  A    between atoms: C3_5  and  C4_8 
REMARK    5  A    between atoms: C4_8  and  O3_9 
REMARK    6  A    between atoms: C4_8  and  C5_11 
REMARK    7  A    between atoms: C5_11  and  O4_12 
REMARK    8  A    between atoms: C5_11  and  C6_14 
REMARK    9  A    between atoms: C6_14  and  C8_16 
REMARK   10  A    between atoms: C6_14  and  C22_33 
REMARK   11  A    between atoms: C9_17  and  C10_18 
REMARK   12  A    between atoms: C15_24  and  O5_25 
REMARK   13  A    between atoms: O5_25  and  C16_26 
ROOT
HETATM    1  C6  UNL     1     -86.843 -15.320  14.303  1.00  0.00     0.051 C 
HETATM    2  C7  UNL     1     -85.978 -16.494  14.694  1.00  0.00     0.032 C 
ENDROOT
BRANCH   1   3
HETATM    3  C5  UNL     1     -88.248 -15.394  14.640  1.00  0.00     0.170 C 
BRANCH   3   4
HETATM    4  C4  UNL     1     -88.812 -16.023  15.844  1.00  0.00     0.179 C 
BRANCH   4   5
HETATM    5  C3  UNL     1     -89.501 -17.355  15.586  1.00  0.00     0.177 C 
BRANCH   5   6
HETATM    6  C2  UNL     1     -88.782 -18.510  16.235  1.00  0.00     0.145 C 
HETATM    7  C1  UNL     1     -88.087 -19.275  15.124  1.00  0.00     0.042 C 
BRANCH   6   8
HETATM    8  O1  UNL     1     -89.707 -19.408  16.789  1.00  0.00    -0.393 OA
ATOM      9  H1  UNL     1     -90.438 -19.429  16.183  1.00  0.00     0.210 HD
ENDBRANCH   6   8
ENDBRANCH   5   6
BRANCH   5  10
HETATM   10  O2  UNL     1     -90.795 -17.366  16.109  1.00  0.00    -0.390 OA
ATOM     11  H2  UNL     1     -90.843 -16.627  16.705  1.00  0.00     0.210 HD
ENDBRANCH   5  10
ENDBRANCH   4   5
BRANCH   4  12
HETATM   12  O3  UNL     1     -88.133 -15.964  17.011  1.00  0.00    -0.390 OA
ATOM     13  H3  UNL     1     -87.299 -16.419  17.001  1.00  0.00     0.210 HD
ENDBRANCH   4  12
ENDBRANCH   3   4
BRANCH   3  14
HETATM   14  O4  UNL     1     -88.735 -14.046  14.617  1.00  0.00    -0.391 OA
ATOM     15  H4  UNL     1     -88.352 -13.633  13.852  1.00  0.00     0.210 HD
ENDBRANCH   3  14
ENDBRANCH   1   3
BRANCH   1  16
HETATM   16  C8  UNL     1     -86.851 -15.470  12.772  1.00  0.00    -0.088 C 
HETATM   17  C9  UNL     1     -86.850 -15.602  11.570  1.00  0.00    -0.063 C 
BRANCH  17  18
HETATM   18  C10 UNL     1     -86.874 -15.755  10.146  1.00  0.00     0.052 A 
HETATM   19  C11 UNL     1     -85.731 -15.664   9.378  1.00  0.00     0.042 A 
HETATM   20  C12 UNL     1     -85.738 -15.809   8.007  1.00  0.00     0.012 A 
HETATM   21 BR1  UNL     1     -84.139 -15.678   6.977  1.00  0.00    -0.051 Br
HETATM   22  C13 UNL     1     -86.918 -16.052   7.376  1.00  0.00     0.022 A 
HETATM   23  C14 UNL     1     -88.072 -16.147   8.118  1.00  0.00     0.040 A 
HETATM   24  C15 UNL     1     -88.065 -16.001   9.495  1.00  0.00     0.095 A 
BRANCH  24  25
HETATM   25  O5  UNL     1     -89.261 -16.104  10.223  1.00  0.00    -0.309 OA
BRANCH  25  26
HETATM   26  C16 UNL     1     -90.044 -17.231  10.069  1.00  0.00     0.076 A 
HETATM   27  C17 UNL     1     -89.750 -18.474  10.586  1.00  0.00     0.040 A 
HETATM   28  C18 UNL     1     -90.586 -19.563  10.390  1.00  0.00     0.045 A 
HETATM   29  C19 UNL     1     -91.749 -19.429   9.665  1.00  0.00     0.116 A 
HETATM   30  F1  UNL     1     -92.593 -20.471   9.453  1.00  0.00    -0.206 F 
HETATM   31  C20 UNL     1     -92.054 -18.196   9.146  1.00  0.00     0.045 A 
HETATM   32  C21 UNL     1     -91.214 -17.133   9.349  1.00  0.00     0.040 A 
ENDBRANCH  25  26
ENDBRANCH  24  25
ENDBRANCH  17  18
ENDBRANCH   1  16
BRANCH   1  33
HETATM   33  C22 UNL     1     -86.108 -14.054  14.482  1.00  0.00     0.000 C 
HETATM   34  C23 UNL     1     -84.864 -13.998  13.573  1.00  0.00     0.011 C 
HETATM   35  C24 UNL     1     -85.648 -13.631  15.816  1.00  0.00     0.011 C 
ENDBRANCH   1  33
TORSDOF 13
ENDMDL
