MODEL 1
REMARK VINA RESULT: -8.624668847      0.000      0.000
REMARK  7 active torsions:
REMARK  status: ('A' for Active; 'I' for Inactive)
REMARK    1  A    between atoms: N1_2  and  C2_5 
REMARK       I    between atoms: N2_11  and  C8_12 
REMARK    2  A    between atoms: C8_12  and  C9_14 
REMARK    3  A    between atoms: C9_14  and  C10_15 
REMARK    4  A    between atoms: C9_14  and  C16_21 
REMARK    5  A    between atoms: C10_15  and  C11_16 
REMARK    6  A    between atoms: C18_23  and  O2_24 
REMARK    7  A    between atoms: C19_26  and  N3_27 
ROOT
HETATM    1  C9  UNL     1     -87.630 -15.884   9.888  1.00  0.00     0.082 C 
ENDROOT
BRANCH   1   2
HETATM    2  C8  UNL     1     -88.197 -17.137  10.433  1.00  0.00     0.224 C 
HETATM    3  N2  UNL     1     -89.549 -17.554  10.175  1.00  0.00    -0.347 N 
HETATM    4  C4  UNL     1     -90.144 -18.755  10.691  1.00  0.00     0.095 C 
HETATM    5  C7  UNL     1     -90.558 -16.914   9.382  1.00  0.00     0.127 C 
HETATM    6  C3  UNL     1     -91.289 -18.511  11.660  1.00  0.00     0.059 C 
HETATM    7  C5  UNL     1     -91.161 -19.232   9.682  1.00  0.00     0.041 C 
HETATM    8  C2  UNL     1     -92.166 -19.334  10.772  1.00  0.00     0.193 C 
HETATM    9  C6  UNL     1     -91.300 -18.080   8.734  1.00  0.00     0.029 C 
HETATM   10  O1  UNL     1     -87.454 -17.851  11.148  1.00  0.00    -0.273 OA
BRANCH   8  11
HETATM   11  N1  UNL     1     -93.479 -18.803  10.493  1.00  0.00    -0.074 N 
HETATM   12  C1  UNL     1     -94.445 -19.646  11.203  1.00  0.00     0.267 C 
ATOM     13  H12 UNL     1     -93.675 -18.725   9.495  1.00  0.00     0.277 HD
ATOM     14  H11 UNL     1     -93.568 -17.813  10.723  1.00  0.00     0.277 HD
ENDBRANCH   8  11
ENDBRANCH   1   2
BRANCH   1  15
HETATM   15  C10 UNL     1     -86.304 -16.165   9.257  1.00  0.00     0.019 C 
BRANCH  15  16
HETATM   16  C11 UNL     1     -86.327 -16.352   7.775  1.00  0.00    -0.014 C 
HETATM   17  C12 UNL     1     -87.681 -16.042   7.170  1.00  0.00     0.005 C 
HETATM   18  C13 UNL     1     -87.364 -15.541   5.797  1.00  0.00     0.000 C 
HETATM   19  C14 UNL     1     -85.914 -15.193   5.751  1.00  0.00     0.000 C 
HETATM   20  C15 UNL     1     -85.493 -15.187   7.203  1.00  0.00     0.005 C 
ENDBRANCH  15  16
ENDBRANCH   1  15
BRANCH   1  21
HETATM   21  C16 UNL     1     -87.524 -14.915  11.038  1.00  0.00     0.003 C 
HETATM   22  C17 UNL     1     -88.679 -14.980  11.982  1.00  0.00     0.039 C 
HETATM   23  C18 UNL     1     -88.080 -14.211  13.180  1.00  0.00     0.142 C 
HETATM   24  C19 UNL     1     -86.814 -14.982  13.359  1.00  0.00     0.124 C 
HETATM   25  C23 UNL     1     -86.327 -15.081  11.904  1.00  0.00     0.034 C 
BRANCH  23  26
HETATM   26  O2  UNL     1     -87.862 -12.891  12.810  1.00  0.00    -0.393 OA
ATOM     27  H2  UNL     1     -86.928 -12.742  12.722  1.00  0.00     0.210 HD
ENDBRANCH  23  26
BRANCH  24  28
HETATM   28  N3  UNL     1     -85.831 -14.394  14.203  1.00  0.00    -0.290 N 
HETATM   29  C20 UNL     1     -84.768 -13.694  13.766  1.00  0.00     0.232 A 
HETATM   30  F1  UNL     1     -84.409 -13.407  12.492  1.00  0.00    -0.182 F 
HETATM   31  C21 UNL     1     -84.047 -13.285  14.869  1.00  0.00     0.162 A 
HETATM   32 CL1  UNL     1     -82.564 -12.333  14.813  1.00  0.00    -0.059 Cl
HETATM   33  N4  UNL     1     -84.665 -13.730  15.962  1.00  0.00    -0.320 N 
HETATM   34  C22 UNL     1     -85.758 -14.409  15.525  1.00  0.00     0.182 A 
ATOM     35  H4  UNL     1     -84.376 -13.590  16.930  1.00  0.00     0.169 HD
HETATM   36  S1  UNL     1     -86.776 -15.111  16.582  1.00  0.00    -0.040 SA
ENDBRANCH  24  28
ENDBRANCH   1  21
TORSDOF 7
ENDMDL
MODEL 2
REMARK VINA RESULT: -8.195203948      3.166      3.837
REMARK  7 active torsions:
REMARK  status: ('A' for Active; 'I' for Inactive)
REMARK    1  A    between atoms: N1_2  and  C2_5 
REMARK       I    between atoms: N2_11  and  C8_12 
REMARK    2  A    between atoms: C8_12  and  C9_14 
REMARK    3  A    between atoms: C9_14  and  C10_15 
REMARK    4  A    between atoms: C9_14  and  C16_21 
REMARK    5  A    between atoms: C10_15  and  C11_16 
REMARK    6  A    between atoms: C18_23  and  O2_24 
REMARK    7  A    between atoms: C19_26  and  N3_27 
ROOT
HETATM    1  C9  UNL     1     -87.183 -16.243  10.426  1.00  0.00     0.082 C 
ENDROOT
BRANCH   1   2
HETATM    2  C8  UNL     1     -88.577 -15.919  10.802  1.00  0.00     0.224 C 
HETATM    3  N2  UNL     1     -89.634 -16.893  10.778  1.00  0.00    -0.347 N 
HETATM    4  C4  UNL     1     -91.002 -16.620  11.123  1.00  0.00     0.095 C 
HETATM    5  C7  UNL     1     -89.576 -18.284  10.434  1.00  0.00     0.127 C 
HETATM    6  C3  UNL     1     -91.973 -16.765   9.963  1.00  0.00     0.059 C 
HETATM    7  C5  UNL     1     -91.586 -17.883  11.710  1.00  0.00     0.041 C 
HETATM    8  C2  UNL     1     -92.737 -17.761  10.775  1.00  0.00     0.193 C 
HETATM    9  C6  UNL     1     -90.566 -18.934  11.397  1.00  0.00     0.029 C 
HETATM   10  O1  UNL     1     -88.828 -14.740  11.151  1.00  0.00    -0.273 OA
BRANCH   8  11
HETATM   11  N1  UNL     1     -93.149 -18.966  10.096  1.00  0.00    -0.074 N 
HETATM   12  C1  UNL     1     -94.225 -19.563  10.891  1.00  0.00     0.267 C 
ATOM     13  H12 UNL     1     -92.377 -19.610   9.920  1.00  0.00     0.277 HD
ATOM     14  H11 UNL     1     -93.411 -18.807   9.123  1.00  0.00     0.277 HD
ENDBRANCH   8  11
ENDBRANCH   1   2
BRANCH   1  15
HETATM   15  C10 UNL     1     -87.157 -16.836   9.054  1.00  0.00     0.019 C 
BRANCH  15  16
HETATM   16  C11 UNL     1     -87.650 -15.943   7.961  1.00  0.00    -0.014 C 
HETATM   17  C12 UNL     1     -86.560 -15.577   6.974  1.00  0.00     0.005 C 
HETATM   18  C13 UNL     1     -87.284 -15.397   5.679  1.00  0.00     0.000 C 
HETATM   19  C14 UNL     1     -88.635 -16.015   5.809  1.00  0.00     0.000 C 
HETATM   20  C15 UNL     1     -88.541 -16.838   7.074  1.00  0.00     0.005 C 
ENDBRANCH  15  16
ENDBRANCH   1  15
BRANCH   1  21
HETATM   21  C16 UNL     1     -86.658 -17.193  11.472  1.00  0.00     0.003 C 
HETATM   22  C17 UNL     1     -85.197 -17.040  11.737  1.00  0.00     0.039 C 
HETATM   23  C18 UNL     1     -85.089 -17.819  13.067  1.00  0.00     0.142 C 
HETATM   24  C19 UNL     1     -86.155 -17.120  13.846  1.00  0.00     0.124 C 
HETATM   25  C23 UNL     1     -87.292 -17.080  12.812  1.00  0.00     0.034 C 
BRANCH  23  26
HETATM   26  O2  UNL     1     -85.378 -19.157  12.835  1.00  0.00    -0.393 OA
ATOM     27  H2  UNL     1     -84.914 -19.690  13.470  1.00  0.00     0.210 HD
ENDBRANCH  23  26
BRANCH  24  28
HETATM   28  N3  UNL     1     -86.566 -17.748  15.055  1.00  0.00    -0.290 N 
HETATM   29  C20 UNL     1     -87.521 -18.693  15.140  1.00  0.00     0.232 A 
HETATM   30  F1  UNL     1     -88.269 -19.231  14.147  1.00  0.00    -0.182 F 
HETATM   31  C21 UNL     1     -87.639 -19.059  16.464  1.00  0.00     0.162 A 
HETATM   32 CL1  UNL     1     -88.762 -20.270  17.084  1.00  0.00    -0.059 Cl
HETATM   33  N4  UNL     1     -86.767 -18.346  17.176  1.00  0.00    -0.320 N 
HETATM   34  C22 UNL     1     -86.121 -17.548  16.287  1.00  0.00     0.182 A 
ATOM     35  H4  UNL     1     -86.616 -18.390  18.184  1.00  0.00     0.169 HD
HETATM   36  S1  UNL     1     -84.966 -16.516  16.783  1.00  0.00    -0.040 SA
ENDBRANCH  24  28
ENDBRANCH   1  21
TORSDOF 7
ENDMDL
MODEL 3
REMARK VINA RESULT: -8.038544065      2.484      2.987
REMARK  7 active torsions:
REMARK  status: ('A' for Active; 'I' for Inactive)
REMARK    1  A    between atoms: N1_2  and  C2_5 
REMARK       I    between atoms: N2_11  and  C8_12 
REMARK    2  A    between atoms: C8_12  and  C9_14 
REMARK    3  A    between atoms: C9_14  and  C10_15 
REMARK    4  A    between atoms: C9_14  and  C16_21 
REMARK    5  A    between atoms: C10_15  and  C11_16 
REMARK    6  A    between atoms: C18_23  and  O2_24 
REMARK    7  A    between atoms: C19_26  and  N3_27 
ROOT
HETATM    1  C9  UNL     1     -87.559 -15.890   9.882  1.00  0.00     0.082 C 
ENDROOT
BRANCH   1   2
HETATM    2  C8  UNL     1     -88.829 -15.771  10.632  1.00  0.00     0.224 C 
HETATM    3  N2  UNL     1     -89.805 -16.824  10.679  1.00  0.00    -0.347 N 
HETATM    4  C4  UNL     1     -91.054 -16.748  11.385  1.00  0.00     0.095 C 
HETATM    5  C7  UNL     1     -89.762 -18.125  10.077  1.00  0.00     0.127 C 
HETATM    6  C3  UNL     1     -92.277 -16.789  10.483  1.00  0.00     0.059 C 
HETATM    7  C5  UNL     1     -91.405 -18.142  11.847  1.00  0.00     0.041 C 
HETATM    8  C2  UNL     1     -92.758 -17.977  11.253  1.00  0.00     0.193 C 
HETATM    9  C6  UNL     1     -90.442 -19.022  11.109  1.00  0.00     0.029 C 
HETATM   10  O1  UNL     1     -89.045 -14.697  11.245  1.00  0.00    -0.273 OA
BRANCH   8  11
HETATM   11  N1  UNL     1     -93.264 -19.085  10.478  1.00  0.00    -0.074 N 
HETATM   12  C1  UNL     1     -94.310 -19.729  11.277  1.00  0.00     0.267 C 
ATOM     13  H12 UNL     1     -92.533 -19.731  10.180  1.00  0.00     0.277 HD
ATOM     14  H11 UNL     1     -93.583 -18.810   9.549  1.00  0.00     0.277 HD
ENDBRANCH   8  11
ENDBRANCH   1   2
BRANCH   1  15
HETATM   15  C10 UNL     1     -87.598 -17.111   9.020  1.00  0.00     0.019 C 
BRANCH  15  16
HETATM   16  C11 UNL     1     -87.493 -16.862   7.551  1.00  0.00    -0.014 C 
HETATM   17  C12 UNL     1     -88.787 -16.344   6.955  1.00  0.00     0.005 C 
HETATM   18  C13 UNL     1     -88.347 -15.480   5.817  1.00  0.00     0.000 C 
HETATM   19  C14 UNL     1     -86.895 -15.184   5.990  1.00  0.00     0.000 C 
HETATM   20  C15 UNL     1     -86.602 -15.610   7.411  1.00  0.00     0.005 C 
ENDBRANCH  15  16
ENDBRANCH   1  15
BRANCH   1  21
HETATM   21  C16 UNL     1     -86.450 -15.942  10.902  1.00  0.00     0.003 C 
HETATM   22  C17 UNL     1     -85.641 -17.195  10.841  1.00  0.00     0.039 C 
HETATM   23  C18 UNL     1     -84.419 -16.758  11.678  1.00  0.00     0.142 C 
HETATM   24  C19 UNL     1     -84.063 -15.501  10.954  1.00  0.00     0.124 C 
HETATM   25  C23 UNL     1     -85.447 -14.848  10.809  1.00  0.00     0.034 C 
BRANCH  23  26
HETATM   26  O2  UNL     1     -84.822 -16.533  12.987  1.00  0.00    -0.393 OA
ATOM     27  H2  UNL     1     -84.576 -17.278  13.522  1.00  0.00     0.210 HD
ENDBRANCH  23  26
BRANCH  24  28
HETATM   28  N3  UNL     1     -83.140 -14.637  11.608  1.00  0.00    -0.290 N 
HETATM   29  C20 UNL     1     -83.481 -13.688  12.499  1.00  0.00     0.232 A 
HETATM   30  F1  UNL     1     -84.714 -13.355  12.951  1.00  0.00    -0.182 F 
HETATM   31  C21 UNL     1     -82.325 -13.059  12.913  1.00  0.00     0.162 A 
HETATM   32 CL1  UNL     1     -82.252 -11.742  14.082  1.00  0.00    -0.059 Cl
HETATM   33  N4  UNL     1     -81.294 -13.620  12.282  1.00  0.00    -0.320 N 
HETATM   34  C22 UNL     1     -81.823 -14.586  11.485  1.00  0.00     0.182 A 
ATOM     35  H4  UNL     1     -80.309 -13.374  12.377  1.00  0.00     0.169 HD
HETATM   36  S1  UNL     1     -80.864 -15.502  10.543  1.00  0.00    -0.040 SA
ENDBRANCH  24  28
ENDBRANCH   1  21
TORSDOF 7
ENDMDL
MODEL 4
REMARK VINA RESULT: -8.000528989      2.006      2.415
REMARK  7 active torsions:
REMARK  status: ('A' for Active; 'I' for Inactive)
REMARK    1  A    between atoms: N1_2  and  C2_5 
REMARK       I    between atoms: N2_11  and  C8_12 
REMARK    2  A    between atoms: C8_12  and  C9_14 
REMARK    3  A    between atoms: C9_14  and  C10_15 
REMARK    4  A    between atoms: C9_14  and  C16_21 
REMARK    5  A    between atoms: C10_15  and  C11_16 
REMARK    6  A    between atoms: C18_23  and  O2_24 
REMARK    7  A    between atoms: C19_26  and  N3_27 
ROOT
HETATM    1  C9  UNL     1     -86.983 -16.243  10.128  1.00  0.00     0.082 C 
ENDROOT
BRANCH   1   2
HETATM    2  C8  UNL     1     -87.739 -17.378  10.702  1.00  0.00     0.224 C 
HETATM    3  N2  UNL     1     -89.123 -17.620  10.400  1.00  0.00    -0.347 N 
HETATM    4  C4  UNL     1     -89.899 -18.702  10.941  1.00  0.00     0.095 C 
HETATM    5  C7  UNL     1     -90.002 -16.890   9.533  1.00  0.00     0.127 C 
HETATM    6  C3  UNL     1     -91.037 -18.255  11.845  1.00  0.00     0.059 C 
HETATM    7  C5  UNL     1     -90.930 -19.087   9.909  1.00  0.00     0.041 C 
HETATM    8  C2  UNL     1     -91.983 -18.996  10.955  1.00  0.00     0.193 C 
HETATM    9  C6  UNL     1     -90.871 -17.976   8.905  1.00  0.00     0.029 C 
HETATM   10  O1  UNL     1     -87.130 -18.149  11.483  1.00  0.00    -0.273 OA
BRANCH   8  11
HETATM   11  N1  UNL     1     -93.198 -18.307  10.591  1.00  0.00    -0.074 N 
HETATM   12  C1  UNL     1     -94.317 -19.165  10.992  1.00  0.00     0.267 C 
ATOM     13  H12 UNL     1     -93.229 -18.043   9.606  1.00  0.00     0.277 HD
ATOM     14  H11 UNL     1     -93.256 -17.366  10.982  1.00  0.00     0.277 HD
ENDBRANCH   8  11
ENDBRANCH   1   2
BRANCH   1  15
HETATM   15  C10 UNL     1     -86.549 -16.579   8.738  1.00  0.00     0.019 C 
BRANCH  15  16
HETATM   16  C11 UNL     1     -87.117 -15.711   7.662  1.00  0.00    -0.014 C 
HETATM   17  C12 UNL     1     -86.120 -15.427   6.557  1.00  0.00     0.005 C 
HETATM   18  C13 UNL     1     -86.964 -15.269   5.333  1.00  0.00     0.000 C 
HETATM   19  C14 UNL     1     -88.316 -15.828   5.623  1.00  0.00     0.000 C 
HETATM   20  C15 UNL     1     -88.124 -16.603   6.907  1.00  0.00     0.005 C 
ENDBRANCH  15  16
ENDBRANCH   1  15
BRANCH   1  21
HETATM   21  C16 UNL     1     -85.816 -15.985  11.047  1.00  0.00     0.003 C 
HETATM   22  C17 UNL     1     -84.611 -15.451  10.346  1.00  0.00     0.039 C 
HETATM   23  C18 UNL     1     -83.807 -14.938  11.561  1.00  0.00     0.142 C 
HETATM   24  C19 UNL     1     -84.849 -14.078  12.198  1.00  0.00     0.124 C 
HETATM   25  C23 UNL     1     -86.070 -15.011  12.142  1.00  0.00     0.034 C 
BRANCH  23  26
HETATM   26  O2  UNL     1     -83.439 -16.017  12.352  1.00  0.00    -0.393 OA
ATOM     27  H2  UNL     1     -83.382 -15.735  13.257  1.00  0.00     0.210 HD
ENDBRANCH  23  26
BRANCH  24  28
HETATM   28  N3  UNL     1     -84.581 -13.642  13.526  1.00  0.00    -0.290 N 
HETATM   29  C20 UNL     1     -85.394 -13.853  14.578  1.00  0.00     0.232 A 
HETATM   30  F1  UNL     1     -86.589 -14.491  14.611  1.00  0.00    -0.182 F 
HETATM   31  C21 UNL     1     -84.803 -13.290  15.690  1.00  0.00     0.162 A 
HETATM   32 CL1  UNL     1     -85.485 -13.305  17.316  1.00  0.00    -0.059 Cl
HETATM   33  N4  UNL     1     -83.645 -12.744  15.319  1.00  0.00    -0.320 N 
HETATM   34  C22 UNL     1     -83.533 -12.974  13.984  1.00  0.00     0.182 A 
ATOM     35  H4  UNL     1     -82.979 -12.254  15.915  1.00  0.00     0.169 HD
HETATM   36  S1  UNL     1     -82.235 -12.450  13.157  1.00  0.00    -0.040 SA
ENDBRANCH  24  28
ENDBRANCH   1  21
TORSDOF 7
ENDMDL
MODEL 5
REMARK VINA RESULT: -8.000506691      3.712      6.134
REMARK  7 active torsions:
REMARK  status: ('A' for Active; 'I' for Inactive)
REMARK    1  A    between atoms: N1_2  and  C2_5 
REMARK       I    between atoms: N2_11  and  C8_12 
REMARK    2  A    between atoms: C8_12  and  C9_14 
REMARK    3  A    between atoms: C9_14  and  C10_15 
REMARK    4  A    between atoms: C9_14  and  C16_21 
REMARK    5  A    between atoms: C10_15  and  C11_16 
REMARK    6  A    between atoms: C18_23  and  O2_24 
REMARK    7  A    between atoms: C19_26  and  N3_27 
ROOT
HETATM    1  C9  UNL     1     -87.367 -15.513  11.858  1.00  0.00     0.082 C 
ENDROOT
BRANCH   1   2
HETATM    2  C8  UNL     1     -88.701 -15.602  11.224  1.00  0.00     0.224 C 
HETATM    3  N2  UNL     1     -89.287 -16.850  10.820  1.00  0.00    -0.347 N 
HETATM    4  C4  UNL     1     -90.572 -16.982  10.193  1.00  0.00     0.095 C 
HETATM    5  C7  UNL     1     -88.764 -18.180  10.949  1.00  0.00     0.127 C 
HETATM    6  C3  UNL     1     -90.513 -17.506   8.766  1.00  0.00     0.059 C 
HETATM    7  C5  UNL     1     -91.151 -18.313  10.609  1.00  0.00     0.041 C 
HETATM    8  C2  UNL     1     -91.420 -18.621   9.179  1.00  0.00     0.193 C 
HETATM    9  C6  UNL     1     -89.999 -19.024  11.252  1.00  0.00     0.029 C 
HETATM   10  O1  UNL     1     -89.329 -14.532  11.038  1.00  0.00    -0.273 OA
BRANCH   8  11
HETATM   11  N1  UNL     1     -91.062 -19.943   8.724  1.00  0.00    -0.074 N 
HETATM   12  C1  UNL     1     -92.296 -20.592   8.271  1.00  0.00     0.267 C 
ATOM     13  H12 UNL     1     -90.559 -20.486   9.426  1.00  0.00     0.277 HD
ATOM     14  H11 UNL     1     -90.330 -19.937   8.014  1.00  0.00     0.277 HD
ENDBRANCH   8  11
ENDBRANCH   1   2
BRANCH   1  15
HETATM   15  C10 UNL     1     -87.433 -14.607  13.045  1.00  0.00     0.019 C 
BRANCH  15  16
HETATM   16  C11 UNL     1     -87.549 -15.292  14.369  1.00  0.00    -0.014 C 
HETATM   17  C12 UNL     1     -88.986 -15.430  14.829  1.00  0.00     0.005 C 
HETATM   18  C13 UNL     1     -88.992 -16.686  15.640  1.00  0.00     0.000 C 
HETATM   19  C14 UNL     1     -87.745 -17.445  15.334  1.00  0.00     0.000 C 
HETATM   20  C15 UNL     1     -87.200 -16.769  14.096  1.00  0.00     0.005 C 
ENDBRANCH  15  16
ENDBRANCH   1  15
BRANCH   1  21
HETATM   21  C16 UNL     1     -86.413 -15.011  10.805  1.00  0.00     0.003 C 
HETATM   22  C17 UNL     1     -84.981 -15.306  11.106  1.00  0.00     0.039 C 
HETATM   23  C18 UNL     1     -84.362 -15.046   9.715  1.00  0.00     0.142 C 
HETATM   24  C19 UNL     1     -85.239 -15.929   8.888  1.00  0.00     0.124 C 
HETATM   25  C23 UNL     1     -86.626 -15.559   9.439  1.00  0.00     0.034 C 
BRANCH  23  26
HETATM   26  O2  UNL     1     -84.499 -13.701   9.400  1.00  0.00    -0.393 OA
ATOM     27  H2  UNL     1     -83.711 -13.239   9.660  1.00  0.00     0.210 HD
ENDBRANCH  23  26
BRANCH  24  28
HETATM   28  N3  UNL     1     -85.168 -15.746   7.478  1.00  0.00    -0.290 N 
HETATM   29  C20 UNL     1     -84.023 -15.668   6.775  1.00  0.00     0.232 A 
HETATM   30  F1  UNL     1     -82.747 -15.737   7.224  1.00  0.00    -0.182 F 
HETATM   31  C21 UNL     1     -84.352 -15.493   5.447  1.00  0.00     0.162 A 
HETATM   32 CL1  UNL     1     -83.193 -15.335   4.128  1.00  0.00    -0.059 Cl
HETATM   33  N4  UNL     1     -85.681 -15.466   5.344  1.00  0.00    -0.320 N 
HETATM   34  C22 UNL     1     -86.157 -15.624   6.607  1.00  0.00     0.182 A 
ATOM     35  H4  UNL     1     -86.228 -15.351   4.492  1.00  0.00     0.169 HD
HETATM   36  S1  UNL     1     -87.758 -15.643   6.894  1.00  0.00    -0.040 SA
ENDBRANCH  24  28
ENDBRANCH   1  21
TORSDOF 7
ENDMDL
