MODEL 1
REMARK VINA RESULT: -8.189744659      0.000      0.000
REMARK  10 active torsions:
REMARK  status: ('A' for Active; 'I' for Inactive)
REMARK    1  A    between atoms: C2_2  and  C4_4 
REMARK    2  A    between atoms: C10_10  and  C11_11 
REMARK    3  A    between atoms: C15_15  and  N1_16 
REMARK    4  A    between atoms: C21_25  and  N2_26 
REMARK       I    between atoms: N2_26  and  C22_28 
REMARK    5  A    between atoms: C22_28  and  C23_30 
REMARK    6  A    between atoms: C23_30  and  O3_31 
REMARK    7  A    between atoms: C23_30  and  C24_33 
REMARK    8  A    between atoms: C24_33  and  N3_35 
REMARK    9  A    between atoms: C24_33  and  C26_39 
REMARK   10  A    between atoms: C26_39  and  O4_40 
ROOT
HETATM    1  C4  UNL     1     -88.401 -16.268   7.998  1.00  0.00     0.038 C 
HETATM    2  C5  UNL     1     -86.972 -15.741   8.215  1.00  0.00     0.013 C 
HETATM    3  C6  UNL     1     -86.708 -15.582   9.701  1.00  0.00     0.050 C 
HETATM    4  C7  UNL     1     -86.933 -16.943  10.329  1.00  0.00     0.124 A 
HETATM    5  C8  UNL     1     -85.957 -17.908   9.858  1.00  0.00     0.018 A 
HETATM    6  C9  UNL     1     -85.266 -18.305  10.878  1.00  0.00     0.009 A 
HETATM    7  C10 UNL     1     -85.739 -17.624  12.130  1.00  0.00    -0.025 A 
HETATM    8  C15 UNL     1     -86.723 -16.823  11.807  1.00  0.00     0.053 A 
HETATM    9  O1  UNL     1     -88.244 -17.277  10.096  1.00  0.00    -0.345 OA
HETATM   10  C21 UNL     1     -88.520 -17.547   8.747  1.00  0.00     0.229 C 
ENDROOT
BRANCH   8  11
HETATM   11  N1  UNL     1     -87.522 -15.991  12.657  1.00  0.00    -0.381 N 
HETATM   12  C16 UNL     1     -86.867 -14.802  13.238  1.00  0.00     0.129 C 
HETATM   13  C17 UNL     1     -87.139 -14.679  14.702  1.00  0.00     0.099 C 
HETATM   14  C18 UNL     1     -88.617 -14.777  15.010  1.00  0.00     0.246 C 
HETATM   15  F1  UNL     1     -89.292 -13.758  14.408  1.00  0.00    -0.206 F 
HETATM   16  F2  UNL     1     -88.764 -14.719  16.377  1.00  0.00    -0.206 F 
HETATM   17  C19 UNL     1     -89.107 -16.102  14.529  1.00  0.00     0.099 C 
HETATM   18  C20 UNL     1     -88.876 -16.208  13.033  1.00  0.00     0.129 C 
ENDBRANCH   8  11
BRANCH   7  19
HETATM   19  C11 UNL     1     -85.109 -17.940  13.421  1.00  0.00    -0.022 C 
HETATM   20  C12 UNL     1     -86.116 -18.274  14.514  1.00  0.00     0.019 C 
HETATM   21  C13 UNL     1     -84.008 -17.056  13.884  1.00  0.00     0.019 C 
HETATM   22  C14 UNL     1     -84.392 -19.327  13.213  1.00  0.00     0.019 C 
ENDBRANCH   7  19
BRANCH  10  23
HETATM   23  N2  UNL     1     -89.856 -18.113   8.751  1.00  0.00    -0.332 N 
HETATM   24  C22 UNL     1     -90.949 -17.466   9.395  1.00  0.00     0.251 C 
HETATM   25  O2  UNL     1     -90.708 -16.359   9.983  1.00  0.00    -0.271 OA
ATOM     26  H2  UNL     1     -90.017 -19.002   8.277  1.00  0.00     0.165 HD
BRANCH  24  27
HETATM   27  C23 UNL     1     -92.306 -18.029   9.395  1.00  0.00     0.247 C 
BRANCH  27  28
HETATM   28  O3  UNL     1     -92.309 -19.188   8.620  1.00  0.00    -0.384 OA
ATOM     29  H3  UNL     1     -92.662 -19.900   9.139  1.00  0.00     0.210 HD
ENDBRANCH  27  28
BRANCH  27  30
HETATM   30  C24 UNL     1     -92.932 -18.189  10.740  1.00  0.00     0.175 C 
HETATM   31  C25 UNL     1     -93.913 -19.302  10.872  1.00  0.00     0.052 C 
BRANCH  30  32
HETATM   32  N3  UNL     1     -91.851 -18.294  11.716  1.00  0.00    -0.066 N 
ATOM     33  H33 UNL     1     -91.579 -17.393  12.108  1.00  0.00     0.275 HD
ATOM     34  H32 UNL     1     -92.142 -18.736  12.588  1.00  0.00     0.275 HD
ATOM     35  H31 UNL     1     -91.077 -18.780  11.262  1.00  0.00     0.275 HD
ENDBRANCH  30  32
BRANCH  30  36
HETATM   36  C26 UNL     1     -93.636 -16.866  11.093  1.00  0.00     0.205 C 
BRANCH  36  37
HETATM   37  O4  UNL     1     -92.988 -16.269  12.174  1.00  0.00    -0.398 OA
ATOM     38  H4  UNL     1     -92.140 -15.943  11.895  1.00  0.00     0.209 HD
ENDBRANCH  36  37
ENDBRANCH  30  36
ENDBRANCH  27  30
ENDBRANCH  24  27
ENDBRANCH  10  23
BRANCH   1  39
HETATM   39  C2  UNL     1     -88.571 -16.345   6.521  1.00  0.00    -0.014 C 
HETATM   40  C1  UNL     1     -87.470 -15.457   5.920  1.00  0.00     0.010 C 
HETATM   41  C3  UNL     1     -89.873 -15.876   5.980  1.00  0.00     0.010 C 
ENDBRANCH   1  39
TORSDOF 10
ENDMDL
MODEL 2
REMARK VINA RESULT: -7.626952772      0.790      1.030
REMARK  10 active torsions:
REMARK  status: ('A' for Active; 'I' for Inactive)
REMARK    1  A    between atoms: C2_2  and  C4_4 
REMARK    2  A    between atoms: C10_10  and  C11_11 
REMARK    3  A    between atoms: C15_15  and  N1_16 
REMARK    4  A    between atoms: C21_25  and  N2_26 
REMARK       I    between atoms: N2_26  and  C22_28 
REMARK    5  A    between atoms: C22_28  and  C23_30 
REMARK    6  A    between atoms: C23_30  and  O3_31 
REMARK    7  A    between atoms: C23_30  and  C24_33 
REMARK    8  A    between atoms: C24_33  and  N3_35 
REMARK    9  A    between atoms: C24_33  and  C26_39 
REMARK   10  A    between atoms: C26_39  and  O4_40 
ROOT
HETATM    1  C4  UNL     1     -88.168 -16.244   7.947  1.00  0.00     0.038 C 
HETATM    2  C5  UNL     1     -86.745 -15.731   8.227  1.00  0.00     0.013 C 
HETATM    3  C6  UNL     1     -86.541 -15.588   9.724  1.00  0.00     0.050 C 
HETATM    4  C7  UNL     1     -86.801 -16.953  10.329  1.00  0.00     0.124 A 
HETATM    5  C8  UNL     1     -85.815 -17.922   9.888  1.00  0.00     0.018 A 
HETATM    6  C9  UNL     1     -85.169 -18.334  10.931  1.00  0.00     0.009 A 
HETATM    7  C10 UNL     1     -85.687 -17.662  12.170  1.00  0.00    -0.025 A 
HETATM    8  C15 UNL     1     -86.651 -16.850  11.815  1.00  0.00     0.053 A 
HETATM    9  O1  UNL     1     -88.105 -17.275  10.040  1.00  0.00    -0.345 OA
HETATM   10  C21 UNL     1     -88.327 -17.528   8.678  1.00  0.00     0.229 C 
ENDROOT
BRANCH   8  11
HETATM   11  N1  UNL     1     -87.477 -16.019  12.640  1.00  0.00    -0.381 N 
HETATM   12  C16 UNL     1     -86.838 -14.836  13.252  1.00  0.00     0.129 C 
HETATM   13  C17 UNL     1     -87.164 -14.720  14.706  1.00  0.00     0.099 C 
HETATM   14  C18 UNL     1     -88.652 -14.814  14.959  1.00  0.00     0.246 C 
HETATM   15  F1  UNL     1     -89.301 -13.789  14.339  1.00  0.00    -0.206 F 
HETATM   16  F2  UNL     1     -88.849 -14.764  16.320  1.00  0.00    -0.206 F 
HETATM   17  C19 UNL     1     -89.130 -16.134  14.452  1.00  0.00     0.099 C 
HETATM   18  C20 UNL     1     -88.845 -16.233  12.966  1.00  0.00     0.129 C 
ENDBRANCH   8  11
BRANCH   7  19
HETATM   19  C11 UNL     1     -85.112 -17.995  13.482  1.00  0.00    -0.022 C 
HETATM   20  C12 UNL     1     -86.165 -18.352  14.524  1.00  0.00     0.019 C 
HETATM   21  C13 UNL     1     -84.038 -17.113  14.007  1.00  0.00     0.019 C 
HETATM   22  C14 UNL     1     -84.380 -19.376  13.284  1.00  0.00     0.019 C 
ENDBRANCH   7  19
BRANCH  10  23
HETATM   23  N2  UNL     1     -89.667 -18.084   8.622  1.00  0.00    -0.332 N 
HETATM   24  C22 UNL     1     -90.785 -17.423   9.208  1.00  0.00     0.251 C 
HETATM   25  O2  UNL     1     -90.562 -16.312   9.798  1.00  0.00    -0.271 OA
ATOM     26  H2  UNL     1     -89.813 -18.976   8.149  1.00  0.00     0.165 HD
BRANCH  24  27
HETATM   27  C23 UNL     1     -92.145 -17.974   9.147  1.00  0.00     0.247 C 
BRANCH  27  28
HETATM   28  O3  UNL     1     -92.105 -19.184   8.455  1.00  0.00    -0.384 OA
ATOM     29  H3  UNL     1     -91.788 -19.021   7.576  1.00  0.00     0.210 HD
ENDBRANCH  27  28
BRANCH  27  30
HETATM   30  C24 UNL     1     -92.869 -18.035  10.450  1.00  0.00     0.175 C 
HETATM   31  C25 UNL     1     -92.043 -18.390  11.637  1.00  0.00     0.052 C 
BRANCH  30  32
HETATM   32  N3  UNL     1     -93.560 -16.760  10.625  1.00  0.00    -0.066 N 
ATOM     33  H33 UNL     1     -92.975 -15.956  10.400  1.00  0.00     0.275 HD
ATOM     34  H32 UNL     1     -94.283 -16.599   9.923  1.00  0.00     0.275 HD
ATOM     35  H31 UNL     1     -93.919 -16.737  11.579  1.00  0.00     0.275 HD
ENDBRANCH  30  32
BRANCH  30  36
HETATM   36  C26 UNL     1     -94.004 -19.067  10.311  1.00  0.00     0.205 C 
BRANCH  36  37
HETATM   37  O4  UNL     1     -93.528 -20.330  10.662  1.00  0.00    -0.398 OA
ATOM     38  H4  UNL     1     -94.041 -20.996  10.219  1.00  0.00     0.209 HD
ENDBRANCH  36  37
ENDBRANCH  30  36
ENDBRANCH  27  30
ENDBRANCH  24  27
ENDBRANCH  10  23
BRANCH   1  39
HETATM   39  C2  UNL     1     -88.278 -16.305   6.464  1.00  0.00    -0.014 C 
HETATM   40  C1  UNL     1     -87.158 -15.406   5.917  1.00  0.00     0.010 C 
HETATM   41  C3  UNL     1     -89.560 -15.835   5.877  1.00  0.00     0.010 C 
ENDBRANCH   1  39
TORSDOF 10
ENDMDL
MODEL 3
REMARK VINA RESULT: -7.618784459      3.475      6.424
REMARK  10 active torsions:
REMARK  status: ('A' for Active; 'I' for Inactive)
REMARK    1  A    between atoms: C2_2  and  C4_4 
REMARK    2  A    between atoms: C10_10  and  C11_11 
REMARK    3  A    between atoms: C15_15  and  N1_16 
REMARK    4  A    between atoms: C21_25  and  N2_26 
REMARK       I    between atoms: N2_26  and  C22_28 
REMARK    5  A    between atoms: C22_28  and  C23_30 
REMARK    6  A    between atoms: C23_30  and  O3_31 
REMARK    7  A    between atoms: C23_30  and  C24_33 
REMARK    8  A    between atoms: C24_33  and  N3_35 
REMARK    9  A    between atoms: C24_33  and  C26_39 
REMARK   10  A    between atoms: C26_39  and  O4_40 
ROOT
HETATM    1  C4  UNL     1     -88.481 -17.271   9.972  1.00  0.00     0.038 C 
HETATM    2  C5  UNL     1     -89.703 -17.435  10.892  1.00  0.00     0.013 C 
HETATM    3  C6  UNL     1     -89.265 -18.035  12.216  1.00  0.00     0.050 C 
HETATM    4  C7  UNL     1     -88.220 -17.101  12.790  1.00  0.00     0.124 A 
HETATM    5  C8  UNL     1     -88.791 -15.807  13.114  1.00  0.00     0.018 A 
HETATM    6  C9  UNL     1     -88.671 -15.628  14.391  1.00  0.00     0.009 A 
HETATM    7  C10 UNL     1     -87.996 -16.810  15.026  1.00  0.00    -0.025 A 
HETATM    8  C15 UNL     1     -87.728 -17.677  14.082  1.00  0.00     0.053 A 
HETATM    9  O1  UNL     1     -87.177 -17.072  11.897  1.00  0.00    -0.345 OA
HETATM   10  C21 UNL     1     -87.494 -16.425  10.692  1.00  0.00     0.229 C 
ENDROOT
BRANCH   8  11
HETATM   11  N1  UNL     1     -87.057 -18.938  14.184  1.00  0.00    -0.381 N 
HETATM   12  C16 UNL     1     -87.878 -20.105  14.570  1.00  0.00     0.129 C 
HETATM   13  C17 UNL     1     -87.225 -20.910  15.645  1.00  0.00     0.099 C 
HETATM   14  C18 UNL     1     -85.793 -21.255  15.300  1.00  0.00     0.246 C 
HETATM   15  F1  UNL     1     -85.751 -22.018  14.172  1.00  0.00    -0.206 F 
HETATM   16  F2  UNL     1     -85.257 -21.936  16.369  1.00  0.00    -0.206 F 
HETATM   17  C19 UNL     1     -85.038 -19.981  15.114  1.00  0.00     0.099 C 
HETATM   18  C20 UNL     1     -85.670 -19.184  13.989  1.00  0.00     0.129 C 
ENDBRANCH   8  11
BRANCH   7  19
HETATM   19  C11 UNL     1     -87.735 -16.816  16.473  1.00  0.00    -0.022 C 
HETATM   20  C12 UNL     1     -86.250 -16.847  16.814  1.00  0.00     0.019 C 
HETATM   21  C13 UNL     1     -88.552 -17.727  17.316  1.00  0.00     0.019 C 
HETATM   22  C14 UNL     1     -88.149 -15.385  16.984  1.00  0.00     0.019 C 
ENDBRANCH   7  19
BRANCH  10  23
HETATM   23  N2  UNL     1     -86.223 -16.279  10.008  1.00  0.00    -0.332 N 
HETATM   24  C22 UNL     1     -85.388 -15.140  10.199  1.00  0.00     0.251 C 
HETATM   25  O2  UNL     1     -85.807 -14.237  10.999  1.00  0.00    -0.271 OA
ATOM     26  H2  UNL     1     -85.916 -17.014   9.371  1.00  0.00     0.165 HD
BRANCH  24  27
HETATM   27  C23 UNL     1     -84.095 -14.990   9.518  1.00  0.00     0.247 C 
BRANCH  27  28
HETATM   28  O3  UNL     1     -84.029 -13.713   8.962  1.00  0.00    -0.384 OA
ATOM     29  H3  UNL     1     -83.162 -13.358   9.118  1.00  0.00     0.210 HD
ENDBRANCH  27  28
BRANCH  27  30
HETATM   30  C24 UNL     1     -82.899 -15.372  10.324  1.00  0.00     0.175 C 
HETATM   31  C25 UNL     1     -83.153 -16.290  11.468  1.00  0.00     0.052 C 
BRANCH  30  32
HETATM   32  N3  UNL     1     -81.904 -15.909   9.401  1.00  0.00    -0.066 N 
ATOM     33  H33 UNL     1     -80.987 -16.031   9.830  1.00  0.00     0.275 HD
ATOM     34  H32 UNL     1     -82.069 -16.888   9.162  1.00  0.00     0.275 HD
ATOM     35  H31 UNL     1     -81.884 -15.299   8.585  1.00  0.00     0.275 HD
ENDBRANCH  30  32
BRANCH  30  36
HETATM   36  C26 UNL     1     -82.260 -14.078  10.862  1.00  0.00     0.205 C 
BRANCH  36  37
HETATM   37  O4  UNL     1     -82.980 -13.629  11.969  1.00  0.00    -0.398 OA
ATOM     38  H4  UNL     1     -83.693 -13.072  11.678  1.00  0.00     0.209 HD
ENDBRANCH  36  37
ENDBRANCH  30  36
ENDBRANCH  27  30
ENDBRANCH  24  27
ENDBRANCH  10  23
BRANCH   1  39
HETATM   39  C2  UNL     1     -89.021 -16.723   8.697  1.00  0.00    -0.014 C 
HETATM   40  C1  UNL     1     -90.463 -17.244   8.588  1.00  0.00     0.010 C 
HETATM   41  C3  UNL     1     -88.306 -17.113   7.454  1.00  0.00     0.010 C 
ENDBRANCH   1  39
TORSDOF 10
ENDMDL
MODEL 4
REMARK VINA RESULT: -7.457722148      2.047      2.827
REMARK  10 active torsions:
REMARK  status: ('A' for Active; 'I' for Inactive)
REMARK    1  A    between atoms: C2_2  and  C4_4 
REMARK    2  A    between atoms: C10_10  and  C11_11 
REMARK    3  A    between atoms: C15_15  and  N1_16 
REMARK    4  A    between atoms: C21_25  and  N2_26 
REMARK       I    between atoms: N2_26  and  C22_28 
REMARK    5  A    between atoms: C22_28  and  C23_30 
REMARK    6  A    between atoms: C23_30  and  O3_31 
REMARK    7  A    between atoms: C23_30  and  C24_33 
REMARK    8  A    between atoms: C24_33  and  N3_35 
REMARK    9  A    between atoms: C24_33  and  C26_39 
REMARK   10  A    between atoms: C26_39  and  O4_40 
ROOT
HETATM    1  C4  UNL     1     -87.755 -16.024  10.087  1.00  0.00     0.038 C 
HETATM    2  C5  UNL     1     -86.256 -16.364  10.015  1.00  0.00     0.013 C 
HETATM    3  C6  UNL     1     -85.623 -16.163  11.380  1.00  0.00     0.050 C 
HETATM    4  C7  UNL     1     -86.380 -17.053  12.344  1.00  0.00     0.124 A 
HETATM    5  C8  UNL     1     -86.191 -18.456  12.026  1.00  0.00     0.018 A 
HETATM    6  C9  UNL     1     -85.603 -19.017  13.033  1.00  0.00     0.009 A 
HETATM    7  C10 UNL     1     -85.354 -18.012  14.122  1.00  0.00    -0.025 A 
HETATM    8  C15 UNL     1     -85.814 -16.856  13.716  1.00  0.00     0.053 A 
HETATM    9  O1  UNL     1     -87.685 -16.625  12.341  1.00  0.00    -0.345 OA
HETATM   10  C21 UNL     1     -88.355 -16.889  11.136  1.00  0.00     0.229 C 
ENDROOT
BRANCH   8  11
HETATM   11  N1  UNL     1     -85.843 -15.605  14.414  1.00  0.00    -0.381 N 
HETATM   12  C16 UNL     1     -84.838 -14.595  14.023  1.00  0.00     0.129 C 
HETATM   13  C17 UNL     1     -84.165 -13.993  15.212  1.00  0.00     0.099 C 
HETATM   14  C18 UNL     1     -85.164 -13.500  16.235  1.00  0.00     0.246 C 
HETATM   15  F1  UNL     1     -85.941 -12.518  15.699  1.00  0.00    -0.206 F 
HETATM   16  F2  UNL     1     -84.456 -13.025  17.316  1.00  0.00    -0.206 F 
HETATM   17  C19 UNL     1     -85.993 -14.660  16.675  1.00  0.00     0.099 C 
HETATM   18  C20 UNL     1     -86.717 -15.242  15.476  1.00  0.00     0.129 C 
ENDBRANCH   8  11
BRANCH   7  19
HETATM   19  C11 UNL     1     -84.712 -18.433  15.376  1.00  0.00    -0.022 C 
HETATM   20  C12 UNL     1     -85.674 -18.472  16.557  1.00  0.00     0.019 C 
HETATM   21  C13 UNL     1     -83.393 -17.836  15.710  1.00  0.00     0.019 C 
HETATM   22  C14 UNL     1     -84.377 -19.961  15.188  1.00  0.00     0.019 C 
ENDBRANCH   7  19
BRANCH  10  23
HETATM   23  N2  UNL     1     -89.749 -16.601  11.421  1.00  0.00    -0.332 N 
HETATM   24  C22 UNL     1     -90.688 -17.630  11.719  1.00  0.00     0.251 C 
HETATM   25  O2  UNL     1     -90.257 -18.831  11.720  1.00  0.00    -0.271 OA
ATOM     26  H2  UNL     1     -90.066 -15.631  11.408  1.00  0.00     0.165 HD
BRANCH  24  27
HETATM   27  C23 UNL     1     -92.098 -17.344  12.017  1.00  0.00     0.247 C 
BRANCH  27  28
HETATM   28  O3  UNL     1     -92.165 -16.186  12.790  1.00  0.00    -0.384 OA
ATOM     29  H3  UNL     1     -93.030 -16.129  13.178  1.00  0.00     0.210 HD
ENDBRANCH  27  28
BRANCH  27  30
HETATM   30  C24 UNL     1     -93.015 -17.352  10.840  1.00  0.00     0.175 C 
HETATM   31  C25 UNL     1     -93.856 -16.136  10.665  1.00  0.00     0.052 C 
BRANCH  30  32
HETATM   32  N3  UNL     1     -92.206 -17.633   9.658  1.00  0.00    -0.066 N 
ATOM     33  H33 UNL     1     -91.204 -17.598   9.844  1.00  0.00     0.275 HD
ATOM     34  H32 UNL     1     -92.252 -18.609   9.366  1.00  0.00     0.275 HD
ATOM     35  H31 UNL     1     -92.498 -16.985   8.927  1.00  0.00     0.275 HD
ENDBRANCH  30  32
BRANCH  30  36
HETATM   36  C26 UNL     1     -93.938 -18.577  10.970  1.00  0.00     0.205 C 
BRANCH  36  37
HETATM   37  O4  UNL     1     -93.560 -19.329  12.082  1.00  0.00    -0.398 OA
ATOM     38  H4  UNL     1     -93.915 -20.207  12.007  1.00  0.00     0.209 HD
ENDBRANCH  36  37
ENDBRANCH  30  36
ENDBRANCH  27  30
ENDBRANCH  24  27
ENDBRANCH  10  23
BRANCH   1  39
HETATM   39  C2  UNL     1     -88.266 -16.209   8.701  1.00  0.00    -0.014 C 
HETATM   40  C1  UNL     1     -88.598 -17.703   8.566  1.00  0.00     0.010 C 
HETATM   41  C3  UNL     1     -87.333 -15.853   7.601  1.00  0.00     0.010 C 
ENDBRANCH   1  39
TORSDOF 10
ENDMDL
MODEL 5
REMARK VINA RESULT: -7.457414438      0.766      1.267
REMARK  10 active torsions:
REMARK  status: ('A' for Active; 'I' for Inactive)
REMARK    1  A    between atoms: C2_2  and  C4_4 
REMARK    2  A    between atoms: C10_10  and  C11_11 
REMARK    3  A    between atoms: C15_15  and  N1_16 
REMARK    4  A    between atoms: C21_25  and  N2_26 
REMARK       I    between atoms: N2_26  and  C22_28 
REMARK    5  A    between atoms: C22_28  and  C23_30 
REMARK    6  A    between atoms: C23_30  and  O3_31 
REMARK    7  A    between atoms: C23_30  and  C24_33 
REMARK    8  A    between atoms: C24_33  and  N3_35 
REMARK    9  A    between atoms: C24_33  and  C26_39 
REMARK   10  A    between atoms: C26_39  and  O4_40 
ROOT
HETATM    1  C4  UNL     1     -87.836 -16.187   8.493  1.00  0.00     0.038 C 
HETATM    2  C5  UNL     1     -86.375 -15.799   8.778  1.00  0.00     0.013 C 
HETATM    3  C6  UNL     1     -86.162 -15.684  10.277  1.00  0.00     0.050 C 
HETATM    4  C7  UNL     1     -86.539 -17.026  10.871  1.00  0.00     0.124 A 
HETATM    5  C8  UNL     1     -85.638 -18.072  10.424  1.00  0.00     0.018 A 
HETATM    6  C9  UNL     1     -85.031 -18.546  11.465  1.00  0.00     0.009 A 
HETATM    7  C10 UNL     1     -85.493 -17.840  12.709  1.00  0.00    -0.025 A 
HETATM    8  C15 UNL     1     -86.383 -16.947  12.358  1.00  0.00     0.053 A 
HETATM    9  O1  UNL     1     -87.865 -17.234  10.578  1.00  0.00    -0.345 OA
HETATM   10  C21 UNL     1     -88.105 -17.458   9.214  1.00  0.00     0.229 C 
ENDROOT
BRANCH   8  11
HETATM   11  N1  UNL     1     -87.137 -16.056  13.189  1.00  0.00    -0.381 N 
HETATM   12  C16 UNL     1     -88.551 -16.405  13.438  1.00  0.00     0.129 C 
HETATM   13  C17 UNL     1     -89.454 -15.232  13.242  1.00  0.00     0.099 C 
HETATM   14  C18 UNL     1     -88.978 -14.019  14.010  1.00  0.00     0.246 C 
HETATM   15  F1  UNL     1     -88.976 -14.281  15.347  1.00  0.00    -0.206 F 
HETATM   16  F2  UNL     1     -89.830 -12.978  13.718  1.00  0.00    -0.206 F 
HETATM   17  C19 UNL     1     -87.609 -13.670  13.530  1.00  0.00     0.099 C 
HETATM   18  C20 UNL     1     -86.678 -14.843  13.774  1.00  0.00     0.129 C 
ENDBRANCH   8  11
BRANCH   7  19
HETATM   19  C11 UNL     1     -84.951 -18.231  14.019  1.00  0.00    -0.022 C 
HETATM   20  C12 UNL     1     -86.025 -18.681  15.002  1.00  0.00     0.019 C 
HETATM   21  C13 UNL     1     -83.925 -17.348  14.630  1.00  0.00     0.019 C 
HETATM   22  C14 UNL     1     -84.166 -19.574  13.768  1.00  0.00     0.019 C 
ENDBRANCH   7  19
BRANCH  10  23
HETATM   23  N2  UNL     1     -89.487 -17.898   9.152  1.00  0.00    -0.332 N 
HETATM   24  C22 UNL     1     -90.557 -17.100   9.651  1.00  0.00     0.251 C 
HETATM   25  O2  UNL     1     -90.253 -15.973  10.168  1.00  0.00    -0.271 OA
ATOM     26  H2  UNL     1     -89.699 -18.805   8.739  1.00  0.00     0.165 HD
BRANCH  24  27
HETATM   27  C23 UNL     1     -91.959 -17.534   9.583  1.00  0.00     0.247 C 
BRANCH  27  28
HETATM   28  O3  UNL     1     -92.065 -18.553   8.637  1.00  0.00    -0.384 OA
ATOM     29  H3  UNL     1     -91.485 -19.261   8.887  1.00  0.00     0.210 HD
ENDBRANCH  27  28
BRANCH  27  30
HETATM   30  C24 UNL     1     -92.596 -17.846  10.896  1.00  0.00     0.175 C 
HETATM   31  C25 UNL     1     -93.413 -19.090  10.942  1.00  0.00     0.052 C 
BRANCH  30  32
HETATM   32  N3  UNL     1     -91.540 -17.848  11.904  1.00  0.00    -0.066 N 
ATOM     33  H33 UNL     1     -91.802 -17.354  12.757  1.00  0.00     0.275 HD
ATOM     34  H32 UNL     1     -91.390 -18.766  12.324  1.00  0.00     0.275 HD
ATOM     35  H31 UNL     1     -90.700 -17.468  11.467  1.00  0.00     0.275 HD
ENDBRANCH  30  32
BRANCH  30  36
HETATM   36  C26 UNL     1     -93.489 -16.653  11.282  1.00  0.00     0.205 C 
BRANCH  36  37
HETATM   37  O4  UNL     1     -93.070 -16.136  12.508  1.00  0.00    -0.398 OA
ATOM     38  H4  UNL     1     -93.239 -16.772  13.194  1.00  0.00     0.209 HD
ENDBRANCH  36  37
ENDBRANCH  30  36
ENDBRANCH  27  30
ENDBRANCH  24  27
ENDBRANCH  10  23
BRANCH   1  39
HETATM   39  C2  UNL     1     -87.948 -16.227   7.009  1.00  0.00    -0.014 C 
HETATM   40  C1  UNL     1     -86.835 -15.313   6.473  1.00  0.00     0.010 C 
HETATM   41  C3  UNL     1     -89.234 -15.758   6.431  1.00  0.00     0.010 C 
ENDBRANCH   1  39
TORSDOF 10
ENDMDL
