MODEL 1
REMARK VINA RESULT: -8.058930440      0.000      0.000
REMARK  10 active torsions:
REMARK  status: ('A' for Active; 'I' for Inactive)
REMARK    1  A    between atoms: C4_4  and  C5_5 
REMARK    2  A    between atoms: C5_5  and  C6_6 
REMARK    3  A    between atoms: C6_6  and  C7_7 
REMARK    4  A    between atoms: C8_8  and  C9_9 
REMARK    5  A    between atoms: C9_9  and  O1_10 
REMARK    6  A    between atoms: O1_10  and  C10_11 
REMARK    7  A    between atoms: C10_11  and  C11_12 
REMARK    8  A    between atoms: C13_15  and  O3_16 
REMARK    9  A    between atoms: C16_21  and  O5_22 
REMARK   10  A    between atoms: C20_27  and  O6_28 
ROOT
HETATM    1  C6  UNL     1      94.214  13.525  11.777  1.00  0.00     0.006 C 
HETATM    2  C15 UNL     1      95.156  12.492  12.404  1.00  0.00     0.185 C 
HETATM    3  O4  UNL     1      96.056  13.152  13.292  1.00  0.00    -0.360 OA
HETATM    4  C16 UNL     1      97.100  13.645  12.459  1.00  0.00     0.265 C 
HETATM    5  C17 UNL     1      96.494  14.289  11.229  1.00  0.00     0.079 C 
HETATM    6  C18 UNL     1      97.285  15.485  10.813  1.00  0.00    -0.040 A 
HETATM    7  C19 UNL     1      98.534  15.310  10.214  1.00  0.00     0.046 A 
HETATM    8  C20 UNL     1      99.308  16.369   9.817  1.00  0.00     0.083 A 
HETATM    9  C21 UNL     1      98.893  17.671   9.992  1.00  0.00     0.044 A 
HETATM   10 BR1  UNL     1      99.955  19.171   9.462  1.00  0.00    -0.048 Br
HETATM   11  C22 UNL     1      97.663  17.851  10.583  1.00  0.00     0.029 A 
HETATM   12  C23 UNL     1      96.854  16.778  10.996  1.00  0.00    -0.050 A 
HETATM   13  C24 UNL     1      95.543  17.078  11.635  1.00  0.00     0.039 C 
HETATM   14  C25 UNL     1      95.107  15.830  12.452  1.00  0.00     0.011 C 
HETATM   15  C26 UNL     1      95.025  14.724  11.481  1.00  0.00     0.014 C 
ENDROOT
BRANCH   1  16
HETATM   16  C5  UNL     1      93.020  13.628  12.656  1.00  0.00     0.043 C 
BRANCH  16  17
HETATM   17  C4  UNL     1      92.611  12.399  13.329  1.00  0.00    -0.024 C 
HETATM   18  C2  UNL     1      91.472  11.751  13.248  1.00  0.00    -0.091 C 
HETATM   19  C1  UNL     1      91.326  10.487  14.060  1.00  0.00     0.042 C 
HETATM   20  C3  UNL     1      90.355  12.265  12.430  1.00  0.00     0.042 C 
ENDBRANCH  16  17
ENDBRANCH   1  16
BRANCH   1  21
HETATM   21  C7  UNL     1      93.715  12.983  10.476  1.00  0.00    -0.016 C 
HETATM   22  C8  UNL     1      93.102  13.445   9.470  1.00  0.00    -0.004 C 
BRANCH  22  23
HETATM   23  C9  UNL     1      92.577  14.763   9.090  1.00  0.00     0.195 C 
BRANCH  23  24
HETATM   24  O1  UNL     1      93.209  15.215   7.920  1.00  0.00    -0.383 OA
BRANCH  24  25
HETATM   25  C10 UNL     1      94.406  15.826   8.188  1.00  0.00     0.208 C 
BRANCH  25  26
HETATM   26  C11 UNL     1      95.551  15.309   7.401  1.00  0.00    -0.007 A 
HETATM   27  C12 UNL     1      95.669  14.135   6.716  1.00  0.00     0.154 A 
HETATM   28  O2  UNL     1      96.839  14.057   6.144  1.00  0.00    -0.300 OA
HETATM   29  C13 UNL     1      97.564  15.145   6.398  1.00  0.00     0.183 A 
HETATM   30  C14 UNL     1      96.785  15.950   7.185  1.00  0.00     0.075 A 
BRANCH  29  31
HETATM   31  O3  UNL     1      98.865  15.325   5.903  1.00  0.00    -0.341 OA
ATOM     32  H3  UNL     1      99.471  14.604   5.774  1.00  0.00     0.220 HD
ENDBRANCH  29  31
ENDBRANCH  25  26
ENDBRANCH  24  25
ENDBRANCH  23  24
ENDBRANCH  22  23
ENDBRANCH   1  21
BRANCH   4  33
HETATM   33  O5  UNL     1      97.949  14.441  13.178  1.00  0.00    -0.371 OA
ATOM     34  H5  UNL     1      98.851  14.259  12.945  1.00  0.00     0.212 HD
ENDBRANCH   4  33
BRANCH   8  35
HETATM   35  O6  UNL     1     100.559  16.207   9.217  1.00  0.00    -0.359 OA
ATOM     36  H6  UNL     1     101.237  15.652   9.585  1.00  0.00     0.217 HD
ENDBRANCH   8  35
TORSDOF 10
ENDMDL
MODEL 2
REMARK VINA RESULT: -7.462201526      3.497      6.017
REMARK  10 active torsions:
REMARK  status: ('A' for Active; 'I' for Inactive)
REMARK    1  A    between atoms: C4_4  and  C5_5 
REMARK    2  A    between atoms: C5_5  and  C6_6 
REMARK    3  A    between atoms: C6_6  and  C7_7 
REMARK    4  A    between atoms: C8_8  and  C9_9 
REMARK    5  A    between atoms: C9_9  and  O1_10 
REMARK    6  A    between atoms: O1_10  and  C10_11 
REMARK    7  A    between atoms: C10_11  and  C11_12 
REMARK    8  A    between atoms: C13_15  and  O3_16 
REMARK    9  A    between atoms: C16_21  and  O5_22 
REMARK   10  A    between atoms: C20_27  and  O6_28 
ROOT
HETATM    1  C6  UNL     1      95.170  15.836   9.714  1.00  0.00     0.006 C 
HETATM    2  C15 UNL     1      95.467  15.926   8.213  1.00  0.00     0.185 C 
HETATM    3  O4  UNL     1      96.747  15.356   7.950  1.00  0.00    -0.360 OA
HETATM    4  C16 UNL     1      97.678  16.396   8.227  1.00  0.00     0.265 C 
HETATM    5  C17 UNL     1      97.298  17.069   9.530  1.00  0.00     0.079 C 
HETATM    6  C18 UNL     1      98.517  17.468  10.296  1.00  0.00    -0.040 A 
HETATM    7  C19 UNL     1      99.282  18.550   9.858  1.00  0.00     0.046 A 
HETATM    8  C20 UNL     1     100.413  18.959  10.514  1.00  0.00     0.083 A 
HETATM    9  C21 UNL     1     100.860  18.316  11.648  1.00  0.00     0.044 A 
HETATM   10 BR1  UNL     1     102.443  18.853  12.579  1.00  0.00    -0.048 Br
HETATM   11  C22 UNL     1     100.112  17.247  12.085  1.00  0.00     0.029 A 
HETATM   12  C23 UNL     1      98.948  16.814  11.426  1.00  0.00    -0.050 A 
HETATM   13  C24 UNL     1      98.214  15.639  11.973  1.00  0.00     0.039 C 
HETATM   14  C25 UNL     1      97.334  15.048  10.837  1.00  0.00     0.011 C 
HETATM   15  C26 UNL     1      96.433  16.137  10.420  1.00  0.00     0.014 C 
ENDROOT
BRANCH   1  16
HETATM   16  C5  UNL     1      94.469  14.547   9.951  1.00  0.00     0.043 C 
BRANCH  16  17
HETATM   17  C4  UNL     1      93.464  14.172   8.960  1.00  0.00    -0.024 C 
HETATM   18  C2  UNL     1      92.173  13.995   9.117  1.00  0.00    -0.091 C 
HETATM   19  C1  UNL     1      91.366  13.610   7.902  1.00  0.00     0.042 C 
HETATM   20  C3  UNL     1      91.539  14.118  10.446  1.00  0.00     0.042 C 
ENDBRANCH  16  17
ENDBRANCH   1  16
BRANCH   1  21
HETATM   21  C7  UNL     1      94.187  16.906  10.067  1.00  0.00    -0.016 C 
HETATM   22  C8  UNL     1      93.565  17.265  11.109  1.00  0.00    -0.004 C 
BRANCH  22  23
HETATM   23  C9  UNL     1      93.513  16.796  12.500  1.00  0.00     0.195 C 
BRANCH  23  24
HETATM   24  O1  UNL     1      94.242  17.663  13.330  1.00  0.00    -0.383 OA
BRANCH  24  25
HETATM   25  C10 UNL     1      93.492  18.116  14.383  1.00  0.00     0.208 C 
BRANCH  25  26
HETATM   26  C11 UNL     1      93.522  19.586  14.572  1.00  0.00    -0.007 A 
HETATM   27  C12 UNL     1      92.623  20.529  14.163  1.00  0.00     0.154 A 
HETATM   28  O2  UNL     1      93.009  21.717  14.536  1.00  0.00    -0.300 OA
HETATM   29  C13 UNL     1      94.159  21.654  15.204  1.00  0.00     0.183 A 
HETATM   30  C14 UNL     1      94.508  20.332  15.244  1.00  0.00     0.075 A 
BRANCH  29  31
HETATM   31  O3  UNL     1      94.800  22.790  15.723  1.00  0.00    -0.341 OA
ATOM     32  H3  UNL     1      95.619  23.123  15.374  1.00  0.00     0.220 HD
ENDBRANCH  29  31
ENDBRANCH  25  26
ENDBRANCH  24  25
ENDBRANCH  23  24
ENDBRANCH  22  23
ENDBRANCH   1  21
BRANCH   4  33
HETATM   33  O5  UNL     1      98.959  15.921   8.167  1.00  0.00    -0.371 OA
ATOM     34  H5  UNL     1      99.073  15.371   7.401  1.00  0.00     0.212 HD
ENDBRANCH   4  33
BRANCH   8  35
HETATM   35  O6  UNL     1     101.186  20.041  10.085  1.00  0.00    -0.359 OA
ATOM     36  H6  UNL     1     100.806  20.832   9.722  1.00  0.00     0.217 HD
ENDBRANCH   8  35
TORSDOF 10
ENDMDL
MODEL 3
REMARK VINA RESULT: -7.459327139      2.083      5.116
REMARK  10 active torsions:
REMARK  status: ('A' for Active; 'I' for Inactive)
REMARK    1  A    between atoms: C4_4  and  C5_5 
REMARK    2  A    between atoms: C5_5  and  C6_6 
REMARK    3  A    between atoms: C6_6  and  C7_7 
REMARK    4  A    between atoms: C8_8  and  C9_9 
REMARK    5  A    between atoms: C9_9  and  O1_10 
REMARK    6  A    between atoms: O1_10  and  C10_11 
REMARK    7  A    between atoms: C10_11  and  C11_12 
REMARK    8  A    between atoms: C13_15  and  O3_16 
REMARK    9  A    between atoms: C16_21  and  O5_22 
REMARK   10  A    between atoms: C20_27  and  O6_28 
ROOT
HETATM    1  C6  UNL     1      95.026  15.697   9.572  1.00  0.00     0.006 C 
HETATM    2  C15 UNL     1      95.331  15.798   8.073  1.00  0.00     0.185 C 
HETATM    3  O4  UNL     1      96.621  15.249   7.816  1.00  0.00    -0.360 OA
HETATM    4  C16 UNL     1      97.535  16.302   8.104  1.00  0.00     0.265 C 
HETATM    5  C17 UNL     1      97.137  16.963   9.408  1.00  0.00     0.079 C 
HETATM    6  C18 UNL     1      98.344  17.377  10.183  1.00  0.00    -0.040 A 
HETATM    7  C19 UNL     1      99.095  18.473   9.754  1.00  0.00     0.046 A 
HETATM    8  C20 UNL     1     100.216  18.895  10.420  1.00  0.00     0.083 A 
HETATM    9  C21 UNL     1     100.665  18.255  11.554  1.00  0.00     0.044 A 
HETATM   10 BR1  UNL     1     102.234  18.811  12.498  1.00  0.00    -0.048 Br
HETATM   11  C22 UNL     1      99.930  17.173  11.981  1.00  0.00     0.029 A 
HETATM   12  C23 UNL     1      98.778  16.725  11.313  1.00  0.00    -0.050 A 
HETATM   13  C24 UNL     1      98.058  15.537  11.850  1.00  0.00     0.039 C 
HETATM   14  C25 UNL     1      97.194  14.937  10.706  1.00  0.00     0.011 C 
HETATM   15  C26 UNL     1      96.279  16.014  10.288  1.00  0.00     0.014 C 
ENDROOT
BRANCH   1  16
HETATM   16  C5  UNL     1      94.343  14.397   9.799  1.00  0.00     0.043 C 
BRANCH  16  17
HETATM   17  C4  UNL     1      93.215  14.103   8.920  1.00  0.00    -0.024 C 
HETATM   18  C2  UNL     1      92.086  13.493   9.197  1.00  0.00    -0.091 C 
HETATM   19  C1  UNL     1      91.085  13.330   8.081  1.00  0.00     0.042 C 
HETATM   20  C3  UNL     1      91.825  12.940  10.542  1.00  0.00     0.042 C 
ENDBRANCH  16  17
ENDBRANCH   1  16
BRANCH   1  21
HETATM   21  C7  UNL     1      94.024  16.750   9.923  1.00  0.00    -0.016 C 
HETATM   22  C8  UNL     1      93.626  17.313  10.985  1.00  0.00    -0.004 C 
BRANCH  22  23
HETATM   23  C9  UNL     1      93.966  17.200  12.409  1.00  0.00     0.195 C 
BRANCH  23  24
HETATM   24  O1  UNL     1      92.857  16.737  13.136  1.00  0.00    -0.383 OA
BRANCH  24  25
HETATM   25  C10 UNL     1      92.674  15.388  12.987  1.00  0.00     0.208 C 
BRANCH  25  26
HETATM   26  C11 UNL     1      93.604  14.549  13.781  1.00  0.00    -0.007 A 
HETATM   27  C12 UNL     1      93.758  14.474  15.135  1.00  0.00     0.154 A 
HETATM   28  O2  UNL     1      94.680  13.603  15.440  1.00  0.00    -0.300 OA
HETATM   29  C13 UNL     1      95.191  13.049  14.342  1.00  0.00     0.183 A 
HETATM   30  C14 UNL     1      94.538  13.621  13.284  1.00  0.00     0.075 A 
BRANCH  29  31
HETATM   31  O3  UNL     1      96.202  12.076  14.381  1.00  0.00    -0.341 OA
ATOM     32  H3  UNL     1      96.953  12.091  13.800  1.00  0.00     0.220 HD
ENDBRANCH  29  31
ENDBRANCH  25  26
ENDBRANCH  24  25
ENDBRANCH  23  24
ENDBRANCH  22  23
ENDBRANCH   1  21
BRANCH   4  33
HETATM   33  O5  UNL     1      98.823  15.846   8.050  1.00  0.00    -0.371 OA
ATOM     34  H5  UNL     1      99.051  15.598   7.162  1.00  0.00     0.212 HD
ENDBRANCH   4  33
BRANCH   8  35
HETATM   35  O6  UNL     1     100.975  19.991  10.000  1.00  0.00    -0.359 OA
ATOM     36  H6  UNL     1     101.922  19.961   9.926  1.00  0.00     0.217 HD
ENDBRANCH   8  35
TORSDOF 10
ENDMDL
MODEL 4
REMARK VINA RESULT: -7.419075299      2.633      5.605
REMARK  10 active torsions:
REMARK  status: ('A' for Active; 'I' for Inactive)
REMARK    1  A    between atoms: C4_4  and  C5_5 
REMARK    2  A    between atoms: C5_5  and  C6_6 
REMARK    3  A    between atoms: C6_6  and  C7_7 
REMARK    4  A    between atoms: C8_8  and  C9_9 
REMARK    5  A    between atoms: C9_9  and  O1_10 
REMARK    6  A    between atoms: O1_10  and  C10_11 
REMARK    7  A    between atoms: C10_11  and  C11_12 
REMARK    8  A    between atoms: C13_15  and  O3_16 
REMARK    9  A    between atoms: C16_21  and  O5_22 
REMARK   10  A    between atoms: C20_27  and  O6_28 
ROOT
HETATM    1  C6  UNL     1      95.252  15.809   9.555  1.00  0.00     0.006 C 
HETATM    2  C15 UNL     1      95.565  15.939   8.061  1.00  0.00     0.185 C 
HETATM    3  O4  UNL     1      96.852  15.384   7.798  1.00  0.00    -0.360 OA
HETATM    4  C16 UNL     1      97.772  16.424   8.112  1.00  0.00     0.265 C 
HETATM    5  C17 UNL     1      97.373  17.061   9.427  1.00  0.00     0.079 C 
HETATM    6  C18 UNL     1      98.580  17.449  10.216  1.00  0.00    -0.040 A 
HETATM    7  C19 UNL     1      99.342  18.547   9.814  1.00  0.00     0.046 A 
HETATM    8  C20 UNL     1     100.463  18.947  10.494  1.00  0.00     0.083 A 
HETATM    9  C21 UNL     1     100.902  18.280  11.616  1.00  0.00     0.044 A 
HETATM   10 BR1  UNL     1     102.470  18.803  12.579  1.00  0.00    -0.048 Br
HETATM   11  C22 UNL     1     100.156  17.195  12.017  1.00  0.00     0.029 A 
HETATM   12  C23 UNL     1      99.003  16.770  11.334  1.00  0.00    -0.050 A 
HETATM   13  C24 UNL     1      98.272  15.577  11.844  1.00  0.00     0.039 C 
HETATM   14  C25 UNL     1      97.409  15.008  10.684  1.00  0.00     0.011 C 
HETATM   15  C26 UNL     1      96.504  16.101  10.284  1.00  0.00     0.014 C 
ENDROOT
BRANCH   1  16
HETATM   16  C5  UNL     1      94.558  14.510   9.752  1.00  0.00     0.043 C 
BRANCH  16  17
HETATM   17  C4  UNL     1      93.447  14.233   8.846  1.00  0.00    -0.024 C 
HETATM   18  C2  UNL     1      92.266  13.726   9.115  1.00  0.00    -0.091 C 
HETATM   19  C1  UNL     1      91.300  13.554   7.969  1.00  0.00     0.042 C 
HETATM   20  C3  UNL     1      91.912  13.294  10.483  1.00  0.00     0.042 C 
ENDBRANCH  16  17
ENDBRANCH   1  16
BRANCH   1  21
HETATM   21  C7  UNL     1      94.257  16.863   9.924  1.00  0.00    -0.016 C 
HETATM   22  C8  UNL     1      93.721  17.278  10.993  1.00  0.00    -0.004 C 
BRANCH  22  23
HETATM   23  C9  UNL     1      93.825  16.917  12.413  1.00  0.00     0.195 C 
BRANCH  23  24
HETATM   24  O1  UNL     1      95.059  17.344  12.931  1.00  0.00    -0.383 OA
BRANCH  24  25
HETATM   25  C10 UNL     1      94.929  17.889  14.180  1.00  0.00     0.208 C 
BRANCH  25  26
HETATM   26  C11 UNL     1      96.149  17.805  15.019  1.00  0.00    -0.007 A 
HETATM   27  C12 UNL     1      96.348  18.230  16.300  1.00  0.00     0.154 A 
HETATM   28  O2  UNL     1      97.565  17.962  16.685  1.00  0.00    -0.300 OA
HETATM   29  C13 UNL     1      98.245  17.354  15.715  1.00  0.00     0.183 A 
HETATM   30  C14 UNL     1      97.386  17.241  14.656  1.00  0.00     0.075 A 
BRANCH  29  31
HETATM   31  O3  UNL     1      99.582  16.951  15.861  1.00  0.00    -0.341 OA
ATOM     32  H3  UNL     1      99.829  16.068  16.109  1.00  0.00     0.220 HD
ENDBRANCH  29  31
ENDBRANCH  25  26
ENDBRANCH  24  25
ENDBRANCH  23  24
ENDBRANCH  22  23
ENDBRANCH   1  21
BRANCH   4  33
HETATM   33  O5  UNL     1      99.057  15.959   8.055  1.00  0.00    -0.371 OA
ATOM     34  H5  UNL     1      99.172  15.394   7.300  1.00  0.00     0.212 HD
ENDBRANCH   4  33
BRANCH   8  35
HETATM   35  O6  UNL     1     101.233  20.045  10.101  1.00  0.00    -0.359 OA
ATOM     36  H6  UNL     1     101.528  20.171   9.206  1.00  0.00     0.217 HD
ENDBRANCH   8  35
TORSDOF 10
ENDMDL
MODEL 5
REMARK VINA RESULT: -7.354252916      2.821      6.531
REMARK  10 active torsions:
REMARK  status: ('A' for Active; 'I' for Inactive)
REMARK    1  A    between atoms: C4_4  and  C5_5 
REMARK    2  A    between atoms: C5_5  and  C6_6 
REMARK    3  A    between atoms: C6_6  and  C7_7 
REMARK    4  A    between atoms: C8_8  and  C9_9 
REMARK    5  A    between atoms: C9_9  and  O1_10 
REMARK    6  A    between atoms: O1_10  and  C10_11 
REMARK    7  A    between atoms: C10_11  and  C11_12 
REMARK    8  A    between atoms: C13_15  and  O3_16 
REMARK    9  A    between atoms: C16_21  and  O5_22 
REMARK   10  A    between atoms: C20_27  and  O6_28 
ROOT
HETATM    1  C6  UNL     1      97.882  17.270  12.270  1.00  0.00     0.006 C 
HETATM    2  C15 UNL     1      97.187  18.132  13.329  1.00  0.00     0.185 C 
HETATM    3  O4  UNL     1      96.387  17.299  14.165  1.00  0.00    -0.360 OA
HETATM    4  C16 UNL     1      95.164  17.132  13.456  1.00  0.00     0.265 C 
HETATM    5  C17 UNL     1      95.469  16.835  12.002  1.00  0.00     0.079 C 
HETATM    6  C18 UNL     1      94.486  15.860  11.442  1.00  0.00    -0.040 A 
HETATM    7  C19 UNL     1      93.180  16.275  11.175  1.00  0.00     0.046 A 
HETATM    8  C20 UNL     1      92.233  15.424  10.668  1.00  0.00     0.083 A 
HETATM    9  C21 UNL     1      92.521  14.105  10.395  1.00  0.00     0.044 A 
HETATM   10 BR1  UNL     1      91.218  12.888   9.700  1.00  0.00    -0.048 Br
HETATM   11  C22 UNL     1      93.806  13.689  10.657  1.00  0.00     0.029 A 
HETATM   12  C23 UNL     1      94.792  14.546  11.177  1.00  0.00    -0.050 A 
HETATM   13  C24 UNL     1      96.151  13.996  11.435  1.00  0.00     0.039 C 
HETATM   14  C25 UNL     1      96.863  14.926  12.456  1.00  0.00     0.011 C 
HETATM   15  C26 UNL     1      96.900  16.258  11.827  1.00  0.00     0.014 C 
ENDROOT
BRANCH   1  16
HETATM   16  C5  UNL     1      99.191  16.845  12.831  1.00  0.00     0.043 C 
BRANCH  16  17
HETATM   17  C4  UNL     1     100.171  17.906  13.046  1.00  0.00    -0.024 C 
HETATM   18  C2  UNL     1     101.374  18.037  12.537  1.00  0.00    -0.091 C 
HETATM   19  C1  UNL     1     102.174  19.252  12.934  1.00  0.00     0.042 C 
HETATM   20  C3  UNL     1     101.944  17.006  11.645  1.00  0.00     0.042 C 
ENDBRANCH  16  17
ENDBRANCH   1  16
BRANCH   1  21
HETATM   21  C7  UNL     1      98.205  18.134  11.093  1.00  0.00    -0.016 C 
HETATM   22  C8  UNL     1      98.684  17.957   9.935  1.00  0.00    -0.004 C 
BRANCH  22  23
HETATM   23  C9  UNL     1      99.161  16.793   9.176  1.00  0.00     0.195 C 
BRANCH  23  24
HETATM   24  O1  UNL     1      98.085  15.946   8.865  1.00  0.00    -0.383 OA
BRANCH  24  25
HETATM   25  C10 UNL     1      97.103  16.599   8.168  1.00  0.00     0.208 C 
BRANCH  25  26
HETATM   26  C11 UNL     1      96.072  15.712   7.578  1.00  0.00    -0.007 A 
HETATM   27  C12 UNL     1      96.229  14.612   6.786  1.00  0.00     0.154 A 
HETATM   28  O2  UNL     1      95.069  14.102   6.480  1.00  0.00    -0.300 OA
HETATM   29  C13 UNL     1      94.082  14.803   7.035  1.00  0.00     0.183 A 
HETATM   30  C14 UNL     1      94.677  15.821   7.729  1.00  0.00     0.075 A 
BRANCH  29  31
HETATM   31  O3  UNL     1      92.728  14.472   6.870  1.00  0.00    -0.341 OA
ATOM     32  H3  UNL     1      92.339  13.692   7.249  1.00  0.00     0.220 HD
ENDBRANCH  29  31
ENDBRANCH  25  26
ENDBRANCH  24  25
ENDBRANCH  23  24
ENDBRANCH  22  23
ENDBRANCH   1  21
BRANCH   4  33
HETATM   33  O5  UNL     1      94.368  16.214  14.084  1.00  0.00    -0.371 OA
ATOM     34  H5  UNL     1      94.899  15.567  14.533  1.00  0.00     0.212 HD
ENDBRANCH   4  33
BRANCH   8  35
HETATM   35  O6  UNL     1      90.923  15.828  10.397  1.00  0.00    -0.359 OA
ATOM     36  H6  UNL     1      90.247  15.222  10.116  1.00  0.00     0.217 HD
ENDBRANCH   8  35
TORSDOF 10
ENDMDL
