MODEL 1
REMARK VINA RESULT: -7.577895247      0.000      0.000
REMARK  12 active torsions:
REMARK  status: ('A' for Active; 'I' for Inactive)
REMARK    1  A    between atoms: C2_2  and  C3_3 
REMARK    2  A    between atoms: C3_3  and  C4_4 
REMARK    3  A    between atoms: C4_4  and  C5_5 
REMARK    4  A    between atoms: C5_5  and  C6_6 
REMARK    5  A    between atoms: C6_6  and  O1_7 
REMARK    6  A    between atoms: C6_6  and  C7_9 
REMARK    7  A    between atoms: C8_10  and  O2_11 
REMARK    8  A    between atoms: C9_13  and  C10_14 
REMARK    9  A    between atoms: C17_21  and  O3_22 
REMARK   10  A    between atoms: C21_27  and  O4_28 
REMARK   11  A    between atoms: C25_34  and  C26_35 
REMARK   12  A    between atoms: C30_40  and  O6_41 
ROOT
HETATM    1  C7  UNL     1      94.709  13.748  13.734  1.00  0.00     0.064 C 
HETATM    2  C8  UNL     1      95.125  15.086  13.791  1.00  0.00     0.091 C 
HETATM    3  C9  UNL     1      95.320  15.961  12.677  1.00  0.00     0.021 C 
HETATM    4  C24 UNL     1      94.608  15.890  11.521  1.00  0.00     0.140 C 
HETATM    5  F1  UNL     1      94.478  17.068  10.797  1.00  0.00    -0.204 F 
HETATM    6  C25 UNL     1      93.976  14.837  10.869  1.00  0.00     0.058 C 
HETATM    7  C29 UNL     1      94.161  13.534  11.261  1.00  0.00     0.219 C 
HETATM    8  O5  UNL     1      94.117  12.699  10.330  1.00  0.00    -0.284 OA
HETATM    9  C30 UNL     1      94.383  13.061  12.566  1.00  0.00     0.132 C 
ENDROOT
BRANCH   3  10
HETATM   10  C10 UNL     1      96.306  17.021  12.824  1.00  0.00     0.036 C 
HETATM   11  C11 UNL     1      96.809  17.630  11.532  1.00  0.00     0.016 C 
HETATM   12  C12 UNL     1      98.114  17.855  12.218  1.00  0.00     0.006 C 
HETATM   13  C13 UNL     1      99.389  17.647  11.516  1.00  0.00    -0.036 C 
HETATM   14  C22 UNL     1      97.732  16.740  13.182  1.00  0.00    -0.006 C 
HETATM   15  C14 UNL     1      99.301  17.178  10.088  1.00  0.00     0.016 C 
HETATM   16  C15 UNL     1     100.101  19.009  11.465  1.00  0.00     0.012 C 
HETATM   17  C19 UNL     1     100.329  16.736  12.275  1.00  0.00    -0.001 C 
HETATM   18  C16 UNL     1     101.513  18.958  11.034  1.00  0.00     0.032 C 
HETATM   19  C17 UNL     1     102.355  17.906  11.689  1.00  0.00     0.118 C 
HETATM   20  C18 UNL     1     101.614  16.580  11.480  1.00  0.00     0.037 C 
HETATM   21  C20 UNL     1      99.765  15.398  12.587  1.00  0.00     0.038 C 
HETATM   22  C21 UNL     1      98.290  15.404  12.856  1.00  0.00     0.127 C 
HETATM   23  C23 UNL     1      98.101  17.210  14.600  1.00  0.00     0.019 C 
BRANCH  19  24
HETATM   24  O3  UNL     1     102.417  18.172  13.050  1.00  0.00    -0.396 OA
ATOM     25  H3  UNL     1     103.313  18.392  13.276  1.00  0.00     0.210 HD
ENDBRANCH  19  24
BRANCH  22  26
HETATM   26  O4  UNL     1      97.683  14.744  11.789  1.00  0.00    -0.395 OA
ATOM     27  H4  UNL     1      98.314  14.112  11.463  1.00  0.00     0.210 HD
ENDBRANCH  22  26
ENDBRANCH   3  10
BRANCH   2  28
HETATM   28  O2  UNL     1      95.380  15.656  14.938  1.00  0.00    -0.359 OA
ATOM     29  H2  UNL     1      96.275  15.836  15.201  1.00  0.00     0.217 HD
ENDBRANCH   2  28
BRANCH   1  30
HETATM   30  C6  UNL     1      94.607  13.030  14.962  1.00  0.00     0.059 C 
BRANCH  30  31
HETATM   31  C5  UNL     1      93.576  12.917  16.000  1.00  0.00     0.065 C 
BRANCH  31  32
HETATM   32  C4  UNL     1      92.831  11.580  15.831  1.00  0.00     0.006 C 
BRANCH  32  33
HETATM   33  C3  UNL     1      91.605  11.773  14.988  1.00  0.00     0.000 C 
BRANCH  33  34
HETATM   34  C2  UNL     1      91.338  10.477  14.197  1.00  0.00    -0.005 C 
HETATM   35  C1  UNL     1      90.047  10.565  13.466  1.00  0.00     0.005 C 
ENDBRANCH  33  34
ENDBRANCH  32  33
ENDBRANCH  31  32
ENDBRANCH  30  31
BRANCH  30  36
HETATM   36  O1  UNL     1      95.661  12.305  15.237  1.00  0.00    -0.364 OA
ATOM     37  H1  UNL     1      96.400  12.528  14.682  1.00  0.00     0.217 HD
ENDBRANCH  30  36
ENDBRANCH   1  30
BRANCH   6  38
HETATM   38  C26 UNL     1      92.982  15.185   9.831  1.00  0.00    -0.070 C 
HETATM   39  C27 UNL     1      91.570  14.885  10.141  1.00  0.00     0.044 C 
HETATM   40  C28 UNL     1      93.483  14.988   8.440  1.00  0.00     0.044 C 
ENDBRANCH   6  38
BRANCH   9  41
HETATM   41  O6  UNL     1      94.255  11.697  12.689  1.00  0.00    -0.356 OA
ATOM     42  H6  UNL     1      94.437  11.192  11.905  1.00  0.00     0.218 HD
ENDBRANCH   9  41
TORSDOF 12
ENDMDL
MODEL 2
REMARK VINA RESULT: -7.559362355      2.439      7.651
REMARK  12 active torsions:
REMARK  status: ('A' for Active; 'I' for Inactive)
REMARK    1  A    between atoms: C2_2  and  C3_3 
REMARK    2  A    between atoms: C3_3  and  C4_4 
REMARK    3  A    between atoms: C4_4  and  C5_5 
REMARK    4  A    between atoms: C5_5  and  C6_6 
REMARK    5  A    between atoms: C6_6  and  O1_7 
REMARK    6  A    between atoms: C6_6  and  C7_9 
REMARK    7  A    between atoms: C8_10  and  O2_11 
REMARK    8  A    between atoms: C9_13  and  C10_14 
REMARK    9  A    between atoms: C17_21  and  O3_22 
REMARK   10  A    between atoms: C21_27  and  O4_28 
REMARK   11  A    between atoms: C25_34  and  C26_35 
REMARK   12  A    between atoms: C30_40  and  O6_41 
ROOT
HETATM    1  C7  UNL     1      98.223  16.159   8.441  1.00  0.00     0.064 C 
HETATM    2  C8  UNL     1      97.071  16.701   9.030  1.00  0.00     0.091 C 
HETATM    3  C9  UNL     1      96.929  17.112  10.392  1.00  0.00     0.021 C 
HETATM    4  C24 UNL     1      97.945  17.611  11.146  1.00  0.00     0.140 C 
HETATM    5  F1  UNL     1      97.591  18.466  12.180  1.00  0.00    -0.204 F 
HETATM    6  C25 UNL     1      99.322  17.417  11.113  1.00  0.00     0.058 C 
HETATM    7  C29 UNL     1      99.893  16.439  10.337  1.00  0.00     0.219 C 
HETATM    8  O5  UNL     1     100.933  15.935  10.817  1.00  0.00    -0.284 OA
HETATM    9  C30 UNL     1      99.440  15.967   9.094  1.00  0.00     0.132 C 
ENDROOT
BRANCH   3  10
HETATM   10  C10 UNL     1      95.599  17.037  10.977  1.00  0.00     0.036 C 
HETATM   11  C11 UNL     1      95.551  17.029  12.491  1.00  0.00     0.016 C 
HETATM   12  C12 UNL     1      94.329  16.179  12.385  1.00  0.00     0.006 C 
HETATM   13  C13 UNL     1      94.097  15.061  13.312  1.00  0.00    -0.036 C 
HETATM   14  C22 UNL     1      94.807  15.767  11.000  1.00  0.00    -0.006 C 
HETATM   15  C14 UNL     1      95.163  14.813  14.346  1.00  0.00     0.016 C 
HETATM   16  C15 UNL     1      92.819  15.390  14.101  1.00  0.00     0.012 C 
HETATM   17  C19 UNL     1      93.799  13.764  12.593  1.00  0.00    -0.001 C 
HETATM   18  C16 UNL     1      92.272  14.269  14.893  1.00  0.00     0.032 C 
HETATM   19  C17 UNL     1      92.173  12.955  14.181  1.00  0.00     0.118 C 
HETATM   20  C18 UNL     1      93.573  12.670  13.623  1.00  0.00     0.037 C 
HETATM   21  C20 UNL     1      94.850  13.341  11.632  1.00  0.00     0.038 C 
HETATM   22  C21 UNL     1      95.542  14.479  10.943  1.00  0.00     0.127 C 
HETATM   23  C23 UNL     1      93.588  15.800  10.063  1.00  0.00     0.019 C 
BRANCH  19  24
HETATM   24  O3  UNL     1      91.290  13.092  13.118  1.00  0.00    -0.396 OA
ATOM     25  H3  UNL     1      91.514  13.879  12.637  1.00  0.00     0.210 HD
ENDBRANCH  19  24
BRANCH  22  26
HETATM   26  O4  UNL     1      96.847  14.509  11.429  1.00  0.00    -0.395 OA
ATOM     27  H4  UNL     1      96.875  15.182  12.100  1.00  0.00     0.210 HD
ENDBRANCH  22  26
ENDBRANCH   3  10
BRANCH   2  28
HETATM   28  O2  UNL     1      95.982  16.873   8.329  1.00  0.00    -0.359 OA
ATOM     29  H2  UNL     1      95.644  17.745   8.167  1.00  0.00     0.217 HD
ENDBRANCH   2  28
BRANCH   1  30
HETATM   30  C6  UNL     1      98.152  15.778   7.069  1.00  0.00     0.059 C 
BRANCH  30  31
HETATM   31  C5  UNL     1      97.053  15.496   6.138  1.00  0.00     0.065 C 
BRANCH  31  32
HETATM   32  C4  UNL     1      96.497  14.088   6.423  1.00  0.00     0.006 C 
BRANCH  32  33
HETATM   33  C3  UNL     1      95.035  14.165   6.749  1.00  0.00     0.000 C 
BRANCH  33  34
HETATM   34  C2  UNL     1      94.376  15.212   5.829  1.00  0.00    -0.005 C 
HETATM   35  C1  UNL     1      92.970  14.836   5.529  1.00  0.00     0.005 C 
ENDBRANCH  33  34
ENDBRANCH  32  33
ENDBRANCH  31  32
ENDBRANCH  30  31
BRANCH  30  36
HETATM   36  O1  UNL     1      99.323  15.646   6.499  1.00  0.00    -0.364 OA
ATOM     37  H1  UNL     1     100.002  15.431   7.127  1.00  0.00     0.217 HD
ENDBRANCH  30  36
ENDBRANCH   1  30
BRANCH   6  38
HETATM   38  C26 UNL     1     100.158  18.402  11.834  1.00  0.00    -0.070 C 
HETATM   39  C27 UNL     1     101.080  19.212  11.013  1.00  0.00     0.044 C 
HETATM   40  C28 UNL     1     100.596  17.934  13.181  1.00  0.00     0.044 C 
ENDBRANCH   6  38
BRANCH   9  41
HETATM   41  O6  UNL     1     100.359  15.188   8.429  1.00  0.00    -0.356 OA
ATOM     42  H6  UNL     1     101.217  15.579   8.302  1.00  0.00     0.218 HD
ENDBRANCH   9  41
TORSDOF 12
ENDMDL
MODEL 3
REMARK VINA RESULT: -7.490648014      0.808      1.066
REMARK  12 active torsions:
REMARK  status: ('A' for Active; 'I' for Inactive)
REMARK    1  A    between atoms: C2_2  and  C3_3 
REMARK    2  A    between atoms: C3_3  and  C4_4 
REMARK    3  A    between atoms: C4_4  and  C5_5 
REMARK    4  A    between atoms: C5_5  and  C6_6 
REMARK    5  A    between atoms: C6_6  and  O1_7 
REMARK    6  A    between atoms: C6_6  and  C7_9 
REMARK    7  A    between atoms: C8_10  and  O2_11 
REMARK    8  A    between atoms: C9_13  and  C10_14 
REMARK    9  A    between atoms: C17_21  and  O3_22 
REMARK   10  A    between atoms: C21_27  and  O4_28 
REMARK   11  A    between atoms: C25_34  and  C26_35 
REMARK   12  A    between atoms: C30_40  and  O6_41 
ROOT
HETATM    1  C7  UNL     1      94.704  13.663  13.623  1.00  0.00     0.064 C 
HETATM    2  C8  UNL     1      95.103  15.006  13.687  1.00  0.00     0.091 C 
HETATM    3  C9  UNL     1      95.276  15.893  12.578  1.00  0.00     0.021 C 
HETATM    4  C24 UNL     1      94.553  15.822  11.429  1.00  0.00     0.140 C 
HETATM    5  F1  UNL     1      94.400  17.004  10.716  1.00  0.00    -0.204 F 
HETATM    6  C25 UNL     1      93.929  14.766  10.774  1.00  0.00     0.058 C 
HETATM    7  C29 UNL     1      94.134  13.462  11.154  1.00  0.00     0.219 C 
HETATM    8  O5  UNL     1      94.092  12.634  10.216  1.00  0.00    -0.284 OA
HETATM    9  C30 UNL     1      94.375  12.982  12.452  1.00  0.00     0.132 C 
ENDROOT
BRANCH   3  10
HETATM   10  C10 UNL     1      96.249  16.964  12.725  1.00  0.00     0.036 C 
HETATM   11  C11 UNL     1      96.765  17.559  11.431  1.00  0.00     0.016 C 
HETATM   12  C12 UNL     1      98.058  17.807  12.134  1.00  0.00     0.006 C 
HETATM   13  C13 UNL     1      99.345  17.602  11.453  1.00  0.00    -0.036 C 
HETATM   14  C22 UNL     1      97.673  16.703  13.108  1.00  0.00    -0.006 C 
HETATM   15  C14 UNL     1      99.283  17.112  10.031  1.00  0.00     0.016 C 
HETATM   16  C15 UNL     1     100.044  18.971  11.393  1.00  0.00     0.012 C 
HETATM   17  C19 UNL     1     100.282  16.711  12.239  1.00  0.00    -0.001 C 
HETATM   18  C16 UNL     1     101.463  18.927  10.984  1.00  0.00     0.032 C 
HETATM   19  C17 UNL     1     102.305  17.893  11.666  1.00  0.00     0.118 C 
HETATM   20  C18 UNL     1     101.581  16.557  11.465  1.00  0.00     0.037 C 
HETATM   21  C20 UNL     1      99.727  15.372  12.562  1.00  0.00     0.038 C 
HETATM   22  C21 UNL     1      98.248  15.367  12.810  1.00  0.00     0.127 C 
HETATM   23  C23 UNL     1      98.015  17.196  14.524  1.00  0.00     0.019 C 
BRANCH  19  24
HETATM   24  O3  UNL     1     102.345  18.178  13.024  1.00  0.00    -0.396 OA
ATOM     25  H3  UNL     1     102.507  19.107  13.135  1.00  0.00     0.210 HD
ENDBRANCH  19  24
BRANCH  22  26
HETATM   26  O4  UNL     1      97.664  14.686  11.743  1.00  0.00    -0.395 OA
ATOM     27  H4  UNL     1      98.061  13.824  11.718  1.00  0.00     0.210 HD
ENDBRANCH  22  26
ENDBRANCH   3  10
BRANCH   2  28
HETATM   28  O2  UNL     1      95.362  15.570  14.837  1.00  0.00    -0.359 OA
ATOM     29  H2  UNL     1      95.237  15.093  15.648  1.00  0.00     0.217 HD
ENDBRANCH   2  28
BRANCH   1  30
HETATM   30  C6  UNL     1      94.624  12.934  14.846  1.00  0.00     0.059 C 
BRANCH  30  31
HETATM   31  C5  UNL     1      93.559  12.692  15.827  1.00  0.00     0.065 C 
BRANCH  31  32
HETATM   32  C4  UNL     1      92.382  13.644  15.542  1.00  0.00     0.006 C 
BRANCH  32  33
HETATM   33  C3  UNL     1      91.323  12.936  14.750  1.00  0.00     0.000 C 
BRANCH  33  34
HETATM   34  C2  UNL     1      90.893  13.840  13.578  1.00  0.00    -0.005 C 
HETATM   35  C1  UNL     1      91.386  15.228  13.777  1.00  0.00     0.005 C 
ENDBRANCH  33  34
ENDBRANCH  32  33
ENDBRANCH  31  32
ENDBRANCH  30  31
BRANCH  30  36
HETATM   36  O1  UNL     1      95.742  12.342  15.180  1.00  0.00    -0.364 OA
ATOM     37  H1  UNL     1      96.346  12.284  14.449  1.00  0.00     0.217 HD
ENDBRANCH  30  36
ENDBRANCH   1  30
BRANCH   6  38
HETATM   38  C26 UNL     1      92.920  15.109   9.749  1.00  0.00    -0.070 C 
HETATM   39  C27 UNL     1      91.522  14.740  10.047  1.00  0.00     0.044 C 
HETATM   40  C28 UNL     1      93.428  14.983   8.352  1.00  0.00     0.044 C 
ENDBRANCH   6  38
BRANCH   9  41
HETATM   41  O6  UNL     1      94.267  11.615  12.565  1.00  0.00    -0.356 OA
ATOM     42  H6  UNL     1      93.956  11.159  11.791  1.00  0.00     0.218 HD
ENDBRANCH   9  41
TORSDOF 12
ENDMDL
MODEL 4
REMARK VINA RESULT: -7.425218887      2.398      7.432
REMARK  12 active torsions:
REMARK  status: ('A' for Active; 'I' for Inactive)
REMARK    1  A    between atoms: C2_2  and  C3_3 
REMARK    2  A    between atoms: C3_3  and  C4_4 
REMARK    3  A    between atoms: C4_4  and  C5_5 
REMARK    4  A    between atoms: C5_5  and  C6_6 
REMARK    5  A    between atoms: C6_6  and  O1_7 
REMARK    6  A    between atoms: C6_6  and  C7_9 
REMARK    7  A    between atoms: C8_10  and  O2_11 
REMARK    8  A    between atoms: C9_13  and  C10_14 
REMARK    9  A    between atoms: C17_21  and  O3_22 
REMARK   10  A    between atoms: C21_27  and  O4_28 
REMARK   11  A    between atoms: C25_34  and  C26_35 
REMARK   12  A    between atoms: C30_40  and  O6_41 
ROOT
HETATM    1  C7  UNL     1      98.444  16.138   8.710  1.00  0.00     0.064 C 
HETATM    2  C8  UNL     1      97.328  16.729   9.321  1.00  0.00     0.091 C 
HETATM    3  C9  UNL     1      97.284  17.308  10.627  1.00  0.00     0.021 C 
HETATM    4  C24 UNL     1      98.343  17.918  11.224  1.00  0.00     0.140 C 
HETATM    5  F1  UNL     1      98.048  18.893  12.169  1.00  0.00    -0.204 F 
HETATM    6  C25 UNL     1      99.718  17.748  11.102  1.00  0.00     0.058 C 
HETATM    7  C29 UNL     1     100.253  16.689  10.410  1.00  0.00     0.219 C 
HETATM    8  O5  UNL     1     101.342  16.270  10.861  1.00  0.00    -0.284 OA
HETATM    9  C30 UNL     1      99.715  16.053   9.279  1.00  0.00     0.132 C 
ENDROOT
BRANCH   3  10
HETATM   10  C10 UNL     1      96.009  17.285  11.326  1.00  0.00     0.036 C 
HETATM   11  C11 UNL     1      96.050  17.721  12.776  1.00  0.00     0.016 C 
HETATM   12  C12 UNL     1      94.932  16.766  13.030  1.00  0.00     0.006 C 
HETATM   13  C13 UNL     1      94.887  15.956  14.257  1.00  0.00    -0.036 C 
HETATM   14  C22 UNL     1      95.373  16.009  11.786  1.00  0.00    -0.006 C 
HETATM   15  C14 UNL     1      96.033  16.128  15.218  1.00  0.00     0.016 C 
HETATM   16  C15 UNL     1      93.627  16.380  15.029  1.00  0.00     0.012 C 
HETATM   17  C19 UNL     1      94.701  14.482  13.972  1.00  0.00    -0.001 C 
HETATM   18  C16 UNL     1      93.262  15.499  16.156  1.00  0.00     0.032 C 
HETATM   19  C17 UNL     1      93.277  14.030  15.865  1.00  0.00     0.118 C 
HETATM   20  C18 UNL     1      94.665  13.726  15.290  1.00  0.00     0.037 C 
HETATM   21  C20 UNL     1      95.737  13.895  13.084  1.00  0.00     0.038 C 
HETATM   22  C21 UNL     1      96.249  14.838  12.036  1.00  0.00     0.127 C 
HETATM   23  C23 UNL     1      94.107  15.647  10.992  1.00  0.00     0.019 C 
BRANCH  19  24
HETATM   24  O3  UNL     1      92.323  13.761  14.892  1.00  0.00    -0.396 OA
ATOM     25  H3  UNL     1      92.736  13.820  14.039  1.00  0.00     0.210 HD
ENDBRANCH  19  24
BRANCH  22  26
HETATM   26  O4  UNL     1      97.569  15.135  12.374  1.00  0.00    -0.395 OA
ATOM     27  H4  UNL     1      97.924  14.363  12.799  1.00  0.00     0.210 HD
ENDBRANCH  22  26
ENDBRANCH   3  10
BRANCH   2  28
HETATM   28  O2  UNL     1      96.182  16.790   8.697  1.00  0.00    -0.359 OA
ATOM     29  H2  UNL     1      95.548  17.463   8.914  1.00  0.00     0.217 HD
ENDBRANCH   2  28
BRANCH   1  30
HETATM   30  C6  UNL     1      98.275  15.583   7.408  1.00  0.00     0.059 C 
BRANCH  30  31
HETATM   31  C5  UNL     1      97.304  14.662   6.805  1.00  0.00     0.065 C 
BRANCH  31  32
HETATM   32  C4  UNL     1      96.578  15.377   5.650  1.00  0.00     0.006 C 
BRANCH  32  33
HETATM   33  C3  UNL     1      95.092  15.289   5.839  1.00  0.00     0.000 C 
BRANCH  33  34
HETATM   34  C2  UNL     1      94.794  14.264   6.951  1.00  0.00    -0.005 C 
HETATM   35  C1  UNL     1      93.462  14.521   7.558  1.00  0.00     0.005 C 
ENDBRANCH  33  34
ENDBRANCH  32  33
ENDBRANCH  31  32
ENDBRANCH  30  31
BRANCH  30  36
HETATM   36  O1  UNL     1      99.180  15.974   6.548  1.00  0.00    -0.364 OA
ATOM     37  H1  UNL     1      98.794  16.420   5.803  1.00  0.00     0.217 HD
ENDBRANCH  30  36
ENDBRANCH   1  30
BRANCH   6  38
HETATM   38  C26 UNL     1     100.581  18.832  11.620  1.00  0.00    -0.070 C 
HETATM   39  C27 UNL     1     101.270  19.666  10.615  1.00  0.00     0.044 C 
HETATM   40  C28 UNL     1     101.288  18.473  12.883  1.00  0.00     0.044 C 
ENDBRANCH   6  38
BRANCH   9  41
HETATM   41  O6  UNL     1     100.600  15.214   8.643  1.00  0.00    -0.356 OA
ATOM     42  H6  UNL     1     101.478  15.556   8.518  1.00  0.00     0.218 HD
ENDBRANCH   9  41
TORSDOF 12
ENDMDL
MODEL 5
REMARK VINA RESULT: -7.132381435      2.314      7.542
REMARK  12 active torsions:
REMARK  status: ('A' for Active; 'I' for Inactive)
REMARK    1  A    between atoms: C2_2  and  C3_3 
REMARK    2  A    between atoms: C3_3  and  C4_4 
REMARK    3  A    between atoms: C4_4  and  C5_5 
REMARK    4  A    between atoms: C5_5  and  C6_6 
REMARK    5  A    between atoms: C6_6  and  O1_7 
REMARK    6  A    between atoms: C6_6  and  C7_9 
REMARK    7  A    between atoms: C8_10  and  O2_11 
REMARK    8  A    between atoms: C9_13  and  C10_14 
REMARK    9  A    between atoms: C17_21  and  O3_22 
REMARK   10  A    between atoms: C21_27  and  O4_28 
REMARK   11  A    between atoms: C25_34  and  C26_35 
REMARK   12  A    between atoms: C30_40  and  O6_41 
ROOT
HETATM    1  C7  UNL     1      98.901  17.558  13.814  1.00  0.00     0.064 C 
HETATM    2  C8  UNL     1      97.880  17.818  12.889  1.00  0.00     0.091 C 
HETATM    3  C9  UNL     1      96.475  17.820  13.154  1.00  0.00     0.021 C 
HETATM    4  C24 UNL     1      95.928  18.169  14.350  1.00  0.00     0.140 C 
HETATM    5  F1  UNL     1      94.633  18.670  14.319  1.00  0.00    -0.204 F 
HETATM    6  C25 UNL     1      96.402  18.104  15.655  1.00  0.00     0.058 C 
HETATM    7  C29 UNL     1      97.557  17.431  15.969  1.00  0.00     0.219 C 
HETATM    8  O5  UNL     1      97.559  16.898  17.101  1.00  0.00    -0.284 OA
HETATM    9  C30 UNL     1      98.703  17.290  15.168  1.00  0.00     0.132 C 
ENDROOT
BRANCH   3  10
HETATM   10  C10 UNL     1      95.586  17.478  12.055  1.00  0.00     0.036 C 
HETATM   11  C11 UNL     1      94.112  17.431  12.396  1.00  0.00     0.016 C 
HETATM   12  C12 UNL     1      93.970  16.363  11.364  1.00  0.00     0.006 C 
HETATM   13  C13 UNL     1      93.093  15.203  11.584  1.00  0.00    -0.036 C 
HETATM   14  C22 UNL     1      95.455  16.078  11.540  1.00  0.00    -0.006 C 
HETATM   15  C14 UNL     1      92.373  15.146  12.906  1.00  0.00     0.016 C 
HETATM   16  C15 UNL     1      91.993  15.262  10.511  1.00  0.00     0.012 C 
HETATM   17  C19 UNL     1      93.803  13.887  11.354  1.00  0.00    -0.001 C 
HETATM   18  C16 UNL     1      91.168  14.042  10.399  1.00  0.00     0.032 C 
HETATM   19  C17 UNL     1      91.922  12.748  10.363  1.00  0.00     0.118 C 
HETATM   20  C18 UNL     1      92.825  12.750  11.602  1.00  0.00     0.037 C 
HETATM   21  C20 UNL     1      95.019  13.694  12.185  1.00  0.00     0.038 C 
HETATM   22  C21 UNL     1      95.779  14.958  12.458  1.00  0.00     0.127 C 
HETATM   23  C23 UNL     1      96.059  15.892  10.138  1.00  0.00     0.019 C 
BRANCH  19  24
HETATM   24  O3  UNL     1      92.722  12.731   9.229  1.00  0.00    -0.396 OA
ATOM     25  H3  UNL     1      92.239  13.124   8.512  1.00  0.00     0.210 HD
ENDBRANCH  19  24
BRANCH  22  26
HETATM   26  O4  UNL     1      95.629  15.231  13.817  1.00  0.00    -0.395 OA
ATOM     27  H4  UNL     1      95.846  14.432  14.283  1.00  0.00     0.210 HD
ENDBRANCH  22  26
ENDBRANCH   3  10
BRANCH   2  28
HETATM   28  O2  UNL     1      98.164  18.091  11.643  1.00  0.00    -0.359 OA
ATOM     29  H2  UNL     1      98.001  17.453  10.959  1.00  0.00     0.217 HD
ENDBRANCH   2  28
BRANCH   1  30
HETATM   30  C6  UNL     1     100.246  17.571  13.342  1.00  0.00     0.059 C 
BRANCH  30  31
HETATM   31  C5  UNL     1     101.056  16.657  12.528  1.00  0.00     0.065 C 
BRANCH  31  32
HETATM   32  C4  UNL     1     100.424  15.253  12.564  1.00  0.00     0.006 C 
BRANCH  32  33
HETATM   33  C3  UNL     1      99.730  14.964  11.265  1.00  0.00     0.000 C 
BRANCH  33  34
HETATM   34  C2  UNL     1     100.479  15.692  10.131  1.00  0.00    -0.005 C 
HETATM   35  C1  UNL     1      99.547  16.042   9.027  1.00  0.00     0.005 C 
ENDBRANCH  33  34
ENDBRANCH  32  33
ENDBRANCH  31  32
ENDBRANCH  30  31
BRANCH  30  36
HETATM   36  O1  UNL     1     100.923  18.629  13.710  1.00  0.00    -0.364 OA
ATOM     37  H1  UNL     1     100.406  19.208  14.258  1.00  0.00     0.217 HD
ENDBRANCH  30  36
ENDBRANCH   1  30
BRANCH   6  38
HETATM   38  C26 UNL     1      95.693  18.912  16.671  1.00  0.00    -0.070 C 
HETATM   39  C27 UNL     1      94.521  18.285  17.314  1.00  0.00     0.044 C 
HETATM   40  C28 UNL     1      95.662  20.369  16.355  1.00  0.00     0.044 C 
ENDBRANCH   6  38
BRANCH   9  41
HETATM   41  O6  UNL     1      99.796  16.805  15.848  1.00  0.00    -0.356 OA
ATOM     42  H6  UNL     1     100.644  17.085  15.522  1.00  0.00     0.218 HD
ENDBRANCH   9  41
TORSDOF 12
ENDMDL
