MODEL 1
REMARK VINA RESULT: -7.935504024      0.000      0.000
REMARK  6 active torsions:
REMARK  status: ('A' for Active; 'I' for Inactive)
REMARK    1  A    between atoms: O1_2  and  C2_3 
REMARK    2  A    between atoms: C11_14  and  O2_15 
REMARK    3  A    between atoms: C13_17  and  O3_18 
REMARK    4  A    between atoms: C16_21  and  C17_22 
REMARK    5  A    between atoms: C17_22  and  N2_23 
REMARK    6  A    between atoms: N2_23  and  C18_26 
ROOT
HETATM    1  C2  UNL     1     100.080  16.766  10.985  1.00  0.00     0.092 A 
HETATM    2  C3  UNL     1      99.487  16.687   9.747  1.00  0.00     0.070 A 
HETATM    3  C4  UNL     1      98.207  16.167   9.621  1.00  0.00     0.063 A 
HETATM    4  N1  UNL     1      97.413  15.980   8.575  1.00  0.00    -0.340 N 
ATOM      5  H1  UNL     1      97.664  16.218   7.616  1.00  0.00     0.167 HD
HETATM    6  C5  UNL     1      96.206  15.425   8.945  1.00  0.00     0.121 A 
HETATM    7  C6  UNL     1      95.172  15.188   7.977  1.00  0.00     0.063 A 
HETATM    8  C7  UNL     1      93.873  14.958   8.239  1.00  0.00     0.002 A 
HETATM    9  C8  UNL     1      93.319  15.056   9.570  1.00  0.00    -0.021 A 
HETATM   10  C9  UNL     1      93.107  16.304  10.160  1.00  0.00     0.015 A 
HETATM   11  C10 UNL     1      92.548  16.379  11.408  1.00  0.00     0.040 A 
HETATM   12  C11 UNL     1      92.173  15.254  12.131  1.00  0.00     0.101 A 
HETATM   13  C13 UNL     1      92.379  14.005  11.557  1.00  0.00     0.102 A 
HETATM   14  C15 UNL     1      92.940  13.939  10.311  1.00  0.00     0.052 A 
HETATM   15  C16 UNL     1      92.962  14.687   7.189  1.00  0.00     0.002 A 
HETATM   16  C22 UNL     1      93.368  14.648   5.887  1.00  0.00     0.015 A 
HETATM   17  C23 UNL     1      92.531  14.329   4.723  1.00  0.00     0.069 C 
HETATM   18  N3  UNL     1      94.674  14.884   5.637  1.00  0.00    -0.345 N 
ATOM     19  H3  UNL     1      95.000  14.863   4.670  1.00  0.00     0.167 HD
HETATM   20  C24 UNL     1      95.550  15.141   6.599  1.00  0.00     0.114 A 
HETATM   21  N4  UNL     1      96.775  15.354   6.309  1.00  0.00    -0.385 N 
ATOM     22  H41 UNL     1      97.044  15.320   5.326  1.00  0.00     0.157 HD
ATOM     23  H42 UNL     1      97.448  15.552   7.049  1.00  0.00     0.157 HD
HETATM   24  N5  UNL     1      96.301  15.282  10.251  1.00  0.00    -0.340 N 
ATOM     25  H5  UNL     1      95.566  14.892  10.842  1.00  0.00     0.167 HD
HETATM   26  C25 UNL     1      97.508  15.723  10.715  1.00  0.00     0.062 A 
HETATM   27  C26 UNL     1      98.126  15.817  11.927  1.00  0.00     0.058 A 
HETATM   28  C27 UNL     1      99.395  16.327  12.085  1.00  0.00     0.069 A 
HETATM   29 CL1  UNL     1     100.162  16.432  13.669  1.00  0.00    -0.081 Cl
ENDROOT
BRANCH  15  30
HETATM   30  C17 UNL     1      91.589  14.423   7.600  1.00  0.00     0.274 C 
BRANCH  30  31
HETATM   31  N2  UNL     1      91.237  13.037   7.548  1.00  0.00    -0.063 N 
ATOM     32  H22 UNL     1      91.172  12.696   6.589  1.00  0.00     0.278 HD
ATOM     33  H21 UNL     1      91.999  12.438   7.868  1.00  0.00     0.278 HD
BRANCH  31  34
HETATM   34  C18 UNL     1      89.988  12.798   8.307  1.00  0.00     0.115 C 
HETATM   35  C19 UNL     1      89.567  14.102   8.925  1.00  0.00     0.045 C 
HETATM   36  C20 UNL     1      88.962  12.325   7.327  1.00  0.00     0.045 C 
HETATM   37  C21 UNL     1      90.197  11.741   9.347  1.00  0.00     0.045 C 
ENDBRANCH  31  34
ENDBRANCH  30  31
ENDBRANCH  15  30
BRANCH  13  38
HETATM   38  O3  UNL     1      92.040  12.831  12.198  1.00  0.00    -0.353 OA
HETATM   39  C14 UNL     1      92.879  12.237  13.145  1.00  0.00     0.210 C 
ENDBRANCH  13  38
BRANCH   1  40
HETATM   40  O1  UNL     1     101.361  17.281  11.147  1.00  0.00    -0.354 OA
HETATM   41  C1  UNL     1     101.649  18.626  11.428  1.00  0.00     0.210 C 
ENDBRANCH   1  40
BRANCH  12  42
HETATM   42  O2  UNL     1      91.614  15.321  13.379  1.00  0.00    -0.353 OA
HETATM   43  C12 UNL     1      92.246  15.701  14.564  1.00  0.00     0.210 C 
ENDBRANCH  12  42
TORSDOF 6
ENDMDL
MODEL 2
REMARK VINA RESULT: -7.891395547      0.770      1.093
REMARK  6 active torsions:
REMARK  status: ('A' for Active; 'I' for Inactive)
REMARK    1  A    between atoms: O1_2  and  C2_3 
REMARK    2  A    between atoms: C11_14  and  O2_15 
REMARK    3  A    between atoms: C13_17  and  O3_18 
REMARK    4  A    between atoms: C16_21  and  C17_22 
REMARK    5  A    between atoms: C17_22  and  N2_23 
REMARK    6  A    between atoms: N2_23  and  C18_26 
ROOT
HETATM    1  C2  UNL     1      99.854  17.485  10.699  1.00  0.00     0.092 A 
HETATM    2  C3  UNL     1      99.234  17.323   9.482  1.00  0.00     0.070 A 
HETATM    3  C4  UNL     1      98.021  16.654   9.404  1.00  0.00     0.063 A 
HETATM    4  N1  UNL     1      97.220  16.363   8.388  1.00  0.00    -0.340 N 
ATOM      5  H1  UNL     1      97.409  16.618   7.419  1.00  0.00     0.167 HD
HETATM    6  C5  UNL     1      96.100  15.674   8.803  1.00  0.00     0.121 A 
HETATM    7  C6  UNL     1      95.070  15.307   7.872  1.00  0.00     0.063 A 
HETATM    8  C7  UNL     1      93.816  14.928   8.181  1.00  0.00     0.002 A 
HETATM    9  C8  UNL     1      93.300  14.975   9.530  1.00  0.00    -0.021 A 
HETATM   10  C9  UNL     1      92.961  16.196  10.117  1.00  0.00     0.015 A 
HETATM   11  C10 UNL     1      92.439  16.220  11.383  1.00  0.00     0.040 A 
HETATM   12  C11 UNL     1      92.223  15.066  12.127  1.00  0.00     0.101 A 
HETATM   13  C13 UNL     1      92.557  13.844  11.555  1.00  0.00     0.102 A 
HETATM   14  C15 UNL     1      93.079  13.830  10.291  1.00  0.00     0.052 A 
HETATM   15  C16 UNL     1      92.910  14.539   7.165  1.00  0.00     0.002 A 
HETATM   16  C22 UNL     1      93.274  14.534   5.850  1.00  0.00     0.015 A 
HETATM   17  C23 UNL     1      92.442  14.105   4.718  1.00  0.00     0.069 C 
HETATM   18  N3  UNL     1      94.534  14.919   5.553  1.00  0.00    -0.345 N 
ATOM     19  H3  UNL     1      94.827  14.925   4.576  1.00  0.00     0.167 HD
HETATM   20  C24 UNL     1      95.405  15.288   6.483  1.00  0.00     0.114 A 
HETATM   21  N4  UNL     1      96.585  15.640   6.150  1.00  0.00    -0.385 N 
ATOM     22  H41 UNL     1      96.824  15.627   5.158  1.00  0.00     0.157 HD
ATOM     23  H42 UNL     1      97.255  15.925   6.865  1.00  0.00     0.157 HD
HETATM   24  N5  UNL     1      96.255  15.559  10.107  1.00  0.00    -0.340 N 
ATOM     25  H5  UNL     1      95.591  15.092  10.724  1.00  0.00     0.167 HD
HETATM   26  C25 UNL     1      97.416  16.143  10.525  1.00  0.00     0.062 A 
HETATM   27  C26 UNL     1      98.059  16.323  11.715  1.00  0.00     0.058 A 
HETATM   28  C27 UNL     1      99.263  16.982  11.825  1.00  0.00     0.069 A 
HETATM   29 CL1  UNL     1     100.064  17.194  13.381  1.00  0.00    -0.081 Cl
ENDROOT
BRANCH  15  30
HETATM   30  C17 UNL     1      91.592  14.120   7.625  1.00  0.00     0.274 C 
BRANCH  30  31
HETATM   31  N2  UNL     1      90.572  15.096   7.388  1.00  0.00    -0.063 N 
ATOM     32  H22 UNL     1      90.923  16.048   7.491  1.00  0.00     0.278 HD
ATOM     33  H21 UNL     1      90.307  15.139   6.404  1.00  0.00     0.278 HD
BRANCH  31  34
HETATM   34  C18 UNL     1      89.406  14.838   8.265  1.00  0.00     0.115 C 
HETATM   35  C19 UNL     1      88.171  14.855   7.408  1.00  0.00     0.045 C 
HETATM   36  C20 UNL     1      89.604  13.487   8.875  1.00  0.00     0.045 C 
HETATM   37  C21 UNL     1      89.330  15.862   9.355  1.00  0.00     0.045 C 
ENDBRANCH  31  34
ENDBRANCH  30  31
ENDBRANCH  15  30
BRANCH  13  38
HETATM   38  O3  UNL     1      92.379  12.646  12.216  1.00  0.00    -0.353 OA
HETATM   39  C14 UNL     1      93.273  12.203  13.197  1.00  0.00     0.210 C 
ENDBRANCH  13  38
BRANCH   1  40
HETATM   40  O1  UNL     1     101.070  18.149  10.813  1.00  0.00    -0.354 OA
HETATM   41  C1  UNL     1     101.220  19.545  10.798  1.00  0.00     0.210 C 
ENDBRANCH   1  40
BRANCH  12  42
HETATM   42  O2  UNL     1      91.702  15.081  13.392  1.00  0.00    -0.353 OA
HETATM   43  C12 UNL     1      92.298  15.604  14.541  1.00  0.00     0.210 C 
ENDBRANCH  12  42
TORSDOF 6
ENDMDL
MODEL 3
REMARK VINA RESULT: -7.684075290      3.184      7.901
REMARK  6 active torsions:
REMARK  status: ('A' for Active; 'I' for Inactive)
REMARK    1  A    between atoms: O1_2  and  C2_3 
REMARK    2  A    between atoms: C11_14  and  O2_15 
REMARK    3  A    between atoms: C13_17  and  O3_18 
REMARK    4  A    between atoms: C16_21  and  C17_22 
REMARK    5  A    between atoms: C17_22  and  N2_23 
REMARK    6  A    between atoms: N2_23  and  C18_26 
ROOT
HETATM    1  C2  UNL     1      87.858  13.591   6.818  1.00  0.00     0.092 A 
HETATM    2  C3  UNL     1      89.080  13.533   6.190  1.00  0.00     0.070 A 
HETATM    3  C4  UNL     1      90.213  14.015   6.828  1.00  0.00     0.063 A 
HETATM    4  N1  UNL     1      91.488  14.080   6.467  1.00  0.00    -0.340 N 
ATOM      5  H1  UNL     1      91.847  13.750   5.572  1.00  0.00     0.167 HD
HETATM    6  C5  UNL     1      92.268  14.650   7.452  1.00  0.00     0.121 A 
HETATM    7  C6  UNL     1      93.690  14.768   7.293  1.00  0.00     0.063 A 
HETATM    8  C7  UNL     1      94.584  15.002   8.272  1.00  0.00     0.002 A 
HETATM    9  C8  UNL     1      94.216  15.031   9.669  1.00  0.00    -0.021 A 
HETATM   10  C9  UNL     1      93.937  13.846  10.354  1.00  0.00     0.015 A 
HETATM   11  C10 UNL     1      93.626  13.889  11.687  1.00  0.00     0.040 A 
HETATM   12  C11 UNL     1      93.574  15.076  12.408  1.00  0.00     0.101 A 
HETATM   13  C13 UNL     1      93.850  16.263  11.738  1.00  0.00     0.102 A 
HETATM   14  C15 UNL     1      94.158  16.211  10.407  1.00  0.00     0.052 A 
HETATM   15  C16 UNL     1      95.960  15.148   7.972  1.00  0.00     0.002 A 
HETATM   16  C22 UNL     1      96.422  15.061   6.691  1.00  0.00     0.015 A 
HETATM   17  C23 UNL     1      97.812  15.244   6.253  1.00  0.00     0.069 C 
HETATM   18  N3  UNL     1      95.516  14.823   5.719  1.00  0.00    -0.345 N 
ATOM     19  H3  UNL     1      95.840  14.751   4.754  1.00  0.00     0.167 HD
HETATM   20  C24 UNL     1      94.221  14.681   5.969  1.00  0.00     0.114 A 
HETATM   21  N4  UNL     1      93.405  14.460   5.013  1.00  0.00    -0.385 N 
ATOM     22  H41 UNL     1      93.784  14.398   4.068  1.00  0.00     0.157 HD
ATOM     23  H42 UNL     1      92.409  14.351   5.206  1.00  0.00     0.157 HD
HETATM   24  N5  UNL     1      91.418  14.927   8.420  1.00  0.00    -0.340 N 
ATOM     25  H5  UNL     1      91.677  15.362   9.305  1.00  0.00     0.167 HD
HETATM   26  C25 UNL     1      90.146  14.557   8.088  1.00  0.00     0.062 A 
HETATM   27  C26 UNL     1      88.918  14.598   8.680  1.00  0.00     0.058 A 
HETATM   28  C27 UNL     1      87.774  14.128   8.074  1.00  0.00     0.069 A 
HETATM   29 CL1  UNL     1      86.205  14.199   8.872  1.00  0.00    -0.081 Cl
ENDROOT
BRANCH  15  30
HETATM   30  C17 UNL     1      96.825  15.429   9.110  1.00  0.00     0.274 C 
BRANCH  30  31
HETATM   31  N2  UNL     1      97.333  16.767   9.121  1.00  0.00    -0.063 N 
ATOM     32  H22 UNL     1      97.636  17.067   8.194  1.00  0.00     0.278 HD
ATOM     33  H21 UNL     1      96.593  17.454   9.266  1.00  0.00     0.278 HD
BRANCH  31  34
HETATM   34  C18 UNL     1      98.413  16.896  10.127  1.00  0.00     0.115 C 
HETATM   35  C19 UNL     1      98.031  16.069  11.322  1.00  0.00     0.045 C 
HETATM   36  C20 UNL     1      99.663  16.367   9.499  1.00  0.00     0.045 C 
HETATM   37  C21 UNL     1      98.620  18.332  10.497  1.00  0.00     0.045 C 
ENDBRANCH  31  34
ENDBRANCH  30  31
ENDBRANCH  15  30
BRANCH  13  38
HETATM   38  O3  UNL     1      93.823  17.490  12.369  1.00  0.00    -0.353 OA
HETATM   39  C14 UNL     1      92.665  18.273  12.414  1.00  0.00     0.210 C 
ENDBRANCH  13  38
BRANCH   1  40
HETATM   40  O1  UNL     1      86.703  13.117   6.207  1.00  0.00    -0.354 OA
HETATM   41  C1  UNL     1      86.669  12.465   4.964  1.00  0.00     0.210 C 
ENDBRANCH   1  40
BRANCH  12  42
HETATM   42  O2  UNL     1      93.264  15.128  13.739  1.00  0.00    -0.353 OA
HETATM   43  C12 UNL     1      92.000  14.985  14.314  1.00  0.00     0.210 C 
ENDBRANCH  12  42
TORSDOF 6
ENDMDL
MODEL 4
REMARK VINA RESULT: -7.636021056      1.072      1.276
REMARK  6 active torsions:
REMARK  status: ('A' for Active; 'I' for Inactive)
REMARK    1  A    between atoms: O1_2  and  C2_3 
REMARK    2  A    between atoms: C11_14  and  O2_15 
REMARK    3  A    between atoms: C13_17  and  O3_18 
REMARK    4  A    between atoms: C16_21  and  C17_22 
REMARK    5  A    between atoms: C17_22  and  N2_23 
REMARK    6  A    between atoms: N2_23  and  C18_26 
ROOT
HETATM    1  C2  UNL     1      99.651  16.216  10.664  1.00  0.00     0.092 A 
HETATM    2  C3  UNL     1      99.045  16.248   9.430  1.00  0.00     0.070 A 
HETATM    3  C4  UNL     1      97.754  15.765   9.277  1.00  0.00     0.063 A 
HETATM    4  N1  UNL     1      96.946  15.678   8.229  1.00  0.00    -0.340 N 
ATOM      5  H1  UNL     1      97.193  15.987   7.289  1.00  0.00     0.167 HD
HETATM    6  C5  UNL     1      95.731  15.119   8.567  1.00  0.00     0.121 A 
HETATM    7  C6  UNL     1      94.684  14.981   7.594  1.00  0.00     0.063 A 
HETATM    8  C7  UNL     1      93.382  14.757   7.852  1.00  0.00     0.002 A 
HETATM    9  C8  UNL     1      92.843  14.759   9.193  1.00  0.00    -0.021 A 
HETATM   10  C9  UNL     1      92.662  15.960   9.882  1.00  0.00     0.015 A 
HETATM   11  C10 UNL     1      92.117  15.947  11.138  1.00  0.00     0.040 A 
HETATM   12  C11 UNL     1      91.725  14.775  11.774  1.00  0.00     0.101 A 
HETATM   13  C13 UNL     1      91.901  13.572  11.099  1.00  0.00     0.102 A 
HETATM   14  C15 UNL     1      92.448  13.595   9.846  1.00  0.00     0.052 A 
HETATM   15  C16 UNL     1      92.457  14.588   6.794  1.00  0.00     0.002 A 
HETATM   16  C22 UNL     1      92.849  14.645   5.488  1.00  0.00     0.015 A 
HETATM   17  C23 UNL     1      91.995  14.437   4.312  1.00  0.00     0.069 C 
HETATM   18  N3  UNL     1      94.157  14.874   5.243  1.00  0.00    -0.345 N 
ATOM     19  H3  UNL     1      94.473  14.924   4.274  1.00  0.00     0.167 HD
HETATM   20  C24 UNL     1      95.047  15.036   6.213  1.00  0.00     0.114 A 
HETATM   21  N4  UNL     1      96.273  15.247   5.928  1.00  0.00    -0.385 N 
ATOM     22  H41 UNL     1      96.533  15.286   4.942  1.00  0.00     0.157 HD
ATOM     23  H42 UNL     1      96.958  15.372   6.674  1.00  0.00     0.157 HD
HETATM   24  N5  UNL     1      95.835  14.871   9.857  1.00  0.00    -0.340 N 
ATOM     25  H5  UNL     1      95.098  14.450  10.422  1.00  0.00     0.167 HD
HETATM   26  C25 UNL     1      97.055  15.249  10.340  1.00  0.00     0.062 A 
HETATM   27  C26 UNL     1      97.687  15.234  11.549  1.00  0.00     0.058 A 
HETATM   28  C27 UNL     1      98.968  15.705  11.733  1.00  0.00     0.069 A 
HETATM   29 CL1  UNL     1      99.751  15.667  13.311  1.00  0.00    -0.081 Cl
ENDROOT
BRANCH  15  30
HETATM   30  C17 UNL     1      91.082  14.320   7.197  1.00  0.00     0.274 C 
BRANCH  30  31
HETATM   31  N2  UNL     1      90.565  13.094   6.671  1.00  0.00    -0.063 N 
ATOM     32  H22 UNL     1      90.356  13.164   5.675  1.00  0.00     0.278 HD
ATOM     33  H21 UNL     1      91.280  12.368   6.622  1.00  0.00     0.278 HD
BRANCH  31  34
HETATM   34  C18 UNL     1      89.386  12.658   7.455  1.00  0.00     0.115 C 
HETATM   35  C19 UNL     1      88.227  12.521   6.508  1.00  0.00     0.045 C 
HETATM   36  C20 UNL     1      89.728  11.334   8.063  1.00  0.00     0.045 C 
HETATM   37  C21 UNL     1      89.088  13.637   8.548  1.00  0.00     0.045 C 
ENDBRANCH  31  34
ENDBRANCH  30  31
ENDBRANCH  15  30
BRANCH  13  38
HETATM   38  O3  UNL     1      91.543  12.358  11.648  1.00  0.00    -0.353 OA
HETATM   39  C14 UNL     1      90.217  11.913  11.656  1.00  0.00     0.210 C 
ENDBRANCH  13  38
BRANCH   1  40
HETATM   40  O1  UNL     1     100.944  16.691  10.852  1.00  0.00    -0.354 OA
HETATM   41  C1  UNL     1     102.103  15.903  10.764  1.00  0.00     0.210 C 
ENDBRANCH   1  40
BRANCH  12  42
HETATM   42  O2  UNL     1      91.180  14.753  13.028  1.00  0.00    -0.353 OA
HETATM   43  C12 UNL     1      90.001  15.375  13.443  1.00  0.00     0.210 C 
ENDBRANCH  12  42
TORSDOF 6
ENDMDL
MODEL 5
REMARK VINA RESULT: -7.552297937      3.191      7.709
REMARK  6 active torsions:
REMARK  status: ('A' for Active; 'I' for Inactive)
REMARK    1  A    between atoms: O1_2  and  C2_3 
REMARK    2  A    between atoms: C11_14  and  O2_15 
REMARK    3  A    between atoms: C13_17  and  O3_18 
REMARK    4  A    between atoms: C16_21  and  C17_22 
REMARK    5  A    between atoms: C17_22  and  N2_23 
REMARK    6  A    between atoms: N2_23  and  C18_26 
ROOT
HETATM    1  C2  UNL     1      90.907  13.985   6.303  1.00  0.00     0.092 A 
HETATM    2  C3  UNL     1      92.242  14.267   6.128  1.00  0.00     0.070 A 
HETATM    3  C4  UNL     1      93.034  14.585   7.221  1.00  0.00     0.063 A 
HETATM    4  N1  UNL     1      94.319  14.889   7.340  1.00  0.00    -0.340 N 
ATOM      5  H1  UNL     1      94.971  14.938   6.558  1.00  0.00     0.167 HD
HETATM    6  C5  UNL     1      94.666  15.131   8.653  1.00  0.00     0.121 A 
HETATM    7  C6  UNL     1      96.023  15.425   9.018  1.00  0.00     0.063 A 
HETATM    8  C7  UNL     1      96.545  15.367  10.257  1.00  0.00     0.002 A 
HETATM    9  C8  UNL     1      95.805  14.857  11.389  1.00  0.00    -0.021 A 
HETATM   10  C9  UNL     1      95.587  13.485  11.533  1.00  0.00     0.015 A 
HETATM   11  C10 UNL     1      94.916  13.016  12.631  1.00  0.00     0.040 A 
HETATM   12  C11 UNL     1      94.432  13.853  13.629  1.00  0.00     0.101 A 
HETATM   13  C13 UNL     1      94.641  15.220  13.498  1.00  0.00     0.102 A 
HETATM   14  C15 UNL     1      95.312  15.680  12.398  1.00  0.00     0.052 A 
HETATM   15  C16 UNL     1      97.892  15.734  10.490  1.00  0.00     0.002 A 
HETATM   16  C22 UNL     1      98.700  16.157   9.475  1.00  0.00     0.015 A 
HETATM   17  C23 UNL     1     100.092  16.610   9.601  1.00  0.00     0.069 C 
HETATM   18  N3  UNL     1      98.166  16.208   8.236  1.00  0.00    -0.345 N 
ATOM     19  H3  UNL     1      98.753  16.518   7.461  1.00  0.00     0.167 HD
HETATM   20  C24 UNL     1      96.908  15.870   7.987  1.00  0.00     0.114 A 
HETATM   21  N4  UNL     1      96.450  15.938   6.798  1.00  0.00    -0.385 N 
ATOM     22  H41 UNL     1      97.081  16.256   6.062  1.00  0.00     0.157 HD
ATOM     23  H42 UNL     1      95.482  15.678   6.607  1.00  0.00     0.157 HD
HETATM   24  N5  UNL     1      93.543  14.963   9.322  1.00  0.00    -0.340 N 
ATOM     25  H5  UNL     1      93.454  15.071  10.332  1.00  0.00     0.167 HD
HETATM   26  C25 UNL     1      92.513  14.626   8.490  1.00  0.00     0.062 A 
HETATM   27  C26 UNL     1      91.186  14.341   8.626  1.00  0.00     0.058 A 
HETATM   28  C27 UNL     1      90.373  14.022   7.561  1.00  0.00     0.069 A 
HETATM   29 CL1  UNL     1      88.662  13.661   7.777  1.00  0.00    -0.081 Cl
ENDROOT
BRANCH  15  30
HETATM   30  C17 UNL     1      98.334  15.661  11.877  1.00  0.00     0.274 C 
BRANCH  30  31
HETATM   31  N2  UNL     1      98.592  16.942  12.459  1.00  0.00    -0.063 N 
ATOM     32  H22 UNL     1      98.696  17.669  11.751  1.00  0.00     0.278 HD
ATOM     33  H21 UNL     1      97.773  17.315  12.938  1.00  0.00     0.278 HD
BRANCH  31  34
HETATM   34  C18 UNL     1      99.770  16.869  13.354  1.00  0.00     0.115 C 
HETATM   35  C19 UNL     1      99.287  17.032  14.768  1.00  0.00     0.045 C 
HETATM   36  C20 UNL     1     100.385  15.519  13.162  1.00  0.00     0.045 C 
HETATM   37  C21 UNL     1     100.773  17.920  12.993  1.00  0.00     0.045 C 
ENDBRANCH  31  34
ENDBRANCH  30  31
ENDBRANCH  15  30
BRANCH  13  38
HETATM   38  O3  UNL     1      94.198  16.129  14.437  1.00  0.00    -0.353 OA
HETATM   39  C14 UNL     1      93.922  17.459  14.104  1.00  0.00     0.210 C 
ENDBRANCH  13  38
BRANCH   1  40
HETATM   40  O1  UNL     1      90.085  13.664   5.229  1.00  0.00    -0.354 OA
HETATM   41  C1  UNL     1      90.101  12.433   4.553  1.00  0.00     0.210 C 
ENDBRANCH   1  40
BRANCH  12  42
HETATM   42  O2  UNL     1      93.760  13.391  14.728  1.00  0.00    -0.353 OA
HETATM   43  C12 UNL     1      94.318  12.887  15.904  1.00  0.00     0.210 C 
ENDBRANCH  12  42
TORSDOF 6
ENDMDL
