MODEL 1
REMARK VINA RESULT: -10.324720461      0.000      0.000
REMARK  8 active torsions:
REMARK  status: ('A' for Active; 'I' for Inactive)
REMARK    1  A    between atoms: C8_11  and  O2_12 
REMARK    2  A    between atoms: N2_14  and  C9_15 
REMARK    3  A    between atoms: C12_18  and  C13_19 
REMARK    4  A    between atoms: C13_19  and  O3_20 
REMARK    5  A    between atoms: C13_19  and  C14_22 
REMARK    6  A    between atoms: N5_27  and  C15_28 
REMARK    7  A    between atoms: C15_28  and  C16_29 
REMARK    8  A    between atoms: C22_36  and  C23_37 
ROOT
HETATM    1  C13 UNL     1     -85.222 -16.395   6.505  1.00  0.00     0.205 C 
ENDROOT
BRANCH   1   2
HETATM    2  C12 UNL     1     -86.428 -16.834   7.306  1.00  0.00    -0.024 A 
HETATM    3  C11 UNL     1     -86.327 -17.482   8.511  1.00  0.00     0.012 A 
HETATM    4  C10 UNL     1     -87.435 -17.880   9.242  1.00  0.00     0.031 A 
HETATM    5  C9  UNL     1     -88.695 -17.620   8.751  1.00  0.00     0.046 A 
HETATM    6  C30 UNL     1     -88.832 -16.970   7.543  1.00  0.00     0.031 A 
HETATM    7  C29 UNL     1     -87.705 -16.590   6.843  1.00  0.00     0.012 A 
BRANCH   5   8
HETATM    8  N2  UNL     1     -89.853 -18.004   9.457  1.00  0.00    -0.243 N 
HETATM    9  C1  UNL     1     -90.469 -19.142   9.100  1.00  0.00     0.268 A 
HETATM   10  O1  UNL     1     -90.043 -19.879   8.147  1.00  0.00    -0.267 OA
HETATM   11  C2  UNL     1     -91.597 -19.548   9.768  1.00  0.00     0.059 A 
HETATM   12  C3  UNL     1     -92.269 -20.716   9.436  1.00  0.00     0.019 A 
HETATM   13  C7  UNL     1     -92.051 -18.745  10.798  1.00  0.00     0.051 A 
HETATM   14  C4  UNL     1     -93.407 -21.119  10.116  1.00  0.00     0.001 A 
HETATM   15  C5  UNL     1     -93.863 -20.319  11.146  1.00  0.00     0.002 A 
HETATM   16  C6  UNL     1     -93.184 -19.158  11.465  1.00  0.00     0.030 A 
HETATM   17  N1  UNL     1     -91.404 -17.612  11.124  1.00  0.00    -0.321 N 
HETATM   18  C8  UNL     1     -90.299 -17.228  10.460  1.00  0.00     0.231 A 
ATOM     19  H1  UNL     1     -91.756 -17.035  11.888  1.00  0.00     0.169 HD
BRANCH  18  20
HETATM   20  O2  UNL     1     -89.628 -16.036  10.810  1.00  0.00    -0.332 OA
ATOM     21  H2  UNL     1     -89.728 -15.253  10.282  1.00  0.00     0.221 HD
ENDBRANCH  18  20
ENDBRANCH   5   8
ENDBRANCH   1   2
BRANCH   1  22
HETATM   22  O3  UNL     1     -85.722 -15.443   5.556  1.00  0.00    -0.385 OA
ATOM     23  H3  UNL     1     -84.976 -14.903   5.326  1.00  0.00     0.211 HD
ENDBRANCH   1  22
BRANCH   1  24
HETATM   24  C14 UNL     1     -84.211 -15.787   7.352  1.00  0.00     0.089 A 
HETATM   25  N3  UNL     1     -84.482 -15.153   8.545  1.00  0.00    -0.285 N 
HETATM   26  N4  UNL     1     -83.366 -14.783   9.099  1.00  0.00    -0.239 N 
ATOM     27  H3  UNL     1     -85.413 -14.999   8.933  1.00  0.00     0.188 HD
HETATM   28  N5  UNL     1     -82.314 -15.146   8.309  1.00  0.00    -0.271 N 
ATOM     29  H4  UNL     1     -83.288 -14.295   9.991  1.00  0.00     0.208 HD
HETATM   30  C22 UNL     1     -82.843 -15.763   7.239  1.00  0.00     0.089 A 
BRANCH  28  31
HETATM   31  C15 UNL     1     -80.986 -14.770   8.690  1.00  0.00     0.189 C 
BRANCH  31  32
HETATM   32  C16 UNL     1     -80.624 -13.629   7.755  1.00  0.00    -0.038 A 
HETATM   33  C17 UNL     1     -81.233 -12.406   7.827  1.00  0.00     0.012 A 
HETATM   34  C18 UNL     1     -80.878 -11.368   6.954  1.00  0.00     0.043 A 
HETATM   35  C19 UNL     1     -79.900 -11.571   6.007  1.00  0.00     0.116 A 
HETATM   36  F1  UNL     1     -79.534 -10.590   5.151  1.00  0.00    -0.206 F 
HETATM   37  C20 UNL     1     -79.294 -12.812   5.946  1.00  0.00     0.043 A 
HETATM   38  C21 UNL     1     -79.651 -13.835   6.812  1.00  0.00     0.012 A 
ENDBRANCH  31  32
ENDBRANCH  28  31
BRANCH  30  39
HETATM   39  C23 UNL     1     -82.067 -16.191   6.056  1.00  0.00    -0.006 A 
HETATM   40  C24 UNL     1     -82.292 -15.686   4.789  1.00  0.00     0.014 A 
HETATM   41  C25 UNL     1     -81.656 -16.181   3.681  1.00  0.00     0.001 A 
HETATM   42  C26 UNL     1     -80.747 -17.227   3.792  1.00  0.00     0.000 A 
HETATM   43  C27 UNL     1     -80.526 -17.725   5.044  1.00  0.00     0.001 A 
HETATM   44  C28 UNL     1     -81.162 -17.240   6.190  1.00  0.00     0.014 A 
ENDBRANCH  30  39
ENDBRANCH   1  24
TORSDOF 8
ENDMDL
MODEL 2
REMARK VINA RESULT: -10.105441395      6.888      8.868
REMARK  8 active torsions:
REMARK  status: ('A' for Active; 'I' for Inactive)
REMARK    1  A    between atoms: C8_11  and  O2_12 
REMARK    2  A    between atoms: N2_14  and  C9_15 
REMARK    3  A    between atoms: C12_18  and  C13_19 
REMARK    4  A    between atoms: C13_19  and  O3_20 
REMARK    5  A    between atoms: C13_19  and  C14_22 
REMARK    6  A    between atoms: N5_27  and  C15_28 
REMARK    7  A    between atoms: C15_28  and  C16_29 
REMARK    8  A    between atoms: C22_36  and  C23_37 
ROOT
HETATM    1  C13 UNL     1     -88.187 -15.942  16.031  1.00  0.00     0.205 C 
ENDROOT
BRANCH   1   2
HETATM    2  C12 UNL     1     -88.128 -17.451  16.122  1.00  0.00    -0.024 A 
HETATM    3  C11 UNL     1     -87.774 -18.116  17.268  1.00  0.00     0.012 A 
HETATM    4  C10 UNL     1     -87.723 -19.498  17.346  1.00  0.00     0.031 A 
HETATM    5  C9  UNL     1     -88.040 -20.248  16.236  1.00  0.00     0.046 A 
HETATM    6  C30 UNL     1     -88.400 -19.611  15.067  1.00  0.00     0.031 A 
HETATM    7  C29 UNL     1     -88.438 -18.233  15.027  1.00  0.00     0.012 A 
BRANCH   5   8
HETATM    8  N2  UNL     1     -88.004 -21.656  16.265  1.00  0.00    -0.243 N 
HETATM    9  C1  UNL     1     -89.165 -22.321  16.383  1.00  0.00     0.268 A 
HETATM   10  O1  UNL     1     -90.289 -21.721  16.472  1.00  0.00    -0.267 OA
HETATM   11  C2  UNL     1     -89.168 -23.693  16.412  1.00  0.00     0.059 A 
HETATM   12  C3  UNL     1     -90.341 -24.424  16.533  1.00  0.00     0.019 A 
HETATM   13  C7  UNL     1     -87.947 -24.335  16.315  1.00  0.00     0.051 A 
HETATM   14  C4  UNL     1     -90.336 -25.810  16.560  1.00  0.00     0.001 A 
HETATM   15  C5  UNL     1     -89.118 -26.454  16.463  1.00  0.00     0.002 A 
HETATM   16  C6  UNL     1     -87.957 -25.713  16.344  1.00  0.00     0.030 A 
HETATM   17  N1  UNL     1     -86.807 -23.631  16.197  1.00  0.00    -0.321 N 
HETATM   18  C8  UNL     1     -86.821 -22.287  16.171  1.00  0.00     0.231 A 
ATOM     19  H1  UNL     1     -85.917 -24.126  16.126  1.00  0.00     0.169 HD
BRANCH  18  20
HETATM   20  O2  UNL     1     -85.618 -21.558  16.048  1.00  0.00    -0.332 OA
ATOM     21  H2  UNL     1     -85.480 -20.975  15.311  1.00  0.00     0.221 HD
ENDBRANCH  18  20
ENDBRANCH   5   8
ENDBRANCH   1   2
BRANCH   1  22
HETATM   22  O3  UNL     1     -87.663 -15.466  17.278  1.00  0.00    -0.385 OA
ATOM     23  H3  UNL     1     -86.739 -15.683  17.261  1.00  0.00     0.211 HD
ENDBRANCH   1  22
BRANCH   1  24
HETATM   24  C14 UNL     1     -87.393 -15.443  14.921  1.00  0.00     0.089 A 
HETATM   25  N3  UNL     1     -87.882 -14.624  13.928  1.00  0.00    -0.285 N 
HETATM   26  N4  UNL     1     -86.913 -14.292  13.127  1.00  0.00    -0.239 N 
ATOM     27  H3  UNL     1     -88.853 -14.324  13.834  1.00  0.00     0.188 HD
HETATM   28  N5  UNL     1     -85.750 -14.870  13.544  1.00  0.00    -0.271 N 
ATOM     29  H4  UNL     1     -87.009 -13.690  12.309  1.00  0.00     0.208 HD
HETATM   30  C22 UNL     1     -86.054 -15.575  14.647  1.00  0.00     0.089 A 
BRANCH  28  31
HETATM   31  C15 UNL     1     -84.561 -14.702  12.762  1.00  0.00     0.189 C 
BRANCH  31  32
HETATM   32  C16 UNL     1     -84.793 -15.543  11.519  1.00  0.00    -0.038 A 
HETATM   33  C17 UNL     1     -84.959 -16.899  11.576  1.00  0.00     0.012 A 
HETATM   34  C18 UNL     1     -85.175 -17.652  10.413  1.00  0.00     0.043 A 
HETATM   35  C19 UNL     1     -85.224 -17.025   9.189  1.00  0.00     0.116 A 
HETATM   36  F1  UNL     1     -85.432 -17.723   8.049  1.00  0.00    -0.206 F 
HETATM   37  C20 UNL     1     -85.054 -15.654   9.147  1.00  0.00     0.043 A 
HETATM   38  C21 UNL     1     -84.840 -14.916  10.301  1.00  0.00     0.012 A 
ENDBRANCH  31  32
ENDBRANCH  28  31
BRANCH  30  39
HETATM   39  C23 UNL     1     -85.115 -16.478  15.344  1.00  0.00    -0.006 A 
HETATM   40  C24 UNL     1     -84.864 -17.771  14.921  1.00  0.00     0.014 A 
HETATM   41  C25 UNL     1     -84.092 -18.640  15.646  1.00  0.00     0.001 A 
HETATM   42  C26 UNL     1     -83.523 -18.249  16.852  1.00  0.00     0.000 A 
HETATM   43  C27 UNL     1     -83.771 -16.972  17.268  1.00  0.00     0.001 A 
HETATM   44  C28 UNL     1     -84.556 -16.066  16.550  1.00  0.00     0.014 A 
ENDBRANCH  30  39
ENDBRANCH   1  24
TORSDOF 8
ENDMDL
MODEL 3
REMARK VINA RESULT: -10.103844898      7.555      9.281
REMARK  8 active torsions:
REMARK  status: ('A' for Active; 'I' for Inactive)
REMARK    1  A    between atoms: C8_11  and  O2_12 
REMARK    2  A    between atoms: N2_14  and  C9_15 
REMARK    3  A    between atoms: C12_18  and  C13_19 
REMARK    4  A    between atoms: C13_19  and  O3_20 
REMARK    5  A    between atoms: C13_19  and  C14_22 
REMARK    6  A    between atoms: N5_27  and  C15_28 
REMARK    7  A    between atoms: C15_28  and  C16_29 
REMARK    8  A    between atoms: C22_36  and  C23_37 
ROOT
HETATM    1  C13 UNL     1     -88.080 -15.979  16.021  1.00  0.00     0.205 C 
ENDROOT
BRANCH   1   2
HETATM    2  C12 UNL     1     -88.052 -17.489  16.107  1.00  0.00    -0.024 A 
HETATM    3  C11 UNL     1     -87.770 -18.165  17.268  1.00  0.00     0.012 A 
HETATM    4  C10 UNL     1     -87.748 -19.548  17.341  1.00  0.00     0.031 A 
HETATM    5  C9  UNL     1     -88.018 -20.288  16.212  1.00  0.00     0.046 A 
HETATM    6  C30 UNL     1     -88.305 -19.640  15.029  1.00  0.00     0.031 A 
HETATM    7  C29 UNL     1     -88.317 -18.261  14.994  1.00  0.00     0.012 A 
BRANCH   5   8
HETATM    8  N2  UNL     1     -88.009 -21.697  16.235  1.00  0.00    -0.243 N 
HETATM    9  C1  UNL     1     -89.179 -22.340  16.373  1.00  0.00     0.268 A 
HETATM   10  O1  UNL     1     -90.290 -21.719  16.485  1.00  0.00    -0.267 OA
HETATM   11  C2  UNL     1     -89.208 -23.712  16.398  1.00  0.00     0.059 A 
HETATM   12  C3  UNL     1     -90.392 -24.421  16.538  1.00  0.00     0.019 A 
HETATM   13  C7  UNL     1     -88.002 -24.376  16.275  1.00  0.00     0.051 A 
HETATM   14  C4  UNL     1     -90.413 -25.807  16.560  1.00  0.00     0.001 A 
HETATM   15  C5  UNL     1     -89.209 -26.474  16.439  1.00  0.00     0.002 A 
HETATM   16  C6  UNL     1     -88.037 -25.754  16.300  1.00  0.00     0.030 A 
HETATM   17  N1  UNL     1     -86.850 -23.694  16.139  1.00  0.00    -0.321 N 
HETATM   18  C8  UNL     1     -86.839 -22.349  16.117  1.00  0.00     0.231 A 
ATOM     19  H1  UNL     1     -85.972 -24.205  16.050  1.00  0.00     0.169 HD
BRANCH  18  20
HETATM   20  O2  UNL     1     -85.626 -21.643  15.974  1.00  0.00    -0.332 OA
ATOM     21  H2  UNL     1     -85.620 -20.693  15.942  1.00  0.00     0.221 HD
ENDBRANCH  18  20
ENDBRANCH   5   8
ENDBRANCH   1   2
BRANCH   1  22
HETATM   22  O3  UNL     1     -87.778 -15.518  17.345  1.00  0.00    -0.385 OA
ATOM     23  H3  UNL     1     -86.972 -15.021  17.260  1.00  0.00     0.211 HD
ENDBRANCH   1  22
BRANCH   1  24
HETATM   24  C14 UNL     1     -87.099 -15.481  15.072  1.00  0.00     0.089 A 
HETATM   25  N3  UNL     1     -87.370 -14.544  14.100  1.00  0.00    -0.285 N 
HETATM   26  N4  UNL     1     -86.275 -14.253  13.464  1.00  0.00    -0.239 N 
ATOM     27  H3  UNL     1     -88.288 -14.141  13.909  1.00  0.00     0.188 HD
HETATM   28  N5  UNL     1     -85.237 -14.975  13.976  1.00  0.00    -0.271 N 
ATOM     29  H4  UNL     1     -86.202 -13.584  12.698  1.00  0.00     0.208 HD
HETATM   30  C22 UNL     1     -85.752 -15.727  14.964  1.00  0.00     0.089 A 
BRANCH  28  31
HETATM   31  C15 UNL     1     -83.942 -14.870  13.373  1.00  0.00     0.189 C 
BRANCH  31  32
HETATM   32  C16 UNL     1     -83.007 -14.529  14.520  1.00  0.00    -0.038 A 
HETATM   33  C17 UNL     1     -83.218 -13.453  15.338  1.00  0.00     0.012 A 
HETATM   34  C18 UNL     1     -82.342 -13.162  16.393  1.00  0.00     0.043 A 
HETATM   35  C19 UNL     1     -81.248 -13.967  16.619  1.00  0.00     0.116 A 
HETATM   36  F1  UNL     1     -80.385 -13.714  17.628  1.00  0.00    -0.206 F 
HETATM   37  C20 UNL     1     -81.048 -15.051  15.784  1.00  0.00     0.043 A 
HETATM   38  C21 UNL     1     -81.918 -15.332  14.742  1.00  0.00     0.012 A 
ENDBRANCH  31  32
ENDBRANCH  28  31
BRANCH  30  39
HETATM   39  C23 UNL     1     -85.003 -16.770  15.694  1.00  0.00    -0.006 A 
HETATM   40  C24 UNL     1     -84.535 -16.594  16.983  1.00  0.00     0.014 A 
HETATM   41  C25 UNL     1     -83.735 -17.517  17.603  1.00  0.00     0.001 A 
HETATM   42  C26 UNL     1     -83.357 -18.684  16.948  1.00  0.00     0.000 A 
HETATM   43  C27 UNL     1     -83.821 -18.857  15.675  1.00  0.00     0.001 A 
HETATM   44  C28 UNL     1     -84.636 -17.931  15.019  1.00  0.00     0.014 A 
ENDBRANCH  30  39
ENDBRANCH   1  24
TORSDOF 8
ENDMDL
MODEL 4
REMARK VINA RESULT: -10.055952052      6.792      9.606
REMARK  8 active torsions:
REMARK  status: ('A' for Active; 'I' for Inactive)
REMARK    1  A    between atoms: C8_11  and  O2_12 
REMARK    2  A    between atoms: N2_14  and  C9_15 
REMARK    3  A    between atoms: C12_18  and  C13_19 
REMARK    4  A    between atoms: C13_19  and  O3_20 
REMARK    5  A    between atoms: C13_19  and  C14_22 
REMARK    6  A    between atoms: N5_27  and  C15_28 
REMARK    7  A    between atoms: C15_28  and  C16_29 
REMARK    8  A    between atoms: C22_36  and  C23_37 
ROOT
HETATM    1  C13 UNL     1     -84.237 -18.973  14.378  1.00  0.00     0.205 C 
ENDROOT
BRANCH   1   2
HETATM    2  C12 UNL     1     -85.190 -20.038  14.877  1.00  0.00    -0.024 A 
HETATM    3  C11 UNL     1     -85.465 -20.228  16.207  1.00  0.00     0.012 A 
HETATM    4  C10 UNL     1     -86.340 -21.204  16.658  1.00  0.00     0.031 A 
HETATM    5  C9  UNL     1     -86.966 -22.022  15.744  1.00  0.00     0.046 A 
HETATM    6  C30 UNL     1     -86.712 -21.857  14.399  1.00  0.00     0.031 A 
HETATM    7  C29 UNL     1     -85.834 -20.875  13.988  1.00  0.00     0.012 A 
BRANCH   5   8
HETATM    8  N2  UNL     1     -87.865 -23.028  16.152  1.00  0.00    -0.243 N 
HETATM    9  C1  UNL     1     -89.118 -22.670  16.477  1.00  0.00     0.268 A 
HETATM   10  O1  UNL     1     -89.515 -21.456  16.430  1.00  0.00    -0.267 OA
HETATM   11  C2  UNL     1     -90.021 -23.623  16.876  1.00  0.00     0.059 A 
HETATM   12  C3  UNL     1     -91.326 -23.303  17.221  1.00  0.00     0.019 A 
HETATM   13  C7  UNL     1     -89.583 -24.934  16.923  1.00  0.00     0.051 A 
HETATM   14  C4  UNL     1     -92.231 -24.272  17.622  1.00  0.00     0.001 A 
HETATM   15  C5  UNL     1     -91.797 -25.583  17.671  1.00  0.00     0.002 A 
HETATM   16  C6  UNL     1     -90.494 -25.887  17.324  1.00  0.00     0.030 A 
HETATM   17  N1  UNL     1     -88.319 -25.251  16.590  1.00  0.00    -0.321 N 
HETATM   18  C8  UNL     1     -87.446 -24.304  16.201  1.00  0.00     0.231 A 
ATOM     19  H1  UNL     1     -88.017 -26.224  16.632  1.00  0.00     0.169 HD
BRANCH  18  20
HETATM   20  O2  UNL     1     -86.121 -24.647  15.854  1.00  0.00    -0.332 OA
ATOM     21  H2  UNL     1     -85.729 -24.311  15.056  1.00  0.00     0.221 HD
ENDBRANCH  18  20
ENDBRANCH   5   8
ENDBRANCH   1   2
BRANCH   1  22
HETATM   22  O3  UNL     1     -83.100 -19.687  13.876  1.00  0.00    -0.385 OA
ATOM     23  H3  UNL     1     -83.226 -19.730  12.935  1.00  0.00     0.211 HD
ENDBRANCH   1  22
BRANCH   1  24
HETATM   24  C14 UNL     1     -84.838 -18.169  13.328  1.00  0.00     0.089 A 
HETATM   25  N3  UNL     1     -84.324 -18.048  12.057  1.00  0.00    -0.285 N 
HETATM   26  N4  UNL     1     -85.125 -17.324  11.334  1.00  0.00    -0.239 N 
ATOM     27  H3  UNL     1     -83.449 -18.463  11.732  1.00  0.00     0.188 HD
HETATM   28  N5  UNL     1     -86.196 -16.932  12.083  1.00  0.00    -0.271 N 
ATOM     29  H4  UNL     1     -84.976 -17.086  10.354  1.00  0.00     0.208 HD
HETATM   30  C22 UNL     1     -86.012 -17.456  13.307  1.00  0.00     0.089 A 
BRANCH  28  31
HETATM   31  C15 UNL     1     -87.174 -16.058  11.508  1.00  0.00     0.189 C 
BRANCH  31  32
HETATM   32  C16 UNL     1     -88.010 -16.951  10.608  1.00  0.00    -0.038 A 
HETATM   33  C17 UNL     1     -87.940 -16.881   9.244  1.00  0.00     0.012 A 
HETATM   34  C18 UNL     1     -88.721 -17.720   8.435  1.00  0.00     0.043 A 
HETATM   35  C19 UNL     1     -89.574 -18.632   9.014  1.00  0.00     0.116 A 
HETATM   36  F1  UNL     1     -90.339 -19.456   8.262  1.00  0.00    -0.206 F 
HETATM   37  C20 UNL     1     -89.634 -18.690  10.394  1.00  0.00     0.043 A 
HETATM   38  C21 UNL     1     -88.860 -17.858  11.187  1.00  0.00     0.012 A 
ENDBRANCH  31  32
ENDBRANCH  28  31
BRANCH  30  39
HETATM   39  C23 UNL     1     -86.864 -17.160  14.477  1.00  0.00    -0.006 A 
HETATM   40  C24 UNL     1     -86.503 -16.254  15.457  1.00  0.00     0.014 A 
HETATM   41  C25 UNL     1     -87.239 -16.082  16.600  1.00  0.00     0.001 A 
HETATM   42  C26 UNL     1     -88.394 -16.823  16.820  1.00  0.00     0.000 A 
HETATM   43  C27 UNL     1     -88.749 -17.718  15.850  1.00  0.00     0.001 A 
HETATM   44  C28 UNL     1     -88.016 -17.914  14.677  1.00  0.00     0.014 A 
ENDBRANCH  30  39
ENDBRANCH   1  24
TORSDOF 8
ENDMDL
MODEL 5
REMARK VINA RESULT: -9.864538246      7.202      8.716
REMARK  8 active torsions:
REMARK  status: ('A' for Active; 'I' for Inactive)
REMARK    1  A    between atoms: C8_11  and  O2_12 
REMARK    2  A    between atoms: N2_14  and  C9_15 
REMARK    3  A    between atoms: C12_18  and  C13_19 
REMARK    4  A    between atoms: C13_19  and  O3_20 
REMARK    5  A    between atoms: C13_19  and  C14_22 
REMARK    6  A    between atoms: N5_27  and  C15_28 
REMARK    7  A    between atoms: C15_28  and  C16_29 
REMARK    8  A    between atoms: C22_36  and  C23_37 
ROOT
HETATM    1  C13 UNL     1     -87.500 -16.106  15.785  1.00  0.00     0.205 C 
ENDROOT
BRANCH   1   2
HETATM    2  C12 UNL     1     -87.584 -17.610  15.922  1.00  0.00    -0.024 A 
HETATM    3  C11 UNL     1     -87.473 -18.257  17.127  1.00  0.00     0.012 A 
HETATM    4  C10 UNL     1     -87.553 -19.635  17.247  1.00  0.00     0.031 A 
HETATM    5  C9  UNL     1     -87.752 -20.399  16.119  1.00  0.00     0.046 A 
HETATM    6  C30 UNL     1     -87.868 -19.781  14.892  1.00  0.00     0.031 A 
HETATM    7  C29 UNL     1     -87.783 -18.406  14.812  1.00  0.00     0.012 A 
BRANCH   5   8
HETATM    8  N2  UNL     1     -87.841 -21.804  16.189  1.00  0.00    -0.243 N 
HETATM    9  C1  UNL     1     -89.052 -22.358  16.361  1.00  0.00     0.268 A 
HETATM   10  O1  UNL     1     -90.115 -21.657  16.464  1.00  0.00    -0.267 OA
HETATM   11  C2  UNL     1     -89.177 -23.723  16.430  1.00  0.00     0.059 A 
HETATM   12  C3  UNL     1     -90.405 -24.342  16.606  1.00  0.00     0.019 A 
HETATM   13  C7  UNL     1     -88.021 -24.474  16.317  1.00  0.00     0.051 A 
HETATM   14  C4  UNL     1     -90.522 -25.722  16.674  1.00  0.00     0.001 A 
HETATM   15  C5  UNL     1     -89.370 -26.475  16.562  1.00  0.00     0.002 A 
HETATM   16  C6  UNL     1     -88.152 -25.844  16.387  1.00  0.00     0.030 A 
HETATM   17  N1  UNL     1     -86.827 -23.879  16.145  1.00  0.00    -0.321 N 
HETATM   18  C8  UNL     1     -86.722 -22.540  16.080  1.00  0.00     0.231 A 
ATOM     19  H1  UNL     1     -85.987 -24.453  16.064  1.00  0.00     0.169 HD
BRANCH  18  20
HETATM   20  O2  UNL     1     -85.464 -21.926  15.901  1.00  0.00    -0.332 OA
ATOM     21  H2  UNL     1     -85.152 -21.708  15.030  1.00  0.00     0.221 HD
ENDBRANCH  18  20
ENDBRANCH   5   8
ENDBRANCH   1   2
BRANCH   1  22
HETATM   22  O3  UNL     1     -88.588 -15.592  16.565  1.00  0.00    -0.385 OA
ATOM     23  H3  UNL     1     -88.182 -15.144  17.297  1.00  0.00     0.211 HD
ENDBRANCH   1  22
BRANCH   1  24
HETATM   24  C14 UNL     1     -86.233 -15.596  16.280  1.00  0.00     0.089 A 
HETATM   25  N3  UNL     1     -86.116 -14.654  17.278  1.00  0.00    -0.285 N 
HETATM   26  N4  UNL     1     -84.859 -14.462  17.545  1.00  0.00    -0.239 N 
ATOM     27  H3  UNL     1     -86.895 -14.180  17.737  1.00  0.00     0.188 HD
HETATM   28  N5  UNL     1     -84.090 -15.256  16.745  1.00  0.00    -0.271 N 
ATOM     29  H4  UNL     1     -84.500 -13.815  18.247  1.00  0.00     0.208 HD
HETATM   30  C22 UNL     1     -84.942 -15.950  15.971  1.00  0.00     0.089 A 
BRANCH  28  31
HETATM   31  C15 UNL     1     -82.663 -15.153  16.814  1.00  0.00     0.189 C 
BRANCH  31  32
HETATM   32  C16 UNL     1     -82.257 -14.505  15.502  1.00  0.00    -0.038 A 
HETATM   33  C17 UNL     1     -81.430 -15.126  14.608  1.00  0.00     0.012 A 
HETATM   34  C18 UNL     1     -81.073 -14.506  13.401  1.00  0.00     0.043 A 
HETATM   35  C19 UNL     1     -81.559 -13.253  13.103  1.00  0.00     0.116 A 
HETATM   36  F1  UNL     1     -81.234 -12.630  11.948  1.00  0.00    -0.206 F 
HETATM   37  C20 UNL     1     -82.393 -12.638  14.017  1.00  0.00     0.043 A 
HETATM   38  C21 UNL     1     -82.741 -13.257  15.209  1.00  0.00     0.012 A 
ENDBRANCH  31  32
ENDBRANCH  28  31
BRANCH  30  39
HETATM   39  C23 UNL     1     -84.531 -16.826  14.855  1.00  0.00    -0.006 A 
HETATM   40  C24 UNL     1     -84.691 -16.474  13.527  1.00  0.00     0.014 A 
HETATM   41  C25 UNL     1     -84.425 -17.344  12.503  1.00  0.00     0.001 A 
HETATM   42  C26 UNL     1     -83.977 -18.633  12.765  1.00  0.00     0.000 A 
HETATM   43  C27 UNL     1     -83.819 -18.980  14.077  1.00  0.00     0.001 A 
HETATM   44  C28 UNL     1     -84.085 -18.113  15.140  1.00  0.00     0.014 A 
ENDBRANCH  30  39
ENDBRANCH   1  24
TORSDOF 8
ENDMDL
