MODEL 1
REMARK VINA RESULT: -10.470679443      0.000      0.000
REMARK  8 active torsions:
REMARK  status: ('A' for Active; 'I' for Inactive)
REMARK    1  A    between atoms: C4_5  and  C5_6 
REMARK    2  A    between atoms: N2_7  and  N3_9 
REMARK    3  A    between atoms: N3_9  and  C6_11 
REMARK    4  A    between atoms: C7_14  and  C8_15 
REMARK    5  A    between atoms: C8_15  and  C9_16 
REMARK    6  A    between atoms: C17_26  and  C18_27 
REMARK    7  A    between atoms: C21_30  and  N6_31 
REMARK    8  A    between atoms: C28_41  and  O3_42 
ROOT
HETATM    1  N1  UNL     1     -90.006 -25.409  17.671  1.00  0.00    -0.191 NA
HETATM    2  C1  UNL     1     -89.244 -24.760  17.085  1.00  0.00     0.102 C 
HETATM    3  C2  UNL     1     -88.280 -23.952  16.375  1.00  0.00     0.078 A 
HETATM    4  C3  UNL     1     -88.641 -22.708  15.953  1.00  0.00     0.038 A 
HETATM    5  C4  UNL     1     -87.700 -21.950  15.273  1.00  0.00    -0.018 A 
HETATM    6  C26 UNL     1     -86.445 -22.475  15.049  1.00  0.00     0.015 A 
HETATM    7  C27 UNL     1     -86.125 -23.741  15.498  1.00  0.00     0.039 A 
HETATM    8  C28 UNL     1     -87.042 -24.511  16.174  1.00  0.00     0.086 A 
ENDROOT
BRANCH   8   9
HETATM    9  O3  UNL     1     -86.720 -25.767  16.617  1.00  0.00    -0.359 OA
ATOM     10  H3  UNL     1     -86.407 -25.933  17.498  1.00  0.00     0.217 HD
ENDBRANCH   8   9
BRANCH   5  11
HETATM   11  C5  UNL     1     -88.007 -20.617  14.808  1.00  0.00     0.118 C 
HETATM   12  N2  UNL     1     -88.013 -20.378  13.545  1.00  0.00    -0.309 N 
ATOM     13  H2  UNL     1     -87.798 -21.163  12.930  1.00  0.00     0.186 HD
BRANCH  12  14
HETATM   14  N3  UNL     1     -88.272 -19.205  12.952  1.00  0.00    -0.285 N 
ATOM     15  H3  UNL     1     -88.576 -18.499  13.622  1.00  0.00     0.188 HD
BRANCH  14  16
HETATM   16  C6  UNL     1     -88.235 -18.751  11.775  1.00  0.00     0.142 A 
HETATM   17  N4  UNL     1     -89.350 -18.930  10.976  1.00  0.00    -0.342 N 
HETATM   18  C7  UNL     1     -89.330 -18.460   9.731  1.00  0.00     0.036 A 
ATOM     19  H4  UNL     1     -90.173 -19.413  11.335  1.00  0.00     0.167 HD
HETATM   20  C15 UNL     1     -88.259 -17.794   9.171  1.00  0.00     0.080 A 
HETATM   21  C16 UNL     1     -88.282 -17.299   7.809  1.00  0.00     0.102 C 
HETATM   22  C17 UNL     1     -87.167 -17.632   9.989  1.00  0.00     0.021 A 
HETATM   23  N5  UNL     1     -88.302 -16.882   6.729  1.00  0.00    -0.191 NA
HETATM   24  C24 UNL     1     -87.129 -18.104  11.304  1.00  0.00     0.102 A 
HETATM   25  C25 UNL     1     -85.946 -17.890  12.111  1.00  0.00     0.104 C 
HETATM   26  N7  UNL     1     -84.990 -17.702  12.732  1.00  0.00    -0.191 NA
BRANCH  18  27
HETATM   27  C8  UNL     1     -90.529 -18.656   8.894  1.00  0.00     0.097 C 
BRANCH  27  28
HETATM   28  C9  UNL     1     -91.714 -19.087   9.616  1.00  0.00    -0.052 A 
HETATM   29  C10 UNL     1     -92.081 -20.420   9.565  1.00  0.00     0.010 A 
HETATM   30  C11 UNL     1     -93.198 -20.881  10.237  1.00  0.00     0.043 A 
HETATM   31  C12 UNL     1     -93.994 -20.040  10.985  1.00  0.00     0.116 A 
HETATM   32  F1  UNL     1     -95.080 -20.517  11.629  1.00  0.00    -0.206 F 
HETATM   33  C13 UNL     1     -93.632 -18.705  11.038  1.00  0.00     0.043 A 
HETATM   34  C14 UNL     1     -92.514 -18.250  10.364  1.00  0.00     0.010 A 
ENDBRANCH  27  28
ENDBRANCH  18  27
BRANCH  22  35
HETATM   35  C18 UNL     1     -85.981 -16.956   9.506  1.00  0.00    -0.023 A 
HETATM   36  C19 UNL     1     -85.077 -17.630   8.726  1.00  0.00     0.015 A 
HETATM   37  C20 UNL     1     -83.955 -16.972   8.273  1.00  0.00     0.037 A 
HETATM   38  C21 UNL     1     -83.698 -15.641   8.577  1.00  0.00     0.102 A 
HETATM   39  C22 UNL     1     -84.642 -15.016   9.366  1.00  0.00     0.037 A 
HETATM   40  C23 UNL     1     -85.775 -15.642   9.837  1.00  0.00     0.015 A 
BRANCH  38  41
HETATM   41  N6  UNL     1     -82.543 -14.967   8.107  1.00  0.00    -0.116 N 
HETATM   42  O1  UNL     1     -81.831 -15.429   7.208  1.00  0.00    -0.532 OA
HETATM   43  O2  UNL     1     -82.208 -13.767   8.671  1.00  0.00    -0.532 OA
ENDBRANCH  38  41
ENDBRANCH  22  35
ENDBRANCH  14  16
ENDBRANCH  12  14
ENDBRANCH   5  11
TORSDOF 8
ENDMDL
MODEL 2
REMARK VINA RESULT: -9.966894010      0.895      1.432
REMARK  8 active torsions:
REMARK  status: ('A' for Active; 'I' for Inactive)
REMARK    1  A    between atoms: C4_5  and  C5_6 
REMARK    2  A    between atoms: N2_7  and  N3_9 
REMARK    3  A    between atoms: N3_9  and  C6_11 
REMARK    4  A    between atoms: C7_14  and  C8_15 
REMARK    5  A    between atoms: C8_15  and  C9_16 
REMARK    6  A    between atoms: C17_26  and  C18_27 
REMARK    7  A    between atoms: C21_30  and  N6_31 
REMARK    8  A    between atoms: C28_41  and  O3_42 
ROOT
HETATM    1  N1  UNL     1     -88.478 -25.597  15.388  1.00  0.00    -0.191 NA
HETATM    2  C1  UNL     1     -87.970 -24.581  15.626  1.00  0.00     0.102 C 
HETATM    3  C2  UNL     1     -87.346 -23.319  15.946  1.00  0.00     0.078 A 
HETATM    4  C3  UNL     1     -87.686 -22.211  15.228  1.00  0.00     0.038 A 
HETATM    5  C4  UNL     1     -87.075 -21.010  15.552  1.00  0.00    -0.018 A 
HETATM    6  C26 UNL     1     -86.154 -20.976  16.578  1.00  0.00     0.015 A 
HETATM    7  C27 UNL     1     -85.843 -22.125  17.278  1.00  0.00     0.039 A 
HETATM    8  C28 UNL     1     -86.436 -23.327  16.974  1.00  0.00     0.086 A 
ENDROOT
BRANCH   8   9
HETATM    9  O3  UNL     1     -86.124 -24.465  17.671  1.00  0.00    -0.359 OA
ATOM     10  H3  UNL     1     -85.232 -24.777  17.766  1.00  0.00     0.217 HD
ENDBRANCH   8   9
BRANCH   5  11
HETATM   11  C5  UNL     1     -87.397 -19.792  14.845  1.00  0.00     0.118 C 
HETATM   12  N2  UNL     1     -88.065 -19.859  13.749  1.00  0.00    -0.309 N 
ATOM     13  H2  UNL     1     -88.337 -20.792  13.437  1.00  0.00     0.186 HD
BRANCH  12  14
HETATM   14  N3  UNL     1     -88.440 -18.834  12.973  1.00  0.00    -0.285 N 
ATOM     15  H3  UNL     1     -88.917 -18.108  13.508  1.00  0.00     0.188 HD
BRANCH  14  16
HETATM   16  C6  UNL     1     -88.356 -18.538  11.750  1.00  0.00     0.142 A 
HETATM   17  N4  UNL     1     -89.441 -18.815  10.938  1.00  0.00    -0.342 N 
HETATM   18  C7  UNL     1     -89.370 -18.511   9.644  1.00  0.00     0.036 A 
ATOM     19  H4  UNL     1     -90.281 -19.244  11.325  1.00  0.00     0.167 HD
HETATM   20  C15 UNL     1     -88.273 -17.928   9.045  1.00  0.00     0.080 A 
HETATM   21  C16 UNL     1     -88.240 -17.614   7.630  1.00  0.00     0.102 C 
HETATM   22  C17 UNL     1     -87.212 -17.664   9.875  1.00  0.00     0.021 A 
HETATM   23  N5  UNL     1     -88.216 -17.341   6.504  1.00  0.00    -0.191 NA
HETATM   24  C24 UNL     1     -87.227 -17.961  11.242  1.00  0.00     0.102 A 
HETATM   25  C25 UNL     1     -86.074 -17.647  12.059  1.00  0.00     0.104 C 
HETATM   26  N7  UNL     1     -85.141 -17.383  12.687  1.00  0.00    -0.191 NA
BRANCH  18  27
HETATM   27  C8  UNL     1     -90.537 -18.810   8.795  1.00  0.00     0.097 C 
BRANCH  27  28
HETATM   28  C9  UNL     1     -91.704 -19.299   9.509  1.00  0.00    -0.052 A 
HETATM   29  C10 UNL     1     -92.500 -18.396  10.190  1.00  0.00     0.010 A 
HETATM   30  C11 UNL     1     -93.623 -18.809  10.882  1.00  0.00     0.043 A 
HETATM   31  C12 UNL     1     -94.001 -20.135  10.927  1.00  0.00     0.116 A 
HETATM   32  F1  UNL     1     -95.102 -20.511  11.611  1.00  0.00    -0.206 F 
HETATM   33  C13 UNL     1     -93.208 -21.044  10.248  1.00  0.00     0.043 A 
HETATM   34  C14 UNL     1     -92.086 -20.623   9.557  1.00  0.00     0.010 A 
ENDBRANCH  27  28
ENDBRANCH  18  27
BRANCH  22  35
HETATM   35  C18 UNL     1     -86.002 -17.061   9.356  1.00  0.00    -0.023 A 
HETATM   36  C19 UNL     1     -85.814 -15.706   9.454  1.00  0.00     0.015 A 
HETATM   37  C20 UNL     1     -84.656 -15.148   8.957  1.00  0.00     0.037 A 
HETATM   38  C21 UNL     1     -83.662 -15.909   8.355  1.00  0.00     0.102 A 
HETATM   39  C22 UNL     1     -83.908 -17.265   8.284  1.00  0.00     0.037 A 
HETATM   40  C23 UNL     1     -85.053 -17.857   8.770  1.00  0.00     0.015 A 
BRANCH  38  41
HETATM   41  N6  UNL     1     -82.471 -15.331   7.846  1.00  0.00    -0.116 N 
HETATM   42  O1  UNL     1     -81.712 -15.947   7.090  1.00  0.00    -0.532 OA
HETATM   43  O2  UNL     1     -82.156 -14.050   8.208  1.00  0.00    -0.532 OA
ENDBRANCH  38  41
ENDBRANCH  22  35
ENDBRANCH  14  16
ENDBRANCH  12  14
ENDBRANCH   5  11
TORSDOF 8
ENDMDL
MODEL 3
REMARK VINA RESULT: -9.439453993      4.598      5.994
REMARK  8 active torsions:
REMARK  status: ('A' for Active; 'I' for Inactive)
REMARK    1  A    between atoms: C4_5  and  C5_6 
REMARK    2  A    between atoms: N2_7  and  N3_9 
REMARK    3  A    between atoms: N3_9  and  C6_11 
REMARK    4  A    between atoms: C7_14  and  C8_15 
REMARK    5  A    between atoms: C8_15  and  C9_16 
REMARK    6  A    between atoms: C17_26  and  C18_27 
REMARK    7  A    between atoms: C21_30  and  N6_31 
REMARK    8  A    between atoms: C28_41  and  O3_42 
ROOT
HETATM    1  N1  UNL     1     -92.414 -18.892  11.681  1.00  0.00    -0.191 NA
HETATM    2  C1  UNL     1     -91.558 -18.225  12.091  1.00  0.00     0.102 C 
HETATM    3  C2  UNL     1     -90.509 -17.379  12.611  1.00  0.00     0.078 A 
HETATM    4  C3  UNL     1     -89.619 -16.819  11.744  1.00  0.00     0.038 A 
HETATM    5  C4  UNL     1     -88.620 -16.012  12.265  1.00  0.00    -0.018 A 
HETATM    6  C26 UNL     1     -88.561 -15.804  13.627  1.00  0.00     0.015 A 
HETATM    7  C27 UNL     1     -89.487 -16.392  14.466  1.00  0.00     0.039 A 
HETATM    8  C28 UNL     1     -90.486 -17.197  13.971  1.00  0.00     0.086 A 
ENDROOT
BRANCH   8   9
HETATM    9  O3  UNL     1     -91.403 -17.779  14.808  1.00  0.00    -0.359 OA
ATOM     10  H3  UNL     1     -92.310 -17.502  14.842  1.00  0.00     0.217 HD
ENDBRANCH   8   9
BRANCH   5  11
HETATM   11  C5  UNL     1     -87.650 -15.373  11.406  1.00  0.00     0.118 C 
HETATM   12  N2  UNL     1     -86.518 -15.946  11.200  1.00  0.00    -0.309 N 
ATOM     13  H2  UNL     1     -86.369 -16.842  11.665  1.00  0.00     0.186 HD
BRANCH  12  14
HETATM   14  N3  UNL     1     -85.514 -15.491  10.439  1.00  0.00    -0.285 N 
ATOM     15  H3  UNL     1     -84.925 -14.829  10.944  1.00  0.00     0.188 HD
BRANCH  14  16
HETATM   16  C6  UNL     1     -85.112 -15.673   9.257  1.00  0.00     0.142 A 
HETATM   17  N4  UNL     1     -86.042 -16.052   8.305  1.00  0.00    -0.342 N 
HETATM   18  C7  UNL     1     -85.636 -16.250   7.053  1.00  0.00     0.036 A 
ATOM     19  H4  UNL     1     -87.022 -16.178   8.560  1.00  0.00     0.167 HD
HETATM   20  C15 UNL     1     -84.333 -16.099   6.629  1.00  0.00     0.080 A 
HETATM   21  C16 UNL     1     -83.937 -16.325   5.253  1.00  0.00     0.102 C 
HETATM   22  C17 UNL     1     -83.433 -15.721   7.595  1.00  0.00     0.021 A 
HETATM   23  N5  UNL     1     -83.617 -16.484   4.151  1.00  0.00    -0.191 NA
HETATM   24  C24 UNL     1     -83.798 -15.500   8.926  1.00  0.00     0.102 A 
HETATM   25  C25 UNL     1     -82.797 -15.096   9.889  1.00  0.00     0.104 C 
HETATM   26  N7  UNL     1     -81.976 -14.771  10.636  1.00  0.00    -0.191 NA
BRANCH  18  27
HETATM   27  C8  UNL     1     -86.642 -16.650   6.052  1.00  0.00     0.097 C 
BRANCH  27  28
HETATM   28  C9  UNL     1     -87.955 -16.959   6.593  1.00  0.00    -0.052 A 
HETATM   29  C10 UNL     1     -89.077 -16.461   5.955  1.00  0.00     0.010 A 
HETATM   30  C11 UNL     1     -90.348 -16.729   6.428  1.00  0.00     0.043 A 
HETATM   31  C12 UNL     1     -90.556 -17.500   7.552  1.00  0.00     0.116 A 
HETATM   32  F1  UNL     1     -91.809 -17.745   7.993  1.00  0.00    -0.206 F 
HETATM   33  C13 UNL     1     -89.437 -18.000   8.196  1.00  0.00     0.043 A 
HETATM   34  C14 UNL     1     -88.169 -17.728   7.717  1.00  0.00     0.010 A 
ENDBRANCH  27  28
ENDBRANCH  18  27
BRANCH  22  35
HETATM   35  C18 UNL     1     -82.033 -15.541   7.267  1.00  0.00    -0.023 A 
HETATM   36  C19 UNL     1     -81.188 -16.620   7.254  1.00  0.00     0.015 A 
HETATM   37  C20 UNL     1     -79.860 -16.433   6.937  1.00  0.00     0.037 A 
HETATM   38  C21 UNL     1     -79.338 -15.184   6.628  1.00  0.00     0.102 A 
HETATM   39  C22 UNL     1     -80.236 -14.136   6.659  1.00  0.00     0.037 A 
HETATM   40  C23 UNL     1     -81.569 -14.286   6.972  1.00  0.00     0.015 A 
BRANCH  38  41
HETATM   41  N6  UNL     1     -77.971 -14.995   6.302  1.00  0.00    -0.116 N 
HETATM   42  O1  UNL     1     -77.075 -15.689   6.793  1.00  0.00    -0.532 OA
HETATM   43  O2  UNL     1     -77.638 -14.009   5.414  1.00  0.00    -0.532 OA
ENDBRANCH  38  41
ENDBRANCH  22  35
ENDBRANCH  14  16
ENDBRANCH  12  14
ENDBRANCH   5  11
TORSDOF 8
ENDMDL
MODEL 4
REMARK VINA RESULT: -9.365126971      4.741      6.579
REMARK  8 active torsions:
REMARK  status: ('A' for Active; 'I' for Inactive)
REMARK    1  A    between atoms: C4_5  and  C5_6 
REMARK    2  A    between atoms: N2_7  and  N3_9 
REMARK    3  A    between atoms: N3_9  and  C6_11 
REMARK    4  A    between atoms: C7_14  and  C8_15 
REMARK    5  A    between atoms: C8_15  and  C9_16 
REMARK    6  A    between atoms: C17_26  and  C18_27 
REMARK    7  A    between atoms: C21_30  and  N6_31 
REMARK    8  A    between atoms: C28_41  and  O3_42 
ROOT
HETATM    1  N1  UNL     1     -94.809 -20.522  11.458  1.00  0.00    -0.191 NA
HETATM    2  C1  UNL     1     -93.771 -20.359  10.967  1.00  0.00     0.102 C 
HETATM    3  C2  UNL     1     -92.473 -20.181  10.359  1.00  0.00     0.078 A 
HETATM    4  C3  UNL     1     -91.595 -19.300  10.919  1.00  0.00     0.038 A 
HETATM    5  C4  UNL     1     -90.356 -19.144  10.319  1.00  0.00    -0.018 A 
HETATM    6  C26 UNL     1     -90.055 -19.875   9.189  1.00  0.00     0.015 A 
HETATM    7  C27 UNL     1     -90.978 -20.757   8.660  1.00  0.00     0.039 A 
HETATM    8  C28 UNL     1     -92.213 -20.928   9.238  1.00  0.00     0.086 A 
ENDROOT
BRANCH   8   9
HETATM    9  O3  UNL     1     -93.126 -21.803   8.709  1.00  0.00    -0.359 OA
ATOM     10  H3  UNL     1     -93.020 -22.745   8.763  1.00  0.00     0.217 HD
ENDBRANCH   8   9
BRANCH   5  11
HETATM   11  C5  UNL     1     -89.369 -18.240  10.863  1.00  0.00     0.118 C 
HETATM   12  N2  UNL     1     -88.256 -18.713  11.298  1.00  0.00    -0.309 N 
ATOM     13  H2  UNL     1     -88.130 -19.723  11.228  1.00  0.00     0.186 HD
BRANCH  12  14
HETATM   14  N3  UNL     1     -87.243 -18.019  11.832  1.00  0.00    -0.285 N 
ATOM     15  H3  UNL     1     -87.222 -18.098  12.849  1.00  0.00     0.188 HD
BRANCH  14  16
HETATM   16  C6  UNL     1     -86.307 -17.291  11.399  1.00  0.00     0.142 A 
HETATM   17  N4  UNL     1     -86.149 -17.184  10.029  1.00  0.00    -0.342 N 
HETATM   18  C7  UNL     1     -85.167 -16.423   9.552  1.00  0.00     0.036 A 
ATOM     19  H4  UNL     1     -86.775 -17.681   9.395  1.00  0.00     0.167 HD
HETATM   20  C15 UNL     1     -84.281 -15.718  10.341  1.00  0.00     0.080 A 
HETATM   21  C16 UNL     1     -83.226 -14.900   9.777  1.00  0.00     0.102 C 
HETATM   22  C17 UNL     1     -84.464 -15.842  11.697  1.00  0.00     0.021 A 
HETATM   23  N5  UNL     1     -82.394 -14.228   9.333  1.00  0.00    -0.191 NA
HETATM   24  C24 UNL     1     -85.476 -16.628  12.256  1.00  0.00     0.102 A 
HETATM   25  C25 UNL     1     -85.613 -16.707  13.695  1.00  0.00     0.104 C 
HETATM   26  N7  UNL     1     -85.701 -16.748  14.846  1.00  0.00    -0.191 NA
BRANCH  18  27
HETATM   27  C8  UNL     1     -85.016 -16.318   8.089  1.00  0.00     0.097 C 
BRANCH  27  28
HETATM   28  C9  UNL     1     -86.247 -16.475   7.334  1.00  0.00    -0.052 A 
HETATM   29  C10 UNL     1     -86.333 -15.923   6.069  1.00  0.00     0.010 A 
HETATM   30  C11 UNL     1     -87.481 -16.047   5.310  1.00  0.00     0.043 A 
HETATM   31  C12 UNL     1     -88.589 -16.724   5.774  1.00  0.00     0.116 A 
HETATM   32  F1  UNL     1     -89.697 -16.830   5.010  1.00  0.00    -0.206 F 
HETATM   33  C13 UNL     1     -88.509 -17.279   7.040  1.00  0.00     0.043 A 
HETATM   34  C14 UNL     1     -87.358 -17.151   7.794  1.00  0.00     0.010 A 
ENDBRANCH  27  28
ENDBRANCH  18  27
BRANCH  22  35
HETATM   35  C18 UNL     1     -83.588 -15.156  12.623  1.00  0.00    -0.023 A 
HETATM   36  C19 UNL     1     -82.412 -15.740  13.016  1.00  0.00     0.015 A 
HETATM   37  C20 UNL     1     -81.588 -15.072  13.896  1.00  0.00     0.037 A 
HETATM   38  C21 UNL     1     -81.903 -13.819  14.406  1.00  0.00     0.102 A 
HETATM   39  C22 UNL     1     -83.100 -13.283  13.975  1.00  0.00     0.037 A 
HETATM   40  C23 UNL     1     -83.948 -13.921  13.097  1.00  0.00     0.015 A 
BRANCH  38  41
HETATM   41  N6  UNL     1     -81.053 -13.134  15.310  1.00  0.00    -0.116 N 
HETATM   42  O1  UNL     1     -79.823 -13.136  15.187  1.00  0.00    -0.532 OA
HETATM   43  O2  UNL     1     -81.616 -12.450  16.352  1.00  0.00    -0.532 OA
ENDBRANCH  38  41
ENDBRANCH  22  35
ENDBRANCH  14  16
ENDBRANCH  12  14
ENDBRANCH   5  11
TORSDOF 8
ENDMDL
MODEL 5
REMARK VINA RESULT: -9.249348196      4.727      6.684
REMARK  8 active torsions:
REMARK  status: ('A' for Active; 'I' for Inactive)
REMARK    1  A    between atoms: C4_5  and  C5_6 
REMARK    2  A    between atoms: N2_7  and  N3_9 
REMARK    3  A    between atoms: N3_9  and  C6_11 
REMARK    4  A    between atoms: C7_14  and  C8_15 
REMARK    5  A    between atoms: C8_15  and  C9_16 
REMARK    6  A    between atoms: C17_26  and  C18_27 
REMARK    7  A    between atoms: C21_30  and  N6_31 
REMARK    8  A    between atoms: C28_41  and  O3_42 
ROOT
HETATM    1  N1  UNL     1     -92.137 -21.654   8.128  1.00  0.00    -0.191 NA
HETATM    2  C1  UNL     1     -91.955 -20.867   8.961  1.00  0.00     0.102 C 
HETATM    3  C2  UNL     1     -91.744 -19.873   9.987  1.00  0.00     0.078 A 
HETATM    4  C3  UNL     1     -90.491 -19.370  10.175  1.00  0.00     0.038 A 
HETATM    5  C4  UNL     1     -90.311 -18.417  11.166  1.00  0.00    -0.018 A 
HETATM    6  C26 UNL     1     -91.393 -18.014  11.919  1.00  0.00     0.015 A 
HETATM    7  C27 UNL     1     -92.645 -18.552  11.690  1.00  0.00     0.039 A 
HETATM    8  C28 UNL     1     -92.847 -19.498  10.714  1.00  0.00     0.086 A 
ENDROOT
BRANCH   8   9
HETATM    9  O3  UNL     1     -94.090 -20.029  10.491  1.00  0.00    -0.359 OA
ATOM     10  H3  UNL     1     -94.668 -20.291  11.197  1.00  0.00     0.217 HD
ENDBRANCH   8   9
BRANCH   5  11
HETATM   11  C5  UNL     1     -89.015 -17.830  11.412  1.00  0.00     0.118 C 
HETATM   12  N2  UNL     1     -88.048 -18.581  11.802  1.00  0.00    -0.309 N 
ATOM     13  H2  UNL     1     -88.257 -19.573  11.915  1.00  0.00     0.186 HD
BRANCH  12  14
HETATM   14  N3  UNL     1     -86.794 -18.198  12.076  1.00  0.00    -0.285 N 
ATOM     15  H3  UNL     1     -86.437 -18.643  12.922  1.00  0.00     0.188 HD
BRANCH  14  16
HETATM   16  C6  UNL     1     -85.941 -17.428  11.554  1.00  0.00     0.142 A 
HETATM   17  N4  UNL     1     -85.845 -17.405  10.175  1.00  0.00    -0.342 N 
HETATM   18  C7  UNL     1     -84.950 -16.600   9.606  1.00  0.00     0.036 A 
ATOM     19  H4  UNL     1     -86.449 -17.996   9.603  1.00  0.00     0.167 HD
HETATM   20  C15 UNL     1     -84.099 -15.770  10.306  1.00  0.00     0.080 A 
HETATM   21  C16 UNL     1     -83.140 -14.909   9.644  1.00  0.00     0.102 C 
HETATM   22  C17 UNL     1     -84.219 -15.814  11.674  1.00  0.00     0.021 A 
HETATM   23  N5  UNL     1     -82.387 -14.203   9.120  1.00  0.00    -0.191 NA
HETATM   24  C24 UNL     1     -85.138 -16.639  12.328  1.00  0.00     0.102 A 
HETATM   25  C25 UNL     1     -85.214 -16.627  13.774  1.00  0.00     0.104 C 
HETATM   26  N7  UNL     1     -85.255 -16.594  14.928  1.00  0.00    -0.191 NA
BRANCH  18  27
HETATM   27  C8  UNL     1     -84.864 -16.587   8.134  1.00  0.00     0.097 C 
BRANCH  27  28
HETATM   28  C9  UNL     1     -86.141 -16.654   7.446  1.00  0.00    -0.052 A 
HETATM   29  C10 UNL     1     -86.331 -15.891   6.308  1.00  0.00     0.010 A 
HETATM   30  C11 UNL     1     -87.526 -15.922   5.615  1.00  0.00     0.043 A 
HETATM   31  C12 UNL     1     -88.582 -16.710   6.023  1.00  0.00     0.116 A 
HETATM   32  F1  UNL     1     -89.739 -16.720   5.327  1.00  0.00    -0.206 F 
HETATM   33  C13 UNL     1     -88.399 -17.475   7.162  1.00  0.00     0.043 A 
HETATM   34  C14 UNL     1     -87.200 -17.439   7.850  1.00  0.00     0.010 A 
ENDBRANCH  27  28
ENDBRANCH  18  27
BRANCH  22  35
HETATM   35  C18 UNL     1     -83.372 -14.993  12.513  1.00  0.00    -0.023 A 
HETATM   36  C19 UNL     1     -83.843 -13.806  13.012  1.00  0.00     0.015 A 
HETATM   37  C20 UNL     1     -83.025 -13.038  13.811  1.00  0.00     0.037 A 
HETATM   38  C21 UNL     1     -81.730 -13.420  14.137  1.00  0.00     0.102 A 
HETATM   39  C22 UNL     1     -81.311 -14.622  13.605  1.00  0.00     0.037 A 
HETATM   40  C23 UNL     1     -82.100 -15.416  12.802  1.00  0.00     0.015 A 
BRANCH  38  41
HETATM   41  N6  UNL     1     -80.892 -12.628  14.961  1.00  0.00    -0.116 N 
HETATM   42  O1  UNL     1     -79.793 -12.213  14.577  1.00  0.00    -0.532 OA
HETATM   43  O2  UNL     1     -81.317 -12.315  16.223  1.00  0.00    -0.532 OA
ENDBRANCH  38  41
ENDBRANCH  22  35
ENDBRANCH  14  16
ENDBRANCH  12  14
ENDBRANCH   5  11
TORSDOF 8
ENDMDL
