MODEL 1
REMARK VINA RESULT: -8.962798733      0.000      0.000
REMARK  9 active torsions:
REMARK  status: ('A' for Active; 'I' for Inactive)
REMARK    1  A    between atoms: O1_2  and  C2_3 
REMARK    2  A    between atoms: C5_6  and  N1_7 
REMARK    3  A    between atoms: C7_12  and  N3_13 
REMARK    4  A    between atoms: N3_13  and  N4_15 
REMARK    5  A    between atoms: C8_17  and  C9_18 
REMARK    6  A    between atoms: C9_18  and  C10_19 
REMARK    7  A    between atoms: C13_24  and  N5_25 
REMARK    8  A    between atoms: N5_25  and  C14_27 
REMARK    9  A    between atoms: C17_30  and  C18_31 
ROOT
HETATM    1  N1  UNL     1     -86.989 -12.939   5.024  1.00  0.00    -0.192 N 
ATOM      2  H1  UNL     1     -87.269 -12.673   4.080  1.00  0.00     0.184 HD
HETATM    3  C6  UNL     1     -85.708 -12.880   5.367  1.00  0.00     0.686 A 
HETATM    4  N2  UNL     1     -84.915 -12.462   4.380  1.00  0.00    -0.168 N 
ATOM      5  H2  UNL     1     -85.353 -12.232   3.488  1.00  0.00     0.186 HD
HETATM    6  C7  UNL     1     -83.563 -12.318   4.475  1.00  0.00     0.181 A 
HETATM    7  S1  UNL     1     -82.919 -12.720   5.990  1.00  0.00    -0.015 SA
HETATM    8  C13 UNL     1     -84.098 -13.232   7.110  1.00  0.00     0.167 A 
HETATM    9  N6  UNL     1     -85.364 -13.230   6.597  1.00  0.00    -0.170 N 
ATOM     10  H6  UNL     1     -86.116 -13.525   7.221  1.00  0.00     0.186 HD
ENDROOT
BRANCH   8  11
HETATM   11  N5  UNL     1     -83.914 -13.657   8.304  1.00  0.00    -0.336 N 
ATOM     12  H5  UNL     1     -82.953 -13.859   8.582  1.00  0.00     0.168 HD
BRANCH  11  13
HETATM   13  C14 UNL     1     -84.903 -13.868   9.255  1.00  0.00     0.034 A 
HETATM   14  C15 UNL     1     -85.512 -12.710   9.780  1.00  0.00     0.030 A 
HETATM   15  C16 UNL     1     -86.486 -12.802  10.730  1.00  0.00     0.010 A 
HETATM   16  C17 UNL     1     -86.875 -14.051  11.178  1.00  0.00    -0.051 A 
HETATM   17  C22 UNL     1     -86.281 -15.188  10.666  1.00  0.00     0.010 A 
HETATM   18  C23 UNL     1     -85.286 -15.105   9.695  1.00  0.00     0.030 A 
BRANCH  16  19
HETATM   19  C18 UNL     1     -87.919 -14.094  12.201  1.00  0.00    -0.024 C 
HETATM   20  C19 UNL     1     -89.121 -13.315  11.681  1.00  0.00     0.019 C 
HETATM   21  C20 UNL     1     -87.449 -13.515  13.525  1.00  0.00     0.019 C 
HETATM   22  C21 UNL     1     -88.280 -15.549  12.456  1.00  0.00     0.019 C 
ENDBRANCH  16  19
ENDBRANCH  11  13
ENDBRANCH   8  11
BRANCH   6  23
HETATM   23  N3  UNL     1     -82.927 -11.938   3.440  1.00  0.00    -0.280 N 
ATOM     24  H3  UNL     1     -82.812 -12.584   2.659  1.00  0.00     0.189 HD
BRANCH  23  25
HETATM   25  N4  UNL     1     -82.388 -10.662   3.353  1.00  0.00    -0.314 N 
HETATM   26  C8  UNL     1     -81.221 -10.382   3.855  1.00  0.00     0.083 C 
ATOM     27  H4  UNL     1     -82.918  -9.928   2.884  1.00  0.00     0.185 HD
BRANCH  26  28
HETATM   28  C9  UNL     1     -80.591  -9.070   3.804  1.00  0.00     0.088 C 
BRANCH  28  29
HETATM   29  C10 UNL     1     -79.930  -8.690   5.120  1.00  0.00     0.100 C 
HETATM   30  C11 UNL     1     -79.915  -7.190   5.311  1.00  0.00     0.051 C 
HETATM   31  C12 UNL     1     -80.759  -9.286   6.257  1.00  0.00     0.051 C 
HETATM   32  F1  UNL     1     -78.665  -9.217   5.245  1.00  0.00    -0.243 F 
ENDBRANCH  28  29
ENDBRANCH  26  28
ENDBRANCH  23  25
ENDBRANCH   6  23
BRANCH   1  33
HETATM   33  C5  UNL     1     -87.984 -13.371   5.962  1.00  0.00     0.049 A 
HETATM   34  C4  UNL     1     -87.666 -14.033   7.109  1.00  0.00     0.033 A 
HETATM   35  C3  UNL     1     -88.638 -14.443   7.973  1.00  0.00     0.039 A 
HETATM   36  C2  UNL     1     -89.985 -14.185   7.695  1.00  0.00     0.068 A 
HETATM   37  C25 UNL     1     -90.279 -13.519   6.544  1.00  0.00     0.039 A 
HETATM   38  C24 UNL     1     -89.300 -13.106   5.669  1.00  0.00     0.033 A 
BRANCH  36  39
HETATM   39  O1  UNL     1     -90.926 -14.607   8.572  1.00  0.00    -0.356 OA
HETATM   40  C1  UNL     1     -92.096 -13.888   8.831  1.00  0.00     0.210 C 
ENDBRANCH  36  39
ENDBRANCH   1  33
TORSDOF 9
ENDMDL
MODEL 2
REMARK VINA RESULT: -8.944667424      0.382      1.205
REMARK  9 active torsions:
REMARK  status: ('A' for Active; 'I' for Inactive)
REMARK    1  A    between atoms: O1_2  and  C2_3 
REMARK    2  A    between atoms: C5_6  and  N1_7 
REMARK    3  A    between atoms: C7_12  and  N3_13 
REMARK    4  A    between atoms: N3_13  and  N4_15 
REMARK    5  A    between atoms: C8_17  and  C9_18 
REMARK    6  A    between atoms: C9_18  and  C10_19 
REMARK    7  A    between atoms: C13_24  and  N5_25 
REMARK    8  A    between atoms: N5_25  and  C14_27 
REMARK    9  A    between atoms: C17_30  and  C18_31 
ROOT
HETATM    1  N1  UNL     1     -86.968 -12.957   4.991  1.00  0.00    -0.192 N 
ATOM      2  H1  UNL     1     -87.253 -12.707   4.043  1.00  0.00     0.184 HD
HETATM    3  C6  UNL     1     -85.689 -12.865   5.334  1.00  0.00     0.686 A 
HETATM    4  N2  UNL     1     -84.905 -12.439   4.344  1.00  0.00    -0.168 N 
ATOM      5  H2  UNL     1     -85.347 -12.229   3.449  1.00  0.00     0.186 HD
HETATM    6  C7  UNL     1     -83.556 -12.264   4.439  1.00  0.00     0.181 A 
HETATM    7  S1  UNL     1     -82.906 -12.635   5.958  1.00  0.00    -0.015 SA
HETATM    8  C13 UNL     1     -84.074 -13.161   7.082  1.00  0.00     0.167 A 
HETATM    9  N6  UNL     1     -85.339 -13.193   6.568  1.00  0.00    -0.170 N 
ATOM     10  H6  UNL     1     -86.085 -13.499   7.194  1.00  0.00     0.186 HD
ENDROOT
BRANCH   8  11
HETATM   11  N5  UNL     1     -83.882 -13.569   8.281  1.00  0.00    -0.336 N 
ATOM     12  H5  UNL     1     -82.923 -13.795   8.547  1.00  0.00     0.168 HD
BRANCH  11  13
HETATM   13  C14 UNL     1     -84.861 -13.731   9.253  1.00  0.00     0.034 A 
HETATM   14  C15 UNL     1     -85.126 -15.059   9.646  1.00  0.00     0.030 A 
HETATM   15  C16 UNL     1     -86.078 -15.334  10.582  1.00  0.00     0.010 A 
HETATM   16  C17 UNL     1     -86.787 -14.290  11.149  1.00  0.00    -0.051 A 
HETATM   17  C22 UNL     1     -86.530 -12.989  10.767  1.00  0.00     0.010 A 
HETATM   18  C23 UNL     1     -85.560 -12.697   9.811  1.00  0.00     0.030 A 
BRANCH  16  19
HETATM   19  C18 UNL     1     -87.800 -14.640  12.144  1.00  0.00    -0.024 C 
HETATM   20  C19 UNL     1     -87.133 -15.488  13.219  1.00  0.00     0.019 C 
HETATM   21  C20 UNL     1     -88.971 -15.390  11.531  1.00  0.00     0.019 C 
HETATM   22  C21 UNL     1     -88.357 -13.353  12.732  1.00  0.00     0.019 C 
ENDBRANCH  16  19
ENDBRANCH  11  13
ENDBRANCH   8  11
BRANCH   6  23
HETATM   23  N3  UNL     1     -82.928 -11.880   3.400  1.00  0.00    -0.280 N 
ATOM     24  H3  UNL     1     -82.840 -12.515   2.607  1.00  0.00     0.189 HD
BRANCH  23  25
HETATM   25  N4  UNL     1     -82.361 -10.616   3.326  1.00  0.00    -0.314 N 
HETATM   26  C8  UNL     1     -81.200 -10.360   3.853  1.00  0.00     0.083 C 
ATOM     27  H4  UNL     1     -82.865  -9.871   2.847  1.00  0.00     0.185 HD
BRANCH  26  28
HETATM   28  C9  UNL     1     -80.541  -9.062   3.817  1.00  0.00     0.088 C 
BRANCH  28  29
HETATM   29  C10 UNL     1     -79.899  -8.697   5.147  1.00  0.00     0.100 C 
HETATM   30  C11 UNL     1     -79.900  -7.201   5.362  1.00  0.00     0.051 C 
HETATM   31  C12 UNL     1     -80.735  -9.320   6.264  1.00  0.00     0.051 C 
HETATM   32  F1  UNL     1     -78.631  -9.214   5.277  1.00  0.00    -0.243 F 
ENDBRANCH  28  29
ENDBRANCH  26  28
ENDBRANCH  23  25
ENDBRANCH   6  23
BRANCH   1  33
HETATM   33  C5  UNL     1     -87.954 -13.401   5.931  1.00  0.00     0.049 A 
HETATM   34  C4  UNL     1     -87.627 -14.092   7.059  1.00  0.00     0.033 A 
HETATM   35  C3  UNL     1     -88.591 -14.513   7.927  1.00  0.00     0.039 A 
HETATM   36  C2  UNL     1     -89.940 -14.237   7.673  1.00  0.00     0.068 A 
HETATM   37  C25 UNL     1     -90.243 -13.542   6.541  1.00  0.00     0.039 A 
HETATM   38  C24 UNL     1     -89.271 -13.118   5.663  1.00  0.00     0.033 A 
BRANCH  36  39
HETATM   39  O1  UNL     1     -90.872 -14.670   8.553  1.00  0.00    -0.356 OA
HETATM   40  C1  UNL     1     -92.001 -13.918   8.891  1.00  0.00     0.210 C 
ENDBRANCH  36  39
ENDBRANCH   1  33
TORSDOF 9
ENDMDL
MODEL 3
REMARK VINA RESULT: -8.802935828      2.586      4.041
REMARK  9 active torsions:
REMARK  status: ('A' for Active; 'I' for Inactive)
REMARK    1  A    between atoms: O1_2  and  C2_3 
REMARK    2  A    between atoms: C5_6  and  N1_7 
REMARK    3  A    between atoms: C7_12  and  N3_13 
REMARK    4  A    between atoms: N3_13  and  N4_15 
REMARK    5  A    between atoms: C8_17  and  C9_18 
REMARK    6  A    between atoms: C9_18  and  C10_19 
REMARK    7  A    between atoms: C13_24  and  N5_25 
REMARK    8  A    between atoms: N5_25  and  C14_27 
REMARK    9  A    between atoms: C17_30  and  C18_31 
ROOT
HETATM    1  N1  UNL     1     -90.165 -14.181   7.419  1.00  0.00    -0.192 N 
ATOM      2  H1  UNL     1     -90.641 -13.900   6.561  1.00  0.00     0.184 HD
HETATM    3  C6  UNL     1     -88.858 -13.986   7.536  1.00  0.00     0.686 A 
HETATM    4  N2  UNL     1     -88.309 -13.423   6.461  1.00  0.00    -0.168 N 
ATOM      5  H2  UNL     1     -88.924 -13.200   5.678  1.00  0.00     0.186 HD
HETATM    6  C7  UNL     1     -86.985 -13.123   6.328  1.00  0.00     0.181 A 
HETATM    7  S1  UNL     1     -86.037 -13.525   7.673  1.00  0.00    -0.015 SA
HETATM    8  C13 UNL     1     -86.929 -14.235   8.940  1.00  0.00     0.167 A 
HETATM    9  N6  UNL     1     -88.260 -14.358   8.658  1.00  0.00    -0.170 N 
ATOM     10  H6  UNL     1     -88.849 -14.775   9.379  1.00  0.00     0.186 HD
ENDROOT
BRANCH   8  11
HETATM   11  N5  UNL     1     -86.485 -14.698  10.048  1.00  0.00    -0.336 N 
ATOM     12  H5  UNL     1     -85.657 -15.294  10.004  1.00  0.00     0.168 HD
BRANCH  11  13
HETATM   13  C14 UNL     1     -87.028 -14.464  11.305  1.00  0.00     0.034 A 
HETATM   14  C15 UNL     1     -87.839 -15.491  11.828  1.00  0.00     0.030 A 
HETATM   15  C16 UNL     1     -88.434 -15.359  13.048  1.00  0.00     0.010 A 
HETATM   16  C17 UNL     1     -88.233 -14.199  13.774  1.00  0.00    -0.051 A 
HETATM   17  C22 UNL     1     -87.439 -13.191  13.265  1.00  0.00     0.010 A 
HETATM   18  C23 UNL     1     -86.827 -13.316  12.020  1.00  0.00     0.030 A 
BRANCH  16  19
HETATM   19  C18 UNL     1     -88.898 -14.106  15.073  1.00  0.00    -0.024 C 
HETATM   20  C19 UNL     1     -90.402 -14.121  14.836  1.00  0.00     0.019 C 
HETATM   21  C20 UNL     1     -88.496 -12.853  15.834  1.00  0.00     0.019 C 
HETATM   22  C21 UNL     1     -88.466 -15.295  15.917  1.00  0.00     0.019 C 
ENDBRANCH  16  19
ENDBRANCH  11  13
ENDBRANCH   8  11
BRANCH   6  23
HETATM   23  N3  UNL     1     -86.594 -12.613   5.229  1.00  0.00    -0.280 N 
ATOM     24  H3  UNL     1     -87.256 -12.518   4.459  1.00  0.00     0.189 HD
BRANCH  23  25
HETATM   25  N4  UNL     1     -85.286 -12.183   5.058  1.00  0.00    -0.314 N 
HETATM   26  C8  UNL     1     -84.354 -12.990   4.643  1.00  0.00     0.083 C 
ATOM     27  H4  UNL     1     -85.049 -11.213   5.263  1.00  0.00     0.185 HD
BRANCH  26  28
HETATM   28  C9  UNL     1     -82.962 -12.615   4.440  1.00  0.00     0.088 C 
BRANCH  28  29
HETATM   29  C10 UNL     1     -82.081 -12.983   5.624  1.00  0.00     0.100 C 
HETATM   30  C11 UNL     1     -80.888 -13.800   5.185  1.00  0.00     0.051 C 
HETATM   31  C12 UNL     1     -81.547 -11.689   6.239  1.00  0.00     0.051 C 
HETATM   32  F1  UNL     1     -82.781 -13.626   6.620  1.00  0.00    -0.243 F 
ENDBRANCH  28  29
ENDBRANCH  26  28
ENDBRANCH  23  25
ENDBRANCH   6  23
BRANCH   1  33
HETATM   33  C5  UNL     1     -90.920 -14.779   8.481  1.00  0.00     0.049 A 
HETATM   34  C4  UNL     1     -90.822 -16.103   8.788  1.00  0.00     0.033 A 
HETATM   35  C3  UNL     1     -91.565 -16.644   9.796  1.00  0.00     0.039 A 
HETATM   36  C2  UNL     1     -92.443 -15.844  10.536  1.00  0.00     0.068 A 
HETATM   37  C25 UNL     1     -92.522 -14.524  10.212  1.00  0.00     0.039 A 
HETATM   38  C24 UNL     1     -91.775 -13.975   9.195  1.00  0.00     0.033 A 
BRANCH  36  39
HETATM   39  O1  UNL     1     -93.167 -16.412  11.527  1.00  0.00    -0.356 OA
HETATM   40  C1  UNL     1     -94.122 -17.406  11.293  1.00  0.00     0.210 C 
ENDBRANCH  36  39
ENDBRANCH   1  33
TORSDOF 9
ENDMDL
MODEL 4
REMARK VINA RESULT: -8.771080987      2.579      4.005
REMARK  9 active torsions:
REMARK  status: ('A' for Active; 'I' for Inactive)
REMARK    1  A    between atoms: O1_2  and  C2_3 
REMARK    2  A    between atoms: C5_6  and  N1_7 
REMARK    3  A    between atoms: C7_12  and  N3_13 
REMARK    4  A    between atoms: N3_13  and  N4_15 
REMARK    5  A    between atoms: C8_17  and  C9_18 
REMARK    6  A    between atoms: C9_18  and  C10_19 
REMARK    7  A    between atoms: C13_24  and  N5_25 
REMARK    8  A    between atoms: N5_25  and  C14_27 
REMARK    9  A    between atoms: C17_30  and  C18_31 
ROOT
HETATM    1  N1  UNL     1     -90.182 -14.214   7.375  1.00  0.00    -0.192 N 
ATOM      2  H1  UNL     1     -90.657 -13.960   6.508  1.00  0.00     0.184 HD
HETATM    3  C6  UNL     1     -88.878 -14.001   7.491  1.00  0.00     0.686 A 
HETATM    4  N2  UNL     1     -88.331 -13.458   6.404  1.00  0.00    -0.168 N 
ATOM      5  H2  UNL     1     -88.946 -13.261   5.614  1.00  0.00     0.186 HD
HETATM    6  C7  UNL     1     -87.011 -13.145   6.269  1.00  0.00     0.181 A 
HETATM    7  S1  UNL     1     -86.063 -13.503   7.626  1.00  0.00    -0.015 SA
HETATM    8  C13 UNL     1     -86.951 -14.192   8.907  1.00  0.00     0.167 A 
HETATM    9  N6  UNL     1     -88.279 -14.338   8.624  1.00  0.00    -0.170 N 
ATOM     10  H6  UNL     1     -88.866 -14.744   9.353  1.00  0.00     0.186 HD
ENDROOT
BRANCH   8  11
HETATM   11  N5  UNL     1     -86.506 -14.623  10.028  1.00  0.00    -0.336 N 
ATOM     12  H5  UNL     1     -85.576 -15.044  10.028  1.00  0.00     0.168 HD
BRANCH  11  13
HETATM   13  C14 UNL     1     -87.173 -14.568  11.245  1.00  0.00     0.034 A 
HETATM   14  C15 UNL     1     -86.676 -13.638  12.180  1.00  0.00     0.030 A 
HETATM   15  C16 UNL     1     -87.248 -13.512  13.412  1.00  0.00     0.010 A 
HETATM   16  C17 UNL     1     -88.329 -14.310  13.738  1.00  0.00    -0.051 A 
HETATM   17  C22 UNL     1     -88.819 -15.222  12.824  1.00  0.00     0.010 A 
HETATM   18  C23 UNL     1     -88.242 -15.358  11.564  1.00  0.00     0.030 A 
BRANCH  16  19
HETATM   19  C18 UNL     1     -88.902 -14.139  15.073  1.00  0.00    -0.024 C 
HETATM   20  C19 UNL     1     -88.466 -12.778  15.602  1.00  0.00     0.019 C 
HETATM   21  C20 UNL     1     -88.470 -15.240  16.028  1.00  0.00     0.019 C 
HETATM   22  C21 UNL     1     -90.416 -14.220  14.957  1.00  0.00     0.019 C 
ENDBRANCH  16  19
ENDBRANCH  11  13
ENDBRANCH   8  11
BRANCH   6  23
HETATM   23  N3  UNL     1     -86.622 -12.657   5.159  1.00  0.00    -0.280 N 
ATOM     24  H3  UNL     1     -87.274 -12.615   4.376  1.00  0.00     0.189 HD
BRANCH  23  25
HETATM   25  N4  UNL     1     -85.328 -12.183   4.993  1.00  0.00    -0.314 N 
HETATM   26  C8  UNL     1     -84.360 -12.966   4.617  1.00  0.00     0.083 C 
ATOM     27  H4  UNL     1     -85.132 -11.198   5.170  1.00  0.00     0.185 HD
BRANCH  26  28
HETATM   28  C9  UNL     1     -82.981 -12.544   4.422  1.00  0.00     0.088 C 
BRANCH  28  29
HETATM   29  C10 UNL     1     -82.076 -12.959   5.572  1.00  0.00     0.100 C 
HETATM   30  C11 UNL     1     -80.908 -13.782   5.079  1.00  0.00     0.051 C 
HETATM   31  C12 UNL     1     -81.506 -11.692   6.210  1.00  0.00     0.051 C 
HETATM   32  F1  UNL     1     -82.761 -13.619   6.567  1.00  0.00    -0.243 F 
ENDBRANCH  28  29
ENDBRANCH  26  28
ENDBRANCH  23  25
ENDBRANCH   6  23
BRANCH   1  33
HETATM   33  C5  UNL     1     -90.934 -14.796   8.448  1.00  0.00     0.049 A 
HETATM   34  C4  UNL     1     -90.871 -16.124   8.745  1.00  0.00     0.033 A 
HETATM   35  C3  UNL     1     -91.610 -16.648   9.765  1.00  0.00     0.039 A 
HETATM   36  C2  UNL     1     -92.447 -15.825  10.528  1.00  0.00     0.068 A 
HETATM   37  C25 UNL     1     -92.491 -14.501  10.214  1.00  0.00     0.039 A 
HETATM   38  C24 UNL     1     -91.748 -13.969   9.184  1.00  0.00     0.033 A 
BRANCH  36  39
HETATM   39  O1  UNL     1     -93.169 -16.377  11.531  1.00  0.00    -0.356 OA
HETATM   40  C1  UNL     1     -94.118 -17.380  11.317  1.00  0.00     0.210 C 
ENDBRANCH  36  39
ENDBRANCH   1  33
TORSDOF 9
ENDMDL
MODEL 5
REMARK VINA RESULT: -8.707105057      5.213      9.167
REMARK  9 active torsions:
REMARK  status: ('A' for Active; 'I' for Inactive)
REMARK    1  A    between atoms: O1_2  and  C2_3 
REMARK    2  A    between atoms: C5_6  and  N1_7 
REMARK    3  A    between atoms: C7_12  and  N3_13 
REMARK    4  A    between atoms: N3_13  and  N4_15 
REMARK    5  A    between atoms: C8_17  and  C9_18 
REMARK    6  A    between atoms: C9_18  and  C10_19 
REMARK    7  A    between atoms: C13_24  and  N5_25 
REMARK    8  A    between atoms: N5_25  and  C14_27 
REMARK    9  A    between atoms: C17_30  and  C18_31 
ROOT
HETATM    1  N1  UNL     1     -84.870 -15.323  10.369  1.00  0.00    -0.192 N 
ATOM      2  H1  UNL     1     -84.107 -15.974  10.181  1.00  0.00     0.184 HD
HETATM    3  C6  UNL     1     -85.281 -15.141  11.618  1.00  0.00     0.686 A 
HETATM    4  N2  UNL     1     -84.611 -15.872  12.508  1.00  0.00    -0.168 N 
ATOM      5  H2  UNL     1     -83.869 -16.479  12.157  1.00  0.00     0.186 HD
HETATM    6  C7  UNL     1     -84.842 -15.870  13.851  1.00  0.00     0.181 A 
HETATM    7  S1  UNL     1     -86.089 -14.835  14.346  1.00  0.00    -0.015 SA
HETATM    8  C13 UNL     1     -86.818 -13.992  13.057  1.00  0.00     0.167 A 
HETATM    9  N6  UNL     1     -86.273 -14.292  11.841  1.00  0.00    -0.170 N 
ATOM     10  H6  UNL     1     -86.667 -13.818  11.028  1.00  0.00     0.186 HD
ENDROOT
BRANCH   8  11
HETATM   11  N5  UNL     1     -87.819 -13.194  13.108  1.00  0.00    -0.336 N 
ATOM     12  H5  UNL     1     -87.664 -12.283  13.542  1.00  0.00     0.168 HD
BRANCH  11  13
HETATM   13  C14 UNL     1     -89.095 -13.455  12.626  1.00  0.00     0.034 A 
HETATM   14  C15 UNL     1     -89.268 -13.325  11.234  1.00  0.00     0.030 A 
HETATM   15  C16 UNL     1     -90.483 -13.544  10.656  1.00  0.00     0.010 A 
HETATM   16  C17 UNL     1     -91.555 -13.900  11.456  1.00  0.00    -0.051 A 
HETATM   17  C22 UNL     1     -91.389 -14.029  12.820  1.00  0.00     0.010 A 
HETATM   18  C23 UNL     1     -90.152 -13.807  13.419  1.00  0.00     0.030 A 
BRANCH  16  19
HETATM   19  C18 UNL     1     -92.837 -14.119  10.788  1.00  0.00    -0.024 C 
HETATM   20  C19 UNL     1     -92.617 -13.982   9.286  1.00  0.00     0.019 C 
HETATM   21  C20 UNL     1     -93.902 -13.140  11.255  1.00  0.00     0.019 C 
HETATM   22  C21 UNL     1     -93.329 -15.513  11.143  1.00  0.00     0.019 C 
ENDBRANCH  16  19
ENDBRANCH  11  13
ENDBRANCH   8  11
BRANCH   6  23
HETATM   23  N3  UNL     1     -84.143 -16.644  14.581  1.00  0.00    -0.280 N 
ATOM     24  H3  UNL     1     -83.132 -16.515  14.620  1.00  0.00     0.189 HD
BRANCH  23  25
HETATM   25  N4  UNL     1     -84.729 -17.660  15.323  1.00  0.00    -0.314 N 
HETATM   26  C8  UNL     1     -85.442 -18.589  14.759  1.00  0.00     0.083 C 
ATOM     27  H4  UNL     1     -84.597 -17.678  16.334  1.00  0.00     0.185 HD
BRANCH  26  28
HETATM   28  C9  UNL     1     -86.087 -19.685  15.469  1.00  0.00     0.088 C 
BRANCH  28  29
HETATM   29  C10 UNL     1     -87.497 -19.955  14.965  1.00  0.00     0.100 C 
HETATM   30  C11 UNL     1     -87.568 -21.269  14.220  1.00  0.00     0.051 C 
HETATM   31  C12 UNL     1     -88.421 -20.067  16.176  1.00  0.00     0.051 C 
HETATM   32  F1  UNL     1     -87.987 -18.924  14.196  1.00  0.00    -0.243 F 
ENDBRANCH  28  29
ENDBRANCH  26  28
ENDBRANCH  23  25
ENDBRANCH   6  23
BRANCH   1  33
HETATM   33  C5  UNL     1     -85.482 -14.618   9.281  1.00  0.00     0.049 A 
HETATM   34  C4  UNL     1     -86.771 -14.843   8.900  1.00  0.00     0.033 A 
HETATM   35  C3  UNL     1     -87.318 -14.166   7.851  1.00  0.00     0.039 A 
HETATM   36  C2  UNL     1     -86.562 -13.222   7.146  1.00  0.00     0.068 A 
HETATM   37  C25 UNL     1     -85.278 -13.012   7.547  1.00  0.00     0.039 A 
HETATM   38  C24 UNL     1     -84.722 -13.695   8.605  1.00  0.00     0.033 A 
BRANCH  36  39
HETATM   39  O1  UNL     1     -87.134 -12.568   6.109  1.00  0.00    -0.356 OA
HETATM   40  C1  UNL     1     -88.424 -12.854   5.653  1.00  0.00     0.210 C 
ENDBRANCH  36  39
ENDBRANCH   1  33
TORSDOF 9
ENDMDL
