MODEL 1
REMARK VINA RESULT: -8.517070718      0.000      0.000
REMARK  8 active torsions:
REMARK  status: ('A' for Active; 'I' for Inactive)
REMARK    1  A    between atoms: O1_2  and  C2_3 
REMARK    2  A    between atoms: C7_8  and  O2_9 
REMARK    3  A    between atoms: C11_16  and  O3_17 
REMARK    4  A    between atoms: O3_17  and  C12_18 
REMARK    5  A    between atoms: C12_18  and  C13_19 
REMARK    6  A    between atoms: C13_19  and  C14_20 
REMARK    7  A    between atoms: C14_20  and  N2_21 
REMARK    8  A    between atoms: C24_35  and  O4_36 
ROOT
HETATM    1  C2  UNL     1     -85.748 -12.835   7.202  1.00  0.00     0.102 A 
HETATM    2  C3  UNL     1     -85.312 -12.406   8.437  1.00  0.00     0.052 A 
HETATM    3  C4  UNL     1     -86.010 -12.691   9.615  1.00  0.00    -0.013 A 
HETATM    4  C5  UNL     1     -87.161 -13.416   9.576  1.00  0.00    -0.011 A 
HETATM    5  C6  UNL     1     -87.599 -13.849   8.313  1.00  0.00     0.050 A 
HETATM    6  C7  UNL     1     -86.914 -13.569   7.152  1.00  0.00     0.099 A 
HETATM    7  C8  UNL     1     -87.728 -13.593  10.933  1.00  0.00     0.086 A 
HETATM    8  N1  UNL     1     -88.946 -12.878  10.972  1.00  0.00    -0.398 N 
ATOM      9  H1  UNL     1     -88.977 -11.936  10.583  1.00  0.00     0.155 HD
HETATM   10  C9  UNL     1     -90.106 -13.416  11.526  1.00  0.00     0.103 C 
HETATM   11  C10 UNL     1     -90.454 -12.879  12.909  1.00  0.00     0.034 C 
HETATM   12  C11 UNL     1     -90.270 -14.901  11.520  1.00  0.00     0.143 C 
HETATM   13  C15 UNL     1     -88.980 -15.495  12.030  1.00  0.00     0.041 C 
HETATM   14  C16 UNL     1     -87.798 -15.063  11.235  1.00  0.00     0.021 C 
HETATM   15  C17 UNL     1     -86.549 -15.550  11.953  1.00  0.00     0.013 C 
HETATM   16  C18 UNL     1     -86.761 -12.887  11.807  1.00  0.00    -0.013 A 
HETATM   17  C19 UNL     1     -86.700 -12.683  13.179  1.00  0.00     0.023 A 
HETATM   18  C20 UNL     1     -85.660 -11.973  13.711  1.00  0.00    -0.020 A 
HETATM   19  C21 UNL     1     -85.575 -11.755  15.065  1.00  0.00     0.054 A 
HETATM   20  C22 UNL     1     -84.530 -11.042  15.582  1.00  0.00     0.119 A 
HETATM   21  F1  UNL     1     -84.450 -10.830  16.933  1.00  0.00    -0.206 F 
HETATM   22  C23 UNL     1     -83.523 -10.511  14.800  1.00  0.00     0.079 A 
HETATM   23  C24 UNL     1     -83.595 -10.720  13.444  1.00  0.00     0.082 A 
HETATM   24  C26 UNL     1     -84.652 -11.442  12.907  1.00  0.00     0.009 A 
HETATM   25  C27 UNL     1     -84.689 -11.629  11.550  1.00  0.00     0.028 A 
HETATM   26  C28 UNL     1     -85.771 -12.366  11.030  1.00  0.00    -0.015 A 
ENDROOT
BRANCH   6  27
HETATM   27  O2  UNL     1     -87.439 -14.050   5.950  1.00  0.00    -0.358 OA
ATOM     28  H2  UNL     1     -88.317 -13.835   5.659  1.00  0.00     0.217 HD
ENDBRANCH   6  27
BRANCH  12  29
HETATM   29  O3  UNL     1     -90.619 -15.395  10.278  1.00  0.00    -0.384 OA
BRANCH  29  30
HETATM   30  C12 UNL     1     -92.001 -15.567  10.173  1.00  0.00     0.170 C 
BRANCH  30  31
HETATM   31  C13 UNL     1     -92.271 -17.035   9.859  1.00  0.00     0.053 C 
BRANCH  31  32
HETATM   32  C14 UNL     1     -91.558 -17.354   8.584  1.00  0.00     0.231 C 
BRANCH  32  33
HETATM   33  N2  UNL     1     -92.315 -18.396   7.898  1.00  0.00    -0.079 N 
ATOM     34  H23 UNL     1     -93.292 -18.143   7.752  1.00  0.00     0.274 HD
ATOM     35  H22 UNL     1     -92.052 -18.494   6.918  1.00  0.00     0.274 HD
ATOM     36  H21 UNL     1     -92.204 -19.261   8.426  1.00  0.00     0.274 HD
ENDBRANCH  32  33
ENDBRANCH  31  32
ENDBRANCH  30  31
ENDBRANCH  29  30
ENDBRANCH  12  29
BRANCH   1  37
HETATM   37  O1  UNL     1     -85.080 -12.567   6.023  1.00  0.00    -0.353 OA
HETATM   38  C1  UNL     1     -83.741 -12.921   5.779  1.00  0.00     0.210 C 
ENDBRANCH   1  37
BRANCH  23  39
HETATM   39  O4  UNL     1     -82.619 -10.211  12.625  1.00  0.00    -0.355 OA
HETATM   40  C25 UNL     1     -81.568  -9.421  13.145  1.00  0.00     0.210 C 
ENDBRANCH  23  39
TORSDOF 8
ENDMDL
MODEL 2
REMARK VINA RESULT: -8.441608566      1.283      1.446
REMARK  8 active torsions:
REMARK  status: ('A' for Active; 'I' for Inactive)
REMARK    1  A    between atoms: O1_2  and  C2_3 
REMARK    2  A    between atoms: C7_8  and  O2_9 
REMARK    3  A    between atoms: C11_16  and  O3_17 
REMARK    4  A    between atoms: O3_17  and  C12_18 
REMARK    5  A    between atoms: C12_18  and  C13_19 
REMARK    6  A    between atoms: C13_19  and  C14_20 
REMARK    7  A    between atoms: C14_20  and  N2_21 
REMARK    8  A    between atoms: C24_35  and  O4_36 
ROOT
HETATM    1  C2  UNL     1     -85.875 -12.901   7.273  1.00  0.00     0.102 A 
HETATM    2  C3  UNL     1     -85.326 -12.451   8.455  1.00  0.00     0.052 A 
HETATM    3  C4  UNL     1     -85.939 -12.667   9.692  1.00  0.00    -0.013 A 
HETATM    4  C5  UNL     1     -87.118 -13.342   9.770  1.00  0.00    -0.011 A 
HETATM    5  C6  UNL     1     -87.673 -13.797   8.560  1.00  0.00     0.050 A 
HETATM    6  C7  UNL     1     -87.071 -13.585   7.340  1.00  0.00     0.099 A 
HETATM    7  C8  UNL     1     -87.583 -13.449  11.172  1.00  0.00     0.086 A 
HETATM    8  N1  UNL     1     -88.764 -12.681  11.280  1.00  0.00    -0.398 N 
ATOM      9  H1  UNL     1     -88.787 -11.752  10.860  1.00  0.00     0.155 HD
HETATM   10  C9  UNL     1     -89.898 -13.150  11.941  1.00  0.00     0.103 C 
HETATM   11  C10 UNL     1     -90.114 -12.554  13.326  1.00  0.00     0.034 C 
HETATM   12  C11 UNL     1     -90.123 -14.626  12.001  1.00  0.00     0.143 C 
HETATM   13  C15 UNL     1     -88.822 -15.259  12.431  1.00  0.00     0.041 C 
HETATM   14  C16 UNL     1     -87.689 -14.905  11.531  1.00  0.00     0.021 C 
HETATM   15  C17 UNL     1     -86.408 -15.422  12.167  1.00  0.00     0.013 C 
HETATM   16  C18 UNL     1     -86.522 -12.758  11.942  1.00  0.00    -0.013 A 
HETATM   17  C19 UNL     1     -86.345 -12.512  13.297  1.00  0.00     0.023 A 
HETATM   18  C20 UNL     1     -85.238 -11.830  13.721  1.00  0.00    -0.020 A 
HETATM   19  C21 UNL     1     -85.038 -11.573  15.055  1.00  0.00     0.054 A 
HETATM   20  C22 UNL     1     -83.927 -10.889  15.464  1.00  0.00     0.119 A 
HETATM   21  F1  UNL     1     -83.732 -10.636  16.796  1.00  0.00    -0.206 F 
HETATM   22  C23 UNL     1     -82.963 -10.428  14.588  1.00  0.00     0.079 A 
HETATM   23  C24 UNL     1     -83.151 -10.678  13.249  1.00  0.00     0.082 A 
HETATM   24  C26 UNL     1     -84.276 -11.371  12.822  1.00  0.00     0.009 A 
HETATM   25  C27 UNL     1     -84.428 -11.601  11.480  1.00  0.00     0.028 A 
HETATM   26  C28 UNL     1     -85.576 -12.306  11.073  1.00  0.00    -0.015 A 
ENDROOT
BRANCH   6  27
HETATM   27  O2  UNL     1     -87.708 -14.082   6.201  1.00  0.00    -0.358 OA
ATOM     28  H2  UNL     1     -88.110 -13.512   5.557  1.00  0.00     0.217 HD
ENDBRANCH   6  27
BRANCH  12  29
HETATM   29  O3  UNL     1     -90.588 -15.145  10.808  1.00  0.00    -0.384 OA
BRANCH  29  30
HETATM   30  C12 UNL     1     -91.966 -15.362  10.857  1.00  0.00     0.170 C 
BRANCH  30  31
HETATM   31  C13 UNL     1     -92.618 -14.499   9.780  1.00  0.00     0.053 C 
BRANCH  31  32
HETATM   32  C14 UNL     1     -93.471 -13.489  10.479  1.00  0.00     0.231 C 
BRANCH  32  33
HETATM   33  N2  UNL     1     -93.505 -13.835  11.895  1.00  0.00    -0.079 N 
ATOM     34  H23 UNL     1     -92.646 -14.285  12.213  1.00  0.00     0.274 HD
ATOM     35  H22 UNL     1     -93.463 -13.018  12.503  1.00  0.00     0.274 HD
ATOM     36  H21 UNL     1     -94.334 -14.406  12.057  1.00  0.00     0.274 HD
ENDBRANCH  32  33
ENDBRANCH  31  32
ENDBRANCH  30  31
ENDBRANCH  29  30
ENDBRANCH  12  29
BRANCH   1  37
HETATM   37  O1  UNL     1     -85.292 -12.702   6.037  1.00  0.00    -0.353 OA
HETATM   38  C1  UNL     1     -83.918 -12.859   5.780  1.00  0.00     0.210 C 
ENDBRANCH   1  37
BRANCH  23  39
HETATM   39  O4  UNL     1     -82.223 -10.240  12.339  1.00  0.00    -0.355 OA
HETATM   40  C25 UNL     1     -81.112  -9.464  12.745  1.00  0.00     0.210 C 
ENDBRANCH  23  39
TORSDOF 8
ENDMDL
MODEL 3
REMARK VINA RESULT: -8.439551047      3.165      7.634
REMARK  8 active torsions:
REMARK  status: ('A' for Active; 'I' for Inactive)
REMARK    1  A    between atoms: O1_2  and  C2_3 
REMARK    2  A    between atoms: C7_8  and  O2_9 
REMARK    3  A    between atoms: C11_16  and  O3_17 
REMARK    4  A    between atoms: O3_17  and  C12_18 
REMARK    5  A    between atoms: C12_18  and  C13_19 
REMARK    6  A    between atoms: C13_19  and  C14_20 
REMARK    7  A    between atoms: C14_20  and  N2_21 
REMARK    8  A    between atoms: C24_35  and  O4_36 
ROOT
HETATM    1  C2  UNL     1     -91.358 -14.522  11.790  1.00  0.00     0.102 A 
HETATM    2  C3  UNL     1     -90.574 -14.313  10.677  1.00  0.00     0.052 A 
HETATM    3  C4  UNL     1     -89.225 -13.953  10.772  1.00  0.00    -0.013 A 
HETATM    4  C5  UNL     1     -88.637 -13.796  11.988  1.00  0.00    -0.011 A 
HETATM    5  C6  UNL     1     -89.444 -14.010  13.119  1.00  0.00     0.050 A 
HETATM    6  C7  UNL     1     -90.771 -14.365  13.029  1.00  0.00     0.099 A 
HETATM    7  C8  UNL     1     -87.213 -13.412  11.849  1.00  0.00     0.086 A 
HETATM    8  N1  UNL     1     -87.086 -12.095  12.342  1.00  0.00    -0.398 N 
ATOM      9  H1  UNL     1     -87.777 -11.397  12.068  1.00  0.00     0.155 HD
HETATM   10  C9  UNL     1     -86.048 -11.717  13.193  1.00  0.00     0.103 C 
HETATM   11  C10 UNL     1     -84.940 -10.916  12.519  1.00  0.00     0.034 C 
HETATM   12  C11 UNL     1     -85.437 -12.759  14.071  1.00  0.00     0.143 C 
HETATM   13  C15 UNL     1     -85.151 -13.962  13.205  1.00  0.00     0.041 C 
HETATM   14  C16 UNL     1     -86.367 -14.465  12.508  1.00  0.00     0.021 C 
HETATM   15  C17 UNL     1     -85.928 -15.534  11.519  1.00  0.00     0.013 C 
HETATM   16  C18 UNL     1     -87.009 -13.367  10.381  1.00  0.00    -0.013 A 
HETATM   17  C19 UNL     1     -85.905 -13.081   9.588  1.00  0.00     0.023 A 
HETATM   18  C20 UNL     1     -86.024 -13.118   8.227  1.00  0.00    -0.020 A 
HETATM   19  C21 UNL     1     -84.950 -12.839   7.418  1.00  0.00     0.054 A 
HETATM   20  C22 UNL     1     -85.083 -12.880   6.059  1.00  0.00     0.119 A 
HETATM   21  F1  UNL     1     -84.008 -12.602   5.257  1.00  0.00    -0.206 F 
HETATM   22  C23 UNL     1     -86.272 -13.196   5.429  1.00  0.00     0.079 A 
HETATM   23  C24 UNL     1     -87.356 -13.478   6.226  1.00  0.00     0.082 A 
HETATM   24  C26 UNL     1     -87.233 -13.439   7.608  1.00  0.00     0.009 A 
HETATM   25  C27 UNL     1     -88.336 -13.725   8.369  1.00  0.00     0.028 A 
HETATM   26  C28 UNL     1     -88.184 -13.679   9.768  1.00  0.00    -0.015 A 
ENDROOT
BRANCH   6  27
HETATM   27  O2  UNL     1     -91.481 -14.554  14.217  1.00  0.00    -0.358 OA
ATOM     28  H2  UNL     1     -91.966 -13.852  14.634  1.00  0.00     0.217 HD
ENDBRANCH   6  27
BRANCH  12  29
HETATM   29  O3  UNL     1     -86.230 -13.073  15.159  1.00  0.00    -0.384 OA
BRANCH  29  30
HETATM   30  C12 UNL     1     -85.454 -13.329  16.291  1.00  0.00     0.170 C 
BRANCH  30  31
HETATM   31  C13 UNL     1     -84.530 -12.134  16.510  1.00  0.00     0.053 C 
BRANCH  31  32
HETATM   32  C14 UNL     1     -85.280 -11.140  17.338  1.00  0.00     0.231 C 
BRANCH  32  33
HETATM   33  N2  UNL     1     -85.910 -10.187  16.431  1.00  0.00    -0.079 N 
ATOM     34  H23 UNL     1     -86.311  -9.385  16.916  1.00  0.00     0.274 HD
ATOM     35  H22 UNL     1     -85.236  -9.679  15.860  1.00  0.00     0.274 HD
ATOM     36  H21 UNL     1     -86.597 -10.695  15.872  1.00  0.00     0.274 HD
ENDBRANCH  32  33
ENDBRANCH  31  32
ENDBRANCH  30  31
ENDBRANCH  29  30
ENDBRANCH  12  29
BRANCH   1  37
HETATM   37  O1  UNL     1     -92.691 -14.877  11.728  1.00  0.00    -0.353 OA
HETATM   38  C1  UNL     1     -93.165 -16.054  11.119  1.00  0.00     0.210 C 
ENDBRANCH   1  37
BRANCH  23  39
HETATM   39  O4  UNL     1     -88.559 -13.796   5.649  1.00  0.00    -0.355 OA
HETATM   40  C25 UNL     1     -89.675 -12.935   5.763  1.00  0.00     0.210 C 
ENDBRANCH  23  39
TORSDOF 8
ENDMDL
MODEL 4
REMARK VINA RESULT: -8.375094905      3.171      7.290
REMARK  8 active torsions:
REMARK  status: ('A' for Active; 'I' for Inactive)
REMARK    1  A    between atoms: O1_2  and  C2_3 
REMARK    2  A    between atoms: C7_8  and  O2_9 
REMARK    3  A    between atoms: C11_16  and  O3_17 
REMARK    4  A    between atoms: O3_17  and  C12_18 
REMARK    5  A    between atoms: C12_18  and  C13_19 
REMARK    6  A    between atoms: C13_19  and  C14_20 
REMARK    7  A    between atoms: C14_20  and  N2_21 
REMARK    8  A    between atoms: C24_35  and  O4_36 
ROOT
HETATM    1  C2  UNL     1     -91.339 -14.615  11.740  1.00  0.00     0.102 A 
HETATM    2  C3  UNL     1     -90.563 -14.384  10.626  1.00  0.00     0.052 A 
HETATM    3  C4  UNL     1     -89.219 -14.008  10.718  1.00  0.00    -0.013 A 
HETATM    4  C5  UNL     1     -88.626 -13.859  11.933  1.00  0.00    -0.011 A 
HETATM    5  C6  UNL     1     -89.424 -14.096  13.066  1.00  0.00     0.050 A 
HETATM    6  C7  UNL     1     -90.748 -14.465  12.978  1.00  0.00     0.099 A 
HETATM    7  C8  UNL     1     -87.207 -13.456  11.791  1.00  0.00     0.086 A 
HETATM    8  N1  UNL     1     -87.094 -12.143  12.300  1.00  0.00    -0.398 N 
ATOM      9  H1  UNL     1     -87.795 -11.450  12.037  1.00  0.00     0.155 HD
HETATM   10  C9  UNL     1     -86.056 -11.762  13.150  1.00  0.00     0.103 C 
HETATM   11  C10 UNL     1     -84.962 -10.940  12.480  1.00  0.00     0.034 C 
HETATM   12  C11 UNL     1     -85.428 -12.807  14.012  1.00  0.00     0.143 C 
HETATM   13  C15 UNL     1     -85.132 -13.996  13.131  1.00  0.00     0.041 C 
HETATM   14  C16 UNL     1     -86.345 -14.505  12.433  1.00  0.00     0.021 C 
HETATM   15  C17 UNL     1     -85.898 -15.557  11.429  1.00  0.00     0.013 C 
HETATM   16  C18 UNL     1     -87.011 -13.390  10.323  1.00  0.00    -0.013 A 
HETATM   17  C19 UNL     1     -85.916 -13.081   9.528  1.00  0.00     0.023 A 
HETATM   18  C20 UNL     1     -86.041 -13.104   8.167  1.00  0.00    -0.020 A 
HETATM   19  C21 UNL     1     -84.974 -12.802   7.356  1.00  0.00     0.054 A 
HETATM   20  C22 UNL     1     -85.114 -12.828   5.997  1.00  0.00     0.119 A 
HETATM   21  F1  UNL     1     -84.046 -12.527   5.194  1.00  0.00    -0.206 F 
HETATM   22  C23 UNL     1     -86.302 -13.151   5.370  1.00  0.00     0.079 A 
HETATM   23  C24 UNL     1     -87.379 -13.455   6.169  1.00  0.00     0.082 A 
HETATM   24  C26 UNL     1     -87.249 -13.432   7.551  1.00  0.00     0.009 A 
HETATM   25  C27 UNL     1     -88.345 -13.740   8.313  1.00  0.00     0.028 A 
HETATM   26  C28 UNL     1     -88.186 -13.710   9.712  1.00  0.00    -0.015 A 
ENDROOT
BRANCH   6  27
HETATM   27  O2  UNL     1     -91.448 -14.678  14.167  1.00  0.00    -0.358 OA
ATOM     28  H2  UNL     1     -91.727 -15.543  14.443  1.00  0.00     0.217 HD
ENDBRANCH   6  27
BRANCH  12  29
HETATM   29  O3  UNL     1     -86.211 -13.144  15.100  1.00  0.00    -0.384 OA
BRANCH  29  30
HETATM   30  C12 UNL     1     -86.408 -12.045  15.938  1.00  0.00     0.170 C 
BRANCH  30  31
HETATM   31  C13 UNL     1     -87.420 -12.444  17.009  1.00  0.00     0.053 C 
BRANCH  31  32
HETATM   32  C14 UNL     1     -87.787 -13.871  16.761  1.00  0.00     0.231 C 
BRANCH  32  33
HETATM   33  N2  UNL     1     -89.202 -13.914  16.409  1.00  0.00    -0.079 N 
ATOM     34  H23 UNL     1     -89.566 -14.865  16.347  1.00  0.00     0.274 HD
ATOM     35  H22 UNL     1     -89.807 -13.587  17.162  1.00  0.00     0.274 HD
ATOM     36  H21 UNL     1     -89.325 -13.386  15.546  1.00  0.00     0.274 HD
ENDBRANCH  32  33
ENDBRANCH  31  32
ENDBRANCH  30  31
ENDBRANCH  29  30
ENDBRANCH  12  29
BRANCH   1  37
HETATM   37  O1  UNL     1     -92.668 -14.986  11.680  1.00  0.00    -0.353 OA
HETATM   38  C1  UNL     1     -93.156 -16.042  10.888  1.00  0.00     0.210 C 
ENDBRANCH   1  37
BRANCH  23  39
HETATM   39  O4  UNL     1     -88.581 -13.782   5.594  1.00  0.00    -0.355 OA
HETATM   40  C25 UNL     1     -89.709 -12.940   5.732  1.00  0.00     0.210 C 
ENDBRANCH  23  39
TORSDOF 8
ENDMDL
MODEL 5
REMARK VINA RESULT: -8.228146524      3.127      7.191
REMARK  8 active torsions:
REMARK  status: ('A' for Active; 'I' for Inactive)
REMARK    1  A    between atoms: O1_2  and  C2_3 
REMARK    2  A    between atoms: C7_8  and  O2_9 
REMARK    3  A    between atoms: C11_16  and  O3_17 
REMARK    4  A    between atoms: O3_17  and  C12_18 
REMARK    5  A    between atoms: C12_18  and  C13_19 
REMARK    6  A    between atoms: C13_19  and  C14_20 
REMARK    7  A    between atoms: C14_20  and  N2_21 
REMARK    8  A    between atoms: C24_35  and  O4_36 
ROOT
HETATM    1  C2  UNL     1     -84.363 -13.496   8.557  1.00  0.00     0.102 A 
HETATM    2  C3  UNL     1     -85.731 -13.657   8.591  1.00  0.00     0.052 A 
HETATM    3  C4  UNL     1     -86.469 -13.521   9.772  1.00  0.00    -0.013 A 
HETATM    4  C5  UNL     1     -85.846 -13.220  10.944  1.00  0.00    -0.011 A 
HETATM    5  C6  UNL     1     -84.450 -13.059  10.901  1.00  0.00     0.050 A 
HETATM    6  C7  UNL     1     -83.722 -13.191   9.741  1.00  0.00     0.099 A 
HETATM    7  C8  UNL     1     -86.818 -13.130  12.058  1.00  0.00     0.086 A 
HETATM    8  N1  UNL     1     -86.543 -14.199  12.939  1.00  0.00    -0.398 N 
ATOM      9  H1  UNL     1     -86.377 -15.128  12.550  1.00  0.00     0.155 HD
HETATM   10  C9  UNL     1     -86.490 -14.029  14.322  1.00  0.00     0.103 C 
HETATM   11  C10 UNL     1     -87.717 -14.536  15.068  1.00  0.00     0.034 C 
HETATM   12  C11 UNL     1     -86.111 -12.685  14.855  1.00  0.00     0.143 C 
HETATM   13  C15 UNL     1     -86.934 -11.662  14.113  1.00  0.00     0.041 C 
HETATM   14  C16 UNL     1     -86.755 -11.745  12.637  1.00  0.00     0.021 C 
HETATM   15  C17 UNL     1     -87.774 -10.818  11.991  1.00  0.00     0.013 C 
HETATM   16  C18 UNL     1     -88.120 -13.406  11.405  1.00  0.00    -0.013 A 
HETATM   17  C19 UNL     1     -89.423 -13.467  11.882  1.00  0.00     0.023 A 
HETATM   18  C20 UNL     1     -90.445 -13.751  11.020  1.00  0.00    -0.020 A 
HETATM   19  C21 UNL     1     -91.743 -13.818  11.463  1.00  0.00     0.054 A 
HETATM   20  C22 UNL     1     -92.754 -14.104  10.590  1.00  0.00     0.119 A 
HETATM   21  F1  UNL     1     -94.047 -14.168  11.038  1.00  0.00    -0.206 F 
HETATM   22  C23 UNL     1     -92.542 -14.337   9.244  1.00  0.00     0.079 A 
HETATM   23  C24 UNL     1     -91.248 -14.273   8.786  1.00  0.00     0.082 A 
HETATM   24  C26 UNL     1     -90.212 -13.984   9.664  1.00  0.00     0.009 A 
HETATM   25  C27 UNL     1     -88.936 -13.930   9.169  1.00  0.00     0.028 A 
HETATM   26  C28 UNL     1     -87.903 -13.634  10.080  1.00  0.00    -0.015 A 
ENDROOT
BRANCH   6  27
HETATM   27  O2  UNL     1     -82.339 -13.008   9.812  1.00  0.00    -0.358 OA
ATOM     28  H2  UNL     1     -81.845 -13.190  10.602  1.00  0.00     0.217 HD
ENDBRANCH   6  27
BRANCH  12  29
HETATM   29  O3  UNL     1     -84.755 -12.436  14.760  1.00  0.00    -0.384 OA
BRANCH  29  30
HETATM   30  C12 UNL     1     -84.213 -12.114  16.006  1.00  0.00     0.170 C 
BRANCH  30  31
HETATM   31  C13 UNL     1     -84.101 -10.595  16.093  1.00  0.00     0.053 C 
BRANCH  31  32
HETATM   32  C14 UNL     1     -83.077 -10.168  15.092  1.00  0.00     0.231 C 
BRANCH  32  33
HETATM   33  N2  UNL     1     -83.778  -9.772  13.876  1.00  0.00    -0.079 N 
ATOM     34  H23 UNL     1     -84.762  -9.556  14.039  1.00  0.00     0.274 HD
ATOM     35  H22 UNL     1     -83.492  -8.856  13.534  1.00  0.00     0.274 HD
ATOM     36  H21 UNL     1     -83.646 -10.511  13.185  1.00  0.00     0.274 HD
ENDBRANCH  32  33
ENDBRANCH  31  32
ENDBRANCH  30  31
ENDBRANCH  29  30
ENDBRANCH  12  29
BRANCH   1  37
HETATM   37  O1  UNL     1     -83.608 -13.624   7.408  1.00  0.00    -0.353 OA
HETATM   38  C1  UNL     1     -83.848 -12.902   6.224  1.00  0.00     0.210 C 
ENDBRANCH   1  37
BRANCH  23  39
HETATM   39  O4  UNL     1     -90.986 -14.498   7.458  1.00  0.00    -0.355 OA
HETATM   40  C25 UNL     1     -90.958 -13.433   6.529  1.00  0.00     0.210 C 
ENDBRANCH  23  39
TORSDOF 8
ENDMDL
