MODEL 1
REMARK VINA RESULT: -8.101631897      0.000      0.000
REMARK  10 active torsions:
REMARK  status: ('A' for Active; 'I' for Inactive)
REMARK    1  A    between atoms: C2_2  and  C3_3 
REMARK    2  A    between atoms: C3_3  and  O1_4 
REMARK    3  A    between atoms: O1_4  and  O2_5 
REMARK    4  A    between atoms: C4_7  and  C5_8 
REMARK    5  A    between atoms: C5_8  and  C6_9 
REMARK    6  A    between atoms: C6_9  and  C7_10 
REMARK    7  A    between atoms: C15_18  and  O3_19 
REMARK    8  A    between atoms: C18_22  and  O4_23 
REMARK    9  A    between atoms: C22_28  and  O5_29 
REMARK   10  A    between atoms: C27_35  and  O6_36 
ROOT
HETATM    1  C3  UNL     1     -88.147 -14.768  14.619  1.00  0.00     0.145 C 
HETATM    2  C4  UNL     1     -86.882 -15.332  15.127  1.00  0.00    -0.042 C 
HETATM    3  C11 UNL     1     -85.842 -15.573  14.384  1.00  0.00    -0.020 C 
HETATM    4  C12 UNL     1     -85.818 -15.300  12.910  1.00  0.00     0.040 C 
HETATM    5  C13 UNL     1     -86.682 -14.055  12.622  1.00  0.00     0.059 C 
HETATM    6  C14 UNL     1     -87.997 -14.331  13.206  1.00  0.00    -0.001 C 
HETATM    7  C15 UNL     1     -88.920 -14.121  12.268  1.00  0.00     0.062 C 
HETATM    8  C17 UNL     1     -88.333 -13.698  11.040  1.00  0.00     0.111 C 
HETATM    9  C18 UNL     1     -88.789 -14.339   9.765  1.00  0.00     0.165 C 
HETATM   10  C19 UNL     1     -87.860 -13.796   8.695  1.00  0.00    -0.021 A 
HETATM   11  C20 UNL     1     -88.328 -13.960   7.383  1.00  0.00     0.013 A 
HETATM   12  C21 UNL     1     -87.539 -13.491   6.368  1.00  0.00     0.039 A 
HETATM   13  C22 UNL     1     -86.318 -12.874   6.613  1.00  0.00     0.090 A 
HETATM   14  C24 UNL     1     -85.891 -12.729   7.911  1.00  0.00     0.074 A 
HETATM   15 CL1  UNL     1     -84.355 -11.957   8.298  1.00  0.00    -0.081 Cl
HETATM   16  C25 UNL     1     -86.662 -13.191   8.967  1.00  0.00    -0.022 A 
HETATM   17  C26 UNL     1     -86.142 -13.009  10.383  1.00  0.00     0.080 C 
HETATM   18  C27 UNL     1     -86.870 -14.059  11.150  1.00  0.00     0.082 C 
ENDROOT
BRANCH   2  19
HETATM   19  C5  UNL     1     -86.766 -15.666  16.614  1.00  0.00     0.041 C 
BRANCH  19  20
HETATM   20  C6  UNL     1     -86.543 -17.095  16.854  1.00  0.00     0.032 C 
BRANCH  20  21
HETATM   21  C7  UNL     1     -87.703 -17.985  16.892  1.00  0.00    -0.024 C 
HETATM   22  C8  UNL     1     -88.212 -18.778  16.023  1.00  0.00    -0.091 C 
HETATM   23  C9  UNL     1     -89.455 -19.553  16.456  1.00  0.00     0.042 C 
HETATM   24  C10 UNL     1     -87.748 -19.055  14.665  1.00  0.00     0.042 C 
ENDBRANCH  20  21
ENDBRANCH  19  20
ENDBRANCH   2  19
BRANCH   1  25
HETATM   25  C2  UNL     1     -88.631 -13.630  15.501  1.00  0.00     0.046 C 
HETATM   26  C1  UNL     1     -87.753 -12.425  15.422  1.00  0.00     0.009 C 
ENDBRANCH   1  25
BRANCH   1  27
HETATM   27  O1  UNL     1     -89.187 -15.719  14.662  1.00  0.00    -0.222 OA
BRANCH  27  28
HETATM   28  O2  UNL     1     -90.208 -15.283  15.356  1.00  0.00    -0.249 OA
ATOM     29  H2  UNL     1     -90.869 -15.956  15.464  1.00  0.00     0.253 HD
ENDBRANCH  27  28
ENDBRANCH   1  27
BRANCH   7  30
HETATM   30  O3  UNL     1     -90.263 -14.315  12.557  1.00  0.00    -0.359 OA
HETATM   31  C16 UNL     1     -91.298 -13.396  12.380  1.00  0.00     0.209 C 
ENDBRANCH   7  30
BRANCH  18  32
HETATM   32  O6  UNL     1     -86.563 -15.280  10.552  1.00  0.00    -0.388 OA
ATOM     33  H6  UNL     1     -87.179 -15.537   9.876  1.00  0.00     0.210 HD
ENDBRANCH  18  32
BRANCH   9  34
HETATM   34  O4  UNL     1     -88.738 -15.708   9.739  1.00  0.00    -0.390 OA
ATOM     35  H4  UNL     1     -88.459 -16.092   8.917  1.00  0.00     0.210 HD
ENDBRANCH   9  34
BRANCH  13  36
HETATM   36  O5  UNL     1     -85.522 -12.400   5.586  1.00  0.00    -0.354 OA
HETATM   37  C23 UNL     1     -84.481 -13.227   5.108  1.00  0.00     0.210 C 
ENDBRANCH  13  36
TORSDOF 10
ENDMDL
MODEL 2
REMARK VINA RESULT: -8.099856562      1.251      1.455
REMARK  10 active torsions:
REMARK  status: ('A' for Active; 'I' for Inactive)
REMARK    1  A    between atoms: C2_2  and  C3_3 
REMARK    2  A    between atoms: C3_3  and  O1_4 
REMARK    3  A    between atoms: O1_4  and  O2_5 
REMARK    4  A    between atoms: C4_7  and  C5_8 
REMARK    5  A    between atoms: C5_8  and  C6_9 
REMARK    6  A    between atoms: C6_9  and  C7_10 
REMARK    7  A    between atoms: C15_18  and  O3_19 
REMARK    8  A    between atoms: C18_22  and  O4_23 
REMARK    9  A    between atoms: C22_28  and  O5_29 
REMARK   10  A    between atoms: C27_35  and  O6_36 
ROOT
HETATM    1  C3  UNL     1     -89.263 -14.312  13.277  1.00  0.00     0.145 C 
HETATM    2  C4  UNL     1     -88.261 -15.091  14.029  1.00  0.00    -0.042 C 
HETATM    3  C11 UNL     1     -87.137 -15.509  13.526  1.00  0.00    -0.020 C 
HETATM    4  C12 UNL     1     -86.734 -15.241  12.107  1.00  0.00     0.040 C 
HETATM    5  C13 UNL     1     -87.285 -13.863  11.687  1.00  0.00     0.059 C 
HETATM    6  C14 UNL     1     -88.726 -13.905  11.952  1.00  0.00    -0.001 C 
HETATM    7  C15 UNL     1     -89.363 -13.533  10.842  1.00  0.00     0.062 C 
HETATM    8  C17 UNL     1     -88.451 -13.218   9.795  1.00  0.00     0.111 C 
HETATM    9  C18 UNL     1     -88.709 -13.765   8.424  1.00  0.00     0.165 C 
HETATM   10  C19 UNL     1     -87.483 -13.392   7.611  1.00  0.00    -0.021 A 
HETATM   11  C20 UNL     1     -87.663 -13.468   6.222  1.00  0.00     0.013 A 
HETATM   12  C21 UNL     1     -86.598 -13.143   5.428  1.00  0.00     0.039 A 
HETATM   13  C22 UNL     1     -85.377 -12.751   5.964  1.00  0.00     0.090 A 
HETATM   14  C24 UNL     1     -85.236 -12.687   7.329  1.00  0.00     0.074 A 
HETATM   15 CL1  UNL     1     -83.718 -12.198   8.079  1.00  0.00    -0.081 Cl
HETATM   16  C25 UNL     1     -86.292 -13.008   8.168  1.00  0.00    -0.022 A 
HETATM   17  C26 UNL     1     -86.082 -12.924   9.670  1.00  0.00     0.080 C 
HETATM   18  C27 UNL     1     -87.133 -13.830  10.211  1.00  0.00     0.082 C 
ENDROOT
BRANCH   2  19
HETATM   19  C5  UNL     1     -88.542 -15.443  15.489  1.00  0.00     0.041 C 
BRANCH  19  20
HETATM   20  C6  UNL     1     -87.779 -16.610  15.944  1.00  0.00     0.032 C 
BRANCH  20  21
HETATM   21  C7  UNL     1     -88.509 -17.823  16.308  1.00  0.00    -0.024 C 
HETATM   22  C8  UNL     1     -88.510 -19.010  15.824  1.00  0.00    -0.091 C 
HETATM   23  C9  UNL     1     -89.435 -20.020  16.499  1.00  0.00     0.042 C 
HETATM   24  C10 UNL     1     -87.721 -19.536  14.711  1.00  0.00     0.042 C 
ENDBRANCH  20  21
ENDBRANCH  19  20
ENDBRANCH   2  19
BRANCH   1  25
HETATM   25  C2  UNL     1     -89.732 -13.108  14.076  1.00  0.00     0.046 C 
HETATM   26  C1  UNL     1     -88.754 -11.980  14.048  1.00  0.00     0.009 C 
ENDBRANCH   1  25
BRANCH   1  27
HETATM   27  O1  UNL     1     -90.433 -15.065  13.048  1.00  0.00    -0.222 OA
BRANCH  27  28
HETATM   28  O2  UNL     1     -91.468 -14.540  13.654  1.00  0.00    -0.249 OA
ATOM     29  H2  UNL     1     -92.101 -14.201  13.032  1.00  0.00     0.253 HD
ENDBRANCH  27  28
ENDBRANCH   1  27
BRANCH   7  30
HETATM   30  O3  UNL     1     -90.749 -13.488  10.818  1.00  0.00    -0.359 OA
HETATM   31  C16 UNL     1     -91.602 -14.332  10.106  1.00  0.00     0.209 C 
ENDBRANCH   7  30
BRANCH  18  32
HETATM   32  O6  UNL     1     -86.913 -15.085   9.646  1.00  0.00    -0.388 OA
ATOM     33  H6  UNL     1     -86.154 -15.533  10.002  1.00  0.00     0.210 HD
ENDBRANCH  18  32
BRANCH   9  34
HETATM   34  O4  UNL     1     -88.888 -15.121   8.353  1.00  0.00    -0.390 OA
ATOM     35  H4  UNL     1     -89.747 -15.436   8.609  1.00  0.00     0.210 HD
ENDBRANCH   9  34
BRANCH  13  36
HETATM   36  O5  UNL     1     -84.300 -12.422   5.160  1.00  0.00    -0.354 OA
HETATM   37  C23 UNL     1     -83.421 -13.453   4.762  1.00  0.00     0.210 C 
ENDBRANCH  13  36
TORSDOF 10
ENDMDL
MODEL 3
REMARK VINA RESULT: -8.045168063      1.739      2.664
REMARK  10 active torsions:
REMARK  status: ('A' for Active; 'I' for Inactive)
REMARK    1  A    between atoms: C2_2  and  C3_3 
REMARK    2  A    between atoms: C3_3  and  O1_4 
REMARK    3  A    between atoms: O1_4  and  O2_5 
REMARK    4  A    between atoms: C4_7  and  C5_8 
REMARK    5  A    between atoms: C5_8  and  C6_9 
REMARK    6  A    between atoms: C6_9  and  C7_10 
REMARK    7  A    between atoms: C15_18  and  O3_19 
REMARK    8  A    between atoms: C18_22  and  O4_23 
REMARK    9  A    between atoms: C22_28  and  O5_29 
REMARK   10  A    between atoms: C27_35  and  O6_36 
ROOT
HETATM    1  C3  UNL     1     -89.245 -14.317  13.271  1.00  0.00     0.145 C 
HETATM    2  C4  UNL     1     -88.241 -15.101  14.014  1.00  0.00    -0.042 C 
HETATM    3  C11 UNL     1     -87.123 -15.524  13.502  1.00  0.00    -0.020 C 
HETATM    4  C12 UNL     1     -86.730 -15.256  12.081  1.00  0.00     0.040 C 
HETATM    5  C13 UNL     1     -87.278 -13.874  11.666  1.00  0.00     0.059 C 
HETATM    6  C14 UNL     1     -88.716 -13.910  11.943  1.00  0.00    -0.001 C 
HETATM    7  C15 UNL     1     -89.361 -13.534  10.839  1.00  0.00     0.062 C 
HETATM    8  C17 UNL     1     -88.455 -13.221   9.784  1.00  0.00     0.111 C 
HETATM    9  C18 UNL     1     -88.726 -13.765   8.415  1.00  0.00     0.165 C 
HETATM   10  C19 UNL     1     -87.505 -13.396   7.593  1.00  0.00    -0.021 A 
HETATM   11  C20 UNL     1     -87.696 -13.469   6.205  1.00  0.00     0.013 A 
HETATM   12  C21 UNL     1     -86.636 -13.148   5.403  1.00  0.00     0.039 A 
HETATM   13  C22 UNL     1     -85.409 -12.762   5.930  1.00  0.00     0.090 A 
HETATM   14  C24 UNL     1     -85.257 -12.701   7.294  1.00  0.00     0.074 A 
HETATM   15 CL1  UNL     1     -83.731 -12.220   8.034  1.00  0.00    -0.081 Cl
HETATM   16  C25 UNL     1     -86.308 -13.019   8.141  1.00  0.00    -0.022 A 
HETATM   17  C26 UNL     1     -86.086 -12.937   9.642  1.00  0.00     0.080 C 
HETATM   18  C27 UNL     1     -87.137 -13.840  10.189  1.00  0.00     0.082 C 
ENDROOT
BRANCH   2  19
HETATM   19  C5  UNL     1     -88.513 -15.455  15.476  1.00  0.00     0.041 C 
BRANCH  19  20
HETATM   20  C6  UNL     1     -87.332 -15.278  16.327  1.00  0.00     0.032 C 
BRANCH  20  21
HETATM   21  C7  UNL     1     -87.055 -13.949  16.871  1.00  0.00    -0.024 C 
HETATM   22  C8  UNL     1     -86.251 -13.018  16.511  1.00  0.00    -0.091 C 
HETATM   23  C9  UNL     1     -86.256 -11.749  17.359  1.00  0.00     0.042 C 
HETATM   24  C10 UNL     1     -85.333 -13.002  15.373  1.00  0.00     0.042 C 
ENDBRANCH  20  21
ENDBRANCH  19  20
ENDBRANCH   2  19
BRANCH   1  25
HETATM   25  C2  UNL     1     -89.703 -13.112  14.076  1.00  0.00     0.046 C 
HETATM   26  C1  UNL     1     -88.731 -11.979  14.023  1.00  0.00     0.009 C 
ENDBRANCH   1  25
BRANCH   1  27
HETATM   27  O1  UNL     1     -90.420 -15.064  13.050  1.00  0.00    -0.222 OA
BRANCH  27  28
HETATM   28  O2  UNL     1     -91.464 -14.490  13.595  1.00  0.00    -0.249 OA
ATOM     29  H2  UNL     1     -91.590 -14.776  14.492  1.00  0.00     0.253 HD
ENDBRANCH  27  28
ENDBRANCH   1  27
BRANCH   7  30
HETATM   30  O3  UNL     1     -90.747 -13.482  10.825  1.00  0.00    -0.359 OA
HETATM   31  C16 UNL     1     -91.605 -14.240  10.027  1.00  0.00     0.209 C 
ENDBRANCH   7  30
BRANCH  18  32
HETATM   32  O6  UNL     1     -86.927 -15.095   9.621  1.00  0.00    -0.388 OA
ATOM     33  H6  UNL     1     -86.731 -15.063   8.692  1.00  0.00     0.210 HD
ENDBRANCH  18  32
BRANCH   9  34
HETATM   34  O4  UNL     1     -88.912 -15.120   8.343  1.00  0.00    -0.390 OA
ATOM     35  H4  UNL     1     -89.576 -15.411   7.729  1.00  0.00     0.210 HD
ENDBRANCH   9  34
BRANCH  13  36
HETATM   36  O5  UNL     1     -84.337 -12.437   5.118  1.00  0.00    -0.354 OA
HETATM   37  C23 UNL     1     -83.471 -13.473   4.704  1.00  0.00     0.210 C 
ENDBRANCH  13  36
TORSDOF 10
ENDMDL
MODEL 4
REMARK VINA RESULT: -7.951037210      3.959      7.189
REMARK  10 active torsions:
REMARK  status: ('A' for Active; 'I' for Inactive)
REMARK    1  A    between atoms: C2_2  and  C3_3 
REMARK    2  A    between atoms: C3_3  and  O1_4 
REMARK    3  A    between atoms: O1_4  and  O2_5 
REMARK    4  A    between atoms: C4_7  and  C5_8 
REMARK    5  A    between atoms: C5_8  and  C6_9 
REMARK    6  A    between atoms: C6_9  and  C7_10 
REMARK    7  A    between atoms: C15_18  and  O3_19 
REMARK    8  A    between atoms: C18_22  and  O4_23 
REMARK    9  A    between atoms: C22_28  and  O5_29 
REMARK   10  A    between atoms: C27_35  and  O6_36 
ROOT
HETATM    1  C3  UNL     1     -88.893 -13.979  14.105  1.00  0.00     0.145 C 
HETATM    2  C4  UNL     1     -89.624 -13.108  13.166  1.00  0.00    -0.042 C 
HETATM    3  C11 UNL     1     -89.253 -11.902  12.852  1.00  0.00    -0.020 C 
HETATM    4  C12 UNL     1     -88.025 -11.258  13.420  1.00  0.00     0.040 C 
HETATM    5  C13 UNL     1     -86.953 -12.346  13.644  1.00  0.00     0.059 C 
HETATM    6  C14 UNL     1     -87.587 -13.373  14.475  1.00  0.00    -0.001 C 
HETATM    7  C15 UNL     1     -86.799 -13.602  15.525  1.00  0.00     0.062 C 
HETATM    8  C17 UNL     1     -85.624 -12.797  15.484  1.00  0.00     0.111 C 
HETATM    9  C18 UNL     1     -85.195 -12.083  16.730  1.00  0.00     0.165 C 
HETATM   10  C19 UNL     1     -84.039 -11.200  16.302  1.00  0.00    -0.021 A 
HETATM   11  C20 UNL     1     -83.245 -10.731  17.359  1.00  0.00     0.013 A 
HETATM   12  C21 UNL     1     -82.182  -9.929  17.045  1.00  0.00     0.039 A 
HETATM   13  C22 UNL     1     -81.889  -9.582  15.731  1.00  0.00     0.090 A 
HETATM   14  C24 UNL     1     -82.688 -10.060  14.720  1.00  0.00     0.074 A 
HETATM   15 CL1  UNL     1     -82.377  -9.663  13.031  1.00  0.00    -0.081 Cl
HETATM   16  C25 UNL     1     -83.774 -10.876  14.998  1.00  0.00    -0.022 A 
HETATM   17  C26 UNL     1     -84.627 -11.374  13.844  1.00  0.00     0.080 C 
HETATM   18  C27 UNL     1     -85.927 -11.694  14.496  1.00  0.00     0.082 C 
ENDROOT
BRANCH   2  19
HETATM   19  C5  UNL     1     -90.903 -13.633  12.513  1.00  0.00     0.041 C 
BRANCH  19  20
HETATM   20  C6  UNL     1     -91.027 -13.227  11.110  1.00  0.00     0.032 C 
BRANCH  20  21
HETATM   21  C7  UNL     1     -90.569 -14.150  10.072  1.00  0.00    -0.024 C 
HETATM   22  C8  UNL     1     -89.449 -14.277   9.463  1.00  0.00    -0.091 C 
HETATM   23  C9  UNL     1     -89.366 -15.389   8.418  1.00  0.00     0.042 C 
HETATM   24  C10 UNL     1     -88.222 -13.505   9.647  1.00  0.00     0.042 C 
ENDBRANCH  20  21
ENDBRANCH  19  20
ENDBRANCH   2  19
BRANCH   1  25
HETATM   25  C2  UNL     1     -88.711 -15.373  13.529  1.00  0.00     0.046 C 
HETATM   26  C1  UNL     1     -87.571 -15.456  12.568  1.00  0.00     0.009 C 
ENDBRANCH   1  25
BRANCH   1  27
HETATM   27  O1  UNL     1     -89.622 -14.178  15.295  1.00  0.00    -0.222 OA
BRANCH  27  28
HETATM   28  O2  UNL     1     -89.895 -15.445  15.485  1.00  0.00    -0.249 OA
ATOM     29  H2  UNL     1     -89.511 -15.767  16.291  1.00  0.00     0.253 HD
ENDBRANCH  27  28
ENDBRANCH   1  27
BRANCH   7  30
HETATM   30  O3  UNL     1     -87.168 -14.537  16.481  1.00  0.00    -0.359 OA
HETATM   31  C16 UNL     1     -86.553 -15.764  16.733  1.00  0.00     0.209 C 
ENDBRANCH   7  30
BRANCH  18  32
HETATM   32  O6  UNL     1     -86.372 -10.522  15.105  1.00  0.00    -0.388 OA
ATOM     33  H6  UNL     1     -85.730  -9.821  15.092  1.00  0.00     0.210 HD
ENDBRANCH  18  32
BRANCH   9  34
HETATM   34  O4  UNL     1     -86.151 -11.302  17.324  1.00  0.00    -0.390 OA
ATOM     35  H4  UNL     1     -86.406 -10.526  16.839  1.00  0.00     0.210 HD
ENDBRANCH   9  34
BRANCH  13  36
HETATM   36  O5  UNL     1     -80.814  -8.772  15.413  1.00  0.00    -0.354 OA
HETATM   37  C23 UNL     1     -79.955  -8.360  16.456  1.00  0.00     0.210 C 
ENDBRANCH  13  36
TORSDOF 10
ENDMDL
MODEL 5
REMARK VINA RESULT: -7.945521014      3.771      6.340
REMARK  10 active torsions:
REMARK  status: ('A' for Active; 'I' for Inactive)
REMARK    1  A    between atoms: C2_2  and  C3_3 
REMARK    2  A    between atoms: C3_3  and  O1_4 
REMARK    3  A    between atoms: O1_4  and  O2_5 
REMARK    4  A    between atoms: C4_7  and  C5_8 
REMARK    5  A    between atoms: C5_8  and  C6_9 
REMARK    6  A    between atoms: C6_9  and  C7_10 
REMARK    7  A    between atoms: C15_18  and  O3_19 
REMARK    8  A    between atoms: C18_22  and  O4_23 
REMARK    9  A    between atoms: C22_28  and  O5_29 
REMARK   10  A    between atoms: C27_35  and  O6_36 
ROOT
HETATM    1  C3  UNL     1     -89.198 -13.662  13.621  1.00  0.00     0.145 C 
HETATM    2  C4  UNL     1     -89.857 -13.136  12.411  1.00  0.00    -0.042 C 
HETATM    3  C11 UNL     1     -89.338 -12.231  11.635  1.00  0.00    -0.020 C 
HETATM    4  C12 UNL     1     -87.995 -11.616  11.891  1.00  0.00     0.040 C 
HETATM    5  C13 UNL     1     -87.078 -12.678  12.535  1.00  0.00     0.059 C 
HETATM    6  C14 UNL     1     -87.797 -13.173  13.712  1.00  0.00    -0.001 C 
HETATM    7  C15 UNL     1     -86.983 -13.084  14.763  1.00  0.00     0.062 C 
HETATM    8  C17 UNL     1     -85.711 -12.558  14.398  1.00  0.00     0.111 C 
HETATM    9  C18 UNL     1     -85.103 -11.484  15.247  1.00  0.00     0.165 C 
HETATM   10  C19 UNL     1     -83.862 -11.040  14.496  1.00  0.00    -0.021 A 
HETATM   11  C20 UNL     1     -82.942 -10.319  15.271  1.00  0.00     0.013 A 
HETATM   12  C21 UNL     1     -81.798  -9.888  14.657  1.00  0.00     0.039 A 
HETATM   13  C22 UNL     1     -81.545 -10.147  13.315  1.00  0.00     0.090 A 
HETATM   14  C24 UNL     1     -82.468 -10.856  12.585  1.00  0.00     0.074 A 
HETATM   15 CL1  UNL     1     -82.215 -11.222  10.880  1.00  0.00    -0.081 Cl
HETATM   16  C25 UNL     1     -83.640 -11.310  13.172  1.00  0.00    -0.022 A 
HETATM   17  C26 UNL     1     -84.629 -12.087  12.320  1.00  0.00     0.080 C 
HETATM   18  C27 UNL     1     -85.916 -11.910  13.048  1.00  0.00     0.082 C 
ENDROOT
BRANCH   2  19
HETATM   19  C5  UNL     1     -91.238 -13.670  12.029  1.00  0.00     0.041 C 
BRANCH  19  20
HETATM   20  C6  UNL     1     -91.439 -13.724  10.578  1.00  0.00     0.032 C 
BRANCH  20  21
HETATM   21  C7  UNL     1     -91.364 -15.023   9.911  1.00  0.00    -0.024 C 
HETATM   22  C8  UNL     1     -90.447 -15.585   9.213  1.00  0.00    -0.091 C 
HETATM   23  C9  UNL     1     -90.759 -16.980   8.677  1.00  0.00     0.042 C 
HETATM   24  C10 UNL     1     -89.122 -15.070   8.873  1.00  0.00     0.042 C 
ENDBRANCH  20  21
ENDBRANCH  19  20
ENDBRANCH   2  19
BRANCH   1  25
HETATM   25  C2  UNL     1     -89.256 -15.180  13.659  1.00  0.00     0.046 C 
HETATM   26  C1  UNL     1     -88.412 -15.816  12.604  1.00  0.00     0.009 C 
ENDBRANCH   1  25
BRANCH   1  27
HETATM   27  O1  UNL     1     -89.869 -13.251  14.791  1.00  0.00    -0.222 OA
BRANCH  27  28
HETATM   28  O2  UNL     1     -90.305 -14.277  15.480  1.00  0.00    -0.249 OA
ATOM     29  H2  UNL     1     -90.128 -14.174  16.408  1.00  0.00     0.253 HD
ENDBRANCH  27  28
ENDBRANCH   1  27
BRANCH   7  30
HETATM   30  O3  UNL     1     -87.419 -13.488  16.017  1.00  0.00    -0.359 OA
HETATM   31  C16 UNL     1     -86.983 -14.601  16.736  1.00  0.00     0.209 C 
ENDBRANCH   7  30
BRANCH  18  32
HETATM   32  O6  UNL     1     -86.147 -10.539  13.131  1.00  0.00    -0.388 OA
ATOM     33  H6  UNL     1     -85.359 -10.030  13.281  1.00  0.00     0.210 HD
ENDBRANCH  18  32
BRANCH   9  34
HETATM   34  O4  UNL     1     -85.896 -10.390  15.475  1.00  0.00    -0.390 OA
ATOM     35  H4  UNL     1     -85.517  -9.553  15.237  1.00  0.00     0.210 HD
ENDBRANCH   9  34
BRANCH  13  36
HETATM   36  O5  UNL     1     -80.388  -9.711  12.694  1.00  0.00    -0.354 OA
HETATM   37  C23 UNL     1     -79.688  -8.627  13.268  1.00  0.00     0.210 C 
ENDBRANCH  13  36
TORSDOF 10
ENDMDL
