MODEL 1
REMARK VINA RESULT: -8.382055710      0.000      0.000
REMARK  9 active torsions:
REMARK  status: ('A' for Active; 'I' for Inactive)
REMARK    1  A    between atoms: C2_2  and  C4_4 
REMARK    2  A    between atoms: C5_5  and  O1_6 
REMARK    3  A    between atoms: N1_8  and  C6_9 
REMARK    4  A    between atoms: C12_17  and  N3_18 
REMARK    5  A    between atoms: N3_18  and  C13_20 
REMARK    6  A    between atoms: C16_23  and  O2_24 
REMARK    7  A    between atoms: O2_24  and  C17_25 
REMARK    8  A    between atoms: C17_25  and  C18_26 
REMARK    9  A    between atoms: C18_26  and  N4_27 
ROOT
HETATM    1  C4  UNL     1     -89.069 -17.097   8.521  1.00  0.00     0.025 A 
HETATM    2  C5  UNL     1     -90.430 -17.191   8.196  1.00  0.00     0.152 A 
HETATM    3  N1  UNL     1     -91.079 -17.148   9.358  1.00  0.00    -0.319 N 
HETATM    4  C9  UNL     1     -90.247 -17.032  10.413  1.00  0.00     0.093 A 
HETATM    5  C10 UNL     1     -88.957 -16.999   9.892  1.00  0.00     0.073 A 
HETATM    6  N2  UNL     1     -88.128 -16.883  10.955  1.00  0.00    -0.350 N 
ATOM      7  H2  UNL     1     -87.111 -16.832  10.896  1.00  0.00     0.166 HD
HETATM    8  C11 UNL     1     -88.831 -16.842  12.098  1.00  0.00     0.089 A 
HETATM    9  C12 UNL     1     -88.483 -16.732  13.443  1.00  0.00     0.063 A 
HETATM   10  C25 UNL     1     -89.432 -16.717  14.438  1.00  0.00     0.049 A 
HETATM   11  C26 UNL     1     -90.757 -16.812  14.067  1.00  0.00     0.091 A 
HETATM   12  N5  UNL     1     -91.094 -16.919  12.758  1.00  0.00    -0.362 N 
ATOM     13  H5  UNL     1     -92.080 -16.989  12.505  1.00  0.00     0.165 HD
HETATM   14  C27 UNL     1     -90.170 -16.935  11.787  1.00  0.00     0.091 A 
ENDROOT
BRANCH   9  15
HETATM   15  N3  UNL     1     -87.235 -16.644  13.761  1.00  0.00    -0.354 N 
ATOM     16  H3  UNL     1     -86.700 -15.818  13.489  1.00  0.00     0.166 HD
BRANCH  15  17
HETATM   17  C13 UNL     1     -86.595 -17.695  14.492  1.00  0.00     0.035 A 
HETATM   18  C14 UNL     1     -86.332 -17.589  15.839  1.00  0.00     0.032 A 
HETATM   19  C15 UNL     1     -85.704 -18.629  16.531  1.00  0.00     0.042 A 
HETATM   20  C16 UNL     1     -85.324 -19.792  15.910  1.00  0.00     0.107 A 
HETATM   21  C23 UNL     1     -85.595 -19.887  14.546  1.00  0.00     0.151 A 
HETATM   22  F1  UNL     1     -85.232 -21.029  13.895  1.00  0.00    -0.203 F 
HETATM   23  C24 UNL     1     -86.211 -18.859  13.887  1.00  0.00     0.074 A 
BRANCH  20  24
HETATM   24  O2  UNL     1     -84.714 -20.826  16.522  1.00  0.00    -0.346 OA
BRANCH  24  25
HETATM   25  C17 UNL     1     -85.228 -21.855  17.272  1.00  0.00     0.206 C 
BRANCH  25  26
HETATM   26  C18 UNL     1     -86.155 -22.788  16.554  1.00  0.00     0.299 C 
BRANCH  26  27
HETATM   27  N4  UNL     1     -87.094 -23.357  17.475  1.00  0.00     0.094 N 
HETATM   28  C19 UNL     1     -88.374 -22.747  17.384  1.00  0.00     0.298 C 
HETATM   29  C20 UNL     1     -89.113 -23.137  16.113  1.00  0.00     0.198 C 
HETATM   30  O3  UNL     1     -89.136 -24.497  15.922  1.00  0.00    -0.388 OA
HETATM   31  C21 UNL     1     -87.863 -25.005  15.848  1.00  0.00     0.198 C 
HETATM   32  C22 UNL     1     -87.170 -24.793  17.184  1.00  0.00     0.298 C 
ENDBRANCH  26  27
ENDBRANCH  25  26
ENDBRANCH  24  25
ENDBRANCH  20  24
ENDBRANCH  15  17
ENDBRANCH   9  15
BRANCH   1  33
HETATM   33  C2  UNL     1     -87.976 -17.102   7.522  1.00  0.00     0.017 C 
HETATM   34  C1  UNL     1     -88.020 -15.824   6.736  1.00  0.00     0.015 C 
HETATM   35  C3  UNL     1     -86.623 -17.308   8.177  1.00  0.00     0.015 C 
ENDBRANCH   1  33
BRANCH   3  36
HETATM   36  C6  UNL     1     -92.522 -17.213   9.530  1.00  0.00     0.084 C 
HETATM   37  C7  UNL     1     -93.063 -16.008  10.261  1.00  0.00     0.032 C 
HETATM   38  C8  UNL     1     -92.893 -18.440  10.319  1.00  0.00     0.032 C 
ENDBRANCH   3  36
BRANCH   2  39
HETATM   39  O1  UNL     1     -90.975 -17.305   6.926  1.00  0.00    -0.345 OA
ATOM     40  H1  UNL     1     -90.861 -16.701   6.202  1.00  0.00     0.219 HD
ENDBRANCH   2  39
TORSDOF 9
ENDMDL
MODEL 2
REMARK VINA RESULT: -8.353407755      5.330     10.193
REMARK  9 active torsions:
REMARK  status: ('A' for Active; 'I' for Inactive)
REMARK    1  A    between atoms: C2_2  and  C4_4 
REMARK    2  A    between atoms: C5_5  and  O1_6 
REMARK    3  A    between atoms: N1_8  and  C6_9 
REMARK    4  A    between atoms: C12_17  and  N3_18 
REMARK    5  A    between atoms: N3_18  and  C13_20 
REMARK    6  A    between atoms: C16_23  and  O2_24 
REMARK    7  A    between atoms: O2_24  and  C17_25 
REMARK    8  A    between atoms: C17_25  and  C18_26 
REMARK    9  A    between atoms: C18_26  and  N4_27 
ROOT
HETATM    1  C4  UNL     1     -89.903 -15.869  12.437  1.00  0.00     0.025 A 
HETATM    2  C5  UNL     1     -91.200 -16.368  12.243  1.00  0.00     0.152 A 
HETATM    3  N1  UNL     1     -91.222 -16.835  10.997  1.00  0.00    -0.319 N 
HETATM    4  C9  UNL     1     -90.041 -16.678  10.363  1.00  0.00     0.093 A 
HETATM    5  C10 UNL     1     -89.187 -16.060  11.274  1.00  0.00     0.073 A 
HETATM    6  N2  UNL     1     -88.006 -15.908  10.633  1.00  0.00    -0.350 N 
ATOM      7  H2  UNL     1     -87.174 -15.483  11.042  1.00  0.00     0.166 HD
HETATM    8  C11 UNL     1     -88.081 -16.394   9.384  1.00  0.00     0.089 A 
HETATM    9  C12 UNL     1     -87.177 -16.486   8.327  1.00  0.00     0.063 A 
HETATM   10  C25 UNL     1     -87.529 -17.045   7.120  1.00  0.00     0.049 A 
HETATM   11  C26 UNL     1     -88.815 -17.521   6.981  1.00  0.00     0.091 A 
HETATM   12  N5  UNL     1     -89.693 -17.431   8.009  1.00  0.00    -0.362 N 
ATOM     13  H5  UNL     1     -90.641 -17.789   7.885  1.00  0.00     0.165 HD
HETATM   14  C27 UNL     1     -89.353 -16.885   9.186  1.00  0.00     0.091 A 
ENDROOT
BRANCH   9  15
HETATM   15  N3  UNL     1     -85.979 -16.032   8.487  1.00  0.00    -0.354 N 
ATOM     16  H3  UNL     1     -85.664 -15.752   9.416  1.00  0.00     0.166 HD
BRANCH  15  17
HETATM   17  C13 UNL     1     -85.089 -15.920   7.370  1.00  0.00     0.035 A 
HETATM   18  C14 UNL     1     -85.521 -15.486   6.138  1.00  0.00     0.032 A 
HETATM   19  C15 UNL     1     -84.633 -15.387   5.062  1.00  0.00     0.042 A 
HETATM   20  C16 UNL     1     -83.306 -15.713   5.181  1.00  0.00     0.107 A 
HETATM   21  C23 UNL     1     -82.881 -16.152   6.434  1.00  0.00     0.151 A 
HETATM   22  F1  UNL     1     -81.568 -16.486   6.590  1.00  0.00    -0.203 F 
HETATM   23  C24 UNL     1     -83.766 -16.242   7.474  1.00  0.00     0.074 A 
BRANCH  20  24
HETATM   24  O2  UNL     1     -82.404 -15.642   4.181  1.00  0.00    -0.346 OA
BRANCH  24  25
HETATM   25  C17 UNL     1     -81.799 -14.558   3.595  1.00  0.00     0.206 C 
BRANCH  25  26
HETATM   26  C18 UNL     1     -81.434 -13.433   4.517  1.00  0.00     0.299 C 
BRANCH  26  27
HETATM   27  N4  UNL     1     -80.267 -13.774   5.274  1.00  0.00     0.094 N 
HETATM   28  C19 UNL     1     -79.087 -13.193   4.736  1.00  0.00     0.298 C 
HETATM   29  C20 UNL     1     -79.022 -11.692   4.973  1.00  0.00     0.198 C 
HETATM   30  O3  UNL     1     -79.248 -11.363   6.288  1.00  0.00    -0.388 OA
HETATM   31  C21 UNL     1     -80.480 -11.806   6.700  1.00  0.00     0.198 C 
HETATM   32  C22 UNL     1     -80.498 -13.325   6.651  1.00  0.00     0.298 C 
ENDBRANCH  26  27
ENDBRANCH  25  26
ENDBRANCH  24  25
ENDBRANCH  20  24
ENDBRANCH  15  17
ENDBRANCH   9  15
BRANCH   1  33
HETATM   33  C2  UNL     1     -89.432 -15.253  13.698  1.00  0.00     0.017 C 
HETATM   34  C1  UNL     1     -88.652 -16.269  14.482  1.00  0.00     0.015 C 
HETATM   35  C3  UNL     1     -88.613 -14.002  13.436  1.00  0.00     0.015 C 
ENDBRANCH   1  33
BRANCH   3  36
HETATM   36  C6  UNL     1     -92.361 -17.452  10.339  1.00  0.00     0.084 C 
HETATM   37  C7  UNL     1     -93.546 -16.520  10.257  1.00  0.00     0.032 C 
HETATM   38  C8  UNL     1     -92.790 -18.682  11.095  1.00  0.00     0.032 C 
ENDBRANCH   3  36
BRANCH   2  39
HETATM   39  O1  UNL     1     -92.235 -16.371  13.166  1.00  0.00    -0.345 OA
ATOM     40  H1  UNL     1     -93.159 -16.492  12.983  1.00  0.00     0.219 HD
ENDBRANCH   2  39
TORSDOF 9
ENDMDL
MODEL 3
REMARK VINA RESULT: -8.202421941      5.510     10.213
REMARK  9 active torsions:
REMARK  status: ('A' for Active; 'I' for Inactive)
REMARK    1  A    between atoms: C2_2  and  C4_4 
REMARK    2  A    between atoms: C5_5  and  O1_6 
REMARK    3  A    between atoms: N1_8  and  C6_9 
REMARK    4  A    between atoms: C12_17  and  N3_18 
REMARK    5  A    between atoms: N3_18  and  C13_20 
REMARK    6  A    between atoms: C16_23  and  O2_24 
REMARK    7  A    between atoms: O2_24  and  C17_25 
REMARK    8  A    between atoms: C17_25  and  C18_26 
REMARK    9  A    between atoms: C18_26  and  N4_27 
ROOT
HETATM    1  C4  UNL     1     -90.009 -15.849  12.371  1.00  0.00     0.025 A 
HETATM    2  C5  UNL     1     -91.262 -16.404  12.073  1.00  0.00     0.152 A 
HETATM    3  N1  UNL     1     -91.158 -16.881  10.834  1.00  0.00    -0.319 N 
HETATM    4  C9  UNL     1     -89.934 -16.680  10.303  1.00  0.00     0.093 A 
HETATM    5  C10 UNL     1     -89.188 -16.020  11.276  1.00  0.00     0.073 A 
HETATM    6  N2  UNL     1     -87.964 -15.823  10.737  1.00  0.00    -0.350 N 
ATOM      7  H2  UNL     1     -87.188 -15.360  11.210  1.00  0.00     0.166 HD
HETATM    8  C11 UNL     1     -87.911 -16.321   9.491  1.00  0.00     0.089 A 
HETATM    9  C12 UNL     1     -86.917 -16.383   8.516  1.00  0.00     0.063 A 
HETATM   10  C25 UNL     1     -87.140 -16.967   7.291  1.00  0.00     0.049 A 
HETATM   11  C26 UNL     1     -88.389 -17.498   7.047  1.00  0.00     0.091 A 
HETATM   12  N5  UNL     1     -89.355 -17.436   7.996  1.00  0.00    -0.362 N 
ATOM     13  H5  UNL     1     -90.273 -17.834   7.795  1.00  0.00     0.165 HD
HETATM   14  C27 UNL     1     -89.140 -16.867   9.191  1.00  0.00     0.091 A 
ENDROOT
BRANCH   9  15
HETATM   15  N3  UNL     1     -85.757 -15.879   8.773  1.00  0.00    -0.354 N 
ATOM     16  H3  UNL     1     -85.555 -15.524   9.708  1.00  0.00     0.166 HD
BRANCH  15  17
HETATM   17  C13 UNL     1     -84.751 -15.815   7.755  1.00  0.00     0.035 A 
HETATM   18  C14 UNL     1     -83.412 -15.940   8.047  1.00  0.00     0.032 A 
HETATM   19  C15 UNL     1     -82.449 -15.872   7.036  1.00  0.00     0.042 A 
HETATM   20  C16 UNL     1     -82.786 -15.680   5.721  1.00  0.00     0.107 A 
HETATM   21  C23 UNL     1     -84.146 -15.553   5.438  1.00  0.00     0.151 A 
HETATM   22  F1  UNL     1     -84.519 -15.360   4.140  1.00  0.00    -0.203 F 
HETATM   23  C24 UNL     1     -85.072 -15.623   6.441  1.00  0.00     0.074 A 
BRANCH  20  24
HETATM   24  O2  UNL     1     -81.905 -15.602   4.704  1.00  0.00    -0.346 OA
BRANCH  24  25
HETATM   25  C17 UNL     1     -81.362 -14.512   4.068  1.00  0.00     0.206 C 
BRANCH  25  26
HETATM   26  C18 UNL     1     -81.300 -13.249   4.872  1.00  0.00     0.299 C 
BRANCH  26  27
HETATM   27  N4  UNL     1     -80.023 -13.131   5.510  1.00  0.00     0.094 N 
HETATM   28  C19 UNL     1     -79.207 -12.139   4.901  1.00  0.00     0.298 C 
HETATM   29  C20 UNL     1     -79.688 -10.728   5.203  1.00  0.00     0.198 C 
HETATM   30  O3  UNL     1     -79.893 -10.526   6.547  1.00  0.00    -0.388 OA
HETATM   31  C21 UNL     1     -80.820 -11.407   7.042  1.00  0.00     0.198 C 
HETATM   32  C22 UNL     1     -80.271 -12.819   6.921  1.00  0.00     0.298 C 
ENDBRANCH  26  27
ENDBRANCH  25  26
ENDBRANCH  24  25
ENDBRANCH  20  24
ENDBRANCH  15  17
ENDBRANCH   9  15
BRANCH   1  33
HETATM   33  C2  UNL     1     -89.673 -15.204  13.660  1.00  0.00     0.017 C 
HETATM   34  C1  UNL     1     -89.131 -16.239  14.604  1.00  0.00     0.015 C 
HETATM   35  C3  UNL     1     -88.699 -14.055  13.473  1.00  0.00     0.015 C 
ENDBRANCH   1  33
BRANCH   3  36
HETATM   36  C6  UNL     1     -92.210 -17.551  10.089  1.00  0.00     0.084 C 
HETATM   37  C7  UNL     1     -93.487 -16.746  10.058  1.00  0.00     0.032 C 
HETATM   38  C8  UNL     1     -92.518 -18.885  10.715  1.00  0.00     0.032 C 
ENDBRANCH   3  36
BRANCH   2  39
HETATM   39  O1  UNL     1     -92.372 -16.443  12.904  1.00  0.00    -0.345 OA
ATOM     40  H1  UNL     1     -92.725 -17.206  13.346  1.00  0.00     0.219 HD
ENDBRANCH   2  39
TORSDOF 9
ENDMDL
MODEL 4
REMARK VINA RESULT: -8.146773369      3.230      5.223
REMARK  9 active torsions:
REMARK  status: ('A' for Active; 'I' for Inactive)
REMARK    1  A    between atoms: C2_2  and  C4_4 
REMARK    2  A    between atoms: C5_5  and  O1_6 
REMARK    3  A    between atoms: N1_8  and  C6_9 
REMARK    4  A    between atoms: C12_17  and  N3_18 
REMARK    5  A    between atoms: N3_18  and  C13_20 
REMARK    6  A    between atoms: C16_23  and  O2_24 
REMARK    7  A    between atoms: O2_24  and  C17_25 
REMARK    8  A    between atoms: C17_25  and  C18_26 
REMARK    9  A    between atoms: C18_26  and  N4_27 
ROOT
HETATM    1  C4  UNL     1     -85.825 -16.013   7.339  1.00  0.00     0.025 A 
HETATM    2  C5  UNL     1     -84.502 -15.860   6.899  1.00  0.00     0.152 A 
HETATM    3  N1  UNL     1     -83.793 -15.570   7.988  1.00  0.00    -0.319 N 
HETATM    4  C9  UNL     1     -84.552 -15.523   9.103  1.00  0.00     0.093 A 
HETATM    5  C10 UNL     1     -85.855 -15.805   8.701  1.00  0.00     0.073 A 
HETATM    6  N2  UNL     1     -86.609 -15.757   9.823  1.00  0.00    -0.350 N 
ATOM      7  H2  UNL     1     -87.615 -15.921   9.855  1.00  0.00     0.166 HD
HETATM    8  C11 UNL     1     -85.849 -15.462  10.890  1.00  0.00     0.089 A 
HETATM    9  C12 UNL     1     -86.113 -15.294  12.248  1.00  0.00     0.063 A 
HETATM   10  C25 UNL     1     -85.118 -14.985  13.146  1.00  0.00     0.049 A 
HETATM   11  C26 UNL     1     -83.834 -14.845  12.663  1.00  0.00     0.091 A 
HETATM   12  N5  UNL     1     -83.578 -15.008  11.342  1.00  0.00    -0.362 N 
ATOM     13  H5  UNL     1     -82.622 -14.899  11.005  1.00  0.00     0.165 HD
HETATM   14  C27 UNL     1     -84.547 -15.308  10.465  1.00  0.00     0.091 A 
ENDROOT
BRANCH   9  15
HETATM   15  N3  UNL     1     -87.324 -15.433  12.671  1.00  0.00    -0.354 N 
ATOM     16  H3  UNL     1     -88.031 -14.742  12.419  1.00  0.00     0.166 HD
BRANCH  15  17
HETATM   17  C13 UNL     1     -87.683 -16.550  13.493  1.00  0.00     0.035 A 
HETATM   18  C14 UNL     1     -87.641 -17.842  13.022  1.00  0.00     0.032 A 
HETATM   19  C15 UNL     1     -87.998 -18.916  13.844  1.00  0.00     0.042 A 
HETATM   20  C16 UNL     1     -88.403 -18.737  15.141  1.00  0.00     0.107 A 
HETATM   21  C23 UNL     1     -88.442 -17.423  15.607  1.00  0.00     0.151 A 
HETATM   22  F1  UNL     1     -88.840 -17.206  16.893  1.00  0.00    -0.203 F 
HETATM   23  C24 UNL     1     -88.088 -16.386  14.788  1.00  0.00     0.074 A 
BRANCH  20  24
HETATM   24  O2  UNL     1     -88.762 -19.730  15.979  1.00  0.00    -0.346 OA
BRANCH  24  25
HETATM   25  C17 UNL     1     -88.057 -20.815  16.438  1.00  0.00     0.206 C 
BRANCH  25  26
HETATM   26  C18 UNL     1     -88.442 -22.141  15.855  1.00  0.00     0.299 C 
BRANCH  26  27
HETATM   27  N4  UNL     1     -87.327 -22.724  15.173  1.00  0.00     0.094 N 
HETATM   28  C19 UNL     1     -86.182 -22.836  16.010  1.00  0.00     0.298 C 
HETATM   29  C20 UNL     1     -86.338 -23.924  17.061  1.00  0.00     0.198 C 
HETATM   30  O3  UNL     1     -86.741 -25.119  16.515  1.00  0.00    -0.388 OA
HETATM   31  C21 UNL     1     -87.941 -24.983  15.863  1.00  0.00     0.198 C 
HETATM   32  C22 UNL     1     -87.756 -24.039  14.686  1.00  0.00     0.298 C 
ENDBRANCH  26  27
ENDBRANCH  25  26
ENDBRANCH  24  25
ENDBRANCH  20  24
ENDBRANCH  15  17
ENDBRANCH   9  15
BRANCH   1  33
HETATM   33  C2  UNL     1     -86.960 -16.348   6.450  1.00  0.00     0.017 C 
HETATM   34  C1  UNL     1     -87.904 -17.261   7.177  1.00  0.00     0.015 C 
HETATM   35  C3  UNL     1     -87.665 -15.100   5.951  1.00  0.00     0.015 C 
ENDBRANCH   1  33
BRANCH   3  36
HETATM   36  C6  UNL     1     -82.362 -15.322   8.031  1.00  0.00     0.084 C 
HETATM   37  C7  UNL     1     -82.023 -13.887   7.705  1.00  0.00     0.032 C 
HETATM   38  C8  UNL     1     -81.654 -16.203   7.036  1.00  0.00     0.032 C 
ENDBRANCH   3  36
BRANCH   2  39
HETATM   39  O1  UNL     1     -84.039 -15.987   5.597  1.00  0.00    -0.345 OA
ATOM     40  H1  UNL     1     -83.134 -16.074   5.321  1.00  0.00     0.219 HD
ENDBRANCH   2  39
TORSDOF 9
ENDMDL
MODEL 5
REMARK VINA RESULT: -8.130877145      2.081      3.793
REMARK  9 active torsions:
REMARK  status: ('A' for Active; 'I' for Inactive)
REMARK    1  A    between atoms: C2_2  and  C4_4 
REMARK    2  A    between atoms: C5_5  and  O1_6 
REMARK    3  A    between atoms: N1_8  and  C6_9 
REMARK    4  A    between atoms: C12_17  and  N3_18 
REMARK    5  A    between atoms: N3_18  and  C13_20 
REMARK    6  A    between atoms: C16_23  and  O2_24 
REMARK    7  A    between atoms: O2_24  and  C17_25 
REMARK    8  A    between atoms: C17_25  and  C18_26 
REMARK    9  A    between atoms: C18_26  and  N4_27 
ROOT
HETATM    1  C4  UNL     1     -88.669 -17.261   8.943  1.00  0.00     0.025 A 
HETATM    2  C5  UNL     1     -87.837 -16.940   7.861  1.00  0.00     0.152 A 
HETATM    3  N1  UNL     1     -86.867 -16.182   8.368  1.00  0.00    -0.319 N 
HETATM    4  C9  UNL     1     -87.002 -15.986   9.696  1.00  0.00     0.093 A 
HETATM    5  C10 UNL     1     -88.153 -16.671  10.077  1.00  0.00     0.073 A 
HETATM    6  N2  UNL     1     -88.282 -16.471  11.408  1.00  0.00    -0.350 N 
ATOM      7  H2  UNL     1     -89.034 -16.850  11.982  1.00  0.00     0.166 HD
HETATM    8  C11 UNL     1     -87.281 -15.704  11.869  1.00  0.00     0.089 A 
HETATM    9  C12 UNL     1     -86.943 -15.208  13.127  1.00  0.00     0.063 A 
HETATM   10  C25 UNL     1     -85.831 -14.423  13.321  1.00  0.00     0.049 A 
HETATM   11  C26 UNL     1     -85.045 -14.135  12.225  1.00  0.00     0.091 A 
HETATM   12  N5  UNL     1     -85.375 -14.617  11.002  1.00  0.00    -0.362 N 
ATOM     13  H5  UNL     1     -84.780 -14.392  10.204  1.00  0.00     0.165 HD
HETATM   14  C27 UNL     1     -86.459 -15.383  10.811  1.00  0.00     0.091 A 
ENDROOT
BRANCH   9  15
HETATM   15  N3  UNL     1     -87.697 -15.495  14.135  1.00  0.00    -0.354 N 
ATOM     16  H3  UNL     1     -88.424 -14.841  14.426  1.00  0.00     0.166 HD
BRANCH  15  17
HETATM   17  C13 UNL     1     -87.521 -16.725  14.847  1.00  0.00     0.035 A 
HETATM   18  C14 UNL     1     -88.519 -17.669  14.926  1.00  0.00     0.032 A 
HETATM   19  C15 UNL     1     -88.323 -18.862  15.629  1.00  0.00     0.042 A 
HETATM   20  C16 UNL     1     -87.142 -19.147  16.265  1.00  0.00     0.107 A 
HETATM   21  C23 UNL     1     -86.139 -18.182  16.178  1.00  0.00     0.151 A 
HETATM   22  F1  UNL     1     -84.950 -18.431  16.799  1.00  0.00    -0.203 F 
HETATM   23  C24 UNL     1     -86.350 -17.022  15.485  1.00  0.00     0.074 A 
BRANCH  20  24
HETATM   24  O2  UNL     1     -86.895 -20.275  16.960  1.00  0.00    -0.346 OA
BRANCH  24  25
HETATM   25  C17 UNL     1     -87.746 -21.249  17.420  1.00  0.00     0.206 C 
BRANCH  25  26
HETATM   26  C18 UNL     1     -88.210 -22.248  16.404  1.00  0.00     0.299 C 
BRANCH  26  27
HETATM   27  N4  UNL     1     -87.112 -23.061  15.974  1.00  0.00     0.094 N 
HETATM   28  C19 UNL     1     -86.555 -23.820  17.040  1.00  0.00     0.298 C 
HETATM   29  C20 UNL     1     -87.463 -24.960  17.475  1.00  0.00     0.198 C 
HETATM   30  O3  UNL     1     -87.881 -25.726  16.414  1.00  0.00    -0.388 OA
HETATM   31  C21 UNL     1     -88.563 -24.965  15.497  1.00  0.00     0.198 C 
HETATM   32  C22 UNL     1     -87.613 -23.935  14.908  1.00  0.00     0.298 C 
ENDBRANCH  26  27
ENDBRANCH  25  26
ENDBRANCH  24  25
ENDBRANCH  20  24
ENDBRANCH  15  17
ENDBRANCH   9  15
BRANCH   1  33
HETATM   33  C2  UNL     1     -89.884 -18.101   8.833  1.00  0.00     0.017 C 
HETATM   34  C1  UNL     1     -89.920 -19.068   9.981  1.00  0.00     0.015 C 
HETATM   35  C3  UNL     1     -91.143 -17.255   8.776  1.00  0.00     0.015 C 
ENDBRANCH   1  33
BRANCH   3  36
HETATM   36  C6  UNL     1     -85.760 -15.604   7.622  1.00  0.00     0.084 C 
HETATM   37  C7  UNL     1     -86.083 -15.446   6.155  1.00  0.00     0.032 C 
HETATM   38  C8  UNL     1     -84.544 -16.483   7.738  1.00  0.00     0.032 C 
ENDBRANCH   3  36
BRANCH   2  39
HETATM   39  O1  UNL     1     -88.000 -17.334   6.541  1.00  0.00    -0.345 OA
ATOM     40  H1  UNL     1     -87.685 -18.138   6.145  1.00  0.00     0.219 HD
ENDBRANCH   2  39
TORSDOF 9
ENDMDL
