MODEL 1
REMARK VINA RESULT: -7.596277133      0.000      0.000
REMARK  8 active torsions:
REMARK  status: ('A' for Active; 'I' for Inactive)
REMARK    1  A    between atoms: O1_1  and  C1_3 
REMARK    2  A    between atoms: N3_12  and  C5_13 
REMARK    3  A    between atoms: C5_13  and  C6_14 
REMARK    4  A    between atoms: C10_19  and  O2_20 
REMARK    5  A    between atoms: O2_20  and  C11_21 
REMARK    6  A    between atoms: C11_21  and  C12_22 
REMARK    7  A    between atoms: C14_25  and  C15_26 
REMARK    8  A    between atoms: C15_26  and  N4_27 
ROOT
HETATM    1  C1  UNL     1     -85.998 -22.025  14.902  1.00  0.00     0.152 A 
HETATM    2  N1  UNL     1     -85.946 -20.792  14.316  1.00  0.00    -0.321 N 
ATOM      3  H1  UNL     1     -85.532 -20.599  13.404  1.00  0.00     0.169 HD
HETATM    4  C2  UNL     1     -86.510 -19.885  15.099  1.00  0.00     0.140 A 
HETATM    5  C3  UNL     1     -86.941 -20.540  16.220  1.00  0.00     0.091 A 
HETATM    6  N2  UNL     1     -87.525 -19.609  16.983  1.00  0.00    -0.329 N 
ATOM      7  H2  UNL     1     -87.955 -19.766  17.894  1.00  0.00     0.168 HD
HETATM    8  C4  UNL     1     -87.446 -18.413  16.333  1.00  0.00     0.180 A 
HETATM    9  S1  UNL     1     -88.060 -17.036  16.939  1.00  0.00    -0.040 SA
HETATM   10  N3  UNL     1     -86.820 -18.570  15.163  1.00  0.00    -0.304 N 
HETATM   11  C14 UNL     1     -86.618 -21.911  16.106  1.00  0.00     0.051 A 
ENDROOT
BRANCH  10  12
HETATM   12  C5  UNL     1     -86.490 -17.570  14.171  1.00  0.00     0.171 C 
BRANCH  12  13
HETATM   13  C6  UNL     1     -87.290 -17.687  12.934  1.00  0.00    -0.037 A 
HETATM   14  C7  UNL     1     -86.706 -17.808  11.733  1.00  0.00     0.010 A 
HETATM   15  C8  UNL     1     -87.466 -17.936  10.554  1.00  0.00     0.023 A 
HETATM   16  C9  UNL     1     -88.824 -17.936  10.659  1.00  0.00     0.045 A 
HETATM   17  S2  UNL     1     -89.827 -18.071   9.150  1.00  0.00    -0.050 SA
HETATM   18  C10 UNL     1     -89.484 -17.813  11.901  1.00  0.00     0.086 A 
HETATM   19  C13 UNL     1     -88.681 -17.690  13.020  1.00  0.00     0.047 A 
BRANCH  18  20
HETATM   20  O2  UNL     1     -90.847 -17.835  11.878  1.00  0.00    -0.349 OA
BRANCH  20  21
HETATM   21  C11 UNL     1     -91.742 -16.815  12.068  1.00  0.00     0.186 C 
BRANCH  21  22
HETATM   22  C12 UNL     1     -92.990 -17.000  11.264  1.00  0.00     0.112 C 
HETATM   23 BR1  UNL     1     -93.280 -18.914  10.997  1.00  0.00    -0.094 Br
ENDBRANCH  21  22
ENDBRANCH  20  21
ENDBRANCH  18  20
ENDBRANCH  12  13
ENDBRANCH  10  12
BRANCH   1  24
HETATM   24  O1  UNL     1     -85.494 -23.177  14.341  1.00  0.00    -0.346 OA
ATOM     25  H1  UNL     1     -84.720 -23.633  14.653  1.00  0.00     0.219 HD
ENDBRANCH   1  24
BRANCH  11  26
HETATM   26  C15 UNL     1     -87.002 -22.938  17.130  1.00  0.00     0.317 C 
BRANCH  26  27
HETATM   27  N4  UNL     1     -88.099 -23.738  16.585  1.00  0.00     0.092 N 
HETATM   28  C16 UNL     1     -87.772 -25.162  16.791  1.00  0.00     0.272 C 
HETATM   29  C17 UNL     1     -89.064 -25.924  16.752  1.00  0.00     0.030 C 
HETATM   30  C18 UNL     1     -90.141 -25.234  15.952  1.00  0.00     0.003 C 
HETATM   31  C19 UNL     1     -90.489 -23.947  16.710  1.00  0.00     0.030 C 
HETATM   32  C20 UNL     1     -89.288 -23.496  17.462  1.00  0.00     0.272 C 
ENDBRANCH  26  27
ENDBRANCH  11  26
TORSDOF 8
ENDMDL
MODEL 2
REMARK VINA RESULT: -7.313324234      2.999      7.095
REMARK  8 active torsions:
REMARK  status: ('A' for Active; 'I' for Inactive)
REMARK    1  A    between atoms: O1_1  and  C1_3 
REMARK    2  A    between atoms: N3_12  and  C5_13 
REMARK    3  A    between atoms: C5_13  and  C6_14 
REMARK    4  A    between atoms: C10_19  and  O2_20 
REMARK    5  A    between atoms: O2_20  and  C11_21 
REMARK    6  A    between atoms: C11_21  and  C12_22 
REMARK    7  A    between atoms: C14_25  and  C15_26 
REMARK    8  A    between atoms: C15_26  and  N4_27 
ROOT
HETATM    1  C1  UNL     1     -90.188 -17.365  14.661  1.00  0.00     0.152 A 
HETATM    2  N1  UNL     1     -89.073 -17.995  15.133  1.00  0.00    -0.321 N 
ATOM      3  H1  UNL     1     -89.001 -18.448  16.044  1.00  0.00     0.169 HD
HETATM    4  C2  UNL     1     -88.097 -17.936  14.239  1.00  0.00     0.140 A 
HETATM    5  C3  UNL     1     -88.588 -17.254  13.160  1.00  0.00     0.091 A 
HETATM    6  N2  UNL     1     -87.594 -17.226  12.265  1.00  0.00    -0.329 N 
ATOM      7  H2  UNL     1     -87.631 -16.791  11.343  1.00  0.00     0.168 HD
HETATM    8  C4  UNL     1     -86.522 -17.881  12.795  1.00  0.00     0.180 A 
HETATM    9  S1  UNL     1     -85.119 -18.072  11.998  1.00  0.00    -0.040 SA
HETATM   10  N3  UNL     1     -86.821 -18.327  14.019  1.00  0.00    -0.304 N 
HETATM   11  C14 UNL     1     -89.926 -16.881  13.419  1.00  0.00     0.051 A 
ENDROOT
BRANCH  10  12
HETATM   12  C5  UNL     1     -85.978 -19.042  14.953  1.00  0.00     0.171 C 
BRANCH  12  13
HETATM   13  C6  UNL     1     -86.370 -20.455  15.131  1.00  0.00    -0.037 A 
HETATM   14  C7  UNL     1     -85.735 -21.443  14.483  1.00  0.00     0.010 A 
HETATM   15  C8  UNL     1     -86.095 -22.792  14.662  1.00  0.00     0.023 A 
HETATM   16  C9  UNL     1     -87.114 -23.080  15.520  1.00  0.00     0.045 A 
HETATM   17  S2  UNL     1     -87.616 -24.810  15.748  1.00  0.00    -0.050 SA
HETATM   18  C10 UNL     1     -87.810 -22.074  16.226  1.00  0.00     0.086 A 
HETATM   19  C13 UNL     1     -87.409 -20.770  16.005  1.00  0.00     0.047 A 
BRANCH  18  20
HETATM   20  O2  UNL     1     -88.805 -22.488  17.062  1.00  0.00    -0.349 OA
BRANCH  20  21
HETATM   21  C11 UNL     1     -90.141 -22.186  17.048  1.00  0.00     0.186 C 
BRANCH  21  22
HETATM   22  C12 UNL     1     -90.988 -23.379  16.735  1.00  0.00     0.112 C 
HETATM   23 BR1  UNL     1     -92.847 -22.797  16.573  1.00  0.00    -0.094 Br
ENDBRANCH  21  22
ENDBRANCH  20  21
ENDBRANCH  18  20
ENDBRANCH  12  13
ENDBRANCH  10  12
BRANCH   1  24
HETATM   24  O1  UNL     1     -91.372 -17.251  15.356  1.00  0.00    -0.346 OA
ATOM     25  H1  UNL     1     -91.962 -17.975  15.534  1.00  0.00     0.219 HD
ENDBRANCH   1  24
BRANCH  11  26
HETATM   26  C15 UNL     1     -90.795 -16.172  12.421  1.00  0.00     0.317 C 
BRANCH  26  27
HETATM   27  N4  UNL     1     -91.724 -17.148  11.851  1.00  0.00     0.092 N 
HETATM   28  C16 UNL     1     -92.918 -16.419  11.381  1.00  0.00     0.272 C 
HETATM   29  C17 UNL     1     -93.586 -17.280  10.350  1.00  0.00     0.030 C 
HETATM   30  C18 UNL     1     -93.293 -18.750  10.518  1.00  0.00     0.003 C 
HETATM   31  C19 UNL     1     -91.795 -18.931  10.244  1.00  0.00     0.030 C 
HETATM   32  C20 UNL     1     -91.089 -17.672  10.602  1.00  0.00     0.272 C 
ENDBRANCH  26  27
ENDBRANCH  11  26
TORSDOF 8
ENDMDL
MODEL 3
REMARK VINA RESULT: -7.306401483      2.111      2.881
REMARK  8 active torsions:
REMARK  status: ('A' for Active; 'I' for Inactive)
REMARK    1  A    between atoms: O1_1  and  C1_3 
REMARK    2  A    between atoms: N3_12  and  C5_13 
REMARK    3  A    between atoms: C5_13  and  C6_14 
REMARK    4  A    between atoms: C10_19  and  O2_20 
REMARK    5  A    between atoms: O2_20  and  C11_21 
REMARK    6  A    between atoms: C11_21  and  C12_22 
REMARK    7  A    between atoms: C14_25  and  C15_26 
REMARK    8  A    between atoms: C15_26  and  N4_27 
ROOT
HETATM    1  C1  UNL     1     -86.076 -22.159  14.901  1.00  0.00     0.152 A 
HETATM    2  N1  UNL     1     -85.904 -21.042  14.134  1.00  0.00    -0.321 N 
ATOM      3  H1  UNL     1     -85.401 -21.017  13.247  1.00  0.00     0.169 HD
HETATM    4  C2  UNL     1     -86.482 -19.996  14.705  1.00  0.00     0.140 A 
HETATM    5  C3  UNL     1     -87.046 -20.441  15.870  1.00  0.00     0.091 A 
HETATM    6  N2  UNL     1     -87.641 -19.374  16.416  1.00  0.00    -0.329 N 
ATOM      7  H2  UNL     1     -88.157 -19.363  17.295  1.00  0.00     0.168 HD
HETATM    8  C4  UNL     1     -87.439 -18.305  15.594  1.00  0.00     0.180 A 
HETATM    9  S1  UNL     1     -88.025 -16.823  15.912  1.00  0.00    -0.040 SA
HETATM   10  N3  UNL     1     -86.722 -18.677  14.530  1.00  0.00    -0.304 N 
HETATM   11  C14 UNL     1     -86.792 -21.824  16.007  1.00  0.00     0.051 A 
ENDROOT
BRANCH  10  12
HETATM   12  C5  UNL     1     -86.251 -17.867  13.427  1.00  0.00     0.171 C 
BRANCH  12  13
HETATM   13  C6  UNL     1     -87.141 -17.909  12.249  1.00  0.00    -0.037 A 
HETATM   14  C7  UNL     1     -88.414 -18.320  12.349  1.00  0.00     0.010 A 
HETATM   15  C8  UNL     1     -89.270 -18.346  11.231  1.00  0.00     0.023 A 
HETATM   16  C9  UNL     1     -88.774 -17.939  10.029  1.00  0.00     0.045 A 
HETATM   17  S2  UNL     1     -89.849 -17.990   8.566  1.00  0.00    -0.050 SA
HETATM   18  C10 UNL     1     -87.442 -17.496   9.875  1.00  0.00     0.086 A 
HETATM   19  C13 UNL     1     -86.653 -17.495  11.010  1.00  0.00     0.047 A 
BRANCH  18  20
HETATM   20  O2  UNL     1     -87.065 -17.106   8.624  1.00  0.00    -0.349 OA
BRANCH  20  21
HETATM   21  C11 UNL     1     -85.830 -16.743   8.155  1.00  0.00     0.186 C 
BRANCH  21  22
HETATM   22  C12 UNL     1     -85.916 -15.711   7.075  1.00  0.00     0.112 C 
HETATM   23 BR1  UNL     1     -87.516 -16.058   6.008  1.00  0.00    -0.094 Br
ENDBRANCH  21  22
ENDBRANCH  20  21
ENDBRANCH  18  20
ENDBRANCH  12  13
ENDBRANCH  10  12
BRANCH   1  24
HETATM   24  O1  UNL     1     -85.590 -23.407  14.581  1.00  0.00    -0.346 OA
ATOM     25  H1  UNL     1     -84.710 -23.707  14.775  1.00  0.00     0.219 HD
ENDBRANCH   1  24
BRANCH  11  26
HETATM   26  C15 UNL     1     -87.321 -22.654  17.140  1.00  0.00     0.317 C 
BRANCH  26  27
HETATM   27  N4  UNL     1     -88.289 -23.605  16.595  1.00  0.00     0.092 N 
HETATM   28  C16 UNL     1     -87.786 -24.968  16.855  1.00  0.00     0.272 C 
HETATM   29  C17 UNL     1     -88.965 -25.894  16.810  1.00  0.00     0.030 C 
HETATM   30  C18 UNL     1     -90.100 -25.373  15.963  1.00  0.00     0.003 C 
HETATM   31  C19 UNL     1     -90.634 -24.122  16.670  1.00  0.00     0.030 C 
HETATM   32  C20 UNL     1     -89.523 -23.496  17.435  1.00  0.00     0.272 C 
ENDBRANCH  26  27
ENDBRANCH  11  26
TORSDOF 8
ENDMDL
MODEL 4
REMARK VINA RESULT: -7.168907428      2.408      3.318
REMARK  8 active torsions:
REMARK  status: ('A' for Active; 'I' for Inactive)
REMARK    1  A    between atoms: O1_1  and  C1_3 
REMARK    2  A    between atoms: N3_12  and  C5_13 
REMARK    3  A    between atoms: C5_13  and  C6_14 
REMARK    4  A    between atoms: C10_19  and  O2_20 
REMARK    5  A    between atoms: O2_20  and  C11_21 
REMARK    6  A    between atoms: C11_21  and  C12_22 
REMARK    7  A    between atoms: C14_25  and  C15_26 
REMARK    8  A    between atoms: C15_26  and  N4_27 
ROOT
HETATM    1  C1  UNL     1     -87.951 -19.829  16.359  1.00  0.00     0.152 A 
HETATM    2  N1  UNL     1     -88.201 -18.700  15.632  1.00  0.00    -0.321 N 
ATOM      3  H1  UNL     1     -88.935 -18.024  15.841  1.00  0.00     0.169 HD
HETATM    4  C2  UNL     1     -87.354 -18.608  14.618  1.00  0.00     0.140 A 
HETATM    5  C3  UNL     1     -86.533 -19.700  14.686  1.00  0.00     0.091 A 
HETATM    6  N2  UNL     1     -85.675 -19.573  13.666  1.00  0.00    -0.329 N 
ATOM      7  H2  UNL     1     -84.925 -20.224  13.432  1.00  0.00     0.168 HD
HETATM    8  C4  UNL     1     -85.974 -18.424  12.996  1.00  0.00     0.180 A 
HETATM    9  S1  UNL     1     -85.140 -17.916  11.697  1.00  0.00    -0.040 SA
HETATM   10  N3  UNL     1     -87.013 -17.816  13.575  1.00  0.00    -0.304 N 
HETATM   11  C14 UNL     1     -86.906 -20.490  15.796  1.00  0.00     0.051 A 
ENDROOT
BRANCH  10  12
HETATM   12  C5  UNL     1     -87.683 -16.595  13.181  1.00  0.00     0.171 C 
BRANCH  12  13
HETATM   13  C6  UNL     1     -89.040 -16.820  12.643  1.00  0.00    -0.037 A 
HETATM   14  C7  UNL     1     -90.102 -16.160  13.129  1.00  0.00     0.010 A 
HETATM   15  C8  UNL     1     -91.395 -16.360  12.608  1.00  0.00     0.023 A 
HETATM   16  C9  UNL     1     -91.548 -17.247  11.585  1.00  0.00     0.045 A 
HETATM   17  S2  UNL     1     -93.210 -17.543  10.914  1.00  0.00    -0.050 SA
HETATM   18  C10 UNL     1     -90.460 -17.962  11.040  1.00  0.00     0.086 A 
HETATM   19  C13 UNL     1     -89.218 -17.722  11.596  1.00  0.00     0.047 A 
BRANCH  18  20
HETATM   20  O2  UNL     1     -90.739 -18.816  10.013  1.00  0.00    -0.349 OA
BRANCH  20  21
HETATM   21  C11 UNL     1     -90.264 -18.825   8.729  1.00  0.00     0.186 C 
BRANCH  21  22
HETATM   22  C12 UNL     1     -90.224 -17.454   8.130  1.00  0.00     0.112 C 
HETATM   23 BR1  UNL     1     -88.366 -17.008   7.719  1.00  0.00    -0.094 Br
ENDBRANCH  21  22
ENDBRANCH  20  21
ENDBRANCH  18  20
ENDBRANCH  12  13
ENDBRANCH  10  12
BRANCH   1  24
HETATM   24  O1  UNL     1     -88.662 -20.210  17.475  1.00  0.00    -0.346 OA
ATOM     25  H1  UNL     1     -88.516 -21.017  17.956  1.00  0.00     0.219 HD
ENDBRANCH   1  24
BRANCH  11  26
HETATM   26  C15 UNL     1     -86.175 -21.734  16.209  1.00  0.00     0.317 C 
BRANCH  26  27
HETATM   27  N4  UNL     1     -87.129 -22.844  16.211  1.00  0.00     0.092 N 
HETATM   28  C16 UNL     1     -87.414 -23.203  14.808  1.00  0.00     0.272 C 
HETATM   29  C17 UNL     1     -87.918 -24.616  14.806  1.00  0.00     0.030 C 
HETATM   30  C18 UNL     1     -88.557 -25.025  16.111  1.00  0.00     0.003 C 
HETATM   31  C19 UNL     1     -87.439 -25.028  17.161  1.00  0.00     0.030 C 
HETATM   32  C20 UNL     1     -86.408 -24.033  16.764  1.00  0.00     0.272 C 
ENDBRANCH  26  27
ENDBRANCH  11  26
TORSDOF 8
ENDMDL
MODEL 5
REMARK VINA RESULT: -7.028625425      2.035      2.607
REMARK  8 active torsions:
REMARK  status: ('A' for Active; 'I' for Inactive)
REMARK    1  A    between atoms: O1_1  and  C1_3 
REMARK    2  A    between atoms: N3_12  and  C5_13 
REMARK    3  A    between atoms: C5_13  and  C6_14 
REMARK    4  A    between atoms: C10_19  and  O2_20 
REMARK    5  A    between atoms: O2_20  and  C11_21 
REMARK    6  A    between atoms: C11_21  and  C12_22 
REMARK    7  A    between atoms: C14_25  and  C15_26 
REMARK    8  A    between atoms: C15_26  and  N4_27 
ROOT
HETATM    1  C1  UNL     1     -88.065 -19.972  15.558  1.00  0.00     0.152 A 
HETATM    2  N1  UNL     1     -88.141 -18.798  14.865  1.00  0.00    -0.321 N 
ATOM      3  H1  UNL     1     -88.957 -18.188  14.842  1.00  0.00     0.169 HD
HETATM    4  C2  UNL     1     -87.004 -18.564  14.228  1.00  0.00     0.140 A 
HETATM    5  C3  UNL     1     -86.167 -19.608  14.513  1.00  0.00     0.091 A 
HETATM    6  N2  UNL     1     -85.020 -19.339  13.878  1.00  0.00    -0.329 N 
ATOM      7  H2  UNL     1     -84.182 -19.920  13.884  1.00  0.00     0.168 HD
HETATM    8  C4  UNL     1     -85.164 -18.153  13.221  1.00  0.00     0.180 A 
HETATM    9  S1  UNL     1     -83.975 -17.479  12.342  1.00  0.00    -0.040 SA
HETATM   10  N3  UNL     1     -86.388 -17.661  13.430  1.00  0.00    -0.304 N 
HETATM   11  C14 UNL     1     -86.835 -20.517  15.363  1.00  0.00     0.051 A 
ENDROOT
BRANCH  10  12
HETATM   12  C5  UNL     1     -86.981 -16.450  12.904  1.00  0.00     0.171 C 
BRANCH  12  13
HETATM   13  C6  UNL     1     -87.831 -16.682  11.719  1.00  0.00    -0.037 A 
HETATM   14  C7  UNL     1     -87.297 -16.945  10.517  1.00  0.00     0.010 A 
HETATM   15  C8  UNL     1     -88.105 -17.182   9.388  1.00  0.00     0.023 A 
HETATM   16  C9  UNL     1     -89.458 -17.141   9.543  1.00  0.00     0.045 A 
HETATM   17  S2  UNL     1     -90.522 -17.416   8.097  1.00  0.00    -0.050 SA
HETATM   18  C10 UNL     1     -90.066 -16.871  10.789  1.00  0.00     0.086 A 
HETATM   19  C13 UNL     1     -89.217 -16.645  11.857  1.00  0.00     0.047 A 
BRANCH  18  20
HETATM   20  O2  UNL     1     -91.429 -16.865  10.819  1.00  0.00    -0.349 OA
BRANCH  20  21
HETATM   21  C11 UNL     1     -92.294 -17.708  11.465  1.00  0.00     0.186 C 
BRANCH  21  22
HETATM   22  C12 UNL     1     -93.386 -18.197  10.566  1.00  0.00     0.112 C 
HETATM   23 BR1  UNL     1     -93.848 -20.023  11.086  1.00  0.00    -0.094 Br
ENDBRANCH  21  22
ENDBRANCH  20  21
ENDBRANCH  18  20
ENDBRANCH  12  13
ENDBRANCH  10  12
BRANCH   1  24
HETATM   24  O1  UNL     1     -89.086 -20.495  16.320  1.00  0.00    -0.346 OA
ATOM     25  H1  UNL     1     -89.942 -20.732  15.982  1.00  0.00     0.219 HD
ENDBRANCH   1  24
BRANCH  11  26
HETATM   26  C15 UNL     1     -86.191 -21.749  15.927  1.00  0.00     0.317 C 
BRANCH  26  27
HETATM   27  N4  UNL     1     -87.163 -22.841  15.867  1.00  0.00     0.092 N 
HETATM   28  C16 UNL     1     -87.347 -23.212  14.450  1.00  0.00     0.272 C 
HETATM   29  C17 UNL     1     -87.876 -24.615  14.424  1.00  0.00     0.030 C 
HETATM   30  C18 UNL     1     -88.621 -24.996  15.679  1.00  0.00     0.003 C 
HETATM   31  C19 UNL     1     -87.588 -25.008  16.812  1.00  0.00     0.030 C 
HETATM   32  C20 UNL     1     -86.511 -24.037  16.486  1.00  0.00     0.272 C 
ENDBRANCH  26  27
ENDBRANCH  11  26
TORSDOF 8
ENDMDL
