MODEL 1
REMARK VINA RESULT: -8.742154838      0.000      0.000
REMARK  11 active torsions:
REMARK  status: ('A' for Active; 'I' for Inactive)
REMARK    1  A    between atoms: C2_2  and  O1_3 
REMARK    2  A    between atoms: O1_3  and  C3_4 
REMARK    3  A    between atoms: C6_7  and  C7_8 
REMARK    4  A    between atoms: C7_8  and  O2_9 
REMARK    5  A    between atoms: C7_8  and  N1_11 
REMARK    6  A    between atoms: N1_11  and  C8_12 
REMARK    7  A    between atoms: N1_11  and  C12_16 
REMARK    8  A    between atoms: C8_12  and  C9_13 
REMARK    9  A    between atoms: C13_17  and  O3_18 
REMARK   10  A    between atoms: C16_24  and  O4_25 
REMARK   11  A    between atoms: C23_35  and  O6_36 
ROOT
HETATM    1  N1  UNL     1     -90.332 -17.599   8.829  1.00  0.00    -0.297 N 
ENDROOT
BRANCH   1   2
HETATM    2  C7  UNL     1     -90.810 -16.720   9.791  1.00  0.00     0.157 C 
BRANCH   2   3
HETATM    3  C6  UNL     1     -90.345 -16.271  11.078  1.00  0.00     0.018 A 
HETATM    4  C5  UNL     1     -90.960 -16.806  12.223  1.00  0.00     0.018 A 
HETATM    5  C4  UNL     1     -90.517 -16.432  13.476  1.00  0.00     0.040 A 
HETATM    6  C3  UNL     1     -89.495 -15.555  13.690  1.00  0.00     0.102 A 
HETATM    7  C23 UNL     1     -88.876 -15.017  12.581  1.00  0.00     0.102 A 
HETATM    8  C22 UNL     1     -89.321 -15.392  11.311  1.00  0.00     0.055 A 
BRANCH   6   9
HETATM    9  O1  UNL     1     -89.104 -15.226  14.973  1.00  0.00    -0.349 OA
BRANCH   9  10
HETATM   10  C2  UNL     1     -88.683 -16.258  15.845  1.00  0.00     0.171 C 
HETATM   11  C1  UNL     1     -87.968 -15.680  17.039  1.00  0.00     0.034 C 
ENDBRANCH   9  10
ENDBRANCH   6   9
BRANCH   7  12
HETATM   12  O6  UNL     1     -87.830 -14.121  12.757  1.00  0.00    -0.353 OA
HETATM   13  C24 UNL     1     -86.685 -14.069  11.969  1.00  0.00     0.210 C 
ENDBRANCH   7  12
ENDBRANCH   2   3
BRANCH   2  14
HETATM   14  O2  UNL     1     -91.980 -16.131   9.483  1.00  0.00    -0.345 OA
ATOM     15  H2  UNL     1     -92.708 -16.686   9.738  1.00  0.00     0.219 HD
ENDBRANCH   2  14
ENDBRANCH   1   2
BRANCH   1  16
HETATM   16  C8  UNL     1     -90.553 -18.956   8.683  1.00  0.00     0.101 C 
BRANCH  16  17
HETATM   17  C9  UNL     1     -91.832 -19.640   8.851  1.00  0.00    -0.072 C 
HETATM   18  C10 UNL     1     -92.498 -19.741  10.163  1.00  0.00     0.044 C 
HETATM   19  C11 UNL     1     -91.909 -20.985   8.140  1.00  0.00     0.044 C 
ENDBRANCH  16  17
ENDBRANCH   1  16
BRANCH   1  20
HETATM   20  C12 UNL     1     -89.498 -16.944   7.814  1.00  0.00     0.105 A 
HETATM   21  C13 UNL     1     -90.090 -16.444   6.686  1.00  0.00     0.169 A 
HETATM   22  N2  UNL     1     -89.116 -15.911   5.939  1.00  0.00    -0.334 N 
HETATM   23  C14 UNL     1     -87.929 -16.049   6.542  1.00  0.00     0.050 A 
ATOM     24  H2  UNL     1     -89.259 -15.460   5.035  1.00  0.00     0.168 HD
HETATM   25  C15 UNL     1     -86.627 -15.679   6.203  1.00  0.00     0.070 A 
HETATM   26  C21 UNL     1     -88.182 -16.714   7.745  1.00  0.00     0.036 A 
HETATM   27  C16 UNL     1     -85.595 -15.972   7.060  1.00  0.00     0.102 A 
HETATM   28  C17 UNL     1     -85.825 -16.630   8.257  1.00  0.00     0.121 A 
HETATM   29  O5  UNL     1     -85.027 -17.020   9.233  1.00  0.00    -0.299 OA
HETATM   30  C20 UNL     1     -87.124 -16.991   8.579  1.00  0.00     0.019 A 
HETATM   31  C18 UNL     1     -85.710 -17.612  10.172  1.00  0.00     0.123 A 
HETATM   32 BR1  UNL     1     -84.930 -18.333  11.772  1.00  0.00    -0.023 Br
HETATM   33  C19 UNL     1     -87.048 -17.610   9.786  1.00  0.00     0.060 A 
BRANCH  21  34
HETATM   34  O3  UNL     1     -91.426 -16.443   6.305  1.00  0.00    -0.344 OA
ATOM     35  H3  UNL     1     -91.846 -16.044   5.552  1.00  0.00     0.219 HD
ENDBRANCH  21  34
BRANCH  27  36
HETATM   36  O4  UNL     1     -84.300 -15.612   6.743  1.00  0.00    -0.358 OA
ATOM     37  H4  UNL     1     -83.622 -15.621   7.408  1.00  0.00     0.217 HD
ENDBRANCH  27  36
ENDBRANCH   1  20
TORSDOF 11
ENDMDL
MODEL 2
REMARK VINA RESULT: -8.234173159      0.942      1.664
REMARK  11 active torsions:
REMARK  status: ('A' for Active; 'I' for Inactive)
REMARK    1  A    between atoms: C2_2  and  O1_3 
REMARK    2  A    between atoms: O1_3  and  C3_4 
REMARK    3  A    between atoms: C6_7  and  C7_8 
REMARK    4  A    between atoms: C7_8  and  O2_9 
REMARK    5  A    between atoms: C7_8  and  N1_11 
REMARK    6  A    between atoms: N1_11  and  C8_12 
REMARK    7  A    between atoms: N1_11  and  C12_16 
REMARK    8  A    between atoms: C8_12  and  C9_13 
REMARK    9  A    between atoms: C13_17  and  O3_18 
REMARK   10  A    between atoms: C16_24  and  O4_25 
REMARK   11  A    between atoms: C23_35  and  O6_36 
ROOT
HETATM    1  N1  UNL     1     -90.176 -17.791   9.233  1.00  0.00    -0.297 N 
ENDROOT
BRANCH   1   2
HETATM    2  C7  UNL     1     -90.557 -16.915  10.239  1.00  0.00     0.157 C 
BRANCH   2   3
HETATM    3  C6  UNL     1     -90.047 -16.582  11.545  1.00  0.00     0.018 A 
HETATM    4  C5  UNL     1     -89.518 -15.294  11.736  1.00  0.00     0.018 A 
HETATM    5  C4  UNL     1     -89.055 -14.922  12.982  1.00  0.00     0.040 A 
HETATM    6  C3  UNL     1     -89.075 -15.738  14.074  1.00  0.00     0.102 A 
HETATM    7  C23 UNL     1     -89.589 -17.007  13.911  1.00  0.00     0.102 A 
HETATM    8  C22 UNL     1     -90.058 -17.388  12.651  1.00  0.00     0.055 A 
BRANCH   6   9
HETATM    9  O1  UNL     1     -88.595 -15.298  15.292  1.00  0.00    -0.349 OA
BRANCH   9  10
HETATM   10  C2  UNL     1     -87.199 -15.302  15.518  1.00  0.00     0.171 C 
HETATM   11  C1  UNL     1     -86.894 -15.721  16.933  1.00  0.00     0.034 C 
ENDBRANCH   9  10
ENDBRANCH   6   9
BRANCH   7  12
HETATM   12  O6  UNL     1     -89.627 -17.868  15.000  1.00  0.00    -0.353 OA
HETATM   13  C24 UNL     1     -88.598 -18.727  15.372  1.00  0.00     0.210 C 
ENDBRANCH   7  12
ENDBRANCH   2   3
BRANCH   2  14
HETATM   14  O2  UNL     1     -91.658 -16.191   9.967  1.00  0.00    -0.345 OA
ATOM     15  H2  UNL     1     -92.161 -16.600   9.273  1.00  0.00     0.219 HD
ENDBRANCH   2  14
ENDBRANCH   1   2
BRANCH   1  16
HETATM   16  C8  UNL     1     -90.498 -19.124   9.051  1.00  0.00     0.101 C 
BRANCH  16  17
HETATM   17  C9  UNL     1     -91.846 -19.678   8.978  1.00  0.00    -0.072 C 
HETATM   18  C10 UNL     1     -92.700 -19.819  10.172  1.00  0.00     0.044 C 
HETATM   19  C11 UNL     1     -91.947 -20.941   8.132  1.00  0.00     0.044 C 
ENDBRANCH  16  17
ENDBRANCH   1  16
BRANCH   1  20
HETATM   20  C12 UNL     1     -89.332 -17.161   8.210  1.00  0.00     0.105 A 
HETATM   21  C13 UNL     1     -89.911 -16.708   7.056  1.00  0.00     0.169 A 
HETATM   22  N2  UNL     1     -88.930 -16.188   6.307  1.00  0.00    -0.334 N 
HETATM   23  C14 UNL     1     -87.752 -16.292   6.934  1.00  0.00     0.050 A 
ATOM     24  H2  UNL     1     -89.063 -15.771   5.386  1.00  0.00     0.168 HD
HETATM   25  C15 UNL     1     -86.449 -15.918   6.604  1.00  0.00     0.070 A 
HETATM   26  C21 UNL     1     -88.018 -16.918   8.155  1.00  0.00     0.036 A 
HETATM   27  C16 UNL     1     -85.428 -16.169   7.488  1.00  0.00     0.102 A 
HETATM   28  C17 UNL     1     -85.671 -16.788   8.703  1.00  0.00     0.121 A 
HETATM   29  O5  UNL     1     -84.885 -17.136   9.704  1.00  0.00    -0.299 OA
HETATM   30  C20 UNL     1     -86.971 -17.154   9.016  1.00  0.00     0.019 A 
HETATM   31  C18 UNL     1     -85.577 -17.704  10.652  1.00  0.00     0.123 A 
HETATM   32 BR1  UNL     1     -84.816 -18.359  12.288  1.00  0.00    -0.023 Br
HETATM   33  C19 UNL     1     -86.908 -17.730  10.244  1.00  0.00     0.060 A 
BRANCH  21  34
HETATM   34  O3  UNL     1     -91.240 -16.736   6.653  1.00  0.00    -0.344 OA
ATOM     35  H3  UNL     1     -91.673 -16.273   5.946  1.00  0.00     0.219 HD
ENDBRANCH  21  34
BRANCH  27  36
HETATM   36  O4  UNL     1     -84.132 -15.805   7.180  1.00  0.00    -0.358 OA
ATOM     37  H4  UNL     1     -83.638 -16.289   6.529  1.00  0.00     0.217 HD
ENDBRANCH  27  36
ENDBRANCH   1  20
TORSDOF 11
ENDMDL
MODEL 3
REMARK VINA RESULT: -8.166282552      1.566      5.817
REMARK  11 active torsions:
REMARK  status: ('A' for Active; 'I' for Inactive)
REMARK    1  A    between atoms: C2_2  and  O1_3 
REMARK    2  A    between atoms: O1_3  and  C3_4 
REMARK    3  A    between atoms: C6_7  and  C7_8 
REMARK    4  A    between atoms: C7_8  and  O2_9 
REMARK    5  A    between atoms: C7_8  and  N1_11 
REMARK    6  A    between atoms: N1_11  and  C8_12 
REMARK    7  A    between atoms: N1_11  and  C12_16 
REMARK    8  A    between atoms: C8_12  and  C9_13 
REMARK    9  A    between atoms: C13_17  and  O3_18 
REMARK   10  A    between atoms: C16_24  and  O4_25 
REMARK   11  A    between atoms: C23_35  and  O6_36 
ROOT
HETATM    1  N1  UNL     1     -90.277 -18.174   9.392  1.00  0.00    -0.297 N 
ENDROOT
BRANCH   1   2
HETATM    2  C7  UNL     1     -89.937 -17.525   8.213  1.00  0.00     0.157 C 
BRANCH   2   3
HETATM    3  C6  UNL     1     -88.722 -16.972   7.672  1.00  0.00     0.018 A 
HETATM    4  C5  UNL     1     -88.807 -16.252   6.467  1.00  0.00     0.018 A 
HETATM    5  C4  UNL     1     -87.673 -15.672   5.936  1.00  0.00     0.040 A 
HETATM    6  C3  UNL     1     -86.439 -15.748   6.512  1.00  0.00     0.102 A 
HETATM    7  C23 UNL     1     -86.332 -16.449   7.695  1.00  0.00     0.102 A 
HETATM    8  C22 UNL     1     -87.477 -17.039   8.237  1.00  0.00     0.055 A 
BRANCH   6   9
HETATM    9  O1  UNL     1     -85.347 -15.142   5.924  1.00  0.00    -0.349 OA
BRANCH   9  10
HETATM   10  C2  UNL     1     -84.757 -15.748   4.790  1.00  0.00     0.171 C 
HETATM   11  C1  UNL     1     -83.301 -16.042   5.046  1.00  0.00     0.034 C 
ENDBRANCH   9  10
ENDBRANCH   6   9
BRANCH   7  12
HETATM   12  O6  UNL     1     -85.093 -16.548   8.314  1.00  0.00    -0.353 OA
HETATM   13  C24 UNL     1     -84.764 -15.971   9.536  1.00  0.00     0.210 C 
ENDBRANCH   7  12
ENDBRANCH   2   3
BRANCH   2  14
HETATM   14  O2  UNL     1     -90.955 -17.356   7.350  1.00  0.00    -0.345 OA
ATOM     15  H2  UNL     1     -91.783 -17.327   7.816  1.00  0.00     0.219 HD
ENDBRANCH   2  14
ENDBRANCH   1   2
BRANCH   1  16
HETATM   16  C8  UNL     1     -90.330 -19.526   9.675  1.00  0.00     0.101 C 
BRANCH  16  17
HETATM   17  C9  UNL     1     -91.439 -20.424   9.369  1.00  0.00    -0.072 C 
HETATM   18  C10 UNL     1     -91.806 -20.770   7.983  1.00  0.00     0.044 C 
HETATM   19  C11 UNL     1     -92.703 -20.135  10.168  1.00  0.00     0.044 C 
ENDBRANCH  16  17
ENDBRANCH   1  16
BRANCH   1  20
HETATM   20  C12 UNL     1     -90.590 -17.249  10.489  1.00  0.00     0.105 A 
HETATM   21  C13 UNL     1     -91.819 -16.647  10.523  1.00  0.00     0.169 A 
HETATM   22  N2  UNL     1     -91.838 -15.865  11.609  1.00  0.00    -0.334 N 
HETATM   23  C14 UNL     1     -90.676 -15.941  12.268  1.00  0.00     0.050 A 
ATOM     24  H2  UNL     1     -92.631 -15.290  11.895  1.00  0.00     0.168 HD
HETATM   25  C15 UNL     1     -90.186 -15.345  13.429  1.00  0.00     0.070 A 
HETATM   26  C21 UNL     1     -89.879 -16.831  11.543  1.00  0.00     0.036 A 
HETATM   27  C16 UNL     1     -88.914 -15.638  13.857  1.00  0.00     0.102 A 
HETATM   28  C17 UNL     1     -88.109 -16.518  13.152  1.00  0.00     0.121 A 
HETATM   29  O5  UNL     1     -86.880 -16.957  13.345  1.00  0.00    -0.299 OA
HETATM   30  C20 UNL     1     -88.610 -17.102  12.000  1.00  0.00     0.019 A 
HETATM   31  C18 UNL     1     -86.539 -17.789  12.400  1.00  0.00     0.123 A 
HETATM   32 BR1  UNL     1     -84.830 -18.658  12.303  1.00  0.00    -0.023 Br
HETATM   33  C19 UNL     1     -87.619 -17.902  11.528  1.00  0.00     0.060 A 
BRANCH  21  34
HETATM   34  O3  UNL     1     -92.894 -16.764   9.651  1.00  0.00    -0.344 OA
ATOM     35  H3  UNL     1     -93.729 -17.202   9.767  1.00  0.00     0.219 HD
ENDBRANCH  21  34
BRANCH  27  36
HETATM   36  O4  UNL     1     -88.412 -15.059  15.006  1.00  0.00    -0.358 OA
ATOM     37  H4  UNL     1     -88.466 -14.119  15.133  1.00  0.00     0.217 HD
ENDBRANCH  27  36
ENDBRANCH   1  20
TORSDOF 11
ENDMDL
MODEL 4
REMARK VINA RESULT: -7.973783895      1.499      2.413
REMARK  11 active torsions:
REMARK  status: ('A' for Active; 'I' for Inactive)
REMARK    1  A    between atoms: C2_2  and  O1_3 
REMARK    2  A    between atoms: O1_3  and  C3_4 
REMARK    3  A    between atoms: C6_7  and  C7_8 
REMARK    4  A    between atoms: C7_8  and  O2_9 
REMARK    5  A    between atoms: C7_8  and  N1_11 
REMARK    6  A    between atoms: N1_11  and  C8_12 
REMARK    7  A    between atoms: N1_11  and  C12_16 
REMARK    8  A    between atoms: C8_12  and  C9_13 
REMARK    9  A    between atoms: C13_17  and  O3_18 
REMARK   10  A    between atoms: C16_24  and  O4_25 
REMARK   11  A    between atoms: C23_35  and  O6_36 
ROOT
HETATM    1  N1  UNL     1     -91.038 -17.681  10.172  1.00  0.00    -0.297 N 
ENDROOT
BRANCH   1   2
HETATM    2  C7  UNL     1     -91.049 -16.699  11.152  1.00  0.00     0.157 C 
BRANCH   2   3
HETATM    3  C6  UNL     1     -90.056 -16.113  12.016  1.00  0.00     0.018 A 
HETATM    4  C5  UNL     1     -89.118 -15.239  11.441  1.00  0.00     0.018 A 
HETATM    5  C4  UNL     1     -88.175 -14.626  12.241  1.00  0.00     0.040 A 
HETATM    6  C3  UNL     1     -88.085 -14.812  13.589  1.00  0.00     0.102 A 
HETATM    7  C23 UNL     1     -88.995 -15.665  14.175  1.00  0.00     0.102 A 
HETATM    8  C22 UNL     1     -89.952 -16.289  13.370  1.00  0.00     0.055 A 
BRANCH   6   9
HETATM    9  O1  UNL     1     -87.115 -14.164  14.328  1.00  0.00    -0.349 OA
BRANCH   9  10
HETATM   10  C2  UNL     1     -85.753 -14.431  14.052  1.00  0.00     0.171 C 
HETATM   11  C1  UNL     1     -85.410 -15.853  14.415  1.00  0.00     0.034 C 
ENDBRANCH   9  10
ENDBRANCH   6   9
BRANCH   7  12
HETATM   12  O6  UNL     1     -88.938 -15.881  15.546  1.00  0.00    -0.353 OA
HETATM   13  C24 UNL     1     -88.535 -17.068  16.149  1.00  0.00     0.210 C 
ENDBRANCH   7  12
ENDBRANCH   2   3
BRANCH   2  14
HETATM   14  O2  UNL     1     -92.253 -16.142  11.376  1.00  0.00    -0.345 OA
ATOM     15  H2  UNL     1     -92.301 -15.798  12.260  1.00  0.00     0.219 HD
ENDBRANCH   2  14
ENDBRANCH   1   2
BRANCH   1  16
HETATM   16  C8  UNL     1     -91.171 -19.053  10.291  1.00  0.00     0.101 C 
BRANCH  16  17
HETATM   17  C9  UNL     1     -92.138 -19.885   9.582  1.00  0.00    -0.072 C 
HETATM   18  C10 UNL     1     -93.158 -20.678  10.293  1.00  0.00     0.044 C 
HETATM   19  C11 UNL     1     -91.526 -20.728   8.471  1.00  0.00     0.044 C 
ENDBRANCH  16  17
ENDBRANCH   1  16
BRANCH   1  20
HETATM   20  C12 UNL     1     -90.894 -17.139   8.815  1.00  0.00     0.105 A 
HETATM   21  C13 UNL     1     -92.018 -16.812   8.106  1.00  0.00     0.169 A 
HETATM   22  N2  UNL     1     -91.607 -16.350   6.918  1.00  0.00    -0.334 N 
HETATM   23  C14 UNL     1     -90.271 -16.368   6.840  1.00  0.00     0.050 A 
ATOM     24  H2  UNL     1     -92.228 -16.028   6.175  1.00  0.00     0.168 HD
HETATM   25  C15 UNL     1     -89.359 -16.004   5.850  1.00  0.00     0.070 A 
HETATM   26  C21 UNL     1     -89.820 -16.876   8.061  1.00  0.00     0.036 A 
HETATM   27  C16 UNL     1     -88.013 -16.147   6.083  1.00  0.00     0.102 A 
HETATM   28  C17 UNL     1     -87.545 -16.648   7.287  1.00  0.00     0.121 A 
HETATM   29  O5  UNL     1     -86.332 -16.880   7.751  1.00  0.00    -0.299 OA
HETATM   30  C20 UNL     1     -88.465 -17.006   8.261  1.00  0.00     0.019 A 
HETATM   31  C18 UNL     1     -86.390 -17.365   8.960  1.00  0.00     0.123 A 
HETATM   32 BR1  UNL     1     -84.847 -17.842   9.998  1.00  0.00    -0.023 Br
HETATM   33  C19 UNL     1     -87.734 -17.457   9.313  1.00  0.00     0.060 A 
BRANCH  21  34
HETATM   34  O3  UNL     1     -93.357 -16.905   8.462  1.00  0.00    -0.344 OA
ATOM     35  H3  UNL     1     -93.852 -17.649   8.784  1.00  0.00     0.219 HD
ENDBRANCH  21  34
BRANCH  27  36
HETATM   36  O4  UNL     1     -87.094 -15.789   5.116  1.00  0.00    -0.358 OA
ATOM     37  H4  UNL     1     -86.661 -14.944   5.153  1.00  0.00     0.217 HD
ENDBRANCH  27  36
ENDBRANCH   1  20
TORSDOF 11
ENDMDL
MODEL 5
REMARK VINA RESULT: -7.814820977      5.319      8.843
REMARK  11 active torsions:
REMARK  status: ('A' for Active; 'I' for Inactive)
REMARK    1  A    between atoms: C2_2  and  O1_3 
REMARK    2  A    between atoms: O1_3  and  C3_4 
REMARK    3  A    between atoms: C6_7  and  C7_8 
REMARK    4  A    between atoms: C7_8  and  O2_9 
REMARK    5  A    between atoms: C7_8  and  N1_11 
REMARK    6  A    between atoms: N1_11  and  C8_12 
REMARK    7  A    between atoms: N1_11  and  C12_16 
REMARK    8  A    between atoms: C8_12  and  C9_13 
REMARK    9  A    between atoms: C13_17  and  O3_18 
REMARK   10  A    between atoms: C16_24  and  O4_25 
REMARK   11  A    between atoms: C23_35  and  O6_36 
ROOT
HETATM    1  N1  UNL     1     -82.198 -15.323   4.115  1.00  0.00    -0.297 N 
ENDROOT
BRANCH   1   2
HETATM    2  C7  UNL     1     -83.561 -15.193   4.340  1.00  0.00     0.157 C 
BRANCH   2   3
HETATM    3  C6  UNL     1     -84.452 -15.547   5.415  1.00  0.00     0.018 A 
HETATM    4  C5  UNL     1     -83.885 -16.034   6.606  1.00  0.00     0.018 A 
HETATM    5  C4  UNL     1     -84.702 -16.347   7.674  1.00  0.00     0.040 A 
HETATM    6  C3  UNL     1     -86.059 -16.213   7.658  1.00  0.00     0.102 A 
HETATM    7  C23 UNL     1     -86.637 -15.737   6.500  1.00  0.00     0.102 A 
HETATM    8  C22 UNL     1     -85.815 -15.420   5.415  1.00  0.00     0.055 A 
BRANCH   6   9
HETATM    9  O1  UNL     1     -86.814 -16.545   8.765  1.00  0.00    -0.349 OA
BRANCH   9  10
HETATM   10  C2  UNL     1     -86.311 -17.507   9.672  1.00  0.00     0.171 C 
HETATM   11  C1  UNL     1     -87.330 -17.808  10.742  1.00  0.00     0.034 C 
ENDBRANCH   9  10
ENDBRANCH   6   9
BRANCH   7  12
HETATM   12  O6  UNL     1     -88.016 -15.586   6.443  1.00  0.00    -0.353 OA
HETATM   13  C24 UNL     1     -88.862 -16.303   5.603  1.00  0.00     0.210 C 
ENDBRANCH   7  12
ENDBRANCH   2   3
BRANCH   2  14
HETATM   14  O2  UNL     1     -84.242 -14.603   3.341  1.00  0.00    -0.345 OA
ATOM     15  H2  UNL     1     -83.933 -13.714   3.209  1.00  0.00     0.219 HD
ENDBRANCH   2  14
ENDBRANCH   1   2
BRANCH   1  16
HETATM   16  C8  UNL     1     -81.406 -16.457   4.109  1.00  0.00     0.101 C 
BRANCH  16  17
HETATM   17  C9  UNL     1     -80.094 -16.589   4.735  1.00  0.00    -0.072 C 
HETATM   18  C10 UNL     1     -78.930 -17.125   4.005  1.00  0.00     0.044 C 
HETATM   19  C11 UNL     1     -80.136 -17.194   6.132  1.00  0.00     0.044 C 
ENDBRANCH  16  17
ENDBRANCH   1  16
BRANCH   1  20
HETATM   20  C12 UNL     1     -81.540 -14.047   3.806  1.00  0.00     0.105 A 
HETATM   21  C13 UNL     1     -81.329 -13.706   2.498  1.00  0.00     0.169 A 
HETATM   22  N2  UNL     1     -80.721 -12.513   2.501  1.00  0.00    -0.334 N 
HETATM   23  C14 UNL     1     -80.535 -12.080   3.754  1.00  0.00     0.050 A 
ATOM     24  H2  UNL     1     -80.438 -12.004   1.664  1.00  0.00     0.168 HD
HETATM   25  C15 UNL     1     -79.965 -10.932   4.302  1.00  0.00     0.070 A 
HETATM   26  C21 UNL     1     -81.064 -13.071   4.587  1.00  0.00     0.036 A 
HETATM   27  C16 UNL     1     -79.926 -10.779   5.667  1.00  0.00     0.102 A 
HETATM   28  C17 UNL     1     -80.445 -11.749   6.509  1.00  0.00     0.121 A 
HETATM   29  O5  UNL     1     -80.529 -11.843   7.822  1.00  0.00    -0.299 OA
HETATM   30  C20 UNL     1     -81.007 -12.885   5.949  1.00  0.00     0.019 A 
HETATM   31  C18 UNL     1     -81.108 -12.960   8.164  1.00  0.00     0.123 A 
HETATM   32 BR1  UNL     1     -81.426 -13.489   9.982  1.00  0.00    -0.023 Br
HETATM   33  C19 UNL     1     -81.424 -13.646   6.994  1.00  0.00     0.060 A 
BRANCH  21  34
HETATM   34  O3  UNL     1     -81.647 -14.393   1.334  1.00  0.00    -0.344 OA
ATOM     35  H3  UNL     1     -81.134 -14.530   0.547  1.00  0.00     0.219 HD
ENDBRANCH  21  34
BRANCH  27  36
HETATM   36  O4  UNL     1     -79.368  -9.647   6.228  1.00  0.00    -0.358 OA
ATOM     37  H4  UNL     1     -79.858  -8.835   6.261  1.00  0.00     0.217 HD
ENDBRANCH  27  36
ENDBRANCH   1  20
TORSDOF 11
ENDMDL
