MODEL 1
REMARK VINA RESULT: -8.775168777      0.000      0.000
REMARK  10 active torsions:
REMARK  status: ('A' for Active; 'I' for Inactive)
REMARK    1  A    between atoms: C2_2  and  N1_3 
REMARK    2  A    between atoms: N1_3  and  C3_5 
REMARK    3  A    between atoms: C9_14  and  C10_15 
REMARK    4  A    between atoms: C10_15  and  C11_16 
REMARK    5  A    between atoms: C16_23  and  N4_24 
REMARK    6  A    between atoms: N4_24  and  C17_26 
REMARK    7  A    between atoms: C20_31  and  N6_32 
REMARK    8  A    between atoms: N6_32  and  C21_34 
REMARK    9  A    between atoms: C21_34  and  C22_35 
REMARK   10  A    between atoms: C22_35  and  O1_36 
ROOT
HETATM    1  C11 UNL     1     -87.575 -16.105   8.654  1.00  0.00    -0.045 A 
HETATM    2  C12 UNL     1     -88.510 -15.895   7.665  1.00  0.00     0.017 A 
HETATM    3  C13 UNL     1     -88.195 -15.448   6.398  1.00  0.00    -0.032 A 
HETATM    4  C14 UNL     1     -89.215 -15.225   5.338  1.00  0.00     0.050 C 
HETATM    5  C15 UNL     1     -86.873 -15.194   6.098  1.00  0.00     0.083 A 
HETATM    6  N3  UNL     1     -86.205 -14.761   5.010  1.00  0.00    -0.189 N 
ATOM      7  H3  UNL     1     -86.633 -14.522   4.116  1.00  0.00     0.184 HD
HETATM    8  C16 UNL     1     -84.885 -14.694   5.284  1.00  0.00     0.684 A 
HETATM    9  N8  UNL     1     -84.690 -15.080   6.547  1.00  0.00    -0.189 N 
ATOM     10  H8  UNL     1     -83.791 -15.130   7.028  1.00  0.00     0.184 HD
HETATM   11  C24 UNL     1     -85.892 -15.394   7.074  1.00  0.00     0.083 A 
HETATM   12  C25 UNL     1     -86.259 -15.846   8.335  1.00  0.00    -0.026 A 
HETATM   13  C26 UNL     1     -85.211 -16.056   9.367  1.00  0.00     0.051 C 
ENDROOT
BRANCH   8  14
HETATM   14  N4  UNL     1     -83.960 -14.317   4.465  1.00  0.00    -0.176 N 
ATOM     15  H4  UNL     1     -84.212 -13.858   3.589  1.00  0.00     0.186 HD
BRANCH  14  16
HETATM   16  C17 UNL     1     -82.573 -14.541   4.785  1.00  0.00     0.138 A 
HETATM   17  C18 UNL     1     -81.914 -15.659   4.334  1.00  0.00     0.067 A 
HETATM   18  C19 UNL     1     -80.596 -15.826   4.667  1.00  0.00     0.110 A 
HETATM   19  N5  UNL     1     -79.983 -14.889   5.426  1.00  0.00    -0.202 N 
HETATM   20  C20 UNL     1     -80.598 -13.783   5.883  1.00  0.00     0.679 A 
ATOM     21  H5  UNL     1     -79.002 -15.029   5.666  1.00  0.00     0.183 HD
HETATM   22  N7  UNL     1     -81.901 -13.662   5.528  1.00  0.00    -0.176 N 
ATOM     23  H7  UNL     1     -82.405 -12.836   5.853  1.00  0.00     0.186 HD
BRANCH  20  24
HETATM   24  N6  UNL     1     -80.031 -12.877   6.609  1.00  0.00    -0.224 N 
ATOM     25  H6  UNL     1     -79.730 -13.119   7.553  1.00  0.00     0.177 HD
BRANCH  24  26
HETATM   26  C21 UNL     1     -79.808 -11.536   6.133  1.00  0.00     0.164 C 
BRANCH  26  27
HETATM   27  C22 UNL     1     -80.545 -10.507   6.932  1.00  0.00     0.187 C 
BRANCH  27  28
HETATM   28  O1  UNL     1     -80.232  -9.224   6.567  1.00  0.00    -0.394 OA
HETATM   29  C23 UNL     1     -79.566  -9.057   5.390  1.00  0.00     0.201 C 
ENDBRANCH  27  28
ENDBRANCH  26  27
ENDBRANCH  24  26
ENDBRANCH  20  24
ENDBRANCH  14  16
ENDBRANCH   8  14
BRANCH   1  30
HETATM   30  C10 UNL     1     -87.877 -16.578  10.011  1.00  0.00     0.082 C 
BRANCH  30  31
HETATM   31  C9  UNL     1     -89.223 -16.325  10.481  1.00  0.00    -0.003 A 
HETATM   32  C3  UNL     1     -89.568 -15.101  10.995  1.00  0.00     0.108 A 
HETATM   33  N2  UNL     1     -90.829 -14.856  11.442  1.00  0.00    -0.344 N 
HETATM   34  C4  UNL     1     -91.778 -15.805  11.394  1.00  0.00     0.029 A 
ATOM     35  H2  UNL     1     -91.057 -13.936  11.819  1.00  0.00     0.167 HD
HETATM   36  C5  UNL     1     -93.160 -15.514  11.891  1.00  0.00     0.070 C 
HETATM   37  C6  UNL     1     -91.488 -17.042  10.891  1.00  0.00     0.062 A 
HETATM   38 CL1  UNL     1     -92.708 -18.272  10.826  1.00  0.00    -0.082 Cl
HETATM   39  C7  UNL     1     -90.189 -17.297  10.430  1.00  0.00    -0.028 A 
HETATM   40  C8  UNL     1     -89.903 -18.628   9.897  1.00  0.00     0.050 C 
BRANCH  32  41
HETATM   41  N1  UNL     1     -88.714 -14.139  11.072  1.00  0.00    -0.376 N 
ATOM     42  H1  UNL     1     -88.509 -13.625  10.215  1.00  0.00     0.161 HD
BRANCH  41  43
HETATM   43  C2  UNL     1     -88.030 -13.734  12.258  1.00  0.00     0.116 C 
HETATM   44  C1  UNL     1     -86.584 -13.446  11.876  1.00  0.00     0.026 C 
ENDBRANCH  41  43
ENDBRANCH  32  41
ENDBRANCH  30  31
ENDBRANCH   1  30
TORSDOF 10
ENDMDL
MODEL 2
REMARK VINA RESULT: -8.753632562      1.041      1.399
REMARK  10 active torsions:
REMARK  status: ('A' for Active; 'I' for Inactive)
REMARK    1  A    between atoms: C2_2  and  N1_3 
REMARK    2  A    between atoms: N1_3  and  C3_5 
REMARK    3  A    between atoms: C9_14  and  C10_15 
REMARK    4  A    between atoms: C10_15  and  C11_16 
REMARK    5  A    between atoms: C16_23  and  N4_24 
REMARK    6  A    between atoms: N4_24  and  C17_26 
REMARK    7  A    between atoms: C20_31  and  N6_32 
REMARK    8  A    between atoms: N6_32  and  C21_34 
REMARK    9  A    between atoms: C21_34  and  C22_35 
REMARK   10  A    between atoms: C22_35  and  O1_36 
ROOT
HETATM    1  C11 UNL     1     -87.529 -16.160   8.617  1.00  0.00    -0.045 A 
HETATM    2  C12 UNL     1     -88.463 -15.930   7.632  1.00  0.00     0.017 A 
HETATM    3  C13 UNL     1     -88.146 -15.462   6.373  1.00  0.00    -0.032 A 
HETATM    4  C14 UNL     1     -89.165 -15.216   5.317  1.00  0.00     0.050 C 
HETATM    5  C15 UNL     1     -86.824 -15.207   6.077  1.00  0.00     0.083 A 
HETATM    6  N3  UNL     1     -86.154 -14.758   4.997  1.00  0.00    -0.189 N 
ATOM      7  H3  UNL     1     -86.581 -14.501   4.108  1.00  0.00     0.184 HD
HETATM    8  C16 UNL     1     -84.833 -14.700   5.272  1.00  0.00     0.684 A 
HETATM    9  N8  UNL     1     -84.640 -15.109   6.528  1.00  0.00    -0.189 N 
ATOM     10  H8  UNL     1     -83.742 -15.171   7.008  1.00  0.00     0.184 HD
HETATM   11  C24 UNL     1     -85.843 -15.428   7.050  1.00  0.00     0.083 A 
HETATM   12  C25 UNL     1     -86.212 -15.900   8.303  1.00  0.00    -0.026 A 
HETATM   13  C26 UNL     1     -85.165 -16.133   9.330  1.00  0.00     0.051 C 
ENDROOT
BRANCH   8  14
HETATM   14  N4  UNL     1     -83.907 -14.313   4.460  1.00  0.00    -0.176 N 
ATOM     15  H4  UNL     1     -84.158 -13.858   3.582  1.00  0.00     0.186 HD
BRANCH  14  16
HETATM   16  C17 UNL     1     -82.520 -14.519   4.791  1.00  0.00     0.138 A 
HETATM   17  C18 UNL     1     -81.889 -15.702   4.490  1.00  0.00     0.067 A 
HETATM   18  C19 UNL     1     -80.569 -15.849   4.826  1.00  0.00     0.110 A 
HETATM   19  N5  UNL     1     -79.928 -14.829   5.442  1.00  0.00    -0.202 N 
HETATM   20  C20 UNL     1     -80.515 -13.658   5.749  1.00  0.00     0.679 A 
ATOM     21  H5  UNL     1     -78.946 -14.955   5.686  1.00  0.00     0.183 HD
HETATM   22  N7  UNL     1     -81.821 -13.560   5.397  1.00  0.00    -0.176 N 
ATOM     23  H7  UNL     1     -82.304 -12.687   5.611  1.00  0.00     0.186 HD
BRANCH  20  24
HETATM   24  N6  UNL     1     -79.920 -12.672   6.336  1.00  0.00    -0.224 N 
ATOM     25  H6  UNL     1     -78.901 -12.627   6.312  1.00  0.00     0.177 HD
BRANCH  24  26
HETATM   26  C21 UNL     1     -80.644 -11.635   7.024  1.00  0.00     0.164 C 
BRANCH  26  27
HETATM   27  C22 UNL     1     -81.047 -12.031   8.411  1.00  0.00     0.187 C 
BRANCH  27  28
HETATM   28  O1  UNL     1     -82.276 -12.636   8.457  1.00  0.00    -0.394 OA
HETATM   29  C23 UNL     1     -82.359 -13.827   9.113  1.00  0.00     0.201 C 
ENDBRANCH  27  28
ENDBRANCH  26  27
ENDBRANCH  24  26
ENDBRANCH  20  24
ENDBRANCH  14  16
ENDBRANCH   8  14
BRANCH   1  30
HETATM   30  C10 UNL     1     -87.833 -16.656   9.966  1.00  0.00     0.082 C 
BRANCH  30  31
HETATM   31  C9  UNL     1     -89.169 -16.382  10.451  1.00  0.00    -0.003 A 
HETATM   32  C3  UNL     1     -89.490 -15.150  10.964  1.00  0.00     0.108 A 
HETATM   33  N2  UNL     1     -90.741 -14.885  11.425  1.00  0.00    -0.344 N 
HETATM   34  C4  UNL     1     -91.705 -15.820  11.393  1.00  0.00     0.029 A 
ATOM     35  H2  UNL     1     -90.952 -13.961  11.802  1.00  0.00     0.167 HD
HETATM   36  C5  UNL     1     -93.076 -15.507  11.906  1.00  0.00     0.070 C 
HETATM   37  C6  UNL     1     -91.439 -17.063  10.892  1.00  0.00     0.062 A 
HETATM   38 CL1  UNL     1     -92.677 -18.275  10.848  1.00  0.00    -0.082 Cl
HETATM   39  C7  UNL     1     -90.150 -17.339  10.416  1.00  0.00    -0.028 A 
HETATM   40  C8  UNL     1     -89.890 -18.677   9.885  1.00  0.00     0.050 C 
BRANCH  32  41
HETATM   41  N1  UNL     1     -88.621 -14.200  11.026  1.00  0.00    -0.376 N 
ATOM     42  H1  UNL     1     -88.422 -13.690  10.166  1.00  0.00     0.161 HD
BRANCH  41  43
HETATM   43  C2  UNL     1     -87.913 -13.804  12.201  1.00  0.00     0.116 C 
HETATM   44  C1  UNL     1     -86.498 -13.433  11.778  1.00  0.00     0.026 C 
ENDBRANCH  41  43
ENDBRANCH  32  41
ENDBRANCH  30  31
ENDBRANCH   1  30
TORSDOF 10
ENDMDL
MODEL 3
REMARK VINA RESULT: -8.751621202      1.926      2.417
REMARK  10 active torsions:
REMARK  status: ('A' for Active; 'I' for Inactive)
REMARK    1  A    between atoms: C2_2  and  N1_3 
REMARK    2  A    between atoms: N1_3  and  C3_5 
REMARK    3  A    between atoms: C9_14  and  C10_15 
REMARK    4  A    between atoms: C10_15  and  C11_16 
REMARK    5  A    between atoms: C16_23  and  N4_24 
REMARK    6  A    between atoms: N4_24  and  C17_26 
REMARK    7  A    between atoms: C20_31  and  N6_32 
REMARK    8  A    between atoms: N6_32  and  C21_34 
REMARK    9  A    between atoms: C21_34  and  C22_35 
REMARK   10  A    between atoms: C22_35  and  O1_36 
ROOT
HETATM    1  C11 UNL     1     -88.275 -16.521   8.894  1.00  0.00    -0.045 A 
HETATM    2  C12 UNL     1     -89.209 -16.141   7.956  1.00  0.00     0.017 A 
HETATM    3  C13 UNL     1     -88.886 -15.548   6.753  1.00  0.00    -0.032 A 
HETATM    4  C14 UNL     1     -89.905 -15.141   5.748  1.00  0.00     0.050 C 
HETATM    5  C15 UNL     1     -87.557 -15.320   6.465  1.00  0.00     0.083 A 
HETATM    6  N3  UNL     1     -86.881 -14.781   5.432  1.00  0.00    -0.189 N 
ATOM      7  H3  UNL     1     -87.305 -14.407   4.584  1.00  0.00     0.184 HD
HETATM    8  C16 UNL     1     -85.555 -14.811   5.689  1.00  0.00     0.684 A 
HETATM    9  N8  UNL     1     -85.366 -15.368   6.888  1.00  0.00    -0.189 N 
ATOM     10  H8  UNL     1     -84.466 -15.522   7.343  1.00  0.00     0.184 HD
HETATM   11  C24 UNL     1     -86.576 -15.691   7.391  1.00  0.00     0.083 A 
HETATM   12  C25 UNL     1     -86.951 -16.285   8.588  1.00  0.00    -0.026 A 
HETATM   13  C26 UNL     1     -85.904 -16.677   9.566  1.00  0.00     0.051 C 
ENDROOT
BRANCH   8  14
HETATM   14  N4  UNL     1     -84.622 -14.375   4.911  1.00  0.00    -0.176 N 
ATOM     15  H4  UNL     1     -84.860 -13.792   4.108  1.00  0.00     0.186 HD
BRANCH  14  16
HETATM   16  C17 UNL     1     -83.245 -14.709   5.172  1.00  0.00     0.138 A 
HETATM   17  C18 UNL     1     -82.545 -15.539   4.329  1.00  0.00     0.067 A 
HETATM   18  C19 UNL     1     -81.239 -15.826   4.623  1.00  0.00     0.110 A 
HETATM   19  N5  UNL     1     -80.677 -15.287   5.729  1.00  0.00    -0.202 N 
HETATM   20  C20 UNL     1     -81.332 -14.470   6.573  1.00  0.00     0.679 A 
ATOM     21  H5  UNL     1     -79.703 -15.511   5.933  1.00  0.00     0.183 HD
HETATM   22  N7  UNL     1     -82.622 -14.215   6.241  1.00  0.00    -0.176 N 
ATOM     23  H7  UNL     1     -83.155 -13.598   6.856  1.00  0.00     0.186 HD
BRANCH  20  24
HETATM   24  N6  UNL     1     -80.813 -13.945   7.634  1.00  0.00    -0.224 N 
ATOM     25  H6  UNL     1     -79.932 -14.317   7.988  1.00  0.00     0.177 HD
BRANCH  24  26
HETATM   26  C21 UNL     1     -81.435 -12.851   8.334  1.00  0.00     0.164 C 
BRANCH  26  27
HETATM   27  C22 UNL     1     -82.393 -13.308   9.391  1.00  0.00     0.187 C 
BRANCH  27  28
HETATM   28  O1  UNL     1     -83.694 -13.322   8.961  1.00  0.00    -0.394 OA
HETATM   29  C23 UNL     1     -84.661 -13.457   9.911  1.00  0.00     0.201 C 
ENDBRANCH  27  28
ENDBRANCH  26  27
ENDBRANCH  24  26
ENDBRANCH  20  24
ENDBRANCH  14  16
ENDBRANCH   8  14
BRANCH   1  30
HETATM   30  C10 UNL     1     -88.585 -17.153  10.183  1.00  0.00     0.082 C 
BRANCH  30  31
HETATM   31  C9  UNL     1     -89.976 -17.494  10.398  1.00  0.00    -0.003 A 
HETATM   32  C3  UNL     1     -90.790 -16.682  11.148  1.00  0.00     0.108 A 
HETATM   33  N2  UNL     1     -92.095 -16.997  11.358  1.00  0.00    -0.344 N 
HETATM   34  C4  UNL     1     -92.632 -18.113  10.838  1.00  0.00     0.029 A 
ATOM     35  H2  UNL     1     -92.677 -16.376  11.920  1.00  0.00     0.167 HD
HETATM   36  C5  UNL     1     -94.073 -18.441  11.081  1.00  0.00     0.070 C 
HETATM   37  C6  UNL     1     -91.866 -18.956  10.083  1.00  0.00     0.062 A 
HETATM   38 CL1  UNL     1     -92.552 -20.398   9.408  1.00  0.00    -0.082 Cl
HETATM   39  C7  UNL     1     -90.520 -18.634   9.865  1.00  0.00    -0.028 A 
HETATM   40  C8  UNL     1     -89.721 -19.552   9.054  1.00  0.00     0.050 C 
BRANCH  32  41
HETATM   41  N1  UNL     1     -90.348 -15.594  11.678  1.00  0.00    -0.376 N 
ATOM     42  H1  UNL     1     -89.982 -14.881  11.047  1.00  0.00     0.161 HD
BRANCH  41  43
HETATM   43  C2  UNL     1     -90.331 -15.303  13.076  1.00  0.00     0.116 C 
HETATM   44  C1  UNL     1     -89.239 -14.268  13.313  1.00  0.00     0.026 C 
ENDBRANCH  41  43
ENDBRANCH  32  41
ENDBRANCH  30  31
ENDBRANCH   1  30
TORSDOF 10
ENDMDL
MODEL 4
REMARK VINA RESULT: -8.608104165      2.781      3.728
REMARK  10 active torsions:
REMARK  status: ('A' for Active; 'I' for Inactive)
REMARK    1  A    between atoms: C2_2  and  N1_3 
REMARK    2  A    between atoms: N1_3  and  C3_5 
REMARK    3  A    between atoms: C9_14  and  C10_15 
REMARK    4  A    between atoms: C10_15  and  C11_16 
REMARK    5  A    between atoms: C16_23  and  N4_24 
REMARK    6  A    between atoms: N4_24  and  C17_26 
REMARK    7  A    between atoms: C20_31  and  N6_32 
REMARK    8  A    between atoms: N6_32  and  C21_34 
REMARK    9  A    between atoms: C21_34  and  C22_35 
REMARK   10  A    between atoms: C22_35  and  O1_36 
ROOT
HETATM    1  C11 UNL     1     -88.350 -16.505   8.925  1.00  0.00    -0.045 A 
HETATM    2  C12 UNL     1     -89.303 -16.162   7.992  1.00  0.00     0.017 A 
HETATM    3  C13 UNL     1     -89.007 -15.569   6.781  1.00  0.00    -0.032 A 
HETATM    4  C14 UNL     1     -90.046 -15.202   5.782  1.00  0.00     0.050 C 
HETATM    5  C15 UNL     1     -87.688 -15.301   6.482  1.00  0.00     0.083 A 
HETATM    6  N3  UNL     1     -87.036 -14.749   5.439  1.00  0.00    -0.189 N 
ATOM      7  H3  UNL     1     -87.479 -14.395   4.592  1.00  0.00     0.184 HD
HETATM    8  C16 UNL     1     -85.709 -14.736   5.687  1.00  0.00     0.684 A 
HETATM    9  N8  UNL     1     -85.493 -15.277   6.888  1.00  0.00    -0.189 N 
ATOM     10  H8  UNL     1     -84.586 -15.400   7.338  1.00  0.00     0.184 HD
HETATM   11  C24 UNL     1     -86.689 -15.634   7.403  1.00  0.00     0.083 A 
HETATM   12  C25 UNL     1     -87.036 -16.230   8.608  1.00  0.00    -0.026 A 
HETATM   13  C26 UNL     1     -85.970 -16.582   9.581  1.00  0.00     0.051 C 
ENDROOT
BRANCH   8  14
HETATM   14  N4  UNL     1     -84.796 -14.277   4.898  1.00  0.00    -0.176 N 
ATOM     15  H4  UNL     1     -85.028 -13.553   4.218  1.00  0.00     0.186 HD
BRANCH  14  16
HETATM   16  C17 UNL     1     -83.449 -14.784   4.975  1.00  0.00     0.138 A 
HETATM   17  C18 UNL     1     -82.830 -14.970   6.188  1.00  0.00     0.067 A 
HETATM   18  C19 UNL     1     -81.549 -15.453   6.206  1.00  0.00     0.110 A 
HETATM   19  N5  UNL     1     -80.932 -15.732   5.035  1.00  0.00    -0.202 N 
HETATM   20  C20 UNL     1     -81.508 -15.563   3.831  1.00  0.00     0.679 A 
ATOM     21  H5  UNL     1     -79.977 -16.091   5.066  1.00  0.00     0.183 HD
HETATM   22  N7  UNL     1     -82.777 -15.083   3.864  1.00  0.00    -0.176 N 
ATOM     23  H7  UNL     1     -83.252 -14.941   2.972  1.00  0.00     0.186 HD
BRANCH  20  24
HETATM   24  N6  UNL     1     -80.936 -15.824   2.702  1.00  0.00    -0.224 N 
ATOM     25  H6  UNL     1     -81.005 -15.142   1.946  1.00  0.00     0.177 HD
BRANCH  24  26
HETATM   26  C21 UNL     1     -80.205 -17.043   2.473  1.00  0.00     0.164 C 
BRANCH  26  27
HETATM   27  C22 UNL     1     -80.282 -17.506   1.051  1.00  0.00     0.187 C 
BRANCH  27  28
HETATM   28  O1  UNL     1     -81.540 -17.909   0.689  1.00  0.00    -0.394 OA
HETATM   29  C23 UNL     1     -81.642 -18.736  -0.389  1.00  0.00     0.201 C 
ENDBRANCH  27  28
ENDBRANCH  26  27
ENDBRANCH  24  26
ENDBRANCH  20  24
ENDBRANCH  14  16
ENDBRANCH   8  14
BRANCH   1  30
HETATM   30  C10 UNL     1     -88.631 -17.136  10.221  1.00  0.00     0.082 C 
BRANCH  30  31
HETATM   31  C9  UNL     1     -90.011 -17.508  10.454  1.00  0.00    -0.003 A 
HETATM   32  C3  UNL     1     -90.827 -16.726  11.232  1.00  0.00     0.108 A 
HETATM   33  N2  UNL     1     -92.122 -17.069  11.459  1.00  0.00    -0.344 N 
HETATM   34  C4  UNL     1     -92.647 -18.187  10.929  1.00  0.00     0.029 A 
ATOM     35  H2  UNL     1     -92.706 -16.469  12.042  1.00  0.00     0.167 HD
HETATM   36  C5  UNL     1     -94.076 -18.547  11.191  1.00  0.00     0.070 C 
HETATM   37  C6  UNL     1     -91.878 -19.002  10.146  1.00  0.00     0.062 A 
HETATM   38 CL1  UNL     1     -92.547 -20.445   9.459  1.00  0.00    -0.082 Cl
HETATM   39  C7  UNL     1     -90.542 -18.649   9.911  1.00  0.00    -0.028 A 
HETATM   40  C8  UNL     1     -89.739 -19.538   9.071  1.00  0.00     0.050 C 
BRANCH  32  41
HETATM   41  N1  UNL     1     -90.397 -15.638  11.773  1.00  0.00    -0.376 N 
ATOM     42  H1  UNL     1     -90.105 -14.887  11.148  1.00  0.00     0.161 HD
BRANCH  41  43
HETATM   43  C2  UNL     1     -90.297 -15.397  13.177  1.00  0.00     0.116 C 
HETATM   44  C1  UNL     1     -89.215 -14.346  13.384  1.00  0.00     0.026 C 
ENDBRANCH  41  43
ENDBRANCH  32  41
ENDBRANCH  30  31
ENDBRANCH   1  30
TORSDOF 10
ENDMDL
MODEL 5
REMARK VINA RESULT: -8.606376418      2.509      3.122
REMARK  10 active torsions:
REMARK  status: ('A' for Active; 'I' for Inactive)
REMARK    1  A    between atoms: C2_2  and  N1_3 
REMARK    2  A    between atoms: N1_3  and  C3_5 
REMARK    3  A    between atoms: C9_14  and  C10_15 
REMARK    4  A    between atoms: C10_15  and  C11_16 
REMARK    5  A    between atoms: C16_23  and  N4_24 
REMARK    6  A    between atoms: N4_24  and  C17_26 
REMARK    7  A    between atoms: C20_31  and  N6_32 
REMARK    8  A    between atoms: N6_32  and  C21_34 
REMARK    9  A    between atoms: C21_34  and  C22_35 
REMARK   10  A    between atoms: C22_35  and  O1_36 
ROOT
HETATM    1  C11 UNL     1     -88.317 -16.534   8.882  1.00  0.00    -0.045 A 
HETATM    2  C12 UNL     1     -89.266 -16.164   7.955  1.00  0.00     0.017 A 
HETATM    3  C13 UNL     1     -88.964 -15.556   6.753  1.00  0.00    -0.032 A 
HETATM    4  C14 UNL     1     -89.998 -15.160   5.760  1.00  0.00     0.050 C 
HETATM    5  C15 UNL     1     -87.642 -15.301   6.457  1.00  0.00     0.083 A 
HETATM    6  N3  UNL     1     -86.984 -14.741   5.423  1.00  0.00    -0.189 N 
ATOM      7  H3  UNL     1     -87.422 -14.368   4.581  1.00  0.00     0.184 HD
HETATM    8  C16 UNL     1     -85.656 -14.749   5.669  1.00  0.00     0.684 A 
HETATM    9  N8  UNL     1     -85.446 -15.311   6.862  1.00  0.00    -0.189 N 
ATOM     10  H8  UNL     1     -84.540 -15.452   7.309  1.00  0.00     0.184 HD
HETATM   11  C24 UNL     1     -86.646 -15.660   7.372  1.00  0.00     0.083 A 
HETATM   12  C25 UNL     1     -87.001 -16.271   8.568  1.00  0.00    -0.026 A 
HETATM   13  C26 UNL     1     -85.938 -16.651   9.534  1.00  0.00     0.051 C 
ENDROOT
BRANCH   8  14
HETATM   14  N4  UNL     1     -84.737 -14.289   4.887  1.00  0.00    -0.176 N 
ATOM     15  H4  UNL     1     -84.963 -13.558   4.212  1.00  0.00     0.186 HD
BRANCH  14  16
HETATM   16  C17 UNL     1     -83.394 -14.805   4.965  1.00  0.00     0.138 A 
HETATM   17  C18 UNL     1     -82.676 -14.739   6.135  1.00  0.00     0.067 A 
HETATM   18  C19 UNL     1     -81.403 -15.243   6.155  1.00  0.00     0.110 A 
HETATM   19  N5  UNL     1     -80.890 -15.788   5.027  1.00  0.00    -0.202 N 
HETATM   20  C20 UNL     1     -81.566 -15.869   3.867  1.00  0.00     0.679 A 
ATOM     21  H5  UNL     1     -79.940 -16.158   5.059  1.00  0.00     0.183 HD
HETATM   22  N7  UNL     1     -82.822 -15.359   3.895  1.00  0.00    -0.176 N 
ATOM     23  H7  UNL     1     -83.370 -15.401   3.036  1.00  0.00     0.186 HD
BRANCH  20  24
HETATM   24  N6  UNL     1     -81.095 -16.387   2.780  1.00  0.00    -0.224 N 
ATOM     25  H6  UNL     1     -81.504 -17.252   2.428  1.00  0.00     0.177 HD
BRANCH  24  26
HETATM   26  C21 UNL     1     -80.011 -15.784   2.047  1.00  0.00     0.164 C 
BRANCH  26  27
HETATM   27  C22 UNL     1     -80.406 -14.508   1.372  1.00  0.00     0.187 C 
BRANCH  27  28
HETATM   28  O1  UNL     1     -81.451 -14.668   0.499  1.00  0.00    -0.394 OA
HETATM   29  C23 UNL     1     -81.293 -14.166  -0.758  1.00  0.00     0.201 C 
ENDBRANCH  27  28
ENDBRANCH  26  27
ENDBRANCH  24  26
ENDBRANCH  20  24
ENDBRANCH  14  16
ENDBRANCH   8  14
BRANCH   1  30
HETATM   30  C10 UNL     1     -88.605 -17.181  10.169  1.00  0.00     0.082 C 
BRANCH  30  31
HETATM   31  C9  UNL     1     -89.992 -17.531  10.401  1.00  0.00    -0.003 A 
HETATM   32  C3  UNL     1     -90.797 -16.732  11.172  1.00  0.00     0.108 A 
HETATM   33  N2  UNL     1     -92.098 -17.055  11.398  1.00  0.00    -0.344 N 
HETATM   34  C4  UNL     1     -92.638 -18.167  10.873  1.00  0.00     0.029 A 
ATOM     35  H2  UNL     1     -92.674 -16.443  11.976  1.00  0.00     0.167 HD
HETATM   36  C5  UNL     1     -94.073 -18.504  11.134  1.00  0.00     0.070 C 
HETATM   37  C6  UNL     1     -91.880 -18.998  10.096  1.00  0.00     0.062 A 
HETATM   38 CL1  UNL     1     -92.570 -20.435   9.415  1.00  0.00    -0.082 Cl
HETATM   39  C7  UNL     1     -90.538 -18.667   9.862  1.00  0.00    -0.028 A 
HETATM   40  C8  UNL     1     -89.748 -19.572   9.028  1.00  0.00     0.050 C 
BRANCH  32  41
HETATM   41  N1  UNL     1     -90.352 -15.648  11.709  1.00  0.00    -0.376 N 
ATOM     42  H1  UNL     1     -89.896 -14.974  11.094  1.00  0.00     0.161 HD
BRANCH  41  43
HETATM   43  C2  UNL     1     -90.447 -15.312  13.093  1.00  0.00     0.116 C 
HETATM   44  C1  UNL     1     -89.277 -14.394  13.421  1.00  0.00     0.026 C 
ENDBRANCH  41  43
ENDBRANCH  32  41
ENDBRANCH  30  31
ENDBRANCH   1  30
TORSDOF 10
ENDMDL
