MODEL 1
REMARK VINA RESULT: -9.112999749      0.000      0.000
REMARK  9 active torsions:
REMARK  status: ('A' for Active; 'I' for Inactive)
REMARK    1  A    between atoms: C3_3  and  O1_4 
REMARK    2  A    between atoms: O1_4  and  C4_5 
REMARK    3  A    between atoms: C7_8  and  C8_9 
REMARK    4  A    between atoms: C8_9  and  C9_10 
REMARK    5  A    between atoms: C11_15  and  N2_16 
REMARK    6  A    between atoms: N2_16  and  C12_19 
REMARK    7  A    between atoms: C12_19  and  C13_20 
REMARK    8  A    between atoms: C13_20  and  O3_21 
REMARK    9  A    between atoms: C27_36  and  O4_37 
ROOT
HETATM    1  C1  UNL     1     -87.990 -24.196  16.261  1.00  0.00     0.014 C 
HETATM    2  C2  UNL     1     -87.168 -23.321  16.275  1.00  0.00    -0.091 C 
HETATM    3  C3  UNL     1     -86.155 -22.283  16.289  1.00  0.00     0.268 C 
ENDROOT
BRANCH   3   4
HETATM    4  O1  UNL     1     -85.827 -21.766  15.036  1.00  0.00    -0.340 OA
BRANCH   4   5
HETATM    5  C4  UNL     1     -85.742 -20.437  14.681  1.00  0.00     0.070 A 
HETATM    6  C5  UNL     1     -84.617 -19.953  14.005  1.00  0.00     0.037 A 
HETATM    7  C6  UNL     1     -84.492 -18.640  13.635  1.00  0.00     0.010 A 
HETATM    8  C7  UNL     1     -85.486 -17.720  13.917  1.00  0.00    -0.056 A 
HETATM    9  C28 UNL     1     -86.593 -18.183  14.579  1.00  0.00     0.010 A 
HETATM   10  C29 UNL     1     -86.726 -19.527  14.959  1.00  0.00     0.037 A 
BRANCH   8  11
HETATM   11  C8  UNL     1     -85.403 -16.308  13.569  1.00  0.00     0.066 C 
BRANCH  11  12
HETATM   12  C9  UNL     1     -86.392 -15.820  12.540  1.00  0.00     0.117 C 
HETATM   13  N1  UNL     1     -87.491 -15.076  13.094  1.00  0.00    -0.352 N 
HETATM   14  C10 UNL     1     -88.612 -14.549  12.468  1.00  0.00     0.248 C 
ATOM     15  H1  UNL     1     -87.438 -14.911  14.100  1.00  0.00     0.163 HD
HETATM   16  O2  UNL     1     -88.868 -13.308  12.699  1.00  0.00    -0.271 OA
HETATM   17  C11 UNL     1     -89.598 -15.157  11.560  1.00  0.00     0.277 C 
HETATM   18  C14 UNL     1     -89.132 -16.301  10.726  1.00  0.00     0.043 C 
HETATM   19  C15 UNL     1     -90.206 -16.573   9.678  1.00  0.00     0.002 C 
HETATM   20  C16 UNL     1     -89.567 -17.045   8.376  1.00  0.00     0.000 C 
HETATM   21  C17 UNL     1     -89.399 -15.933   7.385  1.00  0.00     0.000 C 
HETATM   22  C18 UNL     1     -87.959 -15.489   7.249  1.00  0.00     0.000 C 
HETATM   23  C19 UNL     1     -87.575 -15.228   5.807  1.00  0.00     0.000 C 
HETATM   24  C20 UNL     1     -86.085 -15.345   5.607  1.00  0.00     0.000 C 
HETATM   25  C21 UNL     1     -85.321 -14.546   6.647  1.00  0.00     0.000 C 
HETATM   26  C22 UNL     1     -83.852 -14.890   6.563  1.00  0.00     0.000 C 
HETATM   27  C23 UNL     1     -83.454 -15.790   7.736  1.00  0.00     0.000 C 
HETATM   28  C24 UNL     1     -83.424 -14.920   8.966  1.00  0.00     0.000 C 
HETATM   29  C25 UNL     1     -83.518 -15.710  10.246  1.00  0.00     0.002 C 
HETATM   30  C26 UNL     1     -84.928 -16.070  10.614  1.00  0.00     0.034 C 
HETATM   31  C27 UNL     1     -85.585 -15.058  11.522  1.00  0.00     0.141 C 
BRANCH  17  32
HETATM   32  N2  UNL     1     -90.799 -15.598  12.242  1.00  0.00    -0.060 N 
ATOM     33  H22 UNL     1     -91.561 -14.935  12.096  1.00  0.00     0.278 HD
ATOM     34  H21 UNL     1     -91.196 -16.416  11.781  1.00  0.00     0.278 HD
BRANCH  32  35
HETATM   35  C12 UNL     1     -90.602 -15.848  13.647  1.00  0.00     0.259 C 
BRANCH  35  36
HETATM   36  C13 UNL     1     -90.641 -17.374  13.811  1.00  0.00     0.191 C 
BRANCH  36  37
HETATM   37  O3  UNL     1     -91.038 -17.721  15.087  1.00  0.00    -0.399 OA
ATOM     38  H3  UNL     1     -90.925 -18.653  15.234  1.00  0.00     0.209 HD
ENDBRANCH  36  37
ENDBRANCH  35  36
ENDBRANCH  32  35
ENDBRANCH  17  32
BRANCH  31  39
HETATM   39  O4  UNL     1     -84.665 -14.219  12.121  1.00  0.00    -0.394 OA
ATOM     40  H4  UNL     1     -83.828 -14.649  12.248  1.00  0.00     0.210 HD
ENDBRANCH  31  39
ENDBRANCH  11  12
ENDBRANCH   8  11
ENDBRANCH   4   5
ENDBRANCH   3   4
TORSDOF 9
ENDMDL
MODEL 2
REMARK VINA RESULT: -9.050494854      1.357      1.657
REMARK  9 active torsions:
REMARK  status: ('A' for Active; 'I' for Inactive)
REMARK    1  A    between atoms: C3_3  and  O1_4 
REMARK    2  A    between atoms: O1_4  and  C4_5 
REMARK    3  A    between atoms: C7_8  and  C8_9 
REMARK    4  A    between atoms: C8_9  and  C9_10 
REMARK    5  A    between atoms: C11_15  and  N2_16 
REMARK    6  A    between atoms: N2_16  and  C12_19 
REMARK    7  A    between atoms: C12_19  and  C13_20 
REMARK    8  A    between atoms: C13_20  and  O3_21 
REMARK    9  A    between atoms: C27_36  and  O4_37 
ROOT
HETATM    1  C1  UNL     1     -86.095 -22.330  14.022  1.00  0.00     0.014 C 
HETATM    2  C2  UNL     1     -85.768 -21.653  14.957  1.00  0.00    -0.091 C 
HETATM    3  C3  UNL     1     -85.354 -20.852  16.093  1.00  0.00     0.268 C 
ENDROOT
BRANCH   3   4
HETATM    4  O1  UNL     1     -84.299 -19.976  15.842  1.00  0.00    -0.340 OA
BRANCH   4   5
HETATM    5  C4  UNL     1     -84.352 -18.787  15.148  1.00  0.00     0.070 A 
HETATM    6  C5  UNL     1     -84.822 -17.623  15.768  1.00  0.00     0.037 A 
HETATM    7  C6  UNL     1     -84.893 -16.422  15.114  1.00  0.00     0.010 A 
HETATM    8  C7  UNL     1     -84.498 -16.302  13.793  1.00  0.00    -0.056 A 
HETATM    9  C28 UNL     1     -84.038 -17.435  13.176  1.00  0.00     0.010 A 
HETATM   10  C29 UNL     1     -83.963 -18.668  13.841  1.00  0.00     0.037 A 
BRANCH   8  11
HETATM   11  C8  UNL     1     -84.570 -15.058  13.038  1.00  0.00     0.066 C 
BRANCH  11  12
HETATM   12  C9  UNL     1     -85.811 -14.860  12.206  1.00  0.00     0.117 C 
HETATM   13  N1  UNL     1     -86.867 -14.164  12.891  1.00  0.00    -0.352 N 
HETATM   14  C10 UNL     1     -88.159 -13.875  12.473  1.00  0.00     0.248 C 
ATOM     15  H1  UNL     1     -86.630 -13.832  13.827  1.00  0.00     0.163 HD
HETATM   16  O2  UNL     1     -88.539 -12.649  12.587  1.00  0.00    -0.271 OA
HETATM   17  C11 UNL     1     -89.214 -14.730  11.905  1.00  0.00     0.277 C 
HETATM   18  C14 UNL     1     -88.771 -15.935  11.148  1.00  0.00     0.043 C 
HETATM   19  C15 UNL     1     -89.989 -16.494  10.420  1.00  0.00     0.002 C 
HETATM   20  C16 UNL     1     -89.574 -17.097   9.081  1.00  0.00     0.000 C 
HETATM   21  C17 UNL     1     -89.781 -16.150   7.938  1.00  0.00     0.000 C 
HETATM   22  C18 UNL     1     -88.481 -15.575   7.418  1.00  0.00     0.000 C 
HETATM   23  C19 UNL     1     -88.449 -15.512   5.904  1.00  0.00     0.000 C 
HETATM   24  C20 UNL     1     -87.033 -15.491   5.387  1.00  0.00     0.000 C 
HETATM   25  C21 UNL     1     -86.193 -14.452   6.108  1.00  0.00     0.000 C 
HETATM   26  C22 UNL     1     -84.740 -14.639   5.737  1.00  0.00     0.000 C 
HETATM   27  C23 UNL     1     -83.979 -15.284   6.898  1.00  0.00     0.000 C 
HETATM   28  C24 UNL     1     -83.820 -14.228   7.960  1.00  0.00     0.000 C 
HETATM   29  C25 UNL     1     -83.528 -14.803   9.322  1.00  0.00     0.002 C 
HETATM   30  C26 UNL     1     -84.763 -15.254  10.048  1.00  0.00     0.034 C 
HETATM   31  C27 UNL     1     -85.356 -14.188  10.938  1.00  0.00     0.141 C 
BRANCH  17  32
HETATM   32  N2  UNL     1     -90.168 -15.185  12.896  1.00  0.00    -0.060 N 
ATOM     33  H22 UNL     1     -90.833 -14.446  13.123  1.00  0.00     0.278 HD
ATOM     34  H21 UNL     1     -90.808 -15.870  12.493  1.00  0.00     0.278 HD
BRANCH  32  35
HETATM   35  C12 UNL     1     -89.552 -15.703  14.090  1.00  0.00     0.259 C 
BRANCH  35  36
HETATM   36  C13 UNL     1     -90.267 -17.027  14.393  1.00  0.00     0.191 C 
BRANCH  36  37
HETATM   37  O3  UNL     1     -91.370 -16.818  15.196  1.00  0.00    -0.399 OA
ATOM     38  H3  UNL     1     -91.966 -17.557  15.152  1.00  0.00     0.209 HD
ENDBRANCH  36  37
ENDBRANCH  35  36
ENDBRANCH  32  35
ENDBRANCH  17  32
BRANCH  31  39
HETATM   39  O4  UNL     1     -84.463 -13.165  11.192  1.00  0.00    -0.394 OA
ATOM     40  H4  UNL     1     -83.563 -13.448  11.085  1.00  0.00     0.210 HD
ENDBRANCH  31  39
ENDBRANCH  11  12
ENDBRANCH   8  11
ENDBRANCH   4   5
ENDBRANCH   3   4
TORSDOF 9
ENDMDL
MODEL 3
REMARK VINA RESULT: -8.872517038      1.110      1.155
REMARK  9 active torsions:
REMARK  status: ('A' for Active; 'I' for Inactive)
REMARK    1  A    between atoms: C3_3  and  O1_4 
REMARK    2  A    between atoms: O1_4  and  C4_5 
REMARK    3  A    between atoms: C7_8  and  C8_9 
REMARK    4  A    between atoms: C8_9  and  C9_10 
REMARK    5  A    between atoms: C11_15  and  N2_16 
REMARK    6  A    between atoms: N2_16  and  C12_19 
REMARK    7  A    between atoms: C12_19  and  C13_20 
REMARK    8  A    between atoms: C13_20  and  O3_21 
REMARK    9  A    between atoms: C27_36  and  O4_37 
ROOT
HETATM    1  C1  UNL     1     -85.792 -22.333  14.095  1.00  0.00     0.014 C 
HETATM    2  C2  UNL     1     -85.838 -21.907  15.215  1.00  0.00    -0.091 C 
HETATM    3  C3  UNL     1     -85.869 -21.381  16.567  1.00  0.00     0.268 C 
ENDROOT
BRANCH   3   4
HETATM    4  O1  UNL     1     -86.350 -20.077  16.679  1.00  0.00    -0.340 OA
BRANCH   4   5
HETATM    5  C4  UNL     1     -86.065 -19.011  15.854  1.00  0.00     0.070 A 
HETATM    6  C5  UNL     1     -84.847 -18.331  15.966  1.00  0.00     0.037 A 
HETATM    7  C6  UNL     1     -84.525 -17.266  15.168  1.00  0.00     0.010 A 
HETATM    8  C7  UNL     1     -85.402 -16.807  14.200  1.00  0.00    -0.056 A 
HETATM    9  C28 UNL     1     -86.598 -17.465  14.082  1.00  0.00     0.010 A 
HETATM   10  C29 UNL     1     -86.933 -18.556  14.897  1.00  0.00     0.037 A 
BRANCH   8  11
HETATM   11  C8  UNL     1     -85.127 -15.667  13.335  1.00  0.00     0.066 C 
BRANCH  11  12
HETATM   12  C9  UNL     1     -86.209 -15.308  12.350  1.00  0.00     0.117 C 
HETATM   13  N1  UNL     1     -87.301 -14.571  12.926  1.00  0.00    -0.352 N 
HETATM   14  C10 UNL     1     -88.490 -14.145  12.348  1.00  0.00     0.248 C 
ATOM     15  H1  UNL     1     -87.185 -14.323  13.909  1.00  0.00     0.163 HD
HETATM   16  O2  UNL     1     -88.790 -12.902  12.501  1.00  0.00    -0.271 OA
HETATM   17  C11 UNL     1     -89.507 -14.867  11.567  1.00  0.00     0.277 C 
HETATM   18  C14 UNL     1     -89.046 -16.053  10.791  1.00  0.00     0.043 C 
HETATM   19  C15 UNL     1     -90.178 -16.456   9.851  1.00  0.00     0.002 C 
HETATM   20  C16 UNL     1     -89.612 -17.003   8.544  1.00  0.00     0.000 C 
HETATM   21  C17 UNL     1     -89.571 -15.968   7.461  1.00  0.00     0.000 C 
HETATM   22  C18 UNL     1     -88.168 -15.474   7.182  1.00  0.00     0.000 C 
HETATM   23  C19 UNL     1     -87.902 -15.314   5.699  1.00  0.00     0.000 C 
HETATM   24  C20 UNL     1     -86.426 -15.381   5.398  1.00  0.00     0.000 C 
HETATM   25  C21 UNL     1     -85.630 -14.467   6.312  1.00  0.00     0.000 C 
HETATM   26  C22 UNL     1     -84.156 -14.753   6.143  1.00  0.00     0.000 C 
HETATM   27  C23 UNL     1     -83.630 -15.537   7.349  1.00  0.00     0.000 C 
HETATM   28  C24 UNL     1     -83.555 -14.570   8.502  1.00  0.00     0.000 C 
HETATM   29  C25 UNL     1     -83.517 -15.258   9.843  1.00  0.00     0.002 C 
HETATM   30  C26 UNL     1     -84.878 -15.648  10.343  1.00  0.00     0.034 C 
HETATM   31  C27 UNL     1     -85.517 -14.596  11.218  1.00  0.00     0.141 C 
BRANCH  17  32
HETATM   32  N2  UNL     1     -90.632 -15.303  12.369  1.00  0.00    -0.060 N 
ATOM     33  H22 UNL     1     -91.349 -14.579  12.410  1.00  0.00     0.278 HD
ATOM     34  H21 UNL     1     -91.157 -16.034  11.888  1.00  0.00     0.278 HD
BRANCH  32  35
HETATM   35  C12 UNL     1     -90.261 -15.730  13.694  1.00  0.00     0.259 C 
BRANCH  35  36
HETATM   36  C13 UNL     1     -90.663 -17.208  13.789  1.00  0.00     0.191 C 
BRANCH  36  37
HETATM   37  O3  UNL     1     -91.054 -17.530  15.072  1.00  0.00    -0.399 OA
ATOM     38  H3  UNL     1     -91.683 -16.900  15.403  1.00  0.00     0.209 HD
ENDBRANCH  36  37
ENDBRANCH  35  36
ENDBRANCH  32  35
ENDBRANCH  17  32
BRANCH  31  39
HETATM   39  O4  UNL     1     -84.600 -13.672  11.678  1.00  0.00    -0.394 OA
ATOM     40  H4  UNL     1     -83.734 -13.827  11.319  1.00  0.00     0.210 HD
ENDBRANCH  31  39
ENDBRANCH  11  12
ENDBRANCH   8  11
ENDBRANCH   4   5
ENDBRANCH   3   4
TORSDOF 9
ENDMDL
MODEL 4
REMARK VINA RESULT: -8.451978680      1.665      2.071
REMARK  9 active torsions:
REMARK  status: ('A' for Active; 'I' for Inactive)
REMARK    1  A    between atoms: C3_3  and  O1_4 
REMARK    2  A    between atoms: O1_4  and  C4_5 
REMARK    3  A    between atoms: C7_8  and  C8_9 
REMARK    4  A    between atoms: C8_9  and  C9_10 
REMARK    5  A    between atoms: C11_15  and  N2_16 
REMARK    6  A    between atoms: N2_16  and  C12_19 
REMARK    7  A    between atoms: C12_19  and  C13_20 
REMARK    8  A    between atoms: C13_20  and  O3_21 
REMARK    9  A    between atoms: C27_36  and  O4_37 
ROOT
HETATM    1  C1  UNL     1     -85.486 -21.912  14.018  1.00  0.00     0.014 C 
HETATM    2  C2  UNL     1     -85.527 -21.555  15.163  1.00  0.00    -0.091 C 
HETATM    3  C3  UNL     1     -85.555 -21.140  16.553  1.00  0.00     0.268 C 
ENDROOT
BRANCH   3   4
HETATM    4  O1  UNL     1     -84.722 -20.066  16.863  1.00  0.00    -0.340 OA
BRANCH   4   5
HETATM    5  C4  UNL     1     -84.815 -18.777  16.385  1.00  0.00     0.070 A 
HETATM    6  C5  UNL     1     -86.051 -18.123  16.338  1.00  0.00     0.037 A 
HETATM    7  C6  UNL     1     -86.187 -16.844  15.869  1.00  0.00     0.010 A 
HETATM    8  C7  UNL     1     -85.093 -16.128  15.415  1.00  0.00    -0.056 A 
HETATM    9  C28 UNL     1     -83.877 -16.759  15.456  1.00  0.00     0.010 A 
HETATM   10  C29 UNL     1     -83.733 -18.069  15.935  1.00  0.00     0.037 A 
BRANCH   8  11
HETATM   11  C8  UNL     1     -85.176 -14.773  14.885  1.00  0.00     0.066 C 
BRANCH  11  12
HETATM   12  C9  UNL     1     -86.041 -14.592  13.664  1.00  0.00     0.117 C 
HETATM   13  N1  UNL     1     -87.309 -13.971  13.935  1.00  0.00    -0.352 N 
HETATM   14  C10 UNL     1     -88.376 -13.719  13.082  1.00  0.00     0.248 C 
ATOM     15  H1  UNL     1     -87.446 -13.670  14.900  1.00  0.00     0.163 HD
HETATM   16  O2  UNL     1     -88.838 -12.517  13.080  1.00  0.00    -0.271 OA
HETATM   17  C11 UNL     1     -89.104 -14.593  12.148  1.00  0.00     0.277 C 
HETATM   18  C14 UNL     1     -88.352 -15.745  11.575  1.00  0.00     0.043 C 
HETATM   19  C15 UNL     1     -89.190 -16.323  10.440  1.00  0.00     0.002 C 
HETATM   20  C16 UNL     1     -88.286 -16.850   9.330  1.00  0.00     0.000 C 
HETATM   21  C17 UNL     1     -88.116 -15.865   8.214  1.00  0.00     0.000 C 
HETATM   22  C18 UNL     1     -86.750 -15.214   8.217  1.00  0.00     0.000 C 
HETATM   23  C19 UNL     1     -86.175 -15.085   6.821  1.00  0.00     0.000 C 
HETATM   24  C20 UNL     1     -84.671 -14.982   6.856  1.00  0.00     0.000 C 
HETATM   25  C21 UNL     1     -84.208 -13.940   7.858  1.00  0.00     0.000 C 
HETATM   26  C22 UNL     1     -82.711 -14.050   8.037  1.00  0.00     0.000 C 
HETATM   27  C23 UNL     1     -82.388 -14.711   9.379  1.00  0.00     0.000 C 
HETATM   28  C24 UNL     1     -82.683 -13.695  10.452  1.00  0.00     0.000 C 
HETATM   29  C25 UNL     1     -82.874 -14.316  11.812  1.00  0.00     0.002 C 
HETATM   30  C26 UNL     1     -84.261 -14.849  12.027  1.00  0.00     0.034 C 
HETATM   31  C27 UNL     1     -85.194 -13.848  12.666  1.00  0.00     0.141 C 
BRANCH  17  32
HETATM   32  N2  UNL     1     -90.326 -15.130  12.712  1.00  0.00    -0.060 N 
ATOM     33  H22 UNL     1     -91.055 -14.417  12.740  1.00  0.00     0.278 HD
ATOM     34  H21 UNL     1     -90.761 -15.791  12.068  1.00  0.00     0.278 HD
BRANCH  32  35
HETATM   35  C12 UNL     1     -90.145 -15.727  14.010  1.00  0.00     0.259 C 
BRANCH  35  36
HETATM   36  C13 UNL     1     -90.658 -17.169  13.886  1.00  0.00     0.191 C 
BRANCH  36  37
HETATM   37  O3  UNL     1     -91.067 -17.653  15.111  1.00  0.00    -0.399 OA
ATOM     38  H3  UNL     1     -91.072 -18.603  15.116  1.00  0.00     0.209 HD
ENDBRANCH  36  37
ENDBRANCH  35  36
ENDBRANCH  32  35
ENDBRANCH  17  32
BRANCH  31  39
HETATM   39  O4  UNL     1     -84.511 -12.800  13.252  1.00  0.00    -0.394 OA
ATOM     40  H4  UNL     1     -84.391 -12.076  12.649  1.00  0.00     0.210 HD
ENDBRANCH  31  39
ENDBRANCH  11  12
ENDBRANCH   8  11
ENDBRANCH   4   5
ENDBRANCH   3   4
TORSDOF 9
ENDMDL
MODEL 5
REMARK VINA RESULT: -8.256739272      2.256      3.700
REMARK  9 active torsions:
REMARK  status: ('A' for Active; 'I' for Inactive)
REMARK    1  A    between atoms: C3_3  and  O1_4 
REMARK    2  A    between atoms: O1_4  and  C4_5 
REMARK    3  A    between atoms: C7_8  and  C8_9 
REMARK    4  A    between atoms: C8_9  and  C9_10 
REMARK    5  A    between atoms: C11_15  and  N2_16 
REMARK    6  A    between atoms: N2_16  and  C12_19 
REMARK    7  A    between atoms: C12_19  and  C13_20 
REMARK    8  A    between atoms: C13_20  and  O3_21 
REMARK    9  A    between atoms: C27_36  and  O4_37 
ROOT
HETATM    1  C1  UNL     1     -88.415 -24.345  15.956  1.00  0.00     0.014 C 
HETATM    2  C2  UNL     1     -87.461 -23.818  16.459  1.00  0.00    -0.091 C 
HETATM    3  C3  UNL     1     -86.292 -23.197  17.052  1.00  0.00     0.268 C 
ENDROOT
BRANCH   3   4
HETATM    4  O1  UNL     1     -85.814 -22.077  16.374  1.00  0.00    -0.340 OA
BRANCH   4   5
HETATM    5  C4  UNL     1     -86.428 -20.849  16.258  1.00  0.00     0.070 A 
HETATM    6  C5  UNL     1     -86.428 -20.166  15.037  1.00  0.00     0.037 A 
HETATM    7  C6  UNL     1     -87.025 -18.944  14.880  1.00  0.00     0.010 A 
HETATM    8  C7  UNL     1     -87.665 -18.319  15.936  1.00  0.00    -0.056 A 
HETATM    9  C28 UNL     1     -87.671 -18.979  17.138  1.00  0.00     0.010 A 
HETATM   10  C29 UNL     1     -87.061 -20.232  17.303  1.00  0.00     0.037 A 
BRANCH   8  11
HETATM   11  C8  UNL     1     -88.300 -17.012  15.838  1.00  0.00     0.066 C 
BRANCH  11  12
HETATM   12  C9  UNL     1     -88.260 -16.357  14.481  1.00  0.00     0.117 C 
HETATM   13  N1  UNL     1     -89.557 -16.018  13.959  1.00  0.00    -0.352 N 
HETATM   14  C10 UNL     1     -89.906 -15.483  12.726  1.00  0.00     0.248 C 
ATOM     15  H1  UNL     1     -90.338 -16.199  14.590  1.00  0.00     0.163 HD
HETATM   16  O2  UNL     1     -90.672 -14.447  12.747  1.00  0.00    -0.271 OA
HETATM   17  C11 UNL     1     -89.558 -15.886  11.355  1.00  0.00     0.277 C 
HETATM   18  C14 UNL     1     -88.261 -16.596  11.168  1.00  0.00     0.043 C 
HETATM   19  C15 UNL     1     -87.979 -16.652   9.670  1.00  0.00     0.002 C 
HETATM   20  C16 UNL     1     -86.479 -16.553   9.409  1.00  0.00     0.000 C 
HETATM   21  C17 UNL     1     -86.049 -15.158   9.067  1.00  0.00     0.000 C 
HETATM   22  C18 UNL     1     -85.305 -14.485  10.200  1.00  0.00     0.000 C 
HETATM   23  C19 UNL     1     -84.109 -13.695   9.708  1.00  0.00     0.000 C 
HETATM   24  C20 UNL     1     -83.087 -13.514  10.802  1.00  0.00     0.000 C 
HETATM   25  C21 UNL     1     -83.727 -13.011  12.083  1.00  0.00     0.000 C 
HETATM   26  C22 UNL     1     -82.719 -13.084  13.207  1.00  0.00     0.000 C 
HETATM   27  C23 UNL     1     -83.046 -14.258  14.133  1.00  0.00     0.000 C 
HETATM   28  C24 UNL     1     -84.263 -13.864  14.929  1.00  0.00     0.000 C 
HETATM   29  C25 UNL     1     -84.984 -15.047  15.523  1.00  0.00     0.002 C 
HETATM   30  C26 UNL     1     -85.916 -15.716  14.554  1.00  0.00     0.034 C 
HETATM   31  C27 UNL     1     -87.327 -15.183  14.616  1.00  0.00     0.141 C 
BRANCH  17  32
HETATM   32  N2  UNL     1     -90.577 -16.706  10.730  1.00  0.00    -0.060 N 
ATOM     33  H22 UNL     1     -91.404 -16.150  10.511  1.00  0.00     0.278 HD
ATOM     34  H21 UNL     1     -90.298 -16.972   9.786  1.00  0.00     0.278 HD
BRANCH  32  35
HETATM   35  C12 UNL     1     -90.933 -17.868  11.503  1.00  0.00     0.259 C 
BRANCH  35  36
HETATM   36  C13 UNL     1     -92.456 -18.008  11.376  1.00  0.00     0.191 C 
BRANCH  36  37
HETATM   37  O3  UNL     1     -93.091 -16.847  11.765  1.00  0.00    -0.399 OA
ATOM     38  H3  UNL     1     -92.853 -16.612  12.654  1.00  0.00     0.209 HD
ENDBRANCH  36  37
ENDBRANCH  35  36
ENDBRANCH  32  35
ENDBRANCH  17  32
BRANCH  31  39
HETATM   39  O4  UNL     1     -87.564 -14.470  15.775  1.00  0.00    -0.394 OA
ATOM     40  H4  UNL     1     -88.391 -14.003  15.739  1.00  0.00     0.210 HD
ENDBRANCH  31  39
ENDBRANCH  11  12
ENDBRANCH   8  11
ENDBRANCH   4   5
ENDBRANCH   3   4
TORSDOF 9
ENDMDL
