MODEL 1
REMARK VINA RESULT: -7.425219880      0.000      0.000
REMARK  14 active torsions:
REMARK  status: ('A' for Active; 'I' for Inactive)
REMARK    1  A    between atoms: C2_2  and  O1_3 
REMARK    2  A    between atoms: C2_2  and  C3_5 
REMARK    3  A    between atoms: C2_2  and  C10_14 
REMARK    4  A    between atoms: C4_6  and  C5_7 
REMARK    5  A    between atoms: C9_11  and  O2_12 
REMARK    6  A    between atoms: C14_19  and  C15_20 
REMARK    7  A    between atoms: C14_19  and  C23_30 
REMARK    8  A    between atoms: C16_21  and  C17_22 
REMARK    9  A    between atoms: C17_22  and  C18_23 
REMARK   10  A    between atoms: C18_23  and  C19_24 
REMARK   11  A    between atoms: C19_24  and  C20_25 
REMARK   12  A    between atoms: C20_25  and  C21_26 
REMARK   13  A    between atoms: C21_26  and  C22_27 
REMARK   14  A    between atoms: C24_32  and  O6_34 
ROOT
HETATM    1  C10 UNL     1     -88.148 -15.514  11.746  1.00  0.00    -0.016 A 
HETATM    2  C11 UNL     1     -87.429 -14.436  11.718  1.00  0.00    -0.008 A 
HETATM    3  C12 UNL     1     -85.973 -14.398  11.625  1.00  0.00     0.043 A 
HETATM    4  C13 UNL     1     -85.526 -13.409  10.540  1.00  0.00     0.179 C 
HETATM    5  O3  UNL     1     -84.138 -13.458  10.554  1.00  0.00    -0.362 OA
HETATM    6  C14 UNL     1     -83.740 -14.619   9.882  1.00  0.00     0.167 C 
HETATM    7  C24 UNL     1     -84.207 -15.859  10.528  1.00  0.00     0.105 C 
HETATM    8  C25 UNL     1     -83.074 -16.703  11.124  1.00  0.00     0.051 C 
HETATM    9  C26 UNL     1     -85.297 -15.692  11.581  1.00  0.00     0.056 A 
HETATM   10  C27 UNL     1     -86.170 -16.867  11.615  1.00  0.00    -0.018 A 
HETATM   11  C28 UNL     1     -87.468 -16.798  11.690  1.00  0.00     0.007 A 
ENDROOT
BRANCH   1  12
HETATM   12  C2  UNL     1     -89.637 -15.502  11.841  1.00  0.00     0.144 C 
HETATM   13  C1  UNL     1     -90.127 -15.065  13.191  1.00  0.00     0.066 C 
BRANCH  12  14
HETATM   14  O1  UNL     1     -90.094 -14.571  10.911  1.00  0.00    -0.373 OA
ATOM     15  H1  UNL     1     -89.336 -14.238  10.446  1.00  0.00     0.212 HD
ENDBRANCH  12  14
BRANCH  12  16
HETATM   16  C3  UNL     1     -90.147 -16.812  11.460  1.00  0.00    -0.063 C 
HETATM   17  C4  UNL     1     -90.550 -17.921  11.131  1.00  0.00    -0.096 C 
BRANCH  17  18
HETATM   18  C5  UNL     1     -91.004 -19.251  10.742  1.00  0.00     0.094 C 
HETATM   19  C6  UNL     1     -90.278 -19.771   9.536  1.00  0.00     0.020 C 
HETATM   20  C7  UNL     1     -91.297 -19.607   8.432  1.00  0.00     0.004 C 
HETATM   21  C8  UNL     1     -92.582 -20.033   9.108  1.00  0.00     0.033 C 
HETATM   22  C9  UNL     1     -92.478 -19.253  10.423  1.00  0.00     0.133 C 
BRANCH  22  23
HETATM   23  O2  UNL     1     -92.992 -17.977  10.250  1.00  0.00    -0.394 OA
ATOM     24  H2  UNL     1     -93.502 -17.890   9.452  1.00  0.00     0.210 HD
ENDBRANCH  22  23
ENDBRANCH  17  18
ENDBRANCH  12  16
ENDBRANCH   1  12
BRANCH   7  25
HETATM   25  O6  UNL     1     -84.786 -16.704   9.545  1.00  0.00    -0.385 OA
ATOM     26  H6  UNL     1     -85.289 -16.173   8.938  1.00  0.00     0.210 HD
ENDBRANCH   7  25
BRANCH   6  27
HETATM   27  C15 UNL     1     -84.313 -14.566   8.510  1.00  0.00    -0.064 C 
HETATM   28  C16 UNL     1     -84.758 -14.531   7.391  1.00  0.00    -0.103 C 
BRANCH  28  29
HETATM   29  C17 UNL     1     -85.312 -14.517   6.013  1.00  0.00     0.094 C 
BRANCH  29  30
HETATM   30  C18 UNL     1     -86.777 -14.874   6.030  1.00  0.00     0.012 C 
BRANCH  30  31
HETATM   31  C19 UNL     1     -87.117 -16.063   6.863  1.00  0.00     0.001 C 
BRANCH  31  32
HETATM   32  C20 UNL     1     -88.093 -15.676   7.942  1.00  0.00     0.010 C 
BRANCH  32  33
HETATM   33  C21 UNL     1     -89.245 -16.655   8.070  1.00  0.00     0.113 C 
BRANCH  33  34
HETATM   34  C22 UNL     1     -90.458 -16.018   7.543  1.00  0.00     0.172 C 
HETATM   35  O4  UNL     1     -90.517 -15.525   6.395  1.00  0.00    -0.648 OA
HETATM   36  O5  UNL     1     -91.571 -15.980   8.392  1.00  0.00    -0.648 OA
ENDBRANCH  33  34
ENDBRANCH  32  33
ENDBRANCH  31  32
ENDBRANCH  30  31
ENDBRANCH  29  30
ENDBRANCH  28  29
ENDBRANCH   6  27
BRANCH   6  37
HETATM   37  C23 UNL     1     -82.229 -14.520   9.786  1.00  0.00     0.169 C 
HETATM   38 CL1  UNL     1     -81.642 -13.020   9.106  1.00  0.00    -0.126 Cl
ENDBRANCH   6  37
TORSDOF 14
ENDMDL
MODEL 2
REMARK VINA RESULT: -7.361104271      3.689      6.654
REMARK  14 active torsions:
REMARK  status: ('A' for Active; 'I' for Inactive)
REMARK    1  A    between atoms: C2_2  and  O1_3 
REMARK    2  A    between atoms: C2_2  and  C3_5 
REMARK    3  A    between atoms: C2_2  and  C10_14 
REMARK    4  A    between atoms: C4_6  and  C5_7 
REMARK    5  A    between atoms: C9_11  and  O2_12 
REMARK    6  A    between atoms: C14_19  and  C15_20 
REMARK    7  A    between atoms: C14_19  and  C23_30 
REMARK    8  A    between atoms: C16_21  and  C17_22 
REMARK    9  A    between atoms: C17_22  and  C18_23 
REMARK   10  A    between atoms: C18_23  and  C19_24 
REMARK   11  A    between atoms: C19_24  and  C20_25 
REMARK   12  A    between atoms: C20_25  and  C21_26 
REMARK   13  A    between atoms: C21_26  and  C22_27 
REMARK   14  A    between atoms: C24_32  and  O6_34 
ROOT
HETATM    1  C10 UNL     1     -89.328 -16.300  14.019  1.00  0.00    -0.016 A 
HETATM    2  C11 UNL     1     -89.276 -17.477  13.475  1.00  0.00    -0.008 A 
HETATM    3  C12 UNL     1     -90.135 -17.941  12.390  1.00  0.00     0.043 A 
HETATM    4  C13 UNL     1     -89.300 -18.596  11.282  1.00  0.00     0.179 C 
HETATM    5  O3  UNL     1     -90.222 -18.998  10.323  1.00  0.00    -0.362 OA
HETATM    6  C14 UNL     1     -90.599 -17.868   9.587  1.00  0.00     0.167 C 
HETATM    7  C24 UNL     1     -91.267 -16.836  10.401  1.00  0.00     0.105 C 
HETATM    8  C25 UNL     1     -92.748 -16.645  10.052  1.00  0.00     0.051 C 
HETATM    9  C26 UNL     1     -91.137 -16.992  11.912  1.00  0.00     0.056 A 
HETATM   10  C27 UNL     1     -91.139 -15.683  12.570  1.00  0.00    -0.018 A 
HETATM   11  C28 UNL     1     -90.321 -15.358  13.529  1.00  0.00     0.007 A 
ENDROOT
BRANCH   1  12
HETATM   12  C2  UNL     1     -88.426 -15.872  15.128  1.00  0.00     0.144 C 
HETATM   13  C1  UNL     1     -88.035 -14.426  15.030  1.00  0.00     0.066 C 
BRANCH  12  14
HETATM   14  O1  UNL     1     -89.140 -16.030  16.314  1.00  0.00    -0.373 OA
ATOM     15  H1  UNL     1     -88.555 -15.812  17.029  1.00  0.00     0.212 HD
ENDBRANCH  12  14
BRANCH  12  16
HETATM   16  C3  UNL     1     -87.273 -16.760  15.170  1.00  0.00    -0.063 C 
HETATM   17  C4  UNL     1     -86.310 -17.516  15.231  1.00  0.00    -0.096 C 
BRANCH  17  18
HETATM   18  C5  UNL     1     -85.178 -18.428  15.323  1.00  0.00     0.094 C 
HETATM   19  C6  UNL     1     -85.016 -19.265  14.087  1.00  0.00     0.020 C 
HETATM   20  C7  UNL     1     -85.542 -20.613  14.521  1.00  0.00     0.004 C 
HETATM   21  C8  UNL     1     -84.982 -20.747  15.921  1.00  0.00     0.033 C 
HETATM   22  C9  UNL     1     -85.327 -19.368  16.494  1.00  0.00     0.133 C 
BRANCH  22  23
HETATM   23  O2  UNL     1     -86.615 -19.385  17.008  1.00  0.00    -0.394 OA
ATOM     24  H2  UNL     1     -87.000 -20.254  17.008  1.00  0.00     0.210 HD
ENDBRANCH  22  23
ENDBRANCH  17  18
ENDBRANCH  12  16
ENDBRANCH   1  12
BRANCH   7  25
HETATM   25  O6  UNL     1     -90.681 -15.574  10.120  1.00  0.00    -0.385 OA
ATOM     26  H6  UNL     1     -90.595 -15.475   9.178  1.00  0.00     0.210 HD
ENDBRANCH   7  25
BRANCH   6  27
HETATM   27  C15 UNL     1     -89.365 -17.276   9.007  1.00  0.00    -0.064 C 
HETATM   28  C16 UNL     1     -88.359 -16.786   8.556  1.00  0.00    -0.103 C 
BRANCH  28  29
HETATM   29  C17 UNL     1     -87.106 -16.204   8.013  1.00  0.00     0.094 C 
BRANCH  29  30
HETATM   30  C18 UNL     1     -86.290 -15.584   9.119  1.00  0.00     0.012 C 
BRANCH  30  31
HETATM   31  C19 UNL     1     -86.274 -16.362  10.391  1.00  0.00     0.001 C 
BRANCH  31  32
HETATM   32  C20 UNL     1     -86.569 -15.455  11.556  1.00  0.00     0.010 C 
BRANCH  32  33
HETATM   33  C21 UNL     1     -87.627 -14.415  11.237  1.00  0.00     0.113 C 
BRANCH  33  34
HETATM   34  C22 UNL     1     -87.153 -13.108  11.708  1.00  0.00     0.172 C 
HETATM   35  O4  UNL     1     -85.942 -12.857  11.896  1.00  0.00    -0.648 OA
HETATM   36  O5  UNL     1     -88.127 -12.131  11.946  1.00  0.00    -0.648 OA
ENDBRANCH  33  34
ENDBRANCH  32  33
ENDBRANCH  31  32
ENDBRANCH  30  31
ENDBRANCH  29  30
ENDBRANCH  28  29
ENDBRANCH   6  27
BRANCH   6  37
HETATM   37  C23 UNL     1     -91.463 -18.403   8.461  1.00  0.00     0.169 C 
HETATM   38 CL1  UNL     1     -91.524 -20.148   8.358  1.00  0.00    -0.126 Cl
ENDBRANCH   6  37
TORSDOF 14
ENDMDL
MODEL 3
REMARK VINA RESULT: -7.198941673      3.382      7.229
REMARK  14 active torsions:
REMARK  status: ('A' for Active; 'I' for Inactive)
REMARK    1  A    between atoms: C2_2  and  O1_3 
REMARK    2  A    between atoms: C2_2  and  C3_5 
REMARK    3  A    between atoms: C2_2  and  C10_14 
REMARK    4  A    between atoms: C4_6  and  C5_7 
REMARK    5  A    between atoms: C9_11  and  O2_12 
REMARK    6  A    between atoms: C14_19  and  C15_20 
REMARK    7  A    between atoms: C14_19  and  C23_30 
REMARK    8  A    between atoms: C16_21  and  C17_22 
REMARK    9  A    between atoms: C17_22  and  C18_23 
REMARK   10  A    between atoms: C18_23  and  C19_24 
REMARK   11  A    between atoms: C19_24  and  C20_25 
REMARK   12  A    between atoms: C20_25  and  C21_26 
REMARK   13  A    between atoms: C21_26  and  C22_27 
REMARK   14  A    between atoms: C24_32  and  O6_34 
ROOT
HETATM    1  C10 UNL     1     -88.398 -14.464  12.552  1.00  0.00    -0.016 A 
HETATM    2  C11 UNL     1     -88.001 -15.585  12.035  1.00  0.00    -0.008 A 
HETATM    3  C12 UNL     1     -88.875 -16.680  11.628  1.00  0.00     0.043 A 
HETATM    4  C13 UNL     1     -88.511 -17.167  10.219  1.00  0.00     0.179 C 
HETATM    5  O3  UNL     1     -89.398 -18.203   9.953  1.00  0.00    -0.362 OA
HETATM    6  C14 UNL     1     -90.632 -17.637   9.609  1.00  0.00     0.167 C 
HETATM    7  C24 UNL     1     -91.233 -16.842  10.695  1.00  0.00     0.105 C 
HETATM    8  C25 UNL     1     -92.513 -17.460  11.271  1.00  0.00     0.051 C 
HETATM    9  C26 UNL     1     -90.305 -16.479  11.849  1.00  0.00     0.056 A 
HETATM   10  C27 UNL     1     -90.682 -15.191  12.434  1.00  0.00    -0.018 A 
HETATM   11  C28 UNL     1     -89.824 -14.268  12.758  1.00  0.00     0.007 A 
ENDROOT
BRANCH   1  12
HETATM   12  C2  UNL     1     -87.464 -13.371  12.953  1.00  0.00     0.144 C 
HETATM   13  C1  UNL     1     -86.539 -12.965  11.843  1.00  0.00     0.066 C 
BRANCH  12  14
HETATM   14  O1  UNL     1     -88.249 -12.264  13.268  1.00  0.00    -0.373 OA
ATOM     15  H1  UNL     1     -89.157 -12.539  13.227  1.00  0.00     0.212 HD
ENDBRANCH  12  14
BRANCH  12  16
HETATM   16  C3  UNL     1     -86.749 -13.778  14.154  1.00  0.00    -0.063 C 
HETATM   17  C4  UNL     1     -86.152 -14.095  15.176  1.00  0.00    -0.096 C 
BRANCH  17  18
HETATM   18  C5  UNL     1     -85.453 -14.452  16.405  1.00  0.00     0.094 C 
HETATM   19  C6  UNL     1     -85.419 -13.322  17.391  1.00  0.00     0.020 C 
HETATM   20  C7  UNL     1     -83.999 -12.819  17.279  1.00  0.00     0.004 C 
HETATM   21  C8  UNL     1     -83.205 -14.102  17.176  1.00  0.00     0.033 C 
HETATM   22  C9  UNL     1     -84.027 -14.856  16.125  1.00  0.00     0.133 C 
BRANCH  22  23
HETATM   23  O2  UNL     1     -83.605 -14.494  14.855  1.00  0.00    -0.394 OA
ATOM     24  H2  UNL     1     -83.721 -15.188  14.216  1.00  0.00     0.210 HD
ENDBRANCH  22  23
ENDBRANCH  17  18
ENDBRANCH  12  16
ENDBRANCH   1  12
BRANCH   7  25
HETATM   25  O6  UNL     1     -91.659 -15.592  10.173  1.00  0.00    -0.385 OA
ATOM     26  H6  UNL     1     -91.306 -14.894  10.713  1.00  0.00     0.210 HD
ENDBRANCH   7  25
BRANCH   6  27
HETATM   27  C15 UNL     1     -90.408 -16.739   8.445  1.00  0.00    -0.064 C 
HETATM   28  C16 UNL     1     -90.233 -16.028   7.488  1.00  0.00    -0.103 C 
BRANCH  28  29
HETATM   29  C17 UNL     1     -90.046 -15.147   6.307  1.00  0.00     0.094 C 
BRANCH  29  30
HETATM   30  C18 UNL     1     -88.764 -15.488   5.592  1.00  0.00     0.012 C 
BRANCH  30  31
HETATM   31  C19 UNL     1     -87.673 -14.486   5.761  1.00  0.00     0.001 C 
BRANCH  31  32
HETATM   32  C20 UNL     1     -86.395 -15.175   6.158  1.00  0.00     0.010 C 
BRANCH  32  33
HETATM   33  C21 UNL     1     -86.363 -15.551   7.627  1.00  0.00     0.113 C 
BRANCH  33  34
HETATM   34  C22 UNL     1     -85.008 -15.312   8.140  1.00  0.00     0.172 C 
HETATM   35  O4  UNL     1     -84.224 -16.241   8.435  1.00  0.00    -0.648 OA
HETATM   36  O5  UNL     1     -84.616 -13.976   8.290  1.00  0.00    -0.648 OA
ENDBRANCH  33  34
ENDBRANCH  32  33
ENDBRANCH  31  32
ENDBRANCH  30  31
ENDBRANCH  29  30
ENDBRANCH  28  29
ENDBRANCH   6  27
BRANCH   6  37
HETATM   37  C23 UNL     1     -91.492 -18.806   9.169  1.00  0.00     0.169 C 
HETATM   38 CL1  UNL     1     -90.623 -20.071   8.329  1.00  0.00    -0.126 Cl
ENDBRANCH   6  37
TORSDOF 14
ENDMDL
MODEL 4
REMARK VINA RESULT: -7.192654923      2.671      6.148
REMARK  14 active torsions:
REMARK  status: ('A' for Active; 'I' for Inactive)
REMARK    1  A    between atoms: C2_2  and  O1_3 
REMARK    2  A    between atoms: C2_2  and  C3_5 
REMARK    3  A    between atoms: C2_2  and  C10_14 
REMARK    4  A    between atoms: C4_6  and  C5_7 
REMARK    5  A    between atoms: C9_11  and  O2_12 
REMARK    6  A    between atoms: C14_19  and  C15_20 
REMARK    7  A    between atoms: C14_19  and  C23_30 
REMARK    8  A    between atoms: C16_21  and  C17_22 
REMARK    9  A    between atoms: C17_22  and  C18_23 
REMARK   10  A    between atoms: C18_23  and  C19_24 
REMARK   11  A    between atoms: C19_24  and  C20_25 
REMARK   12  A    between atoms: C20_25  and  C21_26 
REMARK   13  A    between atoms: C21_26  and  C22_27 
REMARK   14  A    between atoms: C24_32  and  O6_34 
ROOT
HETATM    1  C10 UNL     1     -90.519 -17.935  10.717  1.00  0.00    -0.016 A 
HETATM    2  C11 UNL     1     -91.158 -17.560  11.782  1.00  0.00    -0.008 A 
HETATM    3  C12 UNL     1     -90.627 -17.602  13.140  1.00  0.00     0.043 A 
HETATM    4  C13 UNL     1     -90.869 -16.267  13.857  1.00  0.00     0.179 C 
HETATM    5  O3  UNL     1     -90.332 -16.434  15.127  1.00  0.00    -0.362 OA
HETATM    6  C14 UNL     1     -88.942 -16.308  15.027  1.00  0.00     0.167 C 
HETATM    7  C24 UNL     1     -88.321 -17.336  14.173  1.00  0.00     0.105 C 
HETATM    8  C25 UNL     1     -87.435 -18.321  14.946  1.00  0.00     0.051 C 
HETATM    9  C26 UNL     1     -89.273 -18.130  13.286  1.00  0.00     0.056 A 
HETATM   10  C27 UNL     1     -88.610 -18.533  12.044  1.00  0.00    -0.018 A 
HETATM   11  C28 UNL     1     -89.168 -18.449  10.870  1.00  0.00     0.007 A 
ENDROOT
BRANCH   1  12
HETATM   12  C2  UNL     1     -91.106 -17.873   9.346  1.00  0.00     0.144 C 
HETATM   13  C1  UNL     1     -91.228 -19.225   8.708  1.00  0.00     0.066 C 
BRANCH  12  14
HETATM   14  O1  UNL     1     -92.393 -17.357   9.481  1.00  0.00    -0.373 OA
ATOM     15  H1  UNL     1     -92.897 -17.981   9.990  1.00  0.00     0.212 HD
ENDBRANCH  12  14
BRANCH  12  16
HETATM   16  C3  UNL     1     -90.326 -16.943   8.540  1.00  0.00    -0.063 C 
HETATM   17  C4  UNL     1     -89.681 -16.140   7.877  1.00  0.00    -0.096 C 
BRANCH  17  18
HETATM   18  C5  UNL     1     -88.915 -15.167   7.108  1.00  0.00     0.094 C 
HETATM   19  C6  UNL     1     -89.312 -15.142   5.661  1.00  0.00     0.020 C 
HETATM   20  C7  UNL     1     -88.176 -15.875   4.987  1.00  0.00     0.004 C 
HETATM   21  C8  UNL     1     -86.963 -15.343   5.718  1.00  0.00     0.033 C 
HETATM   22  C9  UNL     1     -87.437 -15.463   7.170  1.00  0.00     0.133 C 
BRANCH  22  23
HETATM   23  O2  UNL     1     -87.163 -16.737   7.646  1.00  0.00    -0.394 OA
ATOM     24  H2  UNL     1     -87.149 -17.392   6.957  1.00  0.00     0.210 HD
ENDBRANCH  22  23
ENDBRANCH  17  18
ENDBRANCH  12  16
ENDBRANCH   1  12
BRANCH   7  25
HETATM   25  O6  UNL     1     -87.427 -16.708  13.266  1.00  0.00    -0.385 OA
ATOM     26  H6  UNL     1     -87.153 -15.873  13.629  1.00  0.00     0.210 HD
ENDBRANCH   7  25
BRANCH   6  27
HETATM   27  C15 UNL     1     -88.650 -14.975  14.435  1.00  0.00    -0.064 C 
HETATM   28  C16 UNL     1     -88.413 -13.904  13.935  1.00  0.00    -0.103 C 
BRANCH  28  29
HETATM   29  C17 UNL     1     -88.149 -12.583  13.310  1.00  0.00     0.094 C 
BRANCH  29  30
HETATM   30  C18 UNL     1     -87.731 -12.755  11.872  1.00  0.00     0.012 C 
BRANCH  30  31
HETATM   31  C19 UNL     1     -88.250 -13.990  11.217  1.00  0.00     0.001 C 
BRANCH  31  32
HETATM   32  C20 UNL     1     -87.116 -14.759  10.594  1.00  0.00     0.010 C 
BRANCH  32  33
HETATM   33  C21 UNL     1     -85.770 -14.091  10.802  1.00  0.00     0.113 C 
BRANCH  33  34
HETATM   34  C22 UNL     1     -84.923 -14.377   9.636  1.00  0.00     0.172 C 
HETATM   35  O4  UNL     1     -84.718 -15.538   9.220  1.00  0.00    -0.648 OA
HETATM   36  O5  UNL     1     -84.341 -13.277   8.994  1.00  0.00    -0.648 OA
ENDBRANCH  33  34
ENDBRANCH  32  33
ENDBRANCH  31  32
ENDBRANCH  30  31
ENDBRANCH  29  30
ENDBRANCH  28  29
ENDBRANCH   6  27
BRANCH   6  37
HETATM   37  C23 UNL     1     -88.442 -16.329  16.459  1.00  0.00     0.169 C 
HETATM   38 CL1  UNL     1     -87.196 -15.152  16.811  1.00  0.00    -0.126 Cl
ENDBRANCH   6  37
TORSDOF 14
ENDMDL
MODEL 5
REMARK VINA RESULT: -7.165363831      3.914      6.589
REMARK  14 active torsions:
REMARK  status: ('A' for Active; 'I' for Inactive)
REMARK    1  A    between atoms: C2_2  and  O1_3 
REMARK    2  A    between atoms: C2_2  and  C3_5 
REMARK    3  A    between atoms: C2_2  and  C10_14 
REMARK    4  A    between atoms: C4_6  and  C5_7 
REMARK    5  A    between atoms: C9_11  and  O2_12 
REMARK    6  A    between atoms: C14_19  and  C15_20 
REMARK    7  A    between atoms: C14_19  and  C23_30 
REMARK    8  A    between atoms: C16_21  and  C17_22 
REMARK    9  A    between atoms: C17_22  and  C18_23 
REMARK   10  A    between atoms: C18_23  and  C19_24 
REMARK   11  A    between atoms: C19_24  and  C20_25 
REMARK   12  A    between atoms: C20_25  and  C21_26 
REMARK   13  A    between atoms: C21_26  and  C22_27 
REMARK   14  A    between atoms: C24_32  and  O6_34 
ROOT
HETATM    1  C10 UNL     1     -89.205 -16.514  14.366  1.00  0.00    -0.016 A 
HETATM    2  C11 UNL     1     -89.236 -17.632  13.709  1.00  0.00    -0.008 A 
HETATM    3  C12 UNL     1     -90.054 -17.893  12.529  1.00  0.00     0.043 A 
HETATM    4  C13 UNL     1     -89.211 -18.530  11.416  1.00  0.00     0.179 C 
HETATM    5  O3  UNL     1     -90.094 -18.733  10.364  1.00  0.00    -0.362 OA
HETATM    6  C14 UNL     1     -90.294 -17.504   9.724  1.00  0.00     0.167 C 
HETATM    7  C24 UNL     1     -90.909 -16.485  10.594  1.00  0.00     0.105 C 
HETATM    8  C25 UNL     1     -92.332 -16.097  10.171  1.00  0.00     0.051 C 
HETATM    9  C26 UNL     1     -90.912 -16.796  12.086  1.00  0.00     0.056 A 
HETATM   10  C27 UNL     1     -90.826 -15.564  12.873  1.00  0.00    -0.018 A 
HETATM   11  C28 UNL     1     -90.054 -15.425  13.912  1.00  0.00     0.007 A 
ENDROOT
BRANCH   1  12
HETATM   12  C2  UNL     1     -88.350 -16.296  15.569  1.00  0.00     0.144 C 
HETATM   13  C1  UNL     1     -87.687 -14.950  15.572  1.00  0.00     0.066 C 
BRANCH  12  14
HETATM   14  O1  UNL     1     -89.191 -16.349  16.678  1.00  0.00    -0.373 OA
ATOM     15  H1  UNL     1     -89.986 -16.795  16.411  1.00  0.00     0.212 HD
ENDBRANCH  12  14
BRANCH  12  16
HETATM   16  C3  UNL     1     -87.393 -17.390  15.674  1.00  0.00    -0.063 C 
HETATM   17  C4  UNL     1     -86.572 -18.293  15.776  1.00  0.00    -0.096 C 
BRANCH  17  18
HETATM   18  C5  UNL     1     -85.584 -19.356  15.922  1.00  0.00     0.094 C 
HETATM   19  C6  UNL     1     -85.129 -19.897  14.598  1.00  0.00     0.020 C 
HETATM   20  C7  UNL     1     -85.855 -21.218  14.506  1.00  0.00     0.004 C 
HETATM   21  C8  UNL     1     -85.741 -21.753  15.917  1.00  0.00     0.033 C 
HETATM   22  C9  UNL     1     -86.137 -20.510  16.721  1.00  0.00     0.133 C 
BRANCH  22  23
HETATM   23  O2  UNL     1     -87.517 -20.460  16.852  1.00  0.00    -0.394 OA
ATOM     24  H2  UNL     1     -87.854 -21.115  17.453  1.00  0.00     0.210 HD
ENDBRANCH  22  23
ENDBRANCH  17  18
ENDBRANCH  12  16
ENDBRANCH   1  12
BRANCH   7  25
HETATM   25  O6  UNL     1     -90.175 -15.276  10.482  1.00  0.00    -0.385 OA
ATOM     26  H6  UNL     1     -89.571 -15.211  11.214  1.00  0.00     0.210 HD
ENDBRANCH   7  25
BRANCH   6  27
HETATM   27  C15 UNL     1     -88.964 -17.001   9.289  1.00  0.00    -0.064 C 
HETATM   28  C16 UNL     1     -87.896 -16.584   8.917  1.00  0.00    -0.103 C 
BRANCH  28  29
HETATM   29  C17 UNL     1     -86.587 -16.044   8.468  1.00  0.00     0.094 C 
BRANCH  29  30
HETATM   30  C18 UNL     1     -85.461 -16.924   8.948  1.00  0.00     0.012 C 
BRANCH  30  31
HETATM   31  C19 UNL     1     -84.652 -16.346  10.060  1.00  0.00     0.001 C 
BRANCH  31  32
HETATM   32  C20 UNL     1     -84.722 -17.240  11.269  1.00  0.00     0.010 C 
BRANCH  32  33
HETATM   33  C21 UNL     1     -85.996 -17.045  12.070  1.00  0.00     0.113 C 
BRANCH  33  34
HETATM   34  C22 UNL     1     -86.157 -15.612  12.346  1.00  0.00     0.172 C 
HETATM   35  O4  UNL     1     -85.321 -14.953  13.002  1.00  0.00    -0.648 OA
HETATM   36  O5  UNL     1     -87.308 -14.997  11.838  1.00  0.00    -0.648 OA
ENDBRANCH  33  34
ENDBRANCH  32  33
ENDBRANCH  31  32
ENDBRANCH  30  31
ENDBRANCH  29  30
ENDBRANCH  28  29
ENDBRANCH   6  27
BRANCH   6  37
HETATM   37  C23 UNL     1     -91.122 -17.830   8.496  1.00  0.00     0.169 C 
HETATM   38 CL1  UNL     1     -91.315 -19.539   8.183  1.00  0.00    -0.126 Cl
ENDBRANCH   6  37
TORSDOF 14
ENDMDL
