MODEL 1
REMARK VINA RESULT: -8.451630670      0.000      0.000
REMARK  11 active torsions:
REMARK  status: ('A' for Active; 'I' for Inactive)
REMARK    1  A    between atoms: C2_2  and  C3_3 
REMARK    2  A    between atoms: C3_3  and  C4_4 
REMARK    3  A    between atoms: C4_4  and  C5_5 
REMARK    4  A    between atoms: C5_5  and  C6_6 
REMARK    5  A    between atoms: C8_8  and  C9_9 
REMARK    6  A    between atoms: C10_10  and  C11_11 
REMARK    7  A    between atoms: C21_22  and  C23_24 
REMARK    8  A    between atoms: C23_24  and  O1_25 
REMARK    9  A    between atoms: C24_27  and  O2_28 
REMARK   10  A    between atoms: C28_33  and  O3_34 
REMARK   11  A    between atoms: C29_36  and  O4_37 
ROOT
HETATM    1  C11 UNL     1     -86.764 -16.318  10.621  1.00  0.00    -0.050 C 
HETATM    2  C12 UNL     1     -85.768 -17.124  10.200  1.00  0.00    -0.019 C 
HETATM    3  C13 UNL     1     -84.328 -17.158  10.188  1.00  0.00     0.028 C 
HETATM    4  C14 UNL     1     -83.693 -15.946   9.543  1.00  0.00     0.008 C 
HETATM    5  C15 UNL     1     -84.744 -14.850   9.438  1.00  0.00    -0.013 C 
HETATM    6  C16 UNL     1     -84.121 -13.723   8.652  1.00  0.00     0.010 C 
HETATM    7  C17 UNL     1     -85.187 -14.375  10.754  1.00  0.00     0.006 C 
HETATM    8  C18 UNL     1     -84.196 -14.388  11.854  1.00  0.00     0.009 C 
HETATM    9  C19 UNL     1     -85.156 -14.084  13.036  1.00  0.00     0.046 C 
HETATM   10  C20 UNL     1     -86.191 -15.144  12.773  1.00  0.00     0.127 C 
HETATM   11  F1  UNL     1     -85.532 -16.342  13.093  1.00  0.00    -0.241 F 
HETATM   12  C21 UNL     1     -87.319 -15.075  13.717  1.00  0.00     0.040 C 
HETATM   13  C22 UNL     1     -87.924 -16.477  13.931  1.00  0.00     0.024 C 
HETATM   14  C24 UNL     1     -88.353 -14.036  13.446  1.00  0.00     0.131 C 
HETATM   15  C25 UNL     1     -88.262 -13.398  12.127  1.00  0.00     0.034 C 
HETATM   16  C26 UNL     1     -87.525 -14.024  11.029  1.00  0.00     0.020 C 
HETATM   17  C27 UNL     1     -86.480 -15.039  11.304  1.00  0.00     0.028 C 
ENDROOT
BRANCH   1  18
HETATM   18  C10 UNL     1     -88.052 -16.863  10.323  1.00  0.00     0.004 C 
HETATM   19  C9  UNL     1     -88.636 -17.472   9.341  1.00  0.00    -0.019 C 
BRANCH  19  20
HETATM   20  C8  UNL     1     -90.099 -17.918   9.411  1.00  0.00     0.040 C 
HETATM   21  C7  UNL     1     -90.291 -18.295  10.850  1.00  0.00     0.023 C 
HETATM   22  C6  UNL     1     -91.613 -18.961  11.124  1.00  0.00     0.059 C 
HETATM   23  C30 UNL     1     -92.115 -19.727   9.970  1.00  0.00     0.162 C 
HETATM   24  C29 UNL     1     -91.873 -19.337   8.557  1.00  0.00     0.217 C 
HETATM   25  O5  UNL     1     -92.767 -20.742  10.186  1.00  0.00    -0.295 OA
HETATM   26  C28 UNL     1     -90.372 -19.031   8.459  1.00  0.00     0.162 C 
BRANCH  22  27
HETATM   27  C5  UNL     1     -92.663 -17.963  11.547  1.00  0.00     0.012 C 
BRANCH  27  28
HETATM   28  C4  UNL     1     -92.095 -16.662  12.014  1.00  0.00     0.001 C 
BRANCH  28  29
HETATM   29  C3  UNL     1     -92.735 -15.481  11.309  1.00  0.00    -0.000 C 
BRANCH  29  30
HETATM   30  C2  UNL     1     -93.081 -15.798   9.882  1.00  0.00    -0.005 C 
HETATM   31  C1  UNL     1     -91.937 -15.314   9.009  1.00  0.00     0.005 C 
ENDBRANCH  29  30
ENDBRANCH  28  29
ENDBRANCH  27  28
ENDBRANCH  22  27
BRANCH  24  32
HETATM   32  O4  UNL     1     -92.100 -20.438   7.726  1.00  0.00    -0.385 OA
ATOM     33  H4  UNL     1     -93.040 -20.481   7.596  1.00  0.00     0.210 HD
ENDBRANCH  24  32
BRANCH  26  34
HETATM   34  O3  UNL     1     -89.652 -20.157   8.871  1.00  0.00    -0.392 OA
ATOM     35  H3  UNL     1     -90.260 -20.786   9.240  1.00  0.00     0.210 HD
ENDBRANCH  26  34
ENDBRANCH  19  20
ENDBRANCH   1  18
BRANCH  12  36
HETATM   36  C23 UNL     1     -86.800 -14.720  15.120  1.00  0.00     0.179 C 
BRANCH  36  37
HETATM   37  O1  UNL     1     -87.693 -14.078  15.919  1.00  0.00    -0.400 OA
ATOM     38  H1  UNL     1     -87.327 -13.387  16.457  1.00  0.00     0.209 HD
ENDBRANCH  36  37
ENDBRANCH  12  36
BRANCH  14  39
HETATM   39  O2  UNL     1     -89.623 -14.647  13.585  1.00  0.00    -0.395 OA
ATOM     40  H2  UNL     1     -90.243 -13.970  13.831  1.00  0.00     0.210 HD
ENDBRANCH  14  39
TORSDOF 11
ENDMDL
MODEL 2
REMARK VINA RESULT: -8.349650934      1.745      2.617
REMARK  11 active torsions:
REMARK  status: ('A' for Active; 'I' for Inactive)
REMARK    1  A    between atoms: C2_2  and  C3_3 
REMARK    2  A    between atoms: C3_3  and  C4_4 
REMARK    3  A    between atoms: C4_4  and  C5_5 
REMARK    4  A    between atoms: C5_5  and  C6_6 
REMARK    5  A    between atoms: C8_8  and  C9_9 
REMARK    6  A    between atoms: C10_10  and  C11_11 
REMARK    7  A    between atoms: C21_22  and  C23_24 
REMARK    8  A    between atoms: C23_24  and  O1_25 
REMARK    9  A    between atoms: C24_27  and  O2_28 
REMARK   10  A    between atoms: C28_33  and  O3_34 
REMARK   11  A    between atoms: C29_36  and  O4_37 
ROOT
HETATM    1  C11 UNL     1     -86.031 -15.884  11.103  1.00  0.00    -0.050 C 
HETATM    2  C12 UNL     1     -85.046 -16.756  10.808  1.00  0.00    -0.019 C 
HETATM    3  C13 UNL     1     -83.618 -16.875  10.960  1.00  0.00     0.028 C 
HETATM    4  C14 UNL     1     -82.842 -15.716  10.376  1.00  0.00     0.008 C 
HETATM    5  C15 UNL     1     -83.805 -14.562  10.138  1.00  0.00    -0.013 C 
HETATM    6  C16 UNL     1     -83.030 -13.490   9.413  1.00  0.00     0.010 C 
HETATM    7  C17 UNL     1     -84.364 -14.036  11.389  1.00  0.00     0.006 C 
HETATM    8  C18 UNL     1     -83.506 -14.086  12.594  1.00  0.00     0.009 C 
HETATM    9  C19 UNL     1     -84.572 -13.702  13.656  1.00  0.00     0.046 C 
HETATM   10  C20 UNL     1     -85.633 -14.704  13.290  1.00  0.00     0.127 C 
HETATM   11  F1  UNL     1     -85.089 -15.932  13.698  1.00  0.00    -0.241 F 
HETATM   12  C21 UNL     1     -86.854 -14.550  14.099  1.00  0.00     0.040 C 
HETATM   13  C22 UNL     1     -87.565 -15.908  14.261  1.00  0.00     0.024 C 
HETATM   14  C24 UNL     1     -87.785 -13.456  13.699  1.00  0.00     0.131 C 
HETATM   15  C25 UNL     1     -87.508 -12.852  12.391  1.00  0.00     0.034 C 
HETATM   16  C26 UNL     1     -86.692 -13.541  11.392  1.00  0.00     0.020 C 
HETATM   17  C27 UNL     1     -85.749 -14.610  11.797  1.00  0.00     0.028 C 
ENDROOT
BRANCH   1  18
HETATM   18  C10 UNL     1     -87.309 -16.357  10.667  1.00  0.00     0.004 C 
HETATM   19  C9  UNL     1     -88.079 -17.378  10.873  1.00  0.00    -0.019 C 
BRANCH  19  20
HETATM   20  C8  UNL     1     -89.439 -17.525  10.185  1.00  0.00     0.040 C 
HETATM   21  C7  UNL     1     -89.890 -16.111   9.974  1.00  0.00     0.023 C 
HETATM   22  C6  UNL     1     -91.310 -16.001   9.485  1.00  0.00     0.059 C 
HETATM   23  C30 UNL     1     -92.163 -17.104   9.963  1.00  0.00     0.162 C 
HETATM   24  C29 UNL     1     -91.668 -18.485  10.193  1.00  0.00     0.217 C 
HETATM   25  O5  UNL     1     -93.345 -16.869  10.183  1.00  0.00    -0.295 OA
HETATM   26  C28 UNL     1     -90.377 -18.336  11.011  1.00  0.00     0.162 C 
BRANCH  22  27
HETATM   27  C5  UNL     1     -91.378 -15.941   7.979  1.00  0.00     0.012 C 
BRANCH  27  28
HETATM   28  C4  UNL     1     -90.056 -16.140   7.314  1.00  0.00     0.001 C 
BRANCH  28  29
HETATM   29  C3  UNL     1     -89.868 -15.200   6.139  1.00  0.00    -0.000 C 
BRANCH  29  30
HETATM   30  C2  UNL     1     -88.417 -14.995   5.809  1.00  0.00    -0.005 C 
HETATM   31  C1  UNL     1     -87.600 -15.483   6.993  1.00  0.00     0.005 C 
ENDBRANCH  29  30
ENDBRANCH  28  29
ENDBRANCH  27  28
ENDBRANCH  22  27
BRANCH  24  32
HETATM   32  O4  UNL     1     -92.570 -19.172  11.011  1.00  0.00    -0.385 OA
ATOM     33  H4  UNL     1     -93.087 -18.506  11.450  1.00  0.00     0.210 HD
ENDBRANCH  24  32
BRANCH  26  34
HETATM   34  O3  UNL     1     -90.663 -17.630  12.183  1.00  0.00    -0.392 OA
ATOM     35  H3  UNL     1     -91.287 -18.132  12.694  1.00  0.00     0.210 HD
ENDBRANCH  26  34
ENDBRANCH  19  20
ENDBRANCH   1  18
BRANCH  12  36
HETATM   36  C23 UNL     1     -86.476 -14.198  15.547  1.00  0.00     0.179 C 
BRANCH  36  37
HETATM   37  O1  UNL     1     -87.527 -14.026  16.392  1.00  0.00    -0.400 OA
ATOM     38  H1  UNL     1     -87.302 -13.693  17.252  1.00  0.00     0.209 HD
ENDBRANCH  36  37
ENDBRANCH  12  36
BRANCH  14  39
HETATM   39  O2  UNL     1     -89.098 -13.988  13.701  1.00  0.00    -0.395 OA
ATOM     40  H2  UNL     1     -89.705 -13.258  13.679  1.00  0.00     0.210 HD
ENDBRANCH  14  39
TORSDOF 11
ENDMDL
MODEL 3
REMARK VINA RESULT: -8.318592685      2.128      3.161
REMARK  11 active torsions:
REMARK  status: ('A' for Active; 'I' for Inactive)
REMARK    1  A    between atoms: C2_2  and  C3_3 
REMARK    2  A    between atoms: C3_3  and  C4_4 
REMARK    3  A    between atoms: C4_4  and  C5_5 
REMARK    4  A    between atoms: C5_5  and  C6_6 
REMARK    5  A    between atoms: C8_8  and  C9_9 
REMARK    6  A    between atoms: C10_10  and  C11_11 
REMARK    7  A    between atoms: C21_22  and  C23_24 
REMARK    8  A    between atoms: C23_24  and  O1_25 
REMARK    9  A    between atoms: C24_27  and  O2_28 
REMARK   10  A    between atoms: C28_33  and  O3_34 
REMARK   11  A    between atoms: C29_36  and  O4_37 
ROOT
HETATM    1  C11 UNL     1     -86.566 -16.502  11.972  1.00  0.00    -0.050 C 
HETATM    2  C12 UNL     1     -85.518 -17.222  11.522  1.00  0.00    -0.019 C 
HETATM    3  C13 UNL     1     -84.115 -17.395  11.806  1.00  0.00     0.028 C 
HETATM    4  C14 UNL     1     -83.320 -16.109  11.767  1.00  0.00     0.008 C 
HETATM    5  C15 UNL     1     -84.292 -14.939  11.824  1.00  0.00    -0.013 C 
HETATM    6  C16 UNL     1     -83.477 -13.686  11.624  1.00  0.00     0.010 C 
HETATM    7  C17 UNL     1     -85.021 -14.881  13.096  1.00  0.00     0.006 C 
HETATM    8  C18 UNL     1     -84.316 -15.355  14.309  1.00  0.00     0.009 C 
HETATM    9  C19 UNL     1     -85.520 -15.361  15.290  1.00  0.00     0.046 C 
HETATM   10  C20 UNL     1     -86.487 -16.166  14.464  1.00  0.00     0.127 C 
HETATM   11  F1  UNL     1     -85.949 -17.462  14.487  1.00  0.00    -0.241 F 
HETATM   12  C21 UNL     1     -87.803 -16.297  15.112  1.00  0.00     0.040 C 
HETATM   13  C22 UNL     1     -88.474 -17.622  14.698  1.00  0.00     0.024 C 
HETATM   14  C24 UNL     1     -88.721 -15.127  15.001  1.00  0.00     0.131 C 
HETATM   15  C25 UNL     1     -88.309 -14.104  14.032  1.00  0.00     0.034 C 
HETATM   16  C26 UNL     1     -87.349 -14.405  12.970  1.00  0.00     0.020 C 
HETATM   17  C27 UNL     1     -86.422 -15.554  13.096  1.00  0.00     0.028 C 
ENDROOT
BRANCH   1  18
HETATM   18  C10 UNL     1     -87.760 -16.785  11.237  1.00  0.00     0.004 C 
HETATM   19  C9  UNL     1     -88.567 -17.782  11.058  1.00  0.00    -0.019 C 
BRANCH  19  20
HETATM   20  C8  UNL     1     -89.797 -17.683  10.152  1.00  0.00     0.040 C 
HETATM   21  C7  UNL     1     -89.866 -16.228   9.797  1.00  0.00     0.023 C 
HETATM   22  C6  UNL     1     -91.125 -15.849   9.063  1.00  0.00     0.059 C 
HETATM   23  C30 UNL     1     -92.277 -16.689   9.437  1.00  0.00     0.162 C 
HETATM   24  C29 UNL     1     -92.161 -18.121   9.816  1.00  0.00     0.217 C 
HETATM   25  O5  UNL     1     -93.391 -16.180   9.436  1.00  0.00    -0.295 OA
HETATM   26  C28 UNL     1     -91.018 -18.191  10.839  1.00  0.00     0.162 C 
BRANCH  22  27
HETATM   27  C5  UNL     1     -90.938 -15.907   7.567  1.00  0.00     0.012 C 
BRANCH  27  28
HETATM   28  C4  UNL     1     -89.505 -15.933   7.147  1.00  0.00     0.001 C 
BRANCH  28  29
HETATM   29  C3  UNL     1     -89.284 -15.181   5.848  1.00  0.00    -0.000 C 
BRANCH  29  30
HETATM   30  C2  UNL     1     -87.845 -14.796   5.658  1.00  0.00    -0.005 C 
HETATM   31  C1  UNL     1     -87.027 -15.534   6.705  1.00  0.00     0.005 C 
ENDBRANCH  29  30
ENDBRANCH  28  29
ENDBRANCH  27  28
ENDBRANCH  22  27
BRANCH  24  32
HETATM   32  O4  UNL     1     -93.316 -18.516  10.497  1.00  0.00    -0.385 OA
ATOM     33  H4  UNL     1     -93.152 -18.343  11.417  1.00  0.00     0.210 HD
ENDBRANCH  24  32
BRANCH  26  34
HETATM   34  O3  UNL     1     -91.314 -17.340  11.908  1.00  0.00    -0.392 OA
ATOM     35  H3  UNL     1     -91.582 -16.499  11.560  1.00  0.00     0.210 HD
ENDBRANCH  26  34
ENDBRANCH  19  20
ENDBRANCH   1  18
BRANCH  12  36
HETATM   36  C23 UNL     1     -87.621 -16.477  16.628  1.00  0.00     0.179 C 
BRANCH  36  37
HETATM   37  O1  UNL     1     -88.642 -16.007  17.391  1.00  0.00    -0.400 OA
ATOM     38  H1  UNL     1     -89.053 -16.651  17.955  1.00  0.00     0.209 HD
ENDBRANCH  36  37
ENDBRANCH  12  36
BRANCH  14  39
HETATM   39  O2  UNL     1     -90.002 -15.618  14.648  1.00  0.00    -0.395 OA
ATOM     40  H2  UNL     1     -89.883 -16.282  13.979  1.00  0.00     0.210 HD
ENDBRANCH  14  39
TORSDOF 11
ENDMDL
MODEL 4
REMARK VINA RESULT: -8.293663454      3.244      6.928
REMARK  11 active torsions:
REMARK  status: ('A' for Active; 'I' for Inactive)
REMARK    1  A    between atoms: C2_2  and  C3_3 
REMARK    2  A    between atoms: C3_3  and  C4_4 
REMARK    3  A    between atoms: C4_4  and  C5_5 
REMARK    4  A    between atoms: C5_5  and  C6_6 
REMARK    5  A    between atoms: C8_8  and  C9_9 
REMARK    6  A    between atoms: C10_10  and  C11_11 
REMARK    7  A    between atoms: C21_22  and  C23_24 
REMARK    8  A    between atoms: C23_24  and  O1_25 
REMARK    9  A    between atoms: C24_27  and  O2_28 
REMARK   10  A    between atoms: C28_33  and  O3_34 
REMARK   11  A    between atoms: C29_36  and  O4_37 
ROOT
HETATM    1  C11 UNL     1     -89.485 -16.220   9.451  1.00  0.00    -0.050 C 
HETATM    2  C12 UNL     1     -90.577 -15.991   8.693  1.00  0.00    -0.019 C 
HETATM    3  C13 UNL     1     -92.010 -15.958   8.834  1.00  0.00     0.028 C 
HETATM    4  C14 UNL     1     -92.599 -17.233   9.396  1.00  0.00     0.008 C 
HETATM    5  C15 UNL     1     -91.476 -18.049  10.021  1.00  0.00    -0.013 C 
HETATM    6  C16 UNL     1     -92.073 -19.374  10.425  1.00  0.00     0.010 C 
HETATM    7  C17 UNL     1     -90.879 -17.378  11.181  1.00  0.00     0.006 C 
HETATM    8  C18 UNL     1     -91.765 -16.528  12.009  1.00  0.00     0.009 C 
HETATM    9  C19 UNL     1     -90.681 -15.853  12.892  1.00  0.00     0.046 C 
HETATM   10  C20 UNL     1     -89.764 -15.367  11.802  1.00  0.00     0.127 C 
HETATM   11  F1  UNL     1     -90.487 -14.328  11.195  1.00  0.00    -0.241 F 
HETATM   12  C21 UNL     1     -88.554 -14.718  12.334  1.00  0.00     0.040 C 
HETATM   13  C22 UNL     1     -88.048 -13.642  11.353  1.00  0.00     0.024 C 
HETATM   14  C24 UNL     1     -87.467 -15.621  12.810  1.00  0.00     0.131 C 
HETATM   15  C25 UNL     1     -87.623 -17.032  12.436  1.00  0.00     0.034 C 
HETATM   16  C26 UNL     1     -88.505 -17.435  11.341  1.00  0.00     0.020 C 
HETATM   17  C27 UNL     1     -89.600 -16.545  10.888  1.00  0.00     0.028 C 
ENDROOT
BRANCH   1  18
HETATM   18  C10 UNL     1     -88.277 -16.103   8.693  1.00  0.00     0.004 C 
HETATM   19  C9  UNL     1     -87.913 -15.701   7.518  1.00  0.00    -0.019 C 
BRANCH  19  20
HETATM   20  C8  UNL     1     -86.453 -15.735   7.060  1.00  0.00     0.040 C 
HETATM   21  C7  UNL     1     -85.712 -15.051   8.170  1.00  0.00     0.023 C 
HETATM   22  C6  UNL     1     -84.264 -14.785   7.849  1.00  0.00     0.059 C 
HETATM   23  C30 UNL     1     -84.030 -14.570   6.410  1.00  0.00     0.162 C 
HETATM   24  C29 UNL     1     -84.811 -15.243   5.341  1.00  0.00     0.217 C 
HETATM   25  O5  UNL     1     -83.143 -13.794   6.077  1.00  0.00    -0.295 OA
HETATM   26  C28 UNL     1     -86.286 -15.077   5.733  1.00  0.00     0.162 C 
BRANCH  22  27
HETATM   27  C5  UNL     1     -83.372 -15.902   8.333  1.00  0.00     0.012 C 
BRANCH  27  28
HETATM   28  C4  UNL     1     -83.528 -16.202   9.787  1.00  0.00     0.001 C 
BRANCH  28  29
HETATM   29  C3  UNL     1     -84.364 -17.446  10.021  1.00  0.00    -0.000 C 
BRANCH  29  30
HETATM   30  C2  UNL     1     -84.389 -17.843  11.469  1.00  0.00    -0.005 C 
HETATM   31  C1  UNL     1     -83.350 -17.008  12.196  1.00  0.00     0.005 C 
ENDBRANCH  29  30
ENDBRANCH  28  29
ENDBRANCH  27  28
ENDBRANCH  22  27
BRANCH  24  32
HETATM   32  O4  UNL     1     -84.649 -14.548   4.139  1.00  0.00    -0.385 OA
ATOM     33  H4  UNL     1     -85.022 -15.100   3.462  1.00  0.00     0.210 HD
ENDBRANCH  24  32
BRANCH  26  34
HETATM   34  O3  UNL     1     -86.567 -13.715   5.873  1.00  0.00    -0.392 OA
ATOM     35  H3  UNL     1     -85.840 -13.218   5.518  1.00  0.00     0.210 HD
ENDBRANCH  26  34
ENDBRANCH  19  20
ENDBRANCH   1  18
BRANCH  12  36
HETATM   36  C23 UNL     1     -88.914 -13.890  13.578  1.00  0.00     0.179 C 
BRANCH  36  37
HETATM   37  O1  UNL     1     -88.751 -12.547  13.443  1.00  0.00    -0.400 OA
ATOM     38  H1  UNL     1     -88.849 -12.047  14.245  1.00  0.00     0.209 HD
ENDBRANCH  36  37
ENDBRANCH  12  36
BRANCH  14  39
HETATM   39  O2  UNL     1     -86.244 -15.132  12.291  1.00  0.00    -0.395 OA
ATOM     40  H2  UNL     1     -85.746 -14.772  13.016  1.00  0.00     0.210 HD
ENDBRANCH  14  39
TORSDOF 11
ENDMDL
MODEL 5
REMARK VINA RESULT: -8.276356676      2.948      7.009
REMARK  11 active torsions:
REMARK  status: ('A' for Active; 'I' for Inactive)
REMARK    1  A    between atoms: C2_2  and  C3_3 
REMARK    2  A    between atoms: C3_3  and  C4_4 
REMARK    3  A    between atoms: C4_4  and  C5_5 
REMARK    4  A    between atoms: C5_5  and  C6_6 
REMARK    5  A    between atoms: C8_8  and  C9_9 
REMARK    6  A    between atoms: C10_10  and  C11_11 
REMARK    7  A    between atoms: C21_22  and  C23_24 
REMARK    8  A    between atoms: C23_24  and  O1_25 
REMARK    9  A    between atoms: C24_27  and  O2_28 
REMARK   10  A    between atoms: C28_33  and  O3_34 
REMARK   11  A    between atoms: C29_36  and  O4_37 
ROOT
HETATM    1  C11 UNL     1     -89.039 -16.387  10.132  1.00  0.00    -0.050 C 
HETATM    2  C12 UNL     1     -89.889 -16.007   9.157  1.00  0.00    -0.019 C 
HETATM    3  C13 UNL     1     -91.230 -16.291   8.712  1.00  0.00     0.028 C 
HETATM    4  C14 UNL     1     -91.486 -17.757   8.439  1.00  0.00     0.008 C 
HETATM    5  C15 UNL     1     -90.373 -18.569   9.086  1.00  0.00    -0.013 C 
HETATM    6  C16 UNL     1     -90.576 -20.002   8.660  1.00  0.00     0.010 C 
HETATM    7  C17 UNL     1     -90.382 -18.461  10.549  1.00  0.00     0.006 C 
HETATM    8  C18 UNL     1     -91.694 -18.289  11.213  1.00  0.00     0.009 C 
HETATM    9  C19 UNL     1     -91.189 -17.959  12.644  1.00  0.00     0.046 C 
HETATM   10  C20 UNL     1     -90.227 -16.854  12.301  1.00  0.00     0.127 C 
HETATM   11  F1  UNL     1     -91.060 -15.792  11.917  1.00  0.00    -0.241 F 
HETATM   12  C21 UNL     1     -89.503 -16.353  13.481  1.00  0.00     0.040 C 
HETATM   13  C22 UNL     1     -89.139 -14.867  13.296  1.00  0.00     0.024 C 
HETATM   14  C24 UNL     1     -88.352 -17.174  13.956  1.00  0.00     0.131 C 
HETATM   15  C25 UNL     1     -87.914 -18.225  13.029  1.00  0.00     0.034 C 
HETATM   16  C26 UNL     1     -88.270 -18.185  11.611  1.00  0.00     0.020 C 
HETATM   17  C27 UNL     1     -89.430 -17.388  11.147  1.00  0.00     0.028 C 
ENDROOT
BRANCH   1  18
HETATM   18  C10 UNL     1     -87.782 -15.712  10.035  1.00  0.00     0.004 C 
HETATM   19  C9  UNL     1     -87.119 -14.811  10.689  1.00  0.00    -0.019 C 
BRANCH  19  20
HETATM   20  C8  UNL     1     -85.735 -14.333  10.244  1.00  0.00     0.040 C 
HETATM   21  C7  UNL     1     -85.331 -15.327   9.196  1.00  0.00     0.023 C 
HETATM   22  C6  UNL     1     -83.902 -15.175   8.745  1.00  0.00     0.059 C 
HETATM   23  C30 UNL     1     -83.023 -14.654   9.807  1.00  0.00     0.162 C 
HETATM   24  C29 UNL     1     -83.472 -13.695  10.848  1.00  0.00     0.217 C 
HETATM   25  O5  UNL     1     -81.857 -15.031   9.832  1.00  0.00    -0.295 OA
HETATM   26  C28 UNL     1     -84.792 -14.259  11.395  1.00  0.00     0.162 C 
BRANCH  22  27
HETATM   27  C5  UNL     1     -83.791 -14.287   7.531  1.00  0.00     0.012 C 
BRANCH  27  28
HETATM   28  C4  UNL     1     -84.310 -14.918   6.281  1.00  0.00     0.001 C 
BRANCH  28  29
HETATM   29  C3  UNL     1     -85.668 -14.366   5.891  1.00  0.00    -0.000 C 
BRANCH  29  30
HETATM   30  C2  UNL     1     -86.684 -15.455   5.699  1.00  0.00    -0.005 C 
HETATM   31  C1  UNL     1     -88.037 -14.904   6.112  1.00  0.00     0.005 C 
ENDBRANCH  29  30
ENDBRANCH  28  29
ENDBRANCH  27  28
ENDBRANCH  22  27
BRANCH  24  32
HETATM   32  O4  UNL     1     -82.571 -13.712  11.916  1.00  0.00    -0.385 OA
ATOM     33  H4  UNL     1     -82.419 -12.804  12.149  1.00  0.00     0.210 HD
ENDBRANCH  24  32
BRANCH  26  34
HETATM   34  O3  UNL     1     -84.568 -15.554  11.870  1.00  0.00    -0.392 OA
ATOM     35  H3  UNL     1     -84.825 -15.590  12.783  1.00  0.00     0.210 HD
ENDBRANCH  26  34
ENDBRANCH  19  20
ENDBRANCH   1  18
BRANCH  12  36
HETATM   36  C23 UNL     1     -90.449 -16.314  14.692  1.00  0.00     0.179 C 
BRANCH  36  37
HETATM   37  O1  UNL     1     -89.875 -16.633  15.883  1.00  0.00    -0.400 OA
ATOM     38  H1  UNL     1     -90.329 -16.302  16.649  1.00  0.00     0.209 HD
ENDBRANCH  36  37
ENDBRANCH  12  36
BRANCH  14  39
HETATM   39  O2  UNL     1     -87.272 -16.294  14.209  1.00  0.00    -0.395 OA
ATOM     40  H2  UNL     1     -87.019 -16.402  15.118  1.00  0.00     0.210 HD
ENDBRANCH  14  39
TORSDOF 11
ENDMDL
