MODEL 1
REMARK VINA RESULT: -9.317839475      0.000      0.000
REMARK  10 active torsions:
REMARK  status: ('A' for Active; 'I' for Inactive)
REMARK    1  A    between atoms: C2_2  and  C3_3 
REMARK    2  A    between atoms: C2_2  and  C12_18 
REMARK    3  A    between atoms: C3_3  and  C4_4 
REMARK    4  A    between atoms: C4_4  and  C5_5 
REMARK    5  A    between atoms: C5_5  and  N1_6 
REMARK    6  A    between atoms: N1_6  and  N2_8 
REMARK    7  A    between atoms: N2_8  and  C6_10 
REMARK    8  A    between atoms: C20_29  and  O1_30 
REMARK    9  A    between atoms: C22_33  and  C23_34 
REMARK   10  A    between atoms: C23_34  and  O2_35 
ROOT
HETATM    1  C12 UNL     1     -86.222 -15.176   8.539  1.00  0.00    -0.010 C 
HETATM    2  C13 UNL     1     -85.204 -16.249   8.826  1.00  0.00     0.005 C 
HETATM    3  C14 UNL     1     -84.997 -16.241  10.351  1.00  0.00     0.006 C 
HETATM    4  C15 UNL     1     -86.231 -16.859  10.892  1.00  0.00    -0.002 C 
HETATM    5  C16 UNL     1     -86.290 -16.980  12.385  1.00  0.00    -0.005 C 
HETATM    6  C17 UNL     1     -85.064 -17.487  13.036  1.00  0.00     0.007 C 
HETATM    7  C18 UNL     1     -85.032 -17.081  14.514  1.00  0.00     0.034 C 
HETATM    8  C19 UNL     1     -86.386 -16.665  14.896  1.00  0.00     0.200 C 
HETATM    9  N4  UNL     1     -86.638 -16.319  16.245  1.00  0.00    -0.044 N 
ATOM     10  H41 UNL     1     -85.888 -15.789  16.687  1.00  0.00     0.280 HD
ATOM     11  H42 UNL     1     -86.613 -17.109  16.890  1.00  0.00     0.280 HD
HETATM   12  C20 UNL     1     -87.919 -15.622  16.207  1.00  0.00     0.319 C 
HETATM   13  C21 UNL     1     -88.154 -15.224  14.741  1.00  0.00     0.075 C 
HETATM   14  C22 UNL     1     -86.774 -15.355  14.194  1.00  0.00     0.017 C 
HETATM   15  C24 UNL     1     -86.593 -15.531  12.764  1.00  0.00     0.003 C 
HETATM   16  C25 UNL     1     -87.671 -15.162  11.839  1.00  0.00     0.015 C 
HETATM   17  C26 UNL     1     -87.435 -16.036  10.593  1.00  0.00    -0.039 C 
HETATM   18  C27 UNL     1     -88.618 -17.022  10.607  1.00  0.00     0.015 C 
HETATM   19  C28 UNL     1     -87.438 -15.223   9.367  1.00  0.00     0.014 C 
ENDROOT
BRANCH   1  20
HETATM   20  C2  UNL     1     -86.452 -15.100   7.053  1.00  0.00    -0.014 C 
HETATM   21  C1  UNL     1     -85.242 -15.309   6.218  1.00  0.00     0.010 C 
BRANCH  20  22
HETATM   22  C3  UNL     1     -87.613 -15.984   6.626  1.00  0.00     0.006 C 
BRANCH  22  23
HETATM   23  C4  UNL     1     -88.490 -15.275   5.620  1.00  0.00     0.021 C 
BRANCH  23  24
HETATM   24  C5  UNL     1     -89.908 -15.262   6.136  1.00  0.00     0.139 C 
BRANCH  24  25
HETATM   25  N1  UNL     1     -90.087 -16.312   7.132  1.00  0.00    -0.335 N 
ATOM     26  H1  UNL     1     -89.426 -17.089   7.168  1.00  0.00     0.180 HD
BRANCH  25  27
HETATM   27  N2  UNL     1     -91.109 -16.271   8.000  1.00  0.00    -0.290 N 
ATOM     28  H2  UNL     1     -91.616 -15.388   7.949  1.00  0.00     0.188 HD
BRANCH  27  29
HETATM   29  C6  UNL     1     -91.601 -17.047   8.863  1.00  0.00     0.121 A 
HETATM   30  C7  UNL     1     -91.361 -18.427   8.713  1.00  0.00     0.052 A 
HETATM   31  C8  UNL     1     -91.831 -19.377   9.571  1.00  0.00     0.029 A 
HETATM   32  C9  UNL     1     -92.583 -18.972  10.645  1.00  0.00     0.049 A 
HETATM   33 CL1  UNL     1     -93.243 -20.113  11.821  1.00  0.00    -0.083 Cl
HETATM   34  C10 UNL     1     -92.815 -17.637  10.791  1.00  0.00     0.115 A 
HETATM   35  N3  UNL     1     -92.339 -16.695   9.924  1.00  0.00    -0.345 N 
HETATM   36  C11 UNL     1     -92.635 -15.309  10.162  1.00  0.00     0.157 C 
ENDBRANCH  27  29
ENDBRANCH  25  27
ENDBRANCH  24  25
ENDBRANCH  23  24
ENDBRANCH  22  23
ENDBRANCH  20  22
ENDBRANCH   1  20
BRANCH  14  37
HETATM   37  C23 UNL     1     -85.955 -14.206  14.736  1.00  0.00     0.176 C 
BRANCH  37  38
HETATM   38  O2  UNL     1     -86.514 -12.974  14.405  1.00  0.00    -0.400 OA
ATOM     39  H2  UNL     1     -86.143 -12.269  14.923  1.00  0.00     0.209 HD
ENDBRANCH  37  38
ENDBRANCH  14  37
BRANCH  12  40
HETATM   40  O1  UNL     1     -88.949 -16.444  16.664  1.00  0.00    -0.370 OA
ATOM     41  H1  UNL     1     -89.746 -15.946  16.803  1.00  0.00     0.212 HD
ENDBRANCH  12  40
TORSDOF 10
ENDMDL
MODEL 2
REMARK VINA RESULT: -8.890867821      3.205      6.515
REMARK  10 active torsions:
REMARK  status: ('A' for Active; 'I' for Inactive)
REMARK    1  A    between atoms: C2_2  and  C3_3 
REMARK    2  A    between atoms: C2_2  and  C12_18 
REMARK    3  A    between atoms: C3_3  and  C4_4 
REMARK    4  A    between atoms: C4_4  and  C5_5 
REMARK    5  A    between atoms: C5_5  and  N1_6 
REMARK    6  A    between atoms: N1_6  and  N2_8 
REMARK    7  A    between atoms: N2_8  and  C6_10 
REMARK    8  A    between atoms: C20_29  and  O1_30 
REMARK    9  A    between atoms: C22_33  and  C23_34 
REMARK   10  A    between atoms: C23_34  and  O2_35 
ROOT
HETATM    1  C12 UNL     1     -87.118 -14.692  12.284  1.00  0.00    -0.010 C 
HETATM    2  C13 UNL     1     -88.030 -13.618  11.749  1.00  0.00     0.005 C 
HETATM    3  C14 UNL     1     -89.168 -14.353  11.019  1.00  0.00     0.006 C 
HETATM    4  C15 UNL     1     -89.996 -14.922  12.108  1.00  0.00    -0.002 C 
HETATM    5  C16 UNL     1     -91.199 -15.700  11.666  1.00  0.00    -0.005 C 
HETATM    6  C17 UNL     1     -92.008 -15.076  10.599  1.00  0.00     0.007 C 
HETATM    7  C18 UNL     1     -92.850 -16.132   9.874  1.00  0.00     0.034 C 
HETATM    8  C19 UNL     1     -92.879 -17.337  10.711  1.00  0.00     0.200 C 
HETATM    9  N4  UNL     1     -93.667 -18.437  10.297  1.00  0.00    -0.044 N 
ATOM     10  H41 UNL     1     -93.641 -18.615   9.293  1.00  0.00     0.280 HD
ATOM     11  H42 UNL     1     -94.672 -18.276  10.356  1.00  0.00     0.280 HD
HETATM   12  C20 UNL     1     -93.192 -19.550  11.112  1.00  0.00     0.319 C 
HETATM   13  C21 UNL     1     -91.832 -19.121  11.683  1.00  0.00     0.075 C 
HETATM   14  C22 UNL     1     -91.492 -17.994  10.770  1.00  0.00     0.017 C 
HETATM   15  C24 UNL     1     -90.531 -16.995  11.207  1.00  0.00     0.003 C 
HETATM   16  C25 UNL     1     -89.605 -17.300  12.303  1.00  0.00     0.015 C 
HETATM   17  C26 UNL     1     -89.243 -15.930  12.904  1.00  0.00    -0.039 C 
HETATM   18  C27 UNL     1     -89.917 -15.946  14.288  1.00  0.00     0.015 C 
HETATM   19  C28 UNL     1     -87.786 -15.773  13.027  1.00  0.00     0.014 C 
ENDROOT
BRANCH   1  20
HETATM   20  C2  UNL     1     -85.954 -14.045  12.986  1.00  0.00    -0.014 C 
HETATM   21  C1  UNL     1     -85.200 -14.937  13.904  1.00  0.00     0.010 C 
BRANCH  20  22
HETATM   22  C3  UNL     1     -85.047 -13.321  12.004  1.00  0.00     0.006 C 
BRANCH  22  23
HETATM   23  C4  UNL     1     -84.257 -14.304  11.172  1.00  0.00     0.021 C 
BRANCH  23  24
HETATM   24  C5  UNL     1     -84.187 -13.794   9.753  1.00  0.00     0.139 C 
BRANCH  24  25
HETATM   25  N1  UNL     1     -83.680 -14.838   8.872  1.00  0.00    -0.335 N 
ATOM     26  H1  UNL     1     -82.674 -14.930   8.726  1.00  0.00     0.180 HD
BRANCH  25  27
HETATM   27  N2  UNL     1     -84.517 -15.681   8.250  1.00  0.00    -0.290 N 
ATOM     28  H2  UNL     1     -84.038 -16.517   7.915  1.00  0.00     0.188 HD
BRANCH  27  29
HETATM   29  C6  UNL     1     -85.747 -15.704   7.973  1.00  0.00     0.121 A 
HETATM   30  C7  UNL     1     -86.613 -16.320   8.899  1.00  0.00     0.052 A 
HETATM   31  C8  UNL     1     -87.963 -16.415   8.728  1.00  0.00     0.029 A 
HETATM   32  C9  UNL     1     -88.517 -15.882   7.592  1.00  0.00     0.049 A 
HETATM   33 CL1  UNL     1     -90.251 -15.946   7.266  1.00  0.00    -0.083 Cl
HETATM   34  C10 UNL     1     -87.680 -15.285   6.697  1.00  0.00     0.115 A 
HETATM   35  N3  UNL     1     -86.329 -15.196   6.879  1.00  0.00    -0.345 N 
HETATM   36  C11 UNL     1     -85.528 -14.546   5.879  1.00  0.00     0.157 C 
ENDBRANCH  27  29
ENDBRANCH  25  27
ENDBRANCH  24  25
ENDBRANCH  23  24
ENDBRANCH  22  23
ENDBRANCH  20  22
ENDBRANCH   1  20
BRANCH  14  37
HETATM   37  C23 UNL     1     -91.131 -18.584   9.426  1.00  0.00     0.176 C 
BRANCH  37  38
HETATM   38  O2  UNL     1     -89.952 -19.322   9.487  1.00  0.00    -0.400 OA
ATOM     39  H2  UNL     1     -90.110 -20.249   9.353  1.00  0.00     0.209 HD
ENDBRANCH  37  38
ENDBRANCH  14  37
BRANCH  12  40
HETATM   40  O1  UNL     1     -94.091 -19.833  12.142  1.00  0.00    -0.370 OA
ATOM     41  H1  UNL     1     -93.704 -19.650  12.990  1.00  0.00     0.212 HD
ENDBRANCH  12  40
TORSDOF 10
ENDMDL
MODEL 3
REMARK VINA RESULT: -8.882462589      3.407      6.543
REMARK  10 active torsions:
REMARK  status: ('A' for Active; 'I' for Inactive)
REMARK    1  A    between atoms: C2_2  and  C3_3 
REMARK    2  A    between atoms: C2_2  and  C12_18 
REMARK    3  A    between atoms: C3_3  and  C4_4 
REMARK    4  A    between atoms: C4_4  and  C5_5 
REMARK    5  A    between atoms: C5_5  and  N1_6 
REMARK    6  A    between atoms: N1_6  and  N2_8 
REMARK    7  A    between atoms: N2_8  and  C6_10 
REMARK    8  A    between atoms: C20_29  and  O1_30 
REMARK    9  A    between atoms: C22_33  and  C23_34 
REMARK   10  A    between atoms: C23_34  and  O2_35 
ROOT
HETATM    1  C12 UNL     1     -86.089 -14.905  11.334  1.00  0.00    -0.010 C 
HETATM    2  C13 UNL     1     -86.965 -13.938  12.088  1.00  0.00     0.005 C 
HETATM    3  C14 UNL     1     -88.414 -14.289  11.703  1.00  0.00     0.006 C 
HETATM    4  C15 UNL     1     -88.688 -15.554  12.425  1.00  0.00    -0.002 C 
HETATM    5  C16 UNL     1     -90.060 -16.125  12.226  1.00  0.00    -0.005 C 
HETATM    6  C17 UNL     1     -91.175 -15.160  12.318  1.00  0.00     0.007 C 
HETATM    7  C18 UNL     1     -92.417 -15.702  11.599  1.00  0.00     0.034 C 
HETATM    8  C19 UNL     1     -92.225 -17.142  11.394  1.00  0.00     0.200 C 
HETATM    9  N4  UNL     1     -93.277 -17.895  10.819  1.00  0.00    -0.044 N 
ATOM     10  H41 UNL     1     -93.768 -17.418  10.064  1.00  0.00     0.280 HD
ATOM     11  H42 UNL     1     -94.089 -18.009  11.426  1.00  0.00     0.280 HD
HETATM   12  C20 UNL     1     -92.648 -19.150  10.423  1.00  0.00     0.319 C 
HETATM   13  C21 UNL     1     -91.133 -18.894  10.413  1.00  0.00     0.075 C 
HETATM   14  C22 UNL     1     -91.105 -17.405  10.377  1.00  0.00     0.017 C 
HETATM   15  C24 UNL     1     -89.910 -16.709  10.822  1.00  0.00     0.003 C 
HETATM   16  C25 UNL     1     -88.630 -17.423  10.892  1.00  0.00     0.015 C 
HETATM   17  C26 UNL     1     -87.813 -16.661  11.951  1.00  0.00    -0.039 C 
HETATM   18  C27 UNL     1     -87.727 -17.648  13.129  1.00  0.00     0.015 C 
HETATM   19  C28 UNL     1     -86.474 -16.322  11.445  1.00  0.00     0.014 C 
ENDROOT
BRANCH   1  20
HETATM   20  C2  UNL     1     -84.646 -14.600  11.634  1.00  0.00    -0.014 C 
HETATM   21  C1  UNL     1     -84.424 -13.468  12.568  1.00  0.00     0.010 C 
BRANCH  20  22
HETATM   22  C3  UNL     1     -83.890 -15.852  12.048  1.00  0.00     0.006 C 
BRANCH  22  23
HETATM   23  C4  UNL     1     -82.806 -16.184  11.050  1.00  0.00     0.021 C 
BRANCH  23  24
HETATM   24  C5  UNL     1     -82.988 -15.317   9.828  1.00  0.00     0.139 C 
BRANCH  24  25
HETATM   25  N1  UNL     1     -83.533 -16.108   8.731  1.00  0.00    -0.335 N 
ATOM     26  H1  UNL     1     -83.492 -17.127   8.776  1.00  0.00     0.180 HD
BRANCH  25  27
HETATM   27  N2  UNL     1     -84.089 -15.515   7.664  1.00  0.00    -0.290 N 
ATOM     28  H2  UNL     1     -83.397 -15.026   7.097  1.00  0.00     0.188 HD
BRANCH  27  29
HETATM   29  C6  UNL     1     -85.250 -15.409   7.184  1.00  0.00     0.121 A 
HETATM   30  C7  UNL     1     -86.335 -15.725   8.024  1.00  0.00     0.052 A 
HETATM   31  C8  UNL     1     -87.641 -15.654   7.636  1.00  0.00     0.029 A 
HETATM   32  C9  UNL     1     -87.921 -15.251   6.354  1.00  0.00     0.049 A 
HETATM   33 CL1  UNL     1     -89.573 -15.122   5.743  1.00  0.00    -0.083 Cl
HETATM   34  C10 UNL     1     -86.870 -14.945   5.541  1.00  0.00     0.115 A 
HETATM   35  N3  UNL     1     -85.567 -15.020   5.941  1.00  0.00    -0.345 N 
HETATM   36  C11 UNL     1     -84.527 -14.675   5.012  1.00  0.00     0.157 C 
ENDBRANCH  27  29
ENDBRANCH  25  27
ENDBRANCH  24  25
ENDBRANCH  23  24
ENDBRANCH  22  23
ENDBRANCH  20  22
ENDBRANCH   1  20
BRANCH  14  37
HETATM   37  C23 UNL     1     -91.538 -16.971   8.995  1.00  0.00     0.176 C 
BRANCH  37  38
HETATM   38  O2  UNL     1     -90.713 -17.503   8.007  1.00  0.00    -0.400 OA
ATOM     39  H2  UNL     1     -90.222 -16.826   7.556  1.00  0.00     0.209 HD
ENDBRANCH  37  38
ENDBRANCH  14  37
BRANCH  12  40
HETATM   40  O1  UNL     1     -92.969 -20.173  11.317  1.00  0.00    -0.370 OA
ATOM     41  H1  UNL     1     -92.249 -20.338  11.916  1.00  0.00     0.212 HD
ENDBRANCH  12  40
TORSDOF 10
ENDMDL
MODEL 4
REMARK VINA RESULT: -8.851737794      1.370      1.855
REMARK  10 active torsions:
REMARK  status: ('A' for Active; 'I' for Inactive)
REMARK    1  A    between atoms: C2_2  and  C3_3 
REMARK    2  A    between atoms: C2_2  and  C12_18 
REMARK    3  A    between atoms: C3_3  and  C4_4 
REMARK    4  A    between atoms: C4_4  and  C5_5 
REMARK    5  A    between atoms: C5_5  and  N1_6 
REMARK    6  A    between atoms: N1_6  and  N2_8 
REMARK    7  A    between atoms: N2_8  and  C6_10 
REMARK    8  A    between atoms: C20_29  and  O1_30 
REMARK    9  A    between atoms: C22_33  and  C23_34 
REMARK   10  A    between atoms: C23_34  and  O2_35 
ROOT
HETATM    1  C12 UNL     1     -86.680 -15.749   8.952  1.00  0.00    -0.010 C 
HETATM    2  C13 UNL     1     -87.761 -16.771   9.190  1.00  0.00     0.005 C 
HETATM    3  C14 UNL     1     -87.669 -17.148  10.679  1.00  0.00     0.006 C 
HETATM    4  C15 UNL     1     -88.222 -15.970  11.389  1.00  0.00    -0.002 C 
HETATM    5  C16 UNL     1     -88.255 -16.076  12.884  1.00  0.00    -0.005 C 
HETATM    6  C17 UNL     1     -88.755 -17.356  13.425  1.00  0.00     0.007 C 
HETATM    7  C18 UNL     1     -88.264 -17.562  14.863  1.00  0.00     0.034 C 
HETATM    8  C19 UNL     1     -87.791 -16.268  15.367  1.00  0.00     0.200 C 
HETATM    9  N4  UNL     1     -87.361 -16.174  16.712  1.00  0.00    -0.044 N 
ATOM     10  H41 UNL     1     -86.825 -16.979  17.036  1.00  0.00     0.280 HD
ATOM     11  H42 UNL     1     -88.112 -16.256  17.397  1.00  0.00     0.280 HD
HETATM   12  C20 UNL     1     -86.634 -14.911  16.773  1.00  0.00     0.319 C 
HETATM   13  C21 UNL     1     -86.317 -14.521  15.321  1.00  0.00     0.075 C 
HETATM   14  C22 UNL     1     -86.515 -15.829  14.634  1.00  0.00     0.017 C 
HETATM   15  C24 UNL     1     -86.779 -15.845  13.206  1.00  0.00     0.003 C 
HETATM   16  C25 UNL     1     -86.437 -14.678  12.385  1.00  0.00     0.015 C 
HETATM   17  C26 UNL     1     -87.387 -14.756  11.176  1.00  0.00    -0.039 C 
HETATM   18  C27 UNL     1     -88.340 -13.564  11.381  1.00  0.00     0.015 C 
HETATM   19  C28 UNL     1     -86.648 -14.632   9.911  1.00  0.00     0.014 C 
ENDROOT
BRANCH   1  20
HETATM   20  C2  UNL     1     -86.685 -15.355   7.499  1.00  0.00    -0.014 C 
HETATM   21  C1  UNL     1     -85.341 -15.163   6.896  1.00  0.00     0.010 C 
BRANCH  20  22
HETATM   22  C3  UNL     1     -87.564 -16.283   6.676  1.00  0.00     0.006 C 
BRANCH  22  23
HETATM   23  C4  UNL     1     -88.268 -15.524   5.575  1.00  0.00     0.021 C 
BRANCH  23  24
HETATM   24  C5  UNL     1     -89.580 -15.002   6.106  1.00  0.00     0.139 C 
BRANCH  24  25
HETATM   25  N1  UNL     1     -90.377 -16.101   6.637  1.00  0.00    -0.335 N 
ATOM     26  H1  UNL     1     -90.530 -16.933   6.066  1.00  0.00     0.180 HD
BRANCH  25  27
HETATM   27  N2  UNL     1     -90.910 -16.035   7.866  1.00  0.00    -0.290 N 
ATOM     28  H2  UNL     1     -90.918 -15.080   8.226  1.00  0.00     0.188 HD
BRANCH  27  29
HETATM   29  C6  UNL     1     -91.405 -16.851   8.689  1.00  0.00     0.121 A 
HETATM   30  C7  UNL     1     -91.114 -18.218   8.507  1.00  0.00     0.052 A 
HETATM   31  C8  UNL     1     -91.581 -19.208   9.321  1.00  0.00     0.029 A 
HETATM   32  C9  UNL     1     -92.381 -18.860  10.381  1.00  0.00     0.049 A 
HETATM   33 CL1  UNL     1     -93.041 -20.056  11.500  1.00  0.00    -0.083 Cl
HETATM   34  C10 UNL     1     -92.662 -17.537  10.557  1.00  0.00     0.115 A 
HETATM   35  N3  UNL     1     -92.188 -16.555   9.735  1.00  0.00    -0.345 N 
HETATM   36  C11 UNL     1     -92.538 -15.188  10.002  1.00  0.00     0.157 C 
ENDBRANCH  27  29
ENDBRANCH  25  27
ENDBRANCH  24  25
ENDBRANCH  23  24
ENDBRANCH  22  23
ENDBRANCH  20  22
ENDBRANCH   1  20
BRANCH  14  37
HETATM   37  C23 UNL     1     -85.358 -16.726  15.012  1.00  0.00     0.176 C 
BRANCH  37  38
HETATM   38  O2  UNL     1     -84.907 -17.469  13.923  1.00  0.00    -0.400 OA
ATOM     39  H2  UNL     1     -84.197 -17.031  13.469  1.00  0.00     0.209 HD
ENDBRANCH  37  38
ENDBRANCH  14  37
BRANCH  12  40
HETATM   40  O1  UNL     1     -87.401 -13.923  17.391  1.00  0.00    -0.370 OA
ATOM     41  H1  UNL     1     -86.984 -13.618  18.189  1.00  0.00     0.212 HD
ENDBRANCH  12  40
TORSDOF 10
ENDMDL
MODEL 5
REMARK VINA RESULT: -8.674057423      3.410      7.266
REMARK  10 active torsions:
REMARK  status: ('A' for Active; 'I' for Inactive)
REMARK    1  A    between atoms: C2_2  and  C3_3 
REMARK    2  A    between atoms: C2_2  and  C12_18 
REMARK    3  A    between atoms: C3_3  and  C4_4 
REMARK    4  A    between atoms: C4_4  and  C5_5 
REMARK    5  A    between atoms: C5_5  and  N1_6 
REMARK    6  A    between atoms: N1_6  and  N2_8 
REMARK    7  A    between atoms: N2_8  and  C6_10 
REMARK    8  A    between atoms: C20_29  and  O1_30 
REMARK    9  A    between atoms: C22_33  and  C23_34 
REMARK   10  A    between atoms: C23_34  and  O2_35 
ROOT
HETATM    1  C12 UNL     1     -85.964 -15.213  10.319  1.00  0.00    -0.010 C 
HETATM    2  C13 UNL     1     -86.640 -14.108  11.089  1.00  0.00     0.005 C 
HETATM    3  C14 UNL     1     -88.151 -14.391  11.000  1.00  0.00     0.006 C 
HETATM    4  C15 UNL     1     -88.361 -15.546  11.904  1.00  0.00    -0.002 C 
HETATM    5  C16 UNL     1     -89.775 -16.034  12.009  1.00  0.00    -0.005 C 
HETATM    6  C17 UNL     1     -90.803 -14.986  12.172  1.00  0.00     0.007 C 
HETATM    7  C18 UNL     1     -92.179 -15.510  11.743  1.00  0.00     0.034 C 
HETATM    8  C19 UNL     1     -92.104 -16.974  11.683  1.00  0.00     0.200 C 
HETATM    9  N4  UNL     1     -93.279 -17.707  11.389  1.00  0.00    -0.044 N 
ATOM     10  H41 UNL     1     -93.869 -17.279  10.675  1.00  0.00     0.280 HD
ATOM     11  H42 UNL     1     -93.975 -17.694  12.133  1.00  0.00     0.280 HD
HETATM   12  C20 UNL     1     -92.798 -19.040  11.045  1.00  0.00     0.319 C 
HETATM   13  C21 UNL     1     -91.296 -18.898  10.749  1.00  0.00     0.075 C 
HETATM   14  C22 UNL     1     -91.196 -17.427  10.530  1.00  0.00     0.017 C 
HETATM   15  C24 UNL     1     -89.906 -16.777  10.680  1.00  0.00     0.003 C 
HETATM   16  C25 UNL     1     -88.674 -17.571  10.618  1.00  0.00     0.015 C 
HETATM   17  C26 UNL     1     -87.643 -16.760  11.424  1.00  0.00    -0.039 C 
HETATM   18  C27 UNL     1     -87.403 -17.616  12.681  1.00  0.00     0.015 C 
HETATM   19  C28 UNL     1     -86.398 -16.577  10.662  1.00  0.00     0.014 C 
ENDROOT
BRANCH   1  20
HETATM   20  C2  UNL     1     -84.476 -14.984  10.332  1.00  0.00    -0.014 C 
HETATM   21  C1  UNL     1     -83.964 -14.119   9.239  1.00  0.00     0.010 C 
BRANCH  20  22
HETATM   22  C3  UNL     1     -83.997 -14.533  11.702  1.00  0.00     0.006 C 
BRANCH  22  23
HETATM   23  C4  UNL     1     -82.937 -13.463  11.579  1.00  0.00     0.021 C 
BRANCH  23  24
HETATM   24  C5  UNL     1     -82.683 -12.870  12.944  1.00  0.00     0.139 C 
BRANCH  24  25
HETATM   25  N1  UNL     1     -83.886 -12.206  13.431  1.00  0.00    -0.335 N 
ATOM     26  H1  UNL     1     -84.426 -11.616  12.797  1.00  0.00     0.180 HD
BRANCH  25  27
HETATM   27  N2  UNL     1     -84.292 -12.359  14.700  1.00  0.00    -0.290 N 
ATOM     28  H2  UNL     1     -83.861 -11.676  15.323  1.00  0.00     0.188 HD
BRANCH  27  29
HETATM   29  C6  UNL     1     -85.071 -13.134  15.319  1.00  0.00     0.121 A 
HETATM   30  C7  UNL     1     -86.179 -13.645  14.614  1.00  0.00     0.052 A 
HETATM   31  C8  UNL     1     -87.099 -14.492  15.159  1.00  0.00     0.029 A 
HETATM   32  C9  UNL     1     -86.943 -14.872  16.468  1.00  0.00     0.049 A 
HETATM   33 CL1  UNL     1     -88.072 -15.963  17.276  1.00  0.00    -0.083 Cl
HETATM   34  C10 UNL     1     -85.871 -14.377  17.149  1.00  0.00     0.115 A 
HETATM   35  N3  UNL     1     -84.956 -13.530  16.593  1.00  0.00    -0.345 N 
HETATM   36  C11 UNL     1     -83.857 -13.063  17.391  1.00  0.00     0.157 C 
ENDBRANCH  27  29
ENDBRANCH  25  27
ENDBRANCH  24  25
ENDBRANCH  23  24
ENDBRANCH  22  23
ENDBRANCH  20  22
ENDBRANCH   1  20
BRANCH  14  37
HETATM   37  C23 UNL     1     -91.842 -17.116   9.199  1.00  0.00     0.176 C 
BRANCH  37  38
HETATM   38  O2  UNL     1     -91.087 -17.603   8.134  1.00  0.00    -0.400 OA
ATOM     39  H2  UNL     1     -91.450 -18.409   7.787  1.00  0.00     0.209 HD
ENDBRANCH  37  38
ENDBRANCH  14  37
BRANCH  12  40
HETATM   40  O1  UNL     1     -93.009 -19.933  12.096  1.00  0.00    -0.370 OA
ATOM     41  H1  UNL     1     -92.184 -20.246  12.447  1.00  0.00     0.212 HD
ENDBRANCH  12  40
TORSDOF 10
ENDMDL
