MODEL 1
REMARK VINA RESULT: -8.194977877      0.000      0.000
REMARK  12 active torsions:
REMARK  status: ('A' for Active; 'I' for Inactive)
REMARK    1  A    between atoms: C2_2  and  C3_3 
REMARK    2  A    between atoms: C3_3  and  O1_4 
REMARK    3  A    between atoms: C4_6  and  O2_7 
REMARK    4  A    between atoms: C17_21  and  O3_22 
REMARK    5  A    between atoms: C17_21  and  C18_24 
REMARK    6  A    between atoms: C18_24  and  C19_25 
REMARK    7  A    between atoms: C19_25  and  C21_27 
REMARK    8  A    between atoms: C21_27  and  C22_28 
REMARK    9  A    between atoms: C22_28  and  O4_29 
REMARK   10  A    between atoms: C22_28  and  C23_31 
REMARK   11  A    between atoms: C23_31  and  N1_33 
REMARK   12  A    between atoms: C27_36  and  O5_37 
ROOT
HETATM    1  C3  UNL     1     126.474  15.667  53.704  1.00  0.00     0.088 C 
HETATM    2  C4  UNL     1     127.337  14.540  54.169  1.00  0.00     0.153 C 
HETATM    3  C5  UNL     1     126.811  13.187  53.809  1.00  0.00     0.036 C 
HETATM    4  C6  UNL     1     125.536  13.320  53.059  1.00  0.00     0.016 C 
HETATM    5  C7  UNL     1     125.649  14.188  51.812  1.00  0.00    -0.020 C 
HETATM    6  C8  UNL     1     126.850  13.578  51.104  1.00  0.00     0.020 C 
HETATM    7  C9  UNL     1     124.445  14.079  50.944  1.00  0.00    -0.020 C 
HETATM    8  C10 UNL     1     123.549  15.161  50.642  1.00  0.00    -0.017 C 
HETATM    9  C11 UNL     1     123.650  16.227  49.685  1.00  0.00     0.010 C 
HETATM   10  C12 UNL     1     122.611  17.272  50.091  1.00  0.00     0.023 C 
HETATM   11  C13 UNL     1     124.890  17.056  49.537  1.00  0.00     0.019 C 
HETATM   12  C14 UNL     1     125.582  16.322  48.433  1.00  0.00     0.014 C 
HETATM   13  C15 UNL     1     124.394  16.274  47.440  1.00  0.00     0.017 C 
HETATM   14  C16 UNL     1     124.808  15.399  46.283  1.00  0.00     0.013 C 
HETATM   15  C17 UNL     1     123.271  15.847  48.230  1.00  0.00     0.072 C 
HETATM   16  C30 UNL     1     125.674  17.406  50.705  1.00  0.00     0.088 C 
HETATM   17 CL1  UNL     1     126.668  18.855  50.404  1.00  0.00    -0.125 Cl
HETATM   18  C31 UNL     1     126.588  16.336  51.251  1.00  0.00     0.029 C 
HETATM   19  C32 UNL     1     125.920  15.570  52.335  1.00  0.00     0.036 C 
ENDROOT
BRANCH  15  20
HETATM   20  O3  UNL     1     123.274  14.403  48.202  1.00  0.00    -0.388 OA
ATOM     21  H3  UNL     1     123.003  14.170  47.321  1.00  0.00     0.210 HD
ENDBRANCH  15  20
BRANCH  15  22
HETATM   22  C18 UNL     1     121.885  16.183  47.925  1.00  0.00     0.043 C 
BRANCH  22  23
HETATM   23  C19 UNL     1     120.847  15.165  47.621  1.00  0.00    -0.013 C 
HETATM   24  C20 UNL     1     119.827  15.190  48.850  1.00  0.00     0.010 C 
BRANCH  23  25
HETATM   25  C21 UNL     1     119.918  15.564  46.446  1.00  0.00     0.038 C 
BRANCH  25  26
HETATM   26  C22 UNL     1     119.392  14.295  45.792  1.00  0.00     0.140 C 
BRANCH  26  27
HETATM   27  O4  UNL     1     119.980  14.378  44.477  1.00  0.00    -0.394 OA
ATOM     28  H4  UNL     1     119.318  13.954  43.943  1.00  0.00     0.210 HD
ENDBRANCH  26  27
BRANCH  26  29
HETATM   29  C23 UNL     1     117.903  14.294  45.646  1.00  0.00     0.103 C 
HETATM   30  C24 UNL     1     117.286  15.572  46.201  1.00  0.00     0.034 C 
BRANCH  29  31
HETATM   31  N1  UNL     1     117.230  13.127  46.008  1.00  0.00    -0.406 N 
HETATM   32  C25 UNL     1     116.909  12.117  45.098  1.00  0.00     0.119 C 
HETATM   33  C26 UNL     1     116.963  10.762  45.829  1.00  0.00     0.051 C 
HETATM   34  C27 UNL     1     118.364  10.647  46.384  1.00  0.00     0.121 C 
HETATM   35  C28 UNL     1     118.444  11.632  47.531  1.00  0.00     0.051 C 
HETATM   36  C29 UNL     1     117.408  12.725  47.389  1.00  0.00     0.119 C 
BRANCH  34  37
HETATM   37  O5  UNL     1     118.655   9.345  46.787  1.00  0.00    -0.395 OA
ATOM     38  H5  UNL     1     119.201   9.331  47.563  1.00  0.00     0.210 HD
ENDBRANCH  34  37
ENDBRANCH  29  31
ENDBRANCH  26  29
ENDBRANCH  25  26
ENDBRANCH  23  25
ENDBRANCH  22  23
ENDBRANCH  15  22
BRANCH   1  39
HETATM   39  C2  UNL     1     127.217  16.961  53.968  1.00  0.00     0.036 C 
HETATM   40  C1  UNL     1     127.125  17.283  55.472  1.00  0.00     0.008 C 
ENDBRANCH   1  39
BRANCH   1  41
HETATM   41  O1  UNL     1     125.409  15.734  54.657  1.00  0.00    -0.387 OA
ATOM     42  H1  UNL     1     124.655  15.895  54.101  1.00  0.00     0.210 HD
ENDBRANCH   1  41
BRANCH   2  43
HETATM   43  O2  UNL     1     128.702  14.716  53.871  1.00  0.00    -0.393 OA
ATOM     44  H2  UNL     1     129.116  13.940  53.512  1.00  0.00     0.210 HD
ENDBRANCH   2  43
TORSDOF 12
ENDMDL
MODEL 2
REMARK VINA RESULT: -8.082792321      1.609      2.003
REMARK  12 active torsions:
REMARK  status: ('A' for Active; 'I' for Inactive)
REMARK    1  A    between atoms: C2_2  and  C3_3 
REMARK    2  A    between atoms: C3_3  and  O1_4 
REMARK    3  A    between atoms: C4_6  and  O2_7 
REMARK    4  A    between atoms: C17_21  and  O3_22 
REMARK    5  A    between atoms: C17_21  and  C18_24 
REMARK    6  A    between atoms: C18_24  and  C19_25 
REMARK    7  A    between atoms: C19_25  and  C21_27 
REMARK    8  A    between atoms: C21_27  and  C22_28 
REMARK    9  A    between atoms: C22_28  and  O4_29 
REMARK   10  A    between atoms: C22_28  and  C23_31 
REMARK   11  A    between atoms: C23_31  and  N1_33 
REMARK   12  A    between atoms: C27_36  and  O5_37 
ROOT
HETATM    1  C3  UNL     1     124.954  15.644  53.529  1.00  0.00     0.088 C 
HETATM    2  C4  UNL     1     125.509  14.482  54.284  1.00  0.00     0.153 C 
HETATM    3  C5  UNL     1     124.868  13.175  53.940  1.00  0.00     0.036 C 
HETATM    4  C6  UNL     1     123.820  13.379  52.907  1.00  0.00     0.016 C 
HETATM    5  C7  UNL     1     124.332  14.060  51.644  1.00  0.00    -0.020 C 
HETATM    6  C8  UNL     1     125.546  13.212  51.292  1.00  0.00     0.020 C 
HETATM    7  C9  UNL     1     123.340  14.002  50.536  1.00  0.00    -0.020 C 
HETATM    8  C10 UNL     1     122.712  15.146  49.935  1.00  0.00    -0.017 C 
HETATM    9  C11 UNL     1     123.181  16.059  48.932  1.00  0.00     0.010 C 
HETATM   10  C12 UNL     1     122.257  17.276  48.988  1.00  0.00     0.023 C 
HETATM   11  C13 UNL     1     124.539  16.692  48.997  1.00  0.00     0.019 C 
HETATM   12  C14 UNL     1     125.328  15.740  48.156  1.00  0.00     0.014 C 
HETATM   13  C15 UNL     1     124.387  15.724  46.925  1.00  0.00     0.017 C 
HETATM   14  C16 UNL     1     124.897  14.663  45.982  1.00  0.00     0.013 C 
HETATM   15  C17 UNL     1     123.068  15.552  47.471  1.00  0.00     0.072 C 
HETATM   16  C30 UNL     1     125.099  17.081  50.276  1.00  0.00     0.088 C 
HETATM   17 CL1  UNL     1     126.349  18.336  50.079  1.00  0.00    -0.125 Cl
HETATM   18  C31 UNL     1     125.695  15.977  51.116  1.00  0.00     0.029 C 
HETATM   19  C32 UNL     1     124.699  15.449  52.084  1.00  0.00     0.036 C 
ENDROOT
BRANCH  15  20
HETATM   20  O3  UNL     1     122.850  14.128  47.579  1.00  0.00    -0.388 OA
ATOM     21  H3  UNL     1     122.846  13.808  46.685  1.00  0.00     0.210 HD
ENDBRANCH  15  20
BRANCH  15  22
HETATM   22  C18 UNL     1     121.850  16.027  46.824  1.00  0.00     0.043 C 
BRANCH  22  23
HETATM   23  C19 UNL     1     120.782  15.121  46.331  1.00  0.00    -0.013 C 
HETATM   24  C20 UNL     1     119.421  15.641  46.986  1.00  0.00     0.010 C 
BRANCH  23  25
HETATM   25  C21 UNL     1     120.477  15.289  44.821  1.00  0.00     0.038 C 
BRANCH  25  26
HETATM   26  C22 UNL     1     120.509  13.918  44.164  1.00  0.00     0.140 C 
BRANCH  26  27
HETATM   27  O4  UNL     1     121.338  14.166  43.009  1.00  0.00    -0.394 OA
ATOM     28  H4  UNL     1     122.055  13.559  43.153  1.00  0.00     0.210 HD
ENDBRANCH  26  27
BRANCH  26  29
HETATM   29  C23 UNL     1     119.161  13.471  43.693  1.00  0.00     0.103 C 
HETATM   30  C24 UNL     1     118.181  14.635  43.619  1.00  0.00     0.034 C 
BRANCH  29  31
HETATM   31  N1  UNL     1     118.637  12.314  44.270  1.00  0.00    -0.406 N 
HETATM   32  C25 UNL     1     118.194  12.253  45.592  1.00  0.00     0.119 C 
HETATM   33  C26 UNL     1     117.019  11.261  45.672  1.00  0.00     0.051 C 
HETATM   34  C27 UNL     1     115.974  11.781  44.711  1.00  0.00     0.121 C 
HETATM   35  C28 UNL     1     116.514  11.525  43.321  1.00  0.00     0.051 C 
HETATM   36  C29 UNL     1     118.022  11.393  43.334  1.00  0.00     0.119 C 
BRANCH  34  37
HETATM   37  O5  UNL     1     114.736  11.172  44.915  1.00  0.00    -0.395 OA
ATOM     38  H5  UNL     1     114.211  11.648  45.547  1.00  0.00     0.210 HD
ENDBRANCH  34  37
ENDBRANCH  29  31
ENDBRANCH  26  29
ENDBRANCH  25  26
ENDBRANCH  23  25
ENDBRANCH  22  23
ENDBRANCH  15  22
BRANCH   1  39
HETATM   39  C2  UNL     1     125.817  16.852  53.834  1.00  0.00     0.036 C 
HETATM   40  C1  UNL     1     124.903  18.083  53.986  1.00  0.00     0.008 C 
ENDBRANCH   1  39
BRANCH   1  41
HETATM   41  O1  UNL     1     123.733  15.972  54.200  1.00  0.00    -0.387 OA
ATOM     42  H1  UNL     1     123.137  16.105  53.472  1.00  0.00     0.210 HD
ENDBRANCH   1  41
BRANCH   2  43
HETATM   43  O2  UNL     1     126.917  14.436  54.293  1.00  0.00    -0.393 OA
ATOM     44  H2  UNL     1     127.297  14.611  55.146  1.00  0.00     0.210 HD
ENDBRANCH   2  43
TORSDOF 12
ENDMDL
MODEL 3
REMARK VINA RESULT: -8.075414322      3.328      9.438
REMARK  12 active torsions:
REMARK  status: ('A' for Active; 'I' for Inactive)
REMARK    1  A    between atoms: C2_2  and  C3_3 
REMARK    2  A    between atoms: C3_3  and  O1_4 
REMARK    3  A    between atoms: C4_6  and  O2_7 
REMARK    4  A    between atoms: C17_21  and  O3_22 
REMARK    5  A    between atoms: C17_21  and  C18_24 
REMARK    6  A    between atoms: C18_24  and  C19_25 
REMARK    7  A    between atoms: C19_25  and  C21_27 
REMARK    8  A    between atoms: C21_27  and  C22_28 
REMARK    9  A    between atoms: C22_28  and  O4_29 
REMARK   10  A    between atoms: C22_28  and  C23_31 
REMARK   11  A    between atoms: C23_31  and  N1_33 
REMARK   12  A    between atoms: C27_36  and  O5_37 
ROOT
HETATM    1  C3  UNL     1     120.501  14.988  47.504  1.00  0.00     0.088 C 
HETATM    2  C4  UNL     1     119.091  15.480  47.479  1.00  0.00     0.153 C 
HETATM    3  C5  UNL     1     118.396  15.391  48.800  1.00  0.00     0.036 C 
HETATM    4  C6  UNL     1     119.314  14.824  49.821  1.00  0.00     0.016 C 
HETATM    5  C7  UNL     1     120.618  15.599  49.966  1.00  0.00    -0.020 C 
HETATM    6  C8  UNL     1     120.125  17.027  50.144  1.00  0.00     0.020 C 
HETATM    7  C9  UNL     1     121.386  15.179  51.170  1.00  0.00    -0.020 C 
HETATM    8  C10 UNL     1     122.685  14.566  51.143  1.00  0.00    -0.017 C 
HETATM    9  C11 UNL     1     123.994  15.138  51.000  1.00  0.00     0.010 C 
HETATM   10  C12 UNL     1     124.935  13.986  50.649  1.00  0.00     0.023 C 
HETATM   11  C13 UNL     1     124.317  16.144  49.936  1.00  0.00     0.019 C 
HETATM   12  C14 UNL     1     124.103  17.419  50.686  1.00  0.00     0.014 C 
HETATM   13  C15 UNL     1     124.980  17.083  51.919  1.00  0.00     0.017 C 
HETATM   14  C16 UNL     1     124.775  18.181  52.931  1.00  0.00     0.013 C 
HETATM   15  C17 UNL     1     124.593  15.750  52.294  1.00  0.00     0.072 C 
HETATM   16  C30 UNL     1     123.715  16.029  48.622  1.00  0.00     0.088 C 
HETATM   17 CL1  UNL     1     124.683  16.882  47.392  1.00  0.00    -0.125 Cl
HETATM   18  C31 UNL     1     122.290  16.509  48.487  1.00  0.00     0.029 C 
HETATM   19  C32 UNL     1     121.333  15.385  48.662  1.00  0.00     0.036 C 
ENDROOT
BRANCH  15  20
HETATM   20  O3  UNL     1     123.478  15.885  53.201  1.00  0.00    -0.388 OA
ATOM     21  H3  UNL     1     123.803  15.587  54.043  1.00  0.00     0.210 HD
ENDBRANCH  15  20
BRANCH  15  22
HETATM   22  C18 UNL     1     125.470  14.809  52.982  1.00  0.00     0.043 C 
BRANCH  22  23
HETATM   23  C19 UNL     1     126.798  15.184  53.531  1.00  0.00    -0.013 C 
HETATM   24  C20 UNL     1     126.949  14.393  54.910  1.00  0.00     0.010 C 
BRANCH  23  25
HETATM   25  C21 UNL     1     127.986  14.609  52.718  1.00  0.00     0.038 C 
BRANCH  25  26
HETATM   26  C22 UNL     1     128.927  15.749  52.362  1.00  0.00     0.140 C 
BRANCH  26  27
HETATM   27  O4  UNL     1     128.749  16.638  53.485  1.00  0.00    -0.394 OA
ATOM     28  H4  UNL     1     128.850  17.489  53.075  1.00  0.00     0.210 HD
ENDBRANCH  26  27
BRANCH  26  29
HETATM   29  C23 UNL     1     128.518  16.470  51.117  1.00  0.00     0.103 C 
HETATM   30  C24 UNL     1     128.912  15.694  49.867  1.00  0.00     0.034 C 
BRANCH  29  31
HETATM   31  N1  UNL     1     128.790  17.837  51.055  1.00  0.00    -0.406 N 
HETATM   32  C25 UNL     1     130.047  18.352  50.735  1.00  0.00     0.119 C 
HETATM   33  C26 UNL     1     129.857  19.679  49.977  1.00  0.00     0.051 C 
HETATM   34  C27 UNL     1     129.018  19.346  48.765  1.00  0.00     0.121 C 
HETATM   35  C28 UNL     1     127.622  19.070  49.281  1.00  0.00     0.051 C 
HETATM   36  C29 UNL     1     127.646  18.671  50.741  1.00  0.00     0.119 C 
BRANCH  34  37
HETATM   37  O5  UNL     1     129.038  20.375  47.825  1.00  0.00    -0.395 OA
ATOM     38  H5  UNL     1     128.373  20.255  47.158  1.00  0.00     0.210 HD
ENDBRANCH  34  37
ENDBRANCH  29  31
ENDBRANCH  26  29
ENDBRANCH  25  26
ENDBRANCH  23  25
ENDBRANCH  22  23
ENDBRANCH  15  22
BRANCH   1  39
HETATM   39  C2  UNL     1     121.131  15.312  46.165  1.00  0.00     0.036 C 
HETATM   40  C1  UNL     1     120.517  14.387  45.096  1.00  0.00     0.008 C 
ENDBRANCH   1  39
BRANCH   1  41
HETATM   41  O1  UNL     1     120.395  13.562  47.447  1.00  0.00    -0.387 OA
ATOM     42  H1  UNL     1     119.487  13.420  47.687  1.00  0.00     0.210 HD
ENDBRANCH   1  41
BRANCH   2  43
HETATM   43  O2  UNL     1     118.942  16.728  46.843  1.00  0.00    -0.393 OA
ATOM     44  H2  UNL     1     119.245  17.460  47.366  1.00  0.00     0.210 HD
ENDBRANCH   2  43
TORSDOF 12
ENDMDL
MODEL 4
REMARK VINA RESULT: -8.060923991      1.221      1.367
REMARK  12 active torsions:
REMARK  status: ('A' for Active; 'I' for Inactive)
REMARK    1  A    between atoms: C2_2  and  C3_3 
REMARK    2  A    between atoms: C3_3  and  O1_4 
REMARK    3  A    between atoms: C4_6  and  O2_7 
REMARK    4  A    between atoms: C17_21  and  O3_22 
REMARK    5  A    between atoms: C17_21  and  C18_24 
REMARK    6  A    between atoms: C18_24  and  C19_25 
REMARK    7  A    between atoms: C19_25  and  C21_27 
REMARK    8  A    between atoms: C21_27  and  C22_28 
REMARK    9  A    between atoms: C22_28  and  O4_29 
REMARK   10  A    between atoms: C22_28  and  C23_31 
REMARK   11  A    between atoms: C23_31  and  N1_33 
REMARK   12  A    between atoms: C27_36  and  O5_37 
ROOT
HETATM    1  C3  UNL     1     125.912  15.803  53.592  1.00  0.00     0.088 C 
HETATM    2  C4  UNL     1     126.693  14.713  54.248  1.00  0.00     0.153 C 
HETATM    3  C5  UNL     1     126.247  13.337  53.869  1.00  0.00     0.036 C 
HETATM    4  C6  UNL     1     125.116  13.416  52.910  1.00  0.00     0.016 C 
HETATM    5  C7  UNL     1     125.430  14.229  51.660  1.00  0.00    -0.020 C 
HETATM    6  C8  UNL     1     126.738  13.606  51.193  1.00  0.00     0.020 C 
HETATM    7  C9  UNL     1     124.390  14.061  50.608  1.00  0.00    -0.020 C 
HETATM    8  C10 UNL     1     123.550  15.114  50.109  1.00  0.00    -0.017 C 
HETATM    9  C11 UNL     1     123.801  16.137  49.134  1.00  0.00     0.010 C 
HETATM   10  C12 UNL     1     122.701  17.184  49.310  1.00  0.00     0.023 C 
HETATM   11  C13 UNL     1     125.042  16.979  49.158  1.00  0.00     0.019 C 
HETATM   12  C14 UNL     1     125.916  16.207  48.221  1.00  0.00     0.014 C 
HETATM   13  C15 UNL     1     124.913  16.096  47.046  1.00  0.00     0.017 C 
HETATM   14  C16 UNL     1     125.523  15.176  46.018  1.00  0.00     0.013 C 
HETATM   15  C17 UNL     1     123.676  15.686  47.656  1.00  0.00     0.072 C 
HETATM   16  C30 UNL     1     125.615  17.394  50.423  1.00  0.00     0.088 C 
HETATM   17 CL1  UNL     1     126.634  18.843  50.226  1.00  0.00    -0.125 Cl
HETATM   18  C31 UNL     1     126.433  16.364  51.164  1.00  0.00     0.029 C 
HETATM   19  C32 UNL     1     125.598  15.637  52.156  1.00  0.00     0.036 C 
ENDROOT
BRANCH  15  20
HETATM   20  O3  UNL     1     123.695  14.243  47.696  1.00  0.00    -0.388 OA
ATOM     21  H3  UNL     1     122.783  13.980  47.648  1.00  0.00     0.210 HD
ENDBRANCH  15  20
BRANCH  15  22
HETATM   22  C18 UNL     1     122.359  15.986  47.106  1.00  0.00     0.043 C 
BRANCH  22  23
HETATM   23  C19 UNL     1     121.500  14.971  46.444  1.00  0.00    -0.013 C 
HETATM   24  C20 UNL     1     120.108  14.988  47.228  1.00  0.00     0.010 C 
BRANCH  23  25
HETATM   25  C21 UNL     1     121.052  15.378  45.018  1.00  0.00     0.038 C 
BRANCH  25  26
HETATM   26  C22 UNL     1     120.513  14.145  44.309  1.00  0.00     0.140 C 
BRANCH  26  27
HETATM   27  O4  UNL     1     121.536  13.905  43.320  1.00  0.00    -0.394 OA
ATOM     28  H4  UNL     1     121.055  13.420  42.660  1.00  0.00     0.210 HD
ENDBRANCH  26  27
BRANCH  26  29
HETATM   29  C23 UNL     1     119.220  14.403  43.602  1.00  0.00     0.103 C 
HETATM   30  C24 UNL     1     118.712  15.815  43.864  1.00  0.00     0.034 C 
BRANCH  29  31
HETATM   31  N1  UNL     1     118.240  13.414  43.688  1.00  0.00    -0.406 N 
HETATM   32  C25 UNL     1     118.445  12.097  43.271  1.00  0.00     0.119 C 
HETATM   33  C26 UNL     1     117.622  11.161  44.177  1.00  0.00     0.051 C 
HETATM   34  C27 UNL     1     118.099  11.426  45.586  1.00  0.00     0.121 C 
HETATM   35  C28 UNL     1     117.562  12.789  45.964  1.00  0.00     0.051 C 
HETATM   36  C29 UNL     1     117.259  13.620  44.736  1.00  0.00     0.119 C 
BRANCH  34  37
HETATM   37  O5  UNL     1     117.681  10.432  46.468  1.00  0.00    -0.395 OA
ATOM     38  H5  UNL     1     117.517  10.778  47.337  1.00  0.00     0.210 HD
ENDBRANCH  34  37
ENDBRANCH  29  31
ENDBRANCH  26  29
ENDBRANCH  25  26
ENDBRANCH  23  25
ENDBRANCH  22  23
ENDBRANCH  15  22
BRANCH   1  39
HETATM   39  C2  UNL     1     126.590  17.120  53.916  1.00  0.00     0.036 C 
HETATM   40  C1  UNL     1     125.513  18.130  54.359  1.00  0.00     0.008 C 
ENDBRANCH   1  39
BRANCH   1  41
HETATM   41  O1  UNL     1     124.701  15.897  54.349  1.00  0.00    -0.387 OA
ATOM     42  H1  UNL     1     124.105  15.363  53.836  1.00  0.00     0.210 HD
ENDBRANCH   1  41
BRANCH   2  43
HETATM   43  O2  UNL     1     128.088  14.897  54.176  1.00  0.00    -0.393 OA
ATOM     44  H2  UNL     1     128.541  14.687  54.983  1.00  0.00     0.210 HD
ENDBRANCH   2  43
TORSDOF 12
ENDMDL
MODEL 5
REMARK VINA RESULT: -7.902293728      2.599      4.148
REMARK  12 active torsions:
REMARK  status: ('A' for Active; 'I' for Inactive)
REMARK    1  A    between atoms: C2_2  and  C3_3 
REMARK    2  A    between atoms: C3_3  and  O1_4 
REMARK    3  A    between atoms: C4_6  and  O2_7 
REMARK    4  A    between atoms: C17_21  and  O3_22 
REMARK    5  A    between atoms: C17_21  and  C18_24 
REMARK    6  A    between atoms: C18_24  and  C19_25 
REMARK    7  A    between atoms: C19_25  and  C21_27 
REMARK    8  A    between atoms: C21_27  and  C22_28 
REMARK    9  A    between atoms: C22_28  and  O4_29 
REMARK   10  A    between atoms: C22_28  and  C23_31 
REMARK   11  A    between atoms: C23_31  and  N1_33 
REMARK   12  A    between atoms: C27_36  and  O5_37 
ROOT
HETATM    1  C3  UNL     1     127.104  18.146  49.917  1.00  0.00     0.088 C 
HETATM    2  C4  UNL     1     128.227  17.844  50.854  1.00  0.00     0.153 C 
HETATM    3  C5  UNL     1     127.793  17.624  52.268  1.00  0.00     0.036 C 
HETATM    4  C6  UNL     1     126.317  17.763  52.374  1.00  0.00     0.016 C 
HETATM    5  C7  UNL     1     125.548  16.839  51.439  1.00  0.00    -0.020 C 
HETATM    6  C8  UNL     1     126.174  15.485  51.739  1.00  0.00     0.020 C 
HETATM    7  C9  UNL     1     124.095  16.802  51.761  1.00  0.00    -0.020 C 
HETATM    8  C10 UNL     1     123.048  17.247  50.883  1.00  0.00    -0.017 C 
HETATM    9  C11 UNL     1     122.411  16.597  49.773  1.00  0.00     0.010 C 
HETATM   10  C12 UNL     1     121.672  17.688  48.998  1.00  0.00     0.023 C 
HETATM   11  C13 UNL     1     123.190  15.914  48.689  1.00  0.00     0.019 C 
HETATM   12  C14 UNL     1     123.197  14.508  49.199  1.00  0.00     0.014 C 
HETATM   13  C15 UNL     1     121.674  14.372  49.451  1.00  0.00     0.017 C 
HETATM   14  C16 UNL     1     121.450  13.057  50.155  1.00  0.00     0.013 C 
HETATM   15  C17 UNL     1     121.308  15.574  50.150  1.00  0.00     0.072 C 
HETATM   16  C30 UNL     1     124.450  16.471  48.239  1.00  0.00     0.088 C 
HETATM   17 CL1  UNL     1     124.855  15.909  46.596  1.00  0.00    -0.125 Cl
HETATM   18  C31 UNL     1     125.654  16.215  49.114  1.00  0.00     0.029 C 
HETATM   19  C32 UNL     1     125.872  17.340  50.060  1.00  0.00     0.036 C 
ENDROOT
BRANCH  15  20
HETATM   20  O3  UNL     1     121.503  15.307  51.556  1.00  0.00    -0.388 OA
ATOM     21  H3  UNL     1     121.471  14.361  51.638  1.00  0.00     0.210 HD
ENDBRANCH  15  20
BRANCH  15  22
HETATM   22  C18 UNL     1     119.978  16.169  50.105  1.00  0.00     0.043 C 
BRANCH  22  23
HETATM   23  C19 UNL     1     118.754  15.469  50.574  1.00  0.00    -0.013 C 
HETATM   24  C20 UNL     1     117.845  16.582  51.272  1.00  0.00     0.010 C 
BRANCH  23  25
HETATM   25  C21 UNL     1     117.831  15.001  49.420  1.00  0.00     0.038 C 
BRANCH  25  26
HETATM   26  C22 UNL     1     118.111  15.859  48.196  1.00  0.00     0.140 C 
BRANCH  26  27
HETATM   27  O4  UNL     1     116.838  16.508  47.996  1.00  0.00    -0.394 OA
ATOM     28  H4  UNL     1     117.069  17.200  47.386  1.00  0.00     0.210 HD
ENDBRANCH  26  27
BRANCH  26  29
HETATM   29  C23 UNL     1     118.427  15.047  46.980  1.00  0.00     0.103 C 
HETATM   30  C24 UNL     1     118.626  13.577  47.326  1.00  0.00     0.034 C 
BRANCH  29  31
HETATM   31  N1  UNL     1     119.377  15.564  46.099  1.00  0.00    -0.406 N 
HETATM   32  C25 UNL     1     120.747  15.337  46.234  1.00  0.00     0.119 C 
HETATM   33  C26 UNL     1     121.377  15.286  44.829  1.00  0.00     0.051 C 
HETATM   34  C27 UNL     1     120.656  14.180  44.093  1.00  0.00     0.121 C 
HETATM   35  C28 UNL     1     119.267  14.706  43.800  1.00  0.00     0.051 C 
HETATM   36  C29 UNL     1     118.887  15.815  44.757  1.00  0.00     0.119 C 
BRANCH  34  37
HETATM   37  O5  UNL     1     121.332  13.805  42.933  1.00  0.00    -0.395 OA
ATOM     38  H5  UNL     1     121.832  13.008  43.061  1.00  0.00     0.210 HD
ENDBRANCH  34  37
ENDBRANCH  29  31
ENDBRANCH  26  29
ENDBRANCH  25  26
ENDBRANCH  23  25
ENDBRANCH  22  23
ENDBRANCH  15  22
BRANCH   1  39
HETATM   39  C2  UNL     1     127.663  18.156  48.508  1.00  0.00     0.036 C 
HETATM   40  C1  UNL     1     128.338  19.518  48.256  1.00  0.00     0.008 C 
ENDBRANCH   1  39
BRANCH   1  41
HETATM   41  O1  UNL     1     126.807  19.530  50.130  1.00  0.00    -0.387 OA
ATOM     42  H1  UNL     1     125.961  19.488  50.560  1.00  0.00     0.210 HD
ENDBRANCH   1  41
BRANCH   2  43
HETATM   43  O2  UNL     1     129.112  16.860  50.373  1.00  0.00    -0.393 OA
ATOM     44  H2  UNL     1     129.975  17.195  50.161  1.00  0.00     0.210 HD
ENDBRANCH   2  43
TORSDOF 12
ENDMDL
