MODEL 1
REMARK VINA RESULT: -8.222018178      0.000      0.000
REMARK  9 active torsions:
REMARK  status: ('A' for Active; 'I' for Inactive)
REMARK    1  A    between atoms: C4_4  and  C5_5 
REMARK    2  A    between atoms: C5_5  and  C6_6 
REMARK    3  A    between atoms: C6_6  and  C8_8 
REMARK    4  A    between atoms: C12_13  and  O2_14 
REMARK    5  A    between atoms: C14_17  and  O3_18 
REMARK    6  A    between atoms: O3_18  and  C15_19 
REMARK    7  A    between atoms: C15_19  and  C16_21 
REMARK    8  A    between atoms: C19_24  and  N1_25 
REMARK    9  A    between atoms: C24_35  and  O7_36 
ROOT
HETATM    1  C8  UNL     1    -102.021 -15.121  50.600  1.00  0.00     0.139 C 
HETATM    2  O1  UNL     1    -101.973 -15.101  49.223  1.00  0.00    -0.378 OA
HETATM    3  C9  UNL     1    -100.606 -15.442  49.410  1.00  0.00     0.142 C 
HETATM    4  C10 UNL     1     -99.819 -15.130  48.233  1.00  0.00     0.060 C 
HETATM    5  C11 UNL     1    -100.545 -14.253  47.198  1.00  0.00     0.042 C 
HETATM    6  C12 UNL     1    -100.081 -14.662  45.786  1.00  0.00     0.121 C 
HETATM    7  C13 UNL     1     -98.590 -14.918  45.930  1.00  0.00     0.067 C 
HETATM    8  C14 UNL     1     -97.987 -14.091  47.056  1.00  0.00     0.174 C 
HETATM    9  C21 UNL     1     -98.421 -14.667  48.416  1.00  0.00     0.136 C 
HETATM   10  F1  UNL     1     -97.600 -15.803  48.567  1.00  0.00    -0.240 F 
HETATM   11  C22 UNL     1     -98.110 -13.779  49.537  1.00  0.00     0.049 C 
HETATM   12  C23 UNL     1     -99.076 -12.734  49.933  1.00  0.00     0.036 C 
HETATM   13  C24 UNL     1    -100.377 -13.163  50.481  1.00  0.00     0.131 C 
HETATM   14  C25 UNL     1    -100.631 -14.594  50.603  1.00  0.00     0.035 C 
HETATM   15  C26 UNL     1     -99.896 -15.166  51.828  1.00  0.00     0.023 C 
ENDROOT
BRANCH   8  16
HETATM   16  O3  UNL     1     -96.573 -14.258  46.951  1.00  0.00    -0.308 OA
BRANCH  16  17
HETATM   17  C15 UNL     1     -95.804 -13.421  46.166  1.00  0.00     0.295 C 
HETATM   18  O4  UNL     1     -95.607 -12.252  46.570  1.00  0.00    -0.259 OA
BRANCH  17  19
HETATM   19  C16 UNL     1     -95.242 -13.893  44.909  1.00  0.00     0.055 A 
HETATM   20  C17 UNL     1     -95.965 -13.882  43.727  1.00  0.00     0.023 A 
HETATM   21  C18 UNL     1     -95.393 -14.341  42.551  1.00  0.00     0.056 A 
HETATM   22  C19 UNL     1     -94.100 -14.820  42.507  1.00  0.00     0.173 A 
HETATM   23  N2  UNL     1     -93.416 -14.822  43.665  1.00  0.00    -0.346 N 
HETATM   24  C20 UNL     1     -93.953 -14.380  44.825  1.00  0.00     0.107 A 
ATOM     25  H2  UNL     1     -92.458 -15.171  43.669  1.00  0.00     0.167 HD
BRANCH  22  26
HETATM   26  N1  UNL     1     -93.508 -15.295  41.290  1.00  0.00    -0.098 N 
HETATM   27  O5  UNL     1     -93.951 -14.971  40.174  1.00  0.00    -0.531 OA
HETATM   28  O6  UNL     1     -92.433 -16.123  41.346  1.00  0.00    -0.531 OA
ENDBRANCH  22  26
ENDBRANCH  17  19
ENDBRANCH  16  17
ENDBRANCH   8  16
BRANCH   6  29
HETATM   29  O2  UNL     1    -100.767 -15.819  45.436  1.00  0.00    -0.395 OA
ATOM     30  H2  UNL     1    -101.408 -15.584  44.775  1.00  0.00     0.210 HD
ENDBRANCH   6  29
BRANCH  13  31
HETATM   31  O7  UNL     1    -101.376 -12.443  49.779  1.00  0.00    -0.395 OA
ATOM     32  H7  UNL     1    -101.750 -11.821  50.392  1.00  0.00     0.210 HD
ENDBRANCH  13  31
BRANCH   1  33
HETATM   33  C6  UNL     1    -103.146 -14.424  51.209  1.00  0.00     0.015 C 
HETATM   34  C7  UNL     1    -103.639 -15.093  52.490  1.00  0.00     0.012 C 
BRANCH  33  35
HETATM   35  C5  UNL     1    -104.328 -14.498  50.225  1.00  0.00     0.034 C 
BRANCH  35  36
HETATM   36  C4  UNL     1    -105.049 -15.769  50.294  1.00  0.00    -0.024 C 
HETATM   37  C2  UNL     1    -105.721 -16.218  49.247  1.00  0.00    -0.091 C 
HETATM   38  C1  UNL     1    -105.766 -15.450  47.972  1.00  0.00     0.042 C 
HETATM   39  C3  UNL     1    -106.463 -17.520  49.307  1.00  0.00     0.042 C 
ENDBRANCH  35  36
ENDBRANCH  33  35
ENDBRANCH   1  33
TORSDOF 9
ENDMDL
MODEL 2
REMARK VINA RESULT: -8.135671777      2.849      5.430
REMARK  9 active torsions:
REMARK  status: ('A' for Active; 'I' for Inactive)
REMARK    1  A    between atoms: C4_4  and  C5_5 
REMARK    2  A    between atoms: C5_5  and  C6_6 
REMARK    3  A    between atoms: C6_6  and  C8_8 
REMARK    4  A    between atoms: C12_13  and  O2_14 
REMARK    5  A    between atoms: C14_17  and  O3_18 
REMARK    6  A    between atoms: O3_18  and  C15_19 
REMARK    7  A    between atoms: C15_19  and  C16_21 
REMARK    8  A    between atoms: C19_24  and  N1_25 
REMARK    9  A    between atoms: C24_35  and  O7_36 
ROOT
HETATM    1  C8  UNL     1    -101.341 -15.191  52.802  1.00  0.00     0.139 C 
HETATM    2  O1  UNL     1    -102.608 -15.402  52.307  1.00  0.00    -0.378 OA
HETATM    3  C9  UNL     1    -101.924 -15.933  51.181  1.00  0.00     0.142 C 
HETATM    4  C10 UNL     1    -102.775 -15.953  50.008  1.00  0.00     0.060 C 
HETATM    5  C11 UNL     1    -104.077 -15.145  50.153  1.00  0.00     0.042 C 
HETATM    6  C12 UNL     1    -105.191 -15.850  49.355  1.00  0.00     0.121 C 
HETATM    7  C13 UNL     1    -104.511 -16.326  48.082  1.00  0.00     0.067 C 
HETATM    8  C14 UNL     1    -103.329 -15.442  47.715  1.00  0.00     0.174 C 
HETATM    9  C21 UNL     1    -102.158 -15.709  48.679  1.00  0.00     0.136 C 
HETATM   10  F1  UNL     1    -101.623 -16.927  48.214  1.00  0.00    -0.240 F 
HETATM   11  C22 UNL     1    -101.089 -14.717  48.567  1.00  0.00     0.049 C 
HETATM   12  C23 UNL     1    -101.156 -13.474  49.363  1.00  0.00     0.036 C 
HETATM   13  C24 UNL     1    -101.061 -13.583  50.831  1.00  0.00     0.131 C 
HETATM   14  C25 UNL     1    -100.901 -14.912  51.410  1.00  0.00     0.035 C 
HETATM   15  C26 UNL     1     -99.448 -15.394  51.252  1.00  0.00     0.023 C 
ENDROOT
BRANCH   8  16
HETATM   16  O3  UNL     1    -102.916 -15.860  46.414  1.00  0.00    -0.308 OA
BRANCH  16  17
HETATM   17  C15 UNL     1    -102.696 -14.948  45.400  1.00  0.00     0.295 C 
HETATM   18  O4  UNL     1    -103.692 -14.413  44.862  1.00  0.00    -0.259 OA
BRANCH  17  19
HETATM   19  C16 UNL     1    -101.341 -14.623  44.977  1.00  0.00     0.055 A 
HETATM   20  C17 UNL     1    -100.232 -14.942  45.744  1.00  0.00     0.023 A 
HETATM   21  C18 UNL     1     -98.958 -14.615  45.305  1.00  0.00     0.056 A 
HETATM   22  C19 UNL     1     -98.744 -13.968  44.106  1.00  0.00     0.173 A 
HETATM   23  N2  UNL     1     -99.834 -13.667  43.378  1.00  0.00    -0.346 N 
HETATM   24  C20 UNL     1    -101.086 -13.976  43.784  1.00  0.00     0.107 A 
ATOM     25  H2  UNL     1     -99.711 -13.188  42.486  1.00  0.00     0.167 HD
BRANCH  22  26
HETATM   26  N1  UNL     1     -97.427 -13.630  43.652  1.00  0.00    -0.098 N 
HETATM   27  O5  UNL     1     -97.196 -13.330  42.467  1.00  0.00    -0.531 OA
HETATM   28  O6  UNL     1     -96.392 -13.633  44.533  1.00  0.00    -0.531 OA
ENDBRANCH  22  26
ENDBRANCH  17  19
ENDBRANCH  16  17
ENDBRANCH   8  16
BRANCH   6  29
HETATM   29  O2  UNL     1    -105.648 -16.915  50.121  1.00  0.00    -0.395 OA
ATOM     30  H2  UNL     1    -106.201 -17.453  49.565  1.00  0.00     0.210 HD
ENDBRANCH   6  29
BRANCH  13  31
HETATM   31  O7  UNL     1    -102.132 -12.828  51.370  1.00  0.00    -0.395 OA
ATOM     32  H7  UNL     1    -101.856 -11.920  51.372  1.00  0.00     0.210 HD
ENDBRANCH  13  31
BRANCH   1  33
HETATM   33  C6  UNL     1    -101.232 -14.225  53.888  1.00  0.00     0.015 C 
HETATM   34  C7  UNL     1     -99.926 -13.435  53.855  1.00  0.00     0.012 C 
BRANCH  33  35
HETATM   35  C5  UNL     1    -101.204 -15.012  55.211  1.00  0.00     0.034 C 
BRANCH  35  36
HETATM   36  C4  UNL     1    -100.071 -15.932  55.303  1.00  0.00    -0.024 C 
HETATM   37  C2  UNL     1    -100.269 -17.240  55.355  1.00  0.00    -0.091 C 
HETATM   38  C1  UNL     1    -101.642 -17.813  55.322  1.00  0.00     0.042 C 
HETATM   39  C3  UNL     1     -99.114 -18.192  55.449  1.00  0.00     0.042 C 
ENDBRANCH  35  36
ENDBRANCH  33  35
ENDBRANCH   1  33
TORSDOF 9
ENDMDL
MODEL 3
REMARK VINA RESULT: -8.092404059      4.453      6.429
REMARK  9 active torsions:
REMARK  status: ('A' for Active; 'I' for Inactive)
REMARK    1  A    between atoms: C4_4  and  C5_5 
REMARK    2  A    between atoms: C5_5  and  C6_6 
REMARK    3  A    between atoms: C6_6  and  C8_8 
REMARK    4  A    between atoms: C12_13  and  O2_14 
REMARK    5  A    between atoms: C14_17  and  O3_18 
REMARK    6  A    between atoms: O3_18  and  C15_19 
REMARK    7  A    between atoms: C15_19  and  C16_21 
REMARK    8  A    between atoms: C19_24  and  N1_25 
REMARK    9  A    between atoms: C24_35  and  O7_36 
ROOT
HETATM    1  C8  UNL     1    -101.402 -14.867  47.879  1.00  0.00     0.139 C 
HETATM    2  O1  UNL     1    -101.165 -14.301  49.112  1.00  0.00    -0.378 OA
HETATM    3  C9  UNL     1    -100.112 -13.626  48.439  1.00  0.00     0.142 C 
HETATM    4  C10 UNL     1     -99.116 -13.138  49.374  1.00  0.00     0.060 C 
HETATM    5  C11 UNL     1     -99.255 -13.700  50.800  1.00  0.00     0.042 C 
HETATM    6  C12 UNL     1     -98.823 -12.615  51.806  1.00  0.00     0.121 C 
HETATM    7  C13 UNL     1     -97.616 -11.952  51.164  1.00  0.00     0.067 C 
HETATM    8  C14 UNL     1     -96.876 -12.910  50.242  1.00  0.00     0.174 C 
HETATM    9  C21 UNL     1     -97.692 -13.131  48.955  1.00  0.00     0.136 C 
HETATM   10  F1  UNL     1     -97.460 -11.953  48.215  1.00  0.00    -0.240 F 
HETATM   11  C22 UNL     1     -97.187 -14.237  48.142  1.00  0.00     0.049 C 
HETATM   12  C23 UNL     1     -97.662 -15.612  48.401  1.00  0.00     0.036 C 
HETATM   13  C24 UNL     1     -99.083 -15.917  48.144  1.00  0.00     0.131 C 
HETATM   14  C25 UNL     1     -99.934 -14.843  47.645  1.00  0.00     0.035 C 
HETATM   15  C26 UNL     1     -99.683 -14.613  46.144  1.00  0.00     0.023 C 
ENDROOT
BRANCH   8  16
HETATM   16  O3  UNL     1     -95.667 -12.246  49.875  1.00  0.00    -0.308 OA
BRANCH  16  17
HETATM   17  C15 UNL     1     -94.462 -12.560  50.472  1.00  0.00     0.295 C 
HETATM   18  O4  UNL     1     -94.184 -13.770  50.636  1.00  0.00    -0.259 OA
BRANCH  17  19
HETATM   19  C16 UNL     1     -93.548 -11.509  50.893  1.00  0.00     0.055 A 
HETATM   20  C17 UNL     1     -92.178 -11.704  50.957  1.00  0.00     0.023 A 
HETATM   21  C18 UNL     1     -91.340 -10.677  51.365  1.00  0.00     0.056 A 
HETATM   22  C19 UNL     1     -91.828  -9.436  51.717  1.00  0.00     0.173 A 
HETATM   23  N2  UNL     1     -93.161  -9.267  51.649  1.00  0.00    -0.346 N 
HETATM   24  C20 UNL     1     -93.997 -10.254  51.255  1.00  0.00     0.107 A 
ATOM     25  H2  UNL     1     -93.555  -8.362  51.904  1.00  0.00     0.167 HD
BRANCH  22  26
HETATM   26  N1  UNL     1     -90.962  -8.373  52.139  1.00  0.00    -0.098 N 
HETATM   27  O5  UNL     1     -90.341  -7.668  51.323  1.00  0.00    -0.531 OA
HETATM   28  O6  UNL     1     -90.808  -8.120  53.464  1.00  0.00    -0.531 OA
ENDBRANCH  22  26
ENDBRANCH  17  19
ENDBRANCH  16  17
ENDBRANCH   8  16
BRANCH   6  29
HETATM   29  O2  UNL     1     -99.882 -11.726  51.946  1.00  0.00    -0.395 OA
ATOM     30  H2  UNL     1     -99.679 -11.151  52.675  1.00  0.00     0.210 HD
ENDBRANCH   6  29
BRANCH  13  31
HETATM   31  O7  UNL     1     -99.577 -16.575  49.297  1.00  0.00    -0.395 OA
ATOM     32  H7  UNL     1    -100.285 -17.139  49.010  1.00  0.00     0.210 HD
ENDBRANCH  13  31
BRANCH   1  33
HETATM   33  C6  UNL     1    -102.195 -16.089  47.879  1.00  0.00     0.015 C 
HETATM   34  C7  UNL     1    -102.864 -16.367  46.535  1.00  0.00     0.012 C 
BRANCH  33  35
HETATM   35  C5  UNL     1    -103.349 -15.896  48.880  1.00  0.00     0.034 C 
BRANCH  35  36
HETATM   36  C4  UNL     1    -104.321 -16.988  48.847  1.00  0.00    -0.024 C 
HETATM   37  C2  UNL     1    -105.599 -16.758  49.106  1.00  0.00    -0.091 C 
HETATM   38  C1  UNL     1    -106.085 -15.390  49.436  1.00  0.00     0.042 C 
HETATM   39  C3  UNL     1    -106.604 -17.870  49.074  1.00  0.00     0.042 C 
ENDBRANCH  35  36
ENDBRANCH  33  35
ENDBRANCH   1  33
TORSDOF 9
ENDMDL
MODEL 4
REMARK VINA RESULT: -8.028675840      2.652      3.080
REMARK  9 active torsions:
REMARK  status: ('A' for Active; 'I' for Inactive)
REMARK    1  A    between atoms: C4_4  and  C5_5 
REMARK    2  A    between atoms: C5_5  and  C6_6 
REMARK    3  A    between atoms: C6_6  and  C8_8 
REMARK    4  A    between atoms: C12_13  and  O2_14 
REMARK    5  A    between atoms: C14_17  and  O3_18 
REMARK    6  A    between atoms: O3_18  and  C15_19 
REMARK    7  A    between atoms: C15_19  and  C16_21 
REMARK    8  A    between atoms: C19_24  and  N1_25 
REMARK    9  A    between atoms: C24_35  and  O7_36 
ROOT
HETATM    1  C8  UNL     1    -102.524 -15.526  48.694  1.00  0.00     0.139 C 
HETATM    2  O1  UNL     1    -102.053 -15.032  47.498  1.00  0.00    -0.378 OA
HETATM    3  C9  UNL     1    -100.853 -15.700  47.861  1.00  0.00     0.142 C 
HETATM    4  C10 UNL     1     -99.714 -15.167  47.138  1.00  0.00     0.060 C 
HETATM    5  C11 UNL     1     -99.993 -13.849  46.396  1.00  0.00     0.042 C 
HETATM    6  C12 UNL     1     -99.160 -13.823  45.099  1.00  0.00     0.121 C 
HETATM    7  C13 UNL     1     -97.820 -14.424  45.488  1.00  0.00     0.067 C 
HETATM    8  C14 UNL     1     -97.512 -14.196  46.960  1.00  0.00     0.174 C 
HETATM    9  C21 UNL     1     -98.400 -15.108  47.827  1.00  0.00     0.136 C 
HETATM   10  F1  UNL     1     -97.786 -16.371  47.707  1.00  0.00    -0.240 F 
HETATM   11  C22 UNL     1     -98.360 -14.761  49.247  1.00  0.00     0.049 C 
HETATM   12  C23 UNL     1     -99.290 -13.743  49.779  1.00  0.00     0.036 C 
HETATM   13  C24 UNL     1    -100.733 -14.050  49.773  1.00  0.00     0.131 C 
HETATM   14  C25 UNL     1    -101.156 -15.343  49.248  1.00  0.00     0.035 C 
HETATM   15  C26 UNL     1    -100.896 -16.453  50.281  1.00  0.00     0.023 C 
ENDROOT
BRANCH   8  16
HETATM   16  O3  UNL     1     -96.159 -14.612  47.147  1.00  0.00    -0.308 OA
BRANCH  16  17
HETATM   17  C15 UNL     1     -95.221 -13.778  47.720  1.00  0.00     0.295 C 
HETATM   18  O4  UNL     1     -94.898 -13.985  48.913  1.00  0.00    -0.259 OA
BRANCH  17  19
HETATM   19  C16 UNL     1     -94.627 -12.691  46.953  1.00  0.00     0.055 A 
HETATM   20  C17 UNL     1     -94.300 -12.826  45.614  1.00  0.00     0.023 A 
HETATM   21  C18 UNL     1     -93.736 -11.768  44.919  1.00  0.00     0.056 A 
HETATM   22  C19 UNL     1     -93.481 -10.554  45.522  1.00  0.00     0.173 A 
HETATM   23  N2  UNL     1     -93.805 -10.444  46.823  1.00  0.00    -0.346 N 
HETATM   24  C20 UNL     1     -94.356 -11.462  47.521  1.00  0.00     0.107 A 
ATOM     25  H2  UNL     1     -93.629  -9.560  47.300  1.00  0.00     0.167 HD
BRANCH  22  26
HETATM   26  N1  UNL     1     -92.897  -9.459  44.804  1.00  0.00    -0.098 N 
HETATM   27  O5  UNL     1     -92.145  -9.637  43.829  1.00  0.00    -0.531 OA
HETATM   28  O6  UNL     1     -93.166  -8.184  45.190  1.00  0.00    -0.531 OA
ENDBRANCH  22  26
ENDBRANCH  17  19
ENDBRANCH  16  17
ENDBRANCH   8  16
BRANCH   6  29
HETATM   29  O2  UNL     1     -99.820 -14.606  44.160  1.00  0.00    -0.395 OA
ATOM     30  H2  UNL     1     -99.161 -15.098  43.682  1.00  0.00     0.210 HD
ENDBRANCH   6  29
BRANCH  13  31
HETATM   31  O7  UNL     1    -101.389 -12.934  49.196  1.00  0.00    -0.395 OA
ATOM     32  H7  UNL     1    -101.282 -12.209  49.801  1.00  0.00     0.210 HD
ENDBRANCH  13  31
BRANCH   1  33
HETATM   33  C6  UNL     1    -103.705 -14.866  49.236  1.00  0.00     0.015 C 
HETATM   34  C7  UNL     1    -103.990 -15.250  50.686  1.00  0.00     0.012 C 
BRANCH  33  35
HETATM   35  C5  UNL     1    -104.923 -15.358  48.433  1.00  0.00     0.034 C 
BRANCH  35  36
HETATM   36  C4  UNL     1    -105.768 -16.283  49.188  1.00  0.00    -0.024 C 
HETATM   37  C2  UNL     1    -105.794 -17.571  48.884  1.00  0.00    -0.091 C 
HETATM   38  C1  UNL     1    -104.970 -18.117  47.772  1.00  0.00     0.042 C 
HETATM   39  C3  UNL     1    -106.657 -18.527  49.652  1.00  0.00     0.042 C 
ENDBRANCH  35  36
ENDBRANCH  33  35
ENDBRANCH   1  33
TORSDOF 9
ENDMDL
MODEL 5
REMARK VINA RESULT: -7.944393312      2.151      2.683
REMARK  9 active torsions:
REMARK  status: ('A' for Active; 'I' for Inactive)
REMARK    1  A    between atoms: C4_4  and  C5_5 
REMARK    2  A    between atoms: C5_5  and  C6_6 
REMARK    3  A    between atoms: C6_6  and  C8_8 
REMARK    4  A    between atoms: C12_13  and  O2_14 
REMARK    5  A    between atoms: C14_17  and  O3_18 
REMARK    6  A    between atoms: O3_18  and  C15_19 
REMARK    7  A    between atoms: C15_19  and  C16_21 
REMARK    8  A    between atoms: C19_24  and  N1_25 
REMARK    9  A    between atoms: C24_35  and  O7_36 
ROOT
HETATM    1  C8  UNL     1    -102.738 -15.536  48.974  1.00  0.00     0.139 C 
HETATM    2  O1  UNL     1    -102.239 -15.107  47.764  1.00  0.00    -0.378 OA
HETATM    3  C9  UNL     1    -101.044 -15.743  48.195  1.00  0.00     0.142 C 
HETATM    4  C10 UNL     1     -99.891 -15.242  47.472  1.00  0.00     0.060 C 
HETATM    5  C11 UNL     1    -100.160 -13.970  46.648  1.00  0.00     0.042 C 
HETATM    6  C12 UNL     1     -99.295 -14.010  45.374  1.00  0.00     0.121 C 
HETATM    7  C13 UNL     1     -97.961 -14.576  45.831  1.00  0.00     0.067 C 
HETATM    8  C14 UNL     1     -97.693 -14.263  47.295  1.00  0.00     0.174 C 
HETATM    9  C21 UNL     1     -98.596 -15.132  48.189  1.00  0.00     0.136 C 
HETATM   10  F1  UNL     1     -97.969 -16.394  48.158  1.00  0.00    -0.240 F 
HETATM   11  C22 UNL     1     -98.596 -14.704  49.588  1.00  0.00     0.049 C 
HETATM   12  C23 UNL     1     -99.547 -13.666  50.037  1.00  0.00     0.036 C 
HETATM   13  C24 UNL     1    -100.987 -13.986  50.012  1.00  0.00     0.131 C 
HETATM   14  C25 UNL     1    -101.386 -15.310  49.551  1.00  0.00     0.035 C 
HETATM   15  C26 UNL     1    -101.145 -16.357  50.652  1.00  0.00     0.023 C 
ENDROOT
BRANCH   8  16
HETATM   16  O3  UNL     1     -96.342 -14.655  47.539  1.00  0.00    -0.308 OA
BRANCH  16  17
HETATM   17  C15 UNL     1     -95.395 -13.748  47.972  1.00  0.00     0.295 C 
HETATM   18  O4  UNL     1     -95.163 -13.680  49.201  1.00  0.00    -0.259 OA
BRANCH  17  19
HETATM   19  C16 UNL     1     -94.690 -12.901  47.020  1.00  0.00     0.055 A 
HETATM   20  C17 UNL     1     -94.311 -11.605  47.326  1.00  0.00     0.023 A 
HETATM   21  C18 UNL     1     -93.642 -10.830  46.391  1.00  0.00     0.056 A 
HETATM   22  C19 UNL     1     -93.329 -11.310  45.136  1.00  0.00     0.173 A 
HETATM   23  N2  UNL     1     -93.707 -12.571  44.860  1.00  0.00    -0.346 N 
HETATM   24  C20 UNL     1     -94.361 -13.346  45.755  1.00  0.00     0.107 A 
ATOM     25  H2  UNL     1     -93.493 -12.957  43.940  1.00  0.00     0.167 HD
BRANCH  22  26
HETATM   26  N1  UNL     1     -92.637 -10.510  44.169  1.00  0.00    -0.098 N 
HETATM   27  O5  UNL     1     -93.033 -10.409  42.994  1.00  0.00    -0.531 OA
HETATM   28  O6  UNL     1     -91.515  -9.837  44.535  1.00  0.00    -0.531 OA
ENDBRANCH  22  26
ENDBRANCH  17  19
ENDBRANCH  16  17
ENDBRANCH   8  16
BRANCH   6  29
HETATM   29  O2  UNL     1     -99.924 -14.852  44.465  1.00  0.00    -0.395 OA
ATOM     30  H2  UNL     1     -99.419 -14.835  43.660  1.00  0.00     0.210 HD
ENDBRANCH   6  29
BRANCH  13  31
HETATM   31  O7  UNL     1    -101.635 -12.910  49.356  1.00  0.00    -0.395 OA
ATOM     32  H7  UNL     1    -101.279 -12.109  49.722  1.00  0.00     0.210 HD
ENDBRANCH  13  31
BRANCH   1  33
HETATM   33  C6  UNL     1    -103.937 -14.858  49.447  1.00  0.00     0.015 C 
HETATM   34  C7  UNL     1    -104.274 -15.185  50.900  1.00  0.00     0.012 C 
BRANCH  33  35
HETATM   35  C5  UNL     1    -105.126 -15.383  48.621  1.00  0.00     0.034 C 
BRANCH  35  36
HETATM   36  C4  UNL     1    -105.908 -16.396  49.328  1.00  0.00    -0.024 C 
HETATM   37  C2  UNL     1    -105.864 -17.664  48.950  1.00  0.00    -0.091 C 
HETATM   38  C1  UNL     1    -105.022 -18.097  47.801  1.00  0.00     0.042 C 
HETATM   39  C3  UNL     1    -106.662 -18.711  49.668  1.00  0.00     0.042 C 
ENDBRANCH  35  36
ENDBRANCH  33  35
ENDBRANCH   1  33
TORSDOF 9
ENDMDL
