MODEL 1
REMARK VINA RESULT: -7.648309968      0.000      0.000
REMARK  8 active torsions:
REMARK  status: ('A' for Active; 'I' for Inactive)
REMARK    1  A    between atoms: O1_2  and  C2_3 
REMARK    2  A    between atoms: C4_5  and  C5_6 
REMARK    3  A    between atoms: C9_15  and  N3_16 
REMARK    4  A    between atoms: C11_20  and  C12_21 
REMARK    5  A    between atoms: C14_24  and  O2_25 
REMARK    6  A    between atoms: O2_25  and  C15_26 
REMARK    7  A    between atoms: C15_26  and  C16_27 
REMARK    8  A    between atoms: N4_29  and  C18_30 
ROOT
HETATM    1  C2  UNL     1    -100.969 -15.007  45.719  1.00  0.00     0.102 A 
HETATM    2  C3  UNL     1    -102.235 -15.096  46.242  1.00  0.00     0.052 A 
HETATM    3  C4  UNL     1    -102.474 -15.047  47.587  1.00  0.00    -0.015 A 
HETATM    4  C11 UNL     1    -101.458 -14.906  48.475  1.00  0.00    -0.034 A 
HETATM    5  C13 UNL     1    -100.168 -14.816  47.925  1.00  0.00     0.048 A 
HETATM    6  C14 UNL     1     -99.897 -14.862  46.584  1.00  0.00     0.103 A 
ENDROOT
BRANCH   3   7
HETATM    7  C5  UNL     1    -103.886 -15.086  48.082  1.00  0.00    -0.002 A 
HETATM    8  C6  UNL     1    -104.584 -13.940  48.326  1.00  0.00     0.065 A 
HETATM    9  S1  UNL     1    -106.133 -14.496  48.739  1.00  0.00    -0.082 SA
HETATM   10  C7  UNL     1    -105.873 -16.179  48.597  1.00  0.00     0.089 A 
HETATM   11  N1  UNL     1    -106.660 -17.287  48.786  1.00  0.00    -0.346 N 
HETATM   12  C10 UNL     1    -104.548 -16.274  48.221  1.00  0.00     0.053 A 
HETATM   13  C8  UNL     1    -106.184 -18.520  48.615  1.00  0.00     0.182 A 
ATOM     14  H1  UNL     1    -107.634 -17.164  49.064  1.00  0.00     0.167 HD
HETATM   15  N2  UNL     1    -104.912 -18.639  48.254  1.00  0.00    -0.338 N 
HETATM   16  C9  UNL     1    -104.089 -17.607  48.052  1.00  0.00     0.113 A 
ATOM     17  H2  UNL     1    -104.539 -19.579  48.121  1.00  0.00     0.168 HD
BRANCH  16  18
HETATM   18  N3  UNL     1    -102.869 -17.813  47.719  1.00  0.00    -0.385 N 
ATOM     19  H32 UNL     1    -102.664 -18.402  46.912  1.00  0.00     0.157 HD
ATOM     20  H31 UNL     1    -102.114 -17.380  48.251  1.00  0.00     0.157 HD
ENDBRANCH  16  18
ENDBRANCH   3   7
BRANCH   4  21
HETATM   21  C12 UNL     1    -101.592 -14.855  49.952  1.00  0.00     0.124 C 
HETATM   22 BR1  UNL     1    -101.007 -16.401  50.915  1.00  0.00    -0.091 Br
ENDBRANCH   4  21
BRANCH   1  23
HETATM   23  O1  UNL     1    -100.797 -15.063  44.364  1.00  0.00    -0.353 OA
HETATM   24  C1  UNL     1    -100.958 -14.025  43.454  1.00  0.00     0.210 C 
ENDBRANCH   1  23
BRANCH   6  25
HETATM   25  O2  UNL     1     -98.659 -14.781  46.025  1.00  0.00    -0.342 OA
BRANCH  25  26
HETATM   26  C15 UNL     1     -97.841 -13.746  45.675  1.00  0.00     0.236 C 
BRANCH  26  27
HETATM   27  C16 UNL     1     -96.960 -13.906  44.512  1.00  0.00     0.068 A 
HETATM   28  C17 UNL     1     -95.618 -14.192  44.409  1.00  0.00     0.141 A 
HETATM   29  N4  UNL     1     -95.268 -14.204  43.106  1.00  0.00    -0.278 N 
HETATM   30  N5  UNL     1     -96.360 -13.934  42.410  1.00  0.00    -0.240 N 
HETATM   31  N6  UNL     1     -97.362 -13.756  43.221  1.00  0.00    -0.287 N 
ATOM     32  H5  UNL     1     -96.409 -13.875  41.392  1.00  0.00     0.208 HD
ATOM     33  H6  UNL     1     -98.315 -13.535  42.930  1.00  0.00     0.188 HD
BRANCH  29  34
HETATM   34  C18 UNL     1     -93.983 -14.444  42.502  1.00  0.00     0.043 C 
HETATM   35  C19 UNL     1     -93.342 -13.087  42.219  1.00  0.00     0.039 C 
HETATM   36  C20 UNL     1     -93.105 -15.149  43.515  1.00  0.00     0.039 C 
HETATM   37  C21 UNL     1     -94.099 -15.253  41.225  1.00  0.00     0.039 C 
ENDBRANCH  29  34
ENDBRANCH  26  27
ENDBRANCH  25  26
ENDBRANCH   6  25
TORSDOF 8
ENDMDL
MODEL 2
REMARK VINA RESULT: -7.562308635      1.130      1.401
REMARK  8 active torsions:
REMARK  status: ('A' for Active; 'I' for Inactive)
REMARK    1  A    between atoms: O1_2  and  C2_3 
REMARK    2  A    between atoms: C4_5  and  C5_6 
REMARK    3  A    between atoms: C9_15  and  N3_16 
REMARK    4  A    between atoms: C11_20  and  C12_21 
REMARK    5  A    between atoms: C14_24  and  O2_25 
REMARK    6  A    between atoms: O2_25  and  C15_26 
REMARK    7  A    between atoms: C15_26  and  C16_27 
REMARK    8  A    between atoms: N4_29  and  C18_30 
ROOT
HETATM    1  C2  UNL     1    -100.913 -15.184  45.920  1.00  0.00     0.102 A 
HETATM    2  C3  UNL     1    -102.194 -15.187  46.413  1.00  0.00     0.052 A 
HETATM    3  C4  UNL     1    -102.460 -15.220  47.754  1.00  0.00    -0.015 A 
HETATM    4  C11 UNL     1    -101.457 -15.251  48.667  1.00  0.00    -0.034 A 
HETATM    5  C13 UNL     1    -100.151 -15.247  48.147  1.00  0.00     0.048 A 
HETATM    6  C14 UNL     1     -99.853 -15.215  46.811  1.00  0.00     0.103 A 
ENDROOT
BRANCH   3   7
HETATM    7  C5  UNL     1    -103.880 -15.158  48.220  1.00  0.00    -0.002 A 
HETATM    8  C6  UNL     1    -104.493 -13.966  48.472  1.00  0.00     0.065 A 
HETATM    9  S1  UNL     1    -106.088 -14.406  48.845  1.00  0.00    -0.082 SA
HETATM   10  C7  UNL     1    -105.956 -16.102  48.676  1.00  0.00     0.089 A 
HETATM   11  N1  UNL     1    -106.831 -17.148  48.829  1.00  0.00    -0.346 N 
HETATM   12  C10 UNL     1    -104.636 -16.293  48.324  1.00  0.00     0.053 A 
HETATM   13  C8  UNL     1    -106.448 -18.411  48.645  1.00  0.00     0.182 A 
ATOM     14  H1  UNL     1    -107.798 -16.954  49.090  1.00  0.00     0.167 HD
HETATM   15  N2  UNL     1    -105.182 -18.623  48.306  1.00  0.00    -0.338 N 
HETATM   16  C9  UNL     1    -104.278 -17.654  48.140  1.00  0.00     0.113 A 
ATOM     17  H2  UNL     1    -104.881 -19.587  48.164  1.00  0.00     0.168 HD
BRANCH  16  18
HETATM   18  N3  UNL     1    -103.071 -17.949  47.827  1.00  0.00    -0.385 N 
ATOM     19  H32 UNL     1    -102.830 -18.919  47.623  1.00  0.00     0.157 HD
ATOM     20  H31 UNL     1    -102.364 -17.217  47.771  1.00  0.00     0.157 HD
ENDBRANCH  16  18
ENDBRANCH   3   7
BRANCH   4  21
HETATM   21  C12 UNL     1    -101.621 -15.304  50.141  1.00  0.00     0.124 C 
HETATM   22 BR1  UNL     1    -101.686 -13.622  51.052  1.00  0.00    -0.091 Br
ENDBRANCH   4  21
BRANCH   1  23
HETATM   23  O1  UNL     1    -100.714 -15.150  44.569  1.00  0.00    -0.353 OA
HETATM   24  C1  UNL     1    -100.779 -14.037  43.738  1.00  0.00     0.210 C 
ENDBRANCH   1  23
BRANCH   6  25
HETATM   25  O2  UNL     1     -98.600 -15.213  46.282  1.00  0.00    -0.342 OA
BRANCH  25  26
HETATM   26  C15 UNL     1     -97.376 -14.823  46.741  1.00  0.00     0.236 C 
BRANCH  26  27
HETATM   27  C16 UNL     1     -96.352 -14.424  45.768  1.00  0.00     0.068 A 
HETATM   28  C17 UNL     1     -96.439 -14.023  44.455  1.00  0.00     0.141 A 
HETATM   29  N4  UNL     1     -95.199 -13.789  43.981  1.00  0.00    -0.278 N 
HETATM   30  N5  UNL     1     -94.354 -14.034  44.969  1.00  0.00    -0.240 N 
HETATM   31  N6  UNL     1     -95.016 -14.409  46.026  1.00  0.00    -0.287 N 
ATOM     32  H5  UNL     1     -93.339 -13.944  44.911  1.00  0.00     0.208 HD
ATOM     33  H6  UNL     1     -94.593 -14.656  46.920  1.00  0.00     0.188 HD
BRANCH  29  34
HETATM   34  C18 UNL     1     -94.780 -13.363  42.670  1.00  0.00     0.043 C 
HETATM   35  C19 UNL     1     -96.018 -12.870  41.924  1.00  0.00     0.039 C 
HETATM   36  C20 UNL     1     -93.854 -12.174  42.829  1.00  0.00     0.039 C 
HETATM   37  C21 UNL     1     -94.105 -14.480  41.900  1.00  0.00     0.039 C 
ENDBRANCH  29  34
ENDBRANCH  26  27
ENDBRANCH  25  26
ENDBRANCH   6  25
TORSDOF 8
ENDMDL
MODEL 3
REMARK VINA RESULT: -7.467688074      4.456      6.036
REMARK  8 active torsions:
REMARK  status: ('A' for Active; 'I' for Inactive)
REMARK    1  A    between atoms: O1_2  and  C2_3 
REMARK    2  A    between atoms: C4_5  and  C5_6 
REMARK    3  A    between atoms: C9_15  and  N3_16 
REMARK    4  A    between atoms: C11_20  and  C12_21 
REMARK    5  A    between atoms: C14_24  and  O2_25 
REMARK    6  A    between atoms: O2_25  and  C15_26 
REMARK    7  A    between atoms: C15_26  and  C16_27 
REMARK    8  A    between atoms: N4_29  and  C18_30 
ROOT
HETATM    1  C2  UNL     1     -99.462 -15.468  48.830  1.00  0.00     0.102 A 
HETATM    2  C3  UNL     1    -100.725 -16.006  48.804  1.00  0.00     0.052 A 
HETATM    3  C4  UNL     1    -101.558 -15.861  47.730  1.00  0.00    -0.015 A 
HETATM    4  C11 UNL     1    -101.169 -15.171  46.628  1.00  0.00    -0.034 A 
HETATM    5  C13 UNL     1     -99.873 -14.627  46.669  1.00  0.00     0.048 A 
HETATM    6  C14 UNL     1     -99.017 -14.755  47.730  1.00  0.00     0.103 A 
ENDROOT
BRANCH   3   7
HETATM    7  C5  UNL     1    -102.897 -16.528  47.747  1.00  0.00    -0.002 A 
HETATM    8  C6  UNL     1    -103.087 -17.753  47.177  1.00  0.00     0.065 A 
HETATM    9  S1  UNL     1    -104.699 -18.125  47.556  1.00  0.00    -0.082 SA
HETATM   10  C7  UNL     1    -105.111 -16.718  48.434  1.00  0.00     0.089 A 
HETATM   11  N1  UNL     1    -106.254 -16.279  49.054  1.00  0.00    -0.346 N 
HETATM   12  C10 UNL     1    -103.953 -15.968  48.412  1.00  0.00     0.053 A 
HETATM   13  C8  UNL     1    -106.306 -15.099  49.670  1.00  0.00     0.182 A 
ATOM     14  H1  UNL     1    -107.085 -16.871  49.043  1.00  0.00     0.167 HD
HETATM   15  N2  UNL     1    -105.204 -14.357  49.663  1.00  0.00    -0.338 N 
HETATM   16  C9  UNL     1    -104.059 -14.720  49.080  1.00  0.00     0.113 A 
ATOM     17  H2  UNL     1    -105.236 -13.452  50.132  1.00  0.00     0.168 HD
BRANCH  16  18
HETATM   18  N3  UNL     1    -103.047 -13.935  49.108  1.00  0.00    -0.385 N 
ATOM     19  H32 UNL     1    -103.187 -12.934  48.967  1.00  0.00     0.157 HD
ATOM     20  H31 UNL     1    -102.114 -14.309  49.281  1.00  0.00     0.157 HD
ENDBRANCH  16  18
ENDBRANCH   3   7
BRANCH   4  21
HETATM   21  C12 UNL     1    -101.987 -14.935  45.413  1.00  0.00     0.124 C 
HETATM   22 BR1  UNL     1    -101.070 -14.215  43.895  1.00  0.00    -0.091 Br
ENDBRANCH   4  21
BRANCH   1  23
HETATM   23  O1  UNL     1     -98.679 -15.649  49.935  1.00  0.00    -0.353 OA
HETATM   24  C1  UNL     1     -99.098 -15.724  51.258  1.00  0.00     0.210 C 
ENDBRANCH   1  23
BRANCH   6  25
HETATM   25  O2  UNL     1     -97.761 -14.236  47.797  1.00  0.00    -0.342 OA
BRANCH  25  26
HETATM   26  C15 UNL     1     -97.258 -12.999  48.074  1.00  0.00     0.236 C 
BRANCH  26  27
HETATM   27  C16 UNL     1     -97.207 -12.554  49.472  1.00  0.00     0.068 A 
HETATM   28  C17 UNL     1     -96.152 -12.306  50.319  1.00  0.00     0.141 A 
HETATM   29  N4  UNL     1     -96.631 -11.941  51.526  1.00  0.00    -0.278 N 
HETATM   30  N5  UNL     1     -97.950 -11.958  51.440  1.00  0.00    -0.240 N 
HETATM   31  N6  UNL     1     -98.305 -12.317  50.239  1.00  0.00    -0.287 N 
ATOM     32  H5  UNL     1     -98.593 -11.726  52.198  1.00  0.00     0.208 HD
ATOM     33  H6  UNL     1     -99.269 -12.407  49.920  1.00  0.00     0.188 HD
BRANCH  29  34
HETATM   34  C18 UNL     1     -95.921 -11.594  52.730  1.00  0.00     0.043 C 
HETATM   35  C19 UNL     1     -94.911 -12.704  53.011  1.00  0.00     0.039 C 
HETATM   36  C20 UNL     1     -95.130 -10.328  52.468  1.00  0.00     0.039 C 
HETATM   37  C21 UNL     1     -96.857 -11.417  53.909  1.00  0.00     0.039 C 
ENDBRANCH  29  34
ENDBRANCH  26  27
ENDBRANCH  25  26
ENDBRANCH   6  25
TORSDOF 8
ENDMDL
MODEL 4
REMARK VINA RESULT: -7.461382763      2.433      2.874
REMARK  8 active torsions:
REMARK  status: ('A' for Active; 'I' for Inactive)
REMARK    1  A    between atoms: O1_2  and  C2_3 
REMARK    2  A    between atoms: C4_5  and  C5_6 
REMARK    3  A    between atoms: C9_15  and  N3_16 
REMARK    4  A    between atoms: C11_20  and  C12_21 
REMARK    5  A    between atoms: C14_24  and  O2_25 
REMARK    6  A    between atoms: O2_25  and  C15_26 
REMARK    7  A    between atoms: C15_26  and  C16_27 
REMARK    8  A    between atoms: N4_29  and  C18_30 
ROOT
HETATM    1  C2  UNL     1    -101.004 -15.185  45.779  1.00  0.00     0.102 A 
HETATM    2  C3  UNL     1    -102.273 -15.197  46.303  1.00  0.00     0.052 A 
HETATM    3  C4  UNL     1    -102.505 -15.201  47.651  1.00  0.00    -0.015 A 
HETATM    4  C11 UNL     1    -101.481 -15.193  48.540  1.00  0.00    -0.034 A 
HETATM    5  C13 UNL     1    -100.188 -15.181  47.988  1.00  0.00     0.048 A 
HETATM    6  C14 UNL     1     -99.923 -15.176  46.645  1.00  0.00     0.103 A 
ENDROOT
BRANCH   3   7
HETATM    7  C5  UNL     1    -103.915 -15.150  48.150  1.00  0.00    -0.002 A 
HETATM    8  C6  UNL     1    -104.539 -13.962  48.394  1.00  0.00     0.065 A 
HETATM    9  S1  UNL     1    -106.118 -14.418  48.814  1.00  0.00    -0.082 SA
HETATM   10  C7  UNL     1    -105.965 -16.115  48.674  1.00  0.00     0.089 A 
HETATM   11  N1  UNL     1    -106.820 -17.171  48.868  1.00  0.00    -0.346 N 
HETATM   12  C10 UNL     1    -104.651 -16.293  48.294  1.00  0.00     0.053 A 
HETATM   13  C8  UNL     1    -106.424 -18.431  48.699  1.00  0.00     0.182 A 
ATOM     14  H1  UNL     1    -107.784 -16.986  49.149  1.00  0.00     0.167 HD
HETATM   15  N2  UNL     1    -105.163 -18.631  48.333  1.00  0.00    -0.338 N 
HETATM   16  C9  UNL     1    -104.277 -17.653  48.127  1.00  0.00     0.113 A 
ATOM     17  H2  UNL     1    -104.851 -19.593  48.202  1.00  0.00     0.168 HD
BRANCH  16  18
HETATM   18  N3  UNL     1    -103.074 -17.936  47.790  1.00  0.00    -0.385 N 
ATOM     19  H32 UNL     1    -102.472 -18.427  48.452  1.00  0.00     0.157 HD
ATOM     20  H31 UNL     1    -102.729 -17.684  46.864  1.00  0.00     0.157 HD
ENDBRANCH  16  18
ENDBRANCH   3   7
BRANCH   4  21
HETATM   21  C12 UNL     1    -101.608 -15.211  50.018  1.00  0.00     0.124 C 
HETATM   22 BR1  UNL     1    -101.708 -13.509  50.886  1.00  0.00    -0.091 Br
ENDBRANCH   4  21
BRANCH   1  23
HETATM   23  O1  UNL     1    -100.839 -15.182  44.423  1.00  0.00    -0.353 OA
HETATM   24  C1  UNL     1    -100.950 -14.092  43.566  1.00  0.00     0.210 C 
ENDBRANCH   1  23
BRANCH   6  25
HETATM   25  O2  UNL     1     -98.683 -15.167  46.085  1.00  0.00    -0.342 OA
BRANCH  25  26
HETATM   26  C15 UNL     1     -97.841 -14.183  45.658  1.00  0.00     0.236 C 
BRANCH  26  27
HETATM   27  C16 UNL     1     -96.648 -13.878  46.458  1.00  0.00     0.068 A 
HETATM   28  C17 UNL     1     -95.780 -12.810  46.442  1.00  0.00     0.141 A 
HETATM   29  N4  UNL     1     -94.816 -13.012  47.363  1.00  0.00    -0.278 N 
HETATM   30  N5  UNL     1     -95.071 -14.173  47.942  1.00  0.00    -0.240 N 
HETATM   31  N6  UNL     1     -96.144 -14.694  47.421  1.00  0.00    -0.287 N 
ATOM     32  H5  UNL     1     -94.511 -14.596  48.684  1.00  0.00     0.208 HD
ATOM     33  H6  UNL     1     -96.549 -15.589  47.697  1.00  0.00     0.188 HD
BRANCH  29  34
HETATM   34  C18 UNL     1     -93.688 -12.185  47.709  1.00  0.00     0.043 C 
HETATM   35  C19 UNL     1     -92.420 -12.982  47.410  1.00  0.00     0.039 C 
HETATM   36  C20 UNL     1     -93.683 -10.979  46.792  1.00  0.00     0.039 C 
HETATM   37  C21 UNL     1     -93.720 -11.763  49.164  1.00  0.00     0.039 C 
ENDBRANCH  29  34
ENDBRANCH  26  27
ENDBRANCH  25  26
ENDBRANCH   6  25
TORSDOF 8
ENDMDL
MODEL 5
REMARK VINA RESULT: -7.445447257      2.556      3.595
REMARK  8 active torsions:
REMARK  status: ('A' for Active; 'I' for Inactive)
REMARK    1  A    between atoms: O1_2  and  C2_3 
REMARK    2  A    between atoms: C4_5  and  C5_6 
REMARK    3  A    between atoms: C9_15  and  N3_16 
REMARK    4  A    between atoms: C11_20  and  C12_21 
REMARK    5  A    between atoms: C14_24  and  O2_25 
REMARK    6  A    between atoms: O2_25  and  C15_26 
REMARK    7  A    between atoms: C15_26  and  C16_27 
REMARK    8  A    between atoms: N4_29  and  C18_30 
ROOT
HETATM    1  C2  UNL     1     -99.588 -15.478  49.329  1.00  0.00     0.102 A 
HETATM    2  C3  UNL     1    -100.832 -16.035  49.165  1.00  0.00     0.052 A 
HETATM    3  C4  UNL     1    -101.535 -15.918  47.998  1.00  0.00    -0.015 A 
HETATM    4  C11 UNL     1    -101.028 -15.240  46.938  1.00  0.00    -0.034 A 
HETATM    5  C13 UNL     1     -99.753 -14.676  47.122  1.00  0.00     0.048 A 
HETATM    6  C14 UNL     1     -99.025 -14.775  48.277  1.00  0.00     0.103 A 
ENDROOT
BRANCH   3   7
HETATM    7  C5  UNL     1    -102.858 -16.605  47.869  1.00  0.00    -0.002 A 
HETATM    8  C6  UNL     1    -102.970 -17.824  47.268  1.00  0.00     0.065 A 
HETATM    9  S1  UNL     1    -104.605 -18.224  47.475  1.00  0.00    -0.082 SA
HETATM   10  C7  UNL     1    -105.128 -16.835  48.323  1.00  0.00     0.089 A 
HETATM   11  N1  UNL     1    -106.335 -16.421  48.828  1.00  0.00    -0.346 N 
HETATM   12  C10 UNL     1    -103.985 -16.069  48.429  1.00  0.00     0.053 A 
HETATM   13  C8  UNL     1    -106.468 -15.250  49.449  1.00  0.00     0.182 A 
ATOM     14  H1  UNL     1    -107.151 -17.025  48.724  1.00  0.00     0.167 HD
HETATM   15  N2  UNL     1    -105.383 -14.493  49.564  1.00  0.00    -0.338 N 
HETATM   16  C9  UNL     1    -104.178 -14.832  49.098  1.00  0.00     0.113 A 
ATOM     17  H2  UNL     1    -105.477 -13.594  50.038  1.00  0.00     0.168 HD
BRANCH  16  18
HETATM   18  N3  UNL     1    -103.187 -14.032  49.238  1.00  0.00    -0.385 N 
ATOM     19  H32 UNL     1    -102.765 -13.916  50.160  1.00  0.00     0.157 HD
ATOM     20  H31 UNL     1    -102.819 -13.528  48.432  1.00  0.00     0.157 HD
ENDBRANCH  16  18
ENDBRANCH   3   7
BRANCH   4  21
HETATM   21  C12 UNL     1    -101.701 -15.034  45.632  1.00  0.00     0.124 C 
HETATM   22 BR1  UNL     1    -100.658 -14.207  44.257  1.00  0.00    -0.091 Br
ENDBRANCH   4  21
BRANCH   1  23
HETATM   23  O1  UNL     1     -98.937 -15.631  50.521  1.00  0.00    -0.353 OA
HETATM   24  C1  UNL     1     -98.221 -16.743  50.950  1.00  0.00     0.210 C 
ENDBRANCH   1  23
BRANCH   6  25
HETATM   25  O2  UNL     1     -97.793 -14.237  48.481  1.00  0.00    -0.342 OA
BRANCH  25  26
HETATM   26  C15 UNL     1     -97.093 -13.219  47.903  1.00  0.00     0.236 C 
BRANCH  26  27
HETATM   27  C16 UNL     1     -96.169 -13.532  46.806  1.00  0.00     0.068 A 
HETATM   28  C17 UNL     1     -96.271 -13.368  45.444  1.00  0.00     0.141 A 
HETATM   29  N4  UNL     1     -95.154 -13.842  44.856  1.00  0.00    -0.278 N 
HETATM   30  N5  UNL     1     -94.370 -14.292  45.822  1.00  0.00    -0.240 N 
HETATM   31  N6  UNL     1     -94.952 -14.118  46.973  1.00  0.00    -0.287 N 
ATOM     32  H5  UNL     1     -93.450 -14.712  45.686  1.00  0.00     0.208 HD
ATOM     33  H6  UNL     1     -94.553 -14.382  47.874  1.00  0.00     0.188 HD
BRANCH  29  34
HETATM   34  C18 UNL     1     -94.801 -13.898  43.461  1.00  0.00     0.043 C 
HETATM   35  C19 UNL     1     -93.631 -14.867  43.316  1.00  0.00     0.039 C 
HETATM   36  C20 UNL     1     -95.968 -14.492  42.699  1.00  0.00     0.039 C 
HETATM   37  C21 UNL     1     -94.432 -12.534  42.914  1.00  0.00     0.039 C 
ENDBRANCH  29  34
ENDBRANCH  26  27
ENDBRANCH  25  26
ENDBRANCH   6  25
TORSDOF 8
ENDMDL
