MODEL 1
REMARK VINA RESULT: -8.044038483      0.000      0.000
REMARK  11 active torsions:
REMARK  status: ('A' for Active; 'I' for Inactive)
REMARK    1  A    between atoms: O1_2  and  C2_3 
REMARK    2  A    between atoms: C2_3  and  C3_5 
REMARK    3  A    between atoms: C10_13  and  O3_14 
REMARK    4  A    between atoms: O3_14  and  C11_15 
REMARK    5  A    between atoms: C11_15  and  O4_16 
REMARK    6  A    between atoms: C11_15  and  O5_18 
REMARK    7  A    between atoms: O5_18  and  C12_19 
REMARK    8  A    between atoms: C16_23  and  C17_24 
REMARK       I    between atoms: C17_24  and  N1_26 
REMARK    9  A    between atoms: N1_26  and  C18_28 
REMARK   10  A    between atoms: C18_28  and  C19_29 
REMARK   11  A    between atoms: C19_29  and  C20_30 
ROOT
HETATM    1  C3  UNL     1     -99.986 -15.197  51.726  1.00  0.00     0.249 C 
HETATM    2  C4  UNL     1    -100.042 -16.461  52.461  1.00  0.00     0.075 C 
HETATM    3  C5  UNL     1     -99.525 -16.534  53.850  1.00  0.00     0.006 C 
HETATM    4  C6  UNL     1    -100.167 -17.777  54.483  1.00  0.00     0.026 C 
HETATM    5  C7  UNL     1     -98.027 -16.775  53.920  1.00  0.00     0.026 C 
HETATM    6  S1  UNL     1    -100.072 -15.113  54.833  1.00  0.00    -0.126 SA
HETATM    7  C8  UNL     1    -100.982 -14.068  53.633  1.00  0.00     0.255 C 
HETATM    8  C9  UNL     1    -102.208 -14.802  53.214  1.00  0.00     0.109 C 
HETATM    9  C10 UNL     1    -102.329 -14.810  51.686  1.00  0.00     0.069 C 
HETATM   10  C16 UNL     1    -101.218 -14.985  50.905  1.00  0.00     0.085 C 
HETATM   11  N2  UNL     1    -100.054 -13.924  52.525  1.00  0.00    -0.039 N 
ATOM     12  H21 UNL     1    -100.284 -13.120  51.940  1.00  0.00     0.280 HD
ATOM     13  H22 UNL     1     -99.132 -13.624  52.840  1.00  0.00     0.280 HD
ENDROOT
BRANCH  10  14
HETATM   14  C17 UNL     1    -101.317 -14.459  49.554  1.00  0.00     0.256 C 
HETATM   15  O6  UNL     1    -100.720 -13.395  49.205  1.00  0.00    -0.267 OA
HETATM   16  N1  UNL     1    -102.052 -15.094  48.528  1.00  0.00    -0.336 N 
ATOM     17  H1  UNL     1    -102.663 -15.825  48.894  1.00  0.00     0.168 HD
BRANCH  16  18
HETATM   18  C18 UNL     1    -102.153 -14.979  47.161  1.00  0.00     0.069 C 
BRANCH  18  19
HETATM   19  C19 UNL     1    -101.641 -15.831  46.102  1.00  0.00     0.083 C 
BRANCH  19  20
HETATM   20  C20 UNL     1    -100.558 -14.971  45.456  1.00  0.00    -0.053 A 
HETATM   21  C21 UNL     1    -100.736 -14.639  44.143  1.00  0.00     0.010 A 
HETATM   22  C22 UNL     1     -99.675 -14.016  43.506  1.00  0.00     0.043 A 
HETATM   23  C23 UNL     1     -98.481 -13.733  44.149  1.00  0.00     0.116 A 
HETATM   24  F1  UNL     1     -97.489 -13.114  43.438  1.00  0.00    -0.206 F 
HETATM   25  C24 UNL     1     -98.335 -14.084  45.478  1.00  0.00     0.043 A 
HETATM   26  C25 UNL     1     -99.396 -14.714  46.140  1.00  0.00     0.010 A 
ENDBRANCH  19  20
ENDBRANCH  18  19
ENDBRANCH  16  18
ENDBRANCH  10  14
BRANCH   1  27
HETATM   27  C2  UNL     1     -98.690 -15.077  51.098  1.00  0.00     0.300 C 
HETATM   28  O2  UNL     1     -97.956 -14.066  51.033  1.00  0.00    -0.262 OA
BRANCH  27  29
HETATM   29  O1  UNL     1     -98.020 -16.177  50.449  1.00  0.00    -0.324 OA
HETATM   30  C1  UNL     1     -98.068 -16.375  49.071  1.00  0.00     0.213 C 
ENDBRANCH  27  29
ENDBRANCH   1  27
BRANCH   9  31
HETATM   31  O3  UNL     1    -103.483 -14.664  51.097  1.00  0.00    -0.300 OA
BRANCH  31  32
HETATM   32  C11 UNL     1    -104.554 -15.192  50.693  1.00  0.00     0.416 C 
BRANCH  32  33
HETATM   33  O4  UNL     1    -105.666 -14.524  50.893  1.00  0.00    -0.349 OA
ATOM     34  H4  UNL     1    -106.473 -15.024  50.935  1.00  0.00     0.215 HD
ENDBRANCH  32  33
BRANCH  32  35
HETATM   35  O5  UNL     1    -104.812 -16.377  50.068  1.00  0.00    -0.329 OA
BRANCH  35  36
HETATM   36  C12 UNL     1    -105.430 -16.700  48.875  1.00  0.00     0.055 C 
HETATM   37  C13 UNL     1    -105.777 -15.581  47.949  1.00  0.00     0.045 C 
HETATM   38  C14 UNL     1    -106.695 -17.518  49.062  1.00  0.00     0.045 C 
HETATM   39  C15 UNL     1    -104.464 -17.650  48.116  1.00  0.00     0.045 C 
ENDBRANCH  35  36
ENDBRANCH  32  35
ENDBRANCH  31  32
ENDBRANCH   9  31
TORSDOF 11
ENDMDL
MODEL 2
REMARK VINA RESULT: -8.015849492      0.717      1.250
REMARK  11 active torsions:
REMARK  status: ('A' for Active; 'I' for Inactive)
REMARK    1  A    between atoms: O1_2  and  C2_3 
REMARK    2  A    between atoms: C2_3  and  C3_5 
REMARK    3  A    between atoms: C10_13  and  O3_14 
REMARK    4  A    between atoms: O3_14  and  C11_15 
REMARK    5  A    between atoms: C11_15  and  O4_16 
REMARK    6  A    between atoms: C11_15  and  O5_18 
REMARK    7  A    between atoms: O5_18  and  C12_19 
REMARK    8  A    between atoms: C16_23  and  C17_24 
REMARK       I    between atoms: C17_24  and  N1_26 
REMARK    9  A    between atoms: N1_26  and  C18_28 
REMARK   10  A    between atoms: C18_28  and  C19_29 
REMARK   11  A    between atoms: C19_29  and  C20_30 
ROOT
HETATM    1  C3  UNL     1     -99.957 -15.163  51.554  1.00  0.00     0.249 C 
HETATM    2  C4  UNL     1     -99.997 -16.433  52.280  1.00  0.00     0.075 C 
HETATM    3  C5  UNL     1     -99.487 -16.509  53.671  1.00  0.00     0.006 C 
HETATM    4  C6  UNL     1    -100.113 -17.767  54.291  1.00  0.00     0.026 C 
HETATM    5  C7  UNL     1     -97.986 -16.727  53.748  1.00  0.00     0.026 C 
HETATM    6  S1  UNL     1    -100.062 -15.105  54.662  1.00  0.00    -0.126 SA
HETATM    7  C8  UNL     1    -100.981 -14.065  53.464  1.00  0.00     0.255 C 
HETATM    8  C9  UNL     1    -102.193 -14.815  53.033  1.00  0.00     0.109 C 
HETATM    9  C10 UNL     1    -102.306 -14.813  51.504  1.00  0.00     0.069 C 
HETATM   10  C16 UNL     1    -101.187 -14.965  50.728  1.00  0.00     0.085 C 
HETATM   11  N2  UNL     1    -100.050 -13.898  52.363  1.00  0.00    -0.039 N 
ATOM     12  H21 UNL     1    -100.289 -13.093  51.783  1.00  0.00     0.280 HD
ATOM     13  H22 UNL     1     -99.134 -13.585  52.686  1.00  0.00     0.280 HD
ENDROOT
BRANCH  10  14
HETATM   14  C17 UNL     1    -101.287 -14.430  49.381  1.00  0.00     0.256 C 
HETATM   15  O6  UNL     1    -100.816 -13.291  49.076  1.00  0.00    -0.267 OA
HETATM   16  N1  UNL     1    -101.883 -15.134  48.311  1.00  0.00    -0.336 N 
ATOM     17  H1  UNL     1    -102.413 -15.943  48.636  1.00  0.00     0.168 HD
BRANCH  16  18
HETATM   18  C18 UNL     1    -101.931 -15.006  46.942  1.00  0.00     0.069 C 
BRANCH  18  19
HETATM   19  C19 UNL     1    -101.219 -15.728  45.902  1.00  0.00     0.083 C 
BRANCH  19  20
HETATM   20  C20 UNL     1     -99.900 -14.969  45.792  1.00  0.00    -0.053 A 
HETATM   21  C21 UNL     1     -99.753 -14.140  44.715  1.00  0.00     0.010 A 
HETATM   22  C22 UNL     1     -98.497 -13.592  44.514  1.00  0.00     0.043 A 
HETATM   23  C23 UNL     1     -97.425 -13.855  45.351  1.00  0.00     0.116 A 
HETATM   24  F1  UNL     1     -96.222 -13.266  45.075  1.00  0.00    -0.206 F 
HETATM   25  C24 UNL     1     -97.610 -14.698  46.432  1.00  0.00     0.043 A 
HETATM   26  C25 UNL     1     -98.871 -15.263  46.652  1.00  0.00     0.010 A 
ENDBRANCH  19  20
ENDBRANCH  18  19
ENDBRANCH  16  18
ENDBRANCH  10  14
BRANCH   1  27
HETATM   27  C2  UNL     1     -98.660 -15.019  50.936  1.00  0.00     0.300 C 
HETATM   28  O2  UNL     1     -98.056 -15.841  50.211  1.00  0.00    -0.262 OA
BRANCH  27  29
HETATM   29  O1  UNL     1     -97.853 -13.829  51.056  1.00  0.00    -0.324 OA
HETATM   30  C1  UNL     1     -97.374 -13.134  49.948  1.00  0.00     0.213 C 
ENDBRANCH  27  29
ENDBRANCH   1  27
BRANCH   9  31
HETATM   31  O3  UNL     1    -103.459 -14.681  50.909  1.00  0.00    -0.300 OA
BRANCH  31  32
HETATM   32  C11 UNL     1    -104.578 -15.181  50.620  1.00  0.00     0.416 C 
BRANCH  32  33
HETATM   33  O4  UNL     1    -105.643 -14.452  50.860  1.00  0.00    -0.349 OA
ATOM     34  H4  UNL     1    -105.801 -13.711  50.287  1.00  0.00     0.215 HD
ENDBRANCH  32  33
BRANCH  32  35
HETATM   35  O5  UNL     1    -104.934 -16.388  50.092  1.00  0.00    -0.329 OA
BRANCH  35  36
HETATM   36  C12 UNL     1    -105.296 -16.792  48.822  1.00  0.00     0.055 C 
HETATM   37  C13 UNL     1    -104.356 -17.687  48.084  1.00  0.00     0.045 C 
HETATM   38  C14 UNL     1    -105.608 -15.632  47.894  1.00  0.00     0.045 C 
HETATM   39  C15 UNL     1    -106.645 -17.549  48.961  1.00  0.00     0.045 C 
ENDBRANCH  35  36
ENDBRANCH  32  35
ENDBRANCH  31  32
ENDBRANCH   9  31
TORSDOF 11
ENDMDL
MODEL 3
REMARK VINA RESULT: -7.937932181      2.400      3.457
REMARK  11 active torsions:
REMARK  status: ('A' for Active; 'I' for Inactive)
REMARK    1  A    between atoms: O1_2  and  C2_3 
REMARK    2  A    between atoms: C2_3  and  C3_5 
REMARK    3  A    between atoms: C10_13  and  O3_14 
REMARK    4  A    between atoms: O3_14  and  C11_15 
REMARK    5  A    between atoms: C11_15  and  O4_16 
REMARK    6  A    between atoms: C11_15  and  O5_18 
REMARK    7  A    between atoms: O5_18  and  C12_19 
REMARK    8  A    between atoms: C16_23  and  C17_24 
REMARK       I    between atoms: C17_24  and  N1_26 
REMARK    9  A    between atoms: N1_26  and  C18_28 
REMARK   10  A    between atoms: C18_28  and  C19_29 
REMARK   11  A    between atoms: C19_29  and  C20_30 
ROOT
HETATM    1  C3  UNL     1    -100.044 -14.514  49.739  1.00  0.00     0.249 C 
HETATM    2  C4  UNL     1    -100.568 -15.346  50.823  1.00  0.00     0.075 C 
HETATM    3  C5  UNL     1    -101.021 -14.717  52.088  1.00  0.00     0.006 C 
HETATM    4  C6  UNL     1    -101.941 -15.740  52.771  1.00  0.00     0.026 C 
HETATM    5  C7  UNL     1     -99.891 -14.471  53.073  1.00  0.00     0.026 C 
HETATM    6  S1  UNL     1    -102.030 -13.246  51.769  1.00  0.00    -0.126 SA
HETATM    7  C8  UNL     1    -101.983 -13.064  49.945  1.00  0.00     0.255 C 
HETATM    8  C9  UNL     1    -102.702 -14.221  49.345  1.00  0.00     0.109 C 
HETATM    9  C10 UNL     1    -101.854 -14.862  48.241  1.00  0.00     0.069 C 
HETATM   10  C16 UNL     1    -100.501 -15.004  48.402  1.00  0.00     0.085 C 
HETATM   11  N2  UNL     1    -100.566 -13.107  49.629  1.00  0.00    -0.039 N 
ATOM     12  H21 UNL     1    -100.370 -12.700  48.714  1.00  0.00     0.280 HD
ATOM     13  H22 UNL     1    -100.030 -12.457  50.203  1.00  0.00     0.280 HD
ENDROOT
BRANCH  10  14
HETATM   14  C17 UNL     1     -99.734 -15.102  47.172  1.00  0.00     0.256 C 
HETATM   15  O6  UNL     1     -98.799 -15.949  47.032  1.00  0.00    -0.267 OA
HETATM   16  N1  UNL     1     -99.981 -14.294  46.040  1.00  0.00    -0.336 N 
ATOM     17  H1  UNL     1    -100.596 -13.511  46.259  1.00  0.00     0.168 HD
BRANCH  16  18
HETATM   18  C18 UNL     1     -99.602 -14.295  44.717  1.00  0.00     0.069 C 
BRANCH  18  19
HETATM   19  C19 UNL     1     -98.982 -13.257  43.913  1.00  0.00     0.083 C 
BRANCH  19  20
HETATM   20  C20 UNL     1     -97.500 -13.617  43.962  1.00  0.00    -0.053 A 
HETATM   21  C21 UNL     1     -96.905 -13.945  42.776  1.00  0.00     0.010 A 
HETATM   22  C22 UNL     1     -95.615 -14.445  42.841  1.00  0.00     0.043 A 
HETATM   23  C23 UNL     1     -94.939 -14.613  44.038  1.00  0.00     0.116 A 
HETATM   24  F1  UNL     1     -93.666 -15.112  44.003  1.00  0.00    -0.206 F 
HETATM   25  C24 UNL     1     -95.571 -14.271  45.219  1.00  0.00     0.043 A 
HETATM   26  C25 UNL     1     -96.875 -13.764  45.175  1.00  0.00     0.010 A 
ENDBRANCH  19  20
ENDBRANCH  18  19
ENDBRANCH  16  18
ENDBRANCH  10  14
BRANCH   1  27
HETATM   27  C2  UNL     1     -98.636 -14.285  49.964  1.00  0.00     0.300 C 
HETATM   28  O2  UNL     1     -97.763 -15.117  50.298  1.00  0.00    -0.262 OA
BRANCH  27  29
HETATM   29  O1  UNL     1     -98.007 -12.997  49.797  1.00  0.00    -0.324 OA
HETATM   30  C1  UNL     1     -97.045 -12.756  48.819  1.00  0.00     0.213 C 
ENDBRANCH  27  29
ENDBRANCH   1  27
BRANCH   9  31
HETATM   31  O3  UNL     1    -102.394 -15.297  47.136  1.00  0.00    -0.300 OA
BRANCH  31  32
HETATM   32  C11 UNL     1    -103.441 -15.592  46.500  1.00  0.00     0.416 C 
BRANCH  32  33
HETATM   33  O4  UNL     1    -103.708 -14.889  45.423  1.00  0.00    -0.349 OA
ATOM     34  H4  UNL     1    -103.856 -13.958  45.538  1.00  0.00     0.215 HD
ENDBRANCH  32  33
BRANCH  32  35
HETATM   35  O5  UNL     1    -104.408 -16.531  46.711  1.00  0.00    -0.329 OA
BRANCH  35  36
HETATM   36  C12 UNL     1    -104.390 -17.796  47.266  1.00  0.00     0.055 C 
HETATM   37  C13 UNL     1    -103.131 -18.243  47.934  1.00  0.00     0.045 C 
HETATM   38  C14 UNL     1    -104.767 -18.885  46.278  1.00  0.00     0.045 C 
HETATM   39  C15 UNL     1    -105.520 -17.832  48.331  1.00  0.00     0.045 C 
ENDBRANCH  35  36
ENDBRANCH  32  35
ENDBRANCH  31  32
ENDBRANCH   9  31
TORSDOF 11
ENDMDL
MODEL 4
REMARK VINA RESULT: -7.895156615      2.922      5.925
REMARK  11 active torsions:
REMARK  status: ('A' for Active; 'I' for Inactive)
REMARK    1  A    between atoms: O1_2  and  C2_3 
REMARK    2  A    between atoms: C2_3  and  C3_5 
REMARK    3  A    between atoms: C10_13  and  O3_14 
REMARK    4  A    between atoms: O3_14  and  C11_15 
REMARK    5  A    between atoms: C11_15  and  O4_16 
REMARK    6  A    between atoms: C11_15  and  O5_18 
REMARK    7  A    between atoms: O5_18  and  C12_19 
REMARK    8  A    between atoms: C16_23  and  C17_24 
REMARK       I    between atoms: C17_24  and  N1_26 
REMARK    9  A    between atoms: N1_26  and  C18_28 
REMARK   10  A    between atoms: C18_28  and  C19_29 
REMARK   11  A    between atoms: C19_29  and  C20_30 
ROOT
HETATM    1  C3  UNL     1    -102.841 -15.410  48.297  1.00  0.00     0.249 C 
HETATM    2  C4  UNL     1    -104.075 -14.645  48.114  1.00  0.00     0.075 C 
HETATM    3  C5  UNL     1    -105.294 -15.012  48.875  1.00  0.00     0.006 C 
HETATM    4  C6  UNL     1    -106.204 -13.774  48.852  1.00  0.00     0.026 C 
HETATM    5  C7  UNL     1    -106.102 -16.117  48.217  1.00  0.00     0.026 C 
HETATM    6  S1  UNL     1    -104.912 -15.338  50.616  1.00  0.00    -0.126 SA
HETATM    7  C8  UNL     1    -103.087 -15.187  50.704  1.00  0.00     0.255 C 
HETATM    8  C9  UNL     1    -102.726 -13.767  50.441  1.00  0.00     0.109 C 
HETATM    9  C10 UNL     1    -101.620 -13.685  49.383  1.00  0.00     0.069 C 
HETATM   10  C16 UNL     1    -101.639 -14.520  48.296  1.00  0.00     0.085 C 
HETATM   11  N2  UNL     1    -102.615 -16.054  49.639  1.00  0.00    -0.039 N 
ATOM     12  H21 UNL     1    -101.640 -16.322  49.772  1.00  0.00     0.280 HD
ATOM     13  H22 UNL     1    -103.036 -16.981  49.690  1.00  0.00     0.280 HD
ENDROOT
BRANCH  10  14
HETATM   14  C17 UNL     1    -100.350 -14.753  47.667  1.00  0.00     0.256 C 
HETATM   15  O6  UNL     1     -99.525 -15.601  48.127  1.00  0.00    -0.267 OA
HETATM   16  N1  UNL     1     -99.929 -14.085  46.496  1.00  0.00    -0.336 N 
ATOM     17  H1  UNL     1    -100.527 -13.288  46.277  1.00  0.00     0.168 HD
BRANCH  16  18
HETATM   18  C18 UNL     1     -98.919 -14.236  45.575  1.00  0.00     0.069 C 
BRANCH  18  19
HETATM   19  C19 UNL     1     -98.674 -13.546  44.321  1.00  0.00     0.083 C 
BRANCH  19  20
HETATM   20  C20 UNL     1     -97.183 -13.775  44.082  1.00  0.00    -0.053 A 
HETATM   21  C21 UNL     1     -96.779 -13.896  42.783  1.00  0.00     0.010 A 
HETATM   22  C22 UNL     1     -95.465 -14.282  42.571  1.00  0.00     0.043 A 
HETATM   23  C23 UNL     1     -94.585 -14.537  43.610  1.00  0.00     0.116 A 
HETATM   24  F1  UNL     1     -93.305 -14.911  43.303  1.00  0.00    -0.206 F 
HETATM   25  C24 UNL     1     -95.029 -14.404  44.913  1.00  0.00     0.043 A 
HETATM   26  C25 UNL     1     -96.353 -14.015  45.148  1.00  0.00     0.010 A 
ENDBRANCH  19  20
ENDBRANCH  18  19
ENDBRANCH  16  18
ENDBRANCH  10  14
BRANCH   1  27
HETATM   27  C2  UNL     1    -102.868 -16.560  47.424  1.00  0.00     0.300 C 
HETATM   28  O2  UNL     1    -102.615 -16.604  46.199  1.00  0.00    -0.262 OA
BRANCH  27  29
HETATM   29  O1  UNL     1    -103.184 -17.892  47.878  1.00  0.00    -0.324 OA
HETATM   30  C1  UNL     1    -103.802 -18.835  47.060  1.00  0.00     0.213 C 
ENDBRANCH  27  29
ENDBRANCH   1  27
BRANCH   9  31
HETATM   31  O3  UNL     1    -100.650 -12.820  49.481  1.00  0.00    -0.300 OA
BRANCH  31  32
HETATM   32  C11 UNL     1    -100.005 -12.010  50.200  1.00  0.00     0.416 C 
BRANCH  32  33
HETATM   33  O4  UNL     1    -100.640 -10.939  50.617  1.00  0.00    -0.349 OA
ATOM     34  H4  UNL     1    -100.144 -10.311  51.129  1.00  0.00     0.215 HD
ENDBRANCH  32  33
BRANCH  32  35
HETATM   35  O5  UNL     1     -98.718 -12.009  50.651  1.00  0.00    -0.329 OA
BRANCH  35  36
HETATM   36  C12 UNL     1     -97.587 -12.711  50.280  1.00  0.00     0.055 C 
HETATM   37  C13 UNL     1     -97.227 -12.731  48.831  1.00  0.00     0.045 C 
HETATM   38  C14 UNL     1     -97.606 -14.157  50.742  1.00  0.00     0.045 C 
HETATM   39  C15 UNL     1     -96.396 -12.076  51.047  1.00  0.00     0.045 C 
ENDBRANCH  35  36
ENDBRANCH  32  35
ENDBRANCH  31  32
ENDBRANCH   9  31
TORSDOF 11
ENDMDL
MODEL 5
REMARK VINA RESULT: -7.779857370      2.609      5.932
REMARK  11 active torsions:
REMARK  status: ('A' for Active; 'I' for Inactive)
REMARK    1  A    between atoms: O1_2  and  C2_3 
REMARK    2  A    between atoms: C2_3  and  C3_5 
REMARK    3  A    between atoms: C10_13  and  O3_14 
REMARK    4  A    between atoms: O3_14  and  C11_15 
REMARK    5  A    between atoms: C11_15  and  O4_16 
REMARK    6  A    between atoms: C11_15  and  O5_18 
REMARK    7  A    between atoms: O5_18  and  C12_19 
REMARK    8  A    between atoms: C16_23  and  C17_24 
REMARK       I    between atoms: C17_24  and  N1_26 
REMARK    9  A    between atoms: N1_26  and  C18_28 
REMARK   10  A    between atoms: C18_28  and  C19_29 
REMARK   11  A    between atoms: C19_29  and  C20_30 
ROOT
HETATM    1  C3  UNL     1    -100.744 -14.724  51.660  1.00  0.00     0.249 C 
HETATM    2  C4  UNL     1     -99.723 -14.099  52.502  1.00  0.00     0.075 C 
HETATM    3  C5  UNL     1     -99.601 -14.485  53.929  1.00  0.00     0.006 C 
HETATM    4  C6  UNL     1     -98.191 -14.064  54.370  1.00  0.00     0.026 C 
HETATM    5  C7  UNL     1    -100.551 -13.723  54.839  1.00  0.00     0.026 C 
HETATM    6  S1  UNL     1     -99.692 -16.283  54.137  1.00  0.00    -0.126 SA
HETATM    7  C8  UNL     1    -100.024 -16.907  52.446  1.00  0.00     0.255 C 
HETATM    8  C9  UNL     1     -98.826 -16.629  51.606  1.00  0.00     0.109 C 
HETATM    9  C10 UNL     1     -99.241 -15.956  50.293  1.00  0.00     0.069 C 
HETATM   10  C16 UNL     1    -100.225 -15.002  50.285  1.00  0.00     0.085 C 
HETATM   11  N2  UNL     1    -101.166 -16.127  52.005  1.00  0.00    -0.039 N 
ATOM     12  H21 UNL     1    -101.657 -16.576  51.232  1.00  0.00     0.280 HD
ATOM     13  H22 UNL     1    -101.920 -16.138  52.691  1.00  0.00     0.280 HD
ENDROOT
BRANCH  10  14
HETATM   14  C17 UNL     1    -100.908 -14.822  49.015  1.00  0.00     0.256 C 
HETATM   15  O6  UNL     1    -100.967 -13.691  48.441  1.00  0.00    -0.267 OA
HETATM   16  N1  UNL     1    -101.528 -15.880  48.314  1.00  0.00    -0.336 N 
ATOM     17  H1  UNL     1    -101.625 -16.715  48.892  1.00  0.00     0.168 HD
BRANCH  16  18
HETATM   18  C18 UNL     1    -102.033 -16.071  47.048  1.00  0.00     0.069 C 
BRANCH  18  19
HETATM   19  C19 UNL     1    -103.229 -15.538  46.420  1.00  0.00     0.083 C 
BRANCH  19  20
HETATM   20  C20 UNL     1    -104.357 -16.271  47.140  1.00  0.00    -0.053 A 
HETATM   21  C21 UNL     1    -105.293 -15.497  47.768  1.00  0.00     0.010 A 
HETATM   22  C22 UNL     1    -106.212 -16.155  48.570  1.00  0.00     0.043 A 
HETATM   23  C23 UNL     1    -106.202 -17.529  48.744  1.00  0.00     0.116 A 
HETATM   24  F1  UNL     1    -107.150 -18.090  49.555  1.00  0.00    -0.206 F 
HETATM   25  C24 UNL     1    -105.241 -18.281  48.093  1.00  0.00     0.043 A 
HETATM   26  C25 UNL     1    -104.304 -17.636  47.278  1.00  0.00     0.010 A 
ENDBRANCH  19  20
ENDBRANCH  18  19
ENDBRANCH  16  18
ENDBRANCH  10  14
BRANCH   1  27
HETATM   27  C2  UNL     1    -101.985 -14.001  51.814  1.00  0.00     0.300 C 
HETATM   28  O2  UNL     1    -102.181 -12.771  51.687  1.00  0.00    -0.262 OA
BRANCH  27  29
HETATM   29  O1  UNL     1    -103.240 -14.639  52.127  1.00  0.00    -0.324 OA
HETATM   30  C1  UNL     1    -104.212 -14.891  51.162  1.00  0.00     0.213 C 
ENDBRANCH  27  29
ENDBRANCH   1  27
BRANCH   9  31
HETATM   31  O3  UNL     1     -98.665 -16.259  49.163  1.00  0.00    -0.300 OA
BRANCH  31  32
HETATM   32  C11 UNL     1     -97.831 -15.952  48.270  1.00  0.00     0.416 C 
BRANCH  32  33
HETATM   33  O4  UNL     1     -96.564 -15.932  48.612  1.00  0.00    -0.349 OA
ATOM     34  H4  UNL     1     -96.020 -16.649  48.311  1.00  0.00     0.215 HD
ENDBRANCH  32  33
BRANCH  32  35
HETATM   35  O5  UNL     1     -97.978 -15.611  46.957  1.00  0.00    -0.329 OA
BRANCH  35  36
HETATM   36  C12 UNL     1     -97.835 -14.421  46.270  1.00  0.00     0.055 C 
HETATM   37  C13 UNL     1     -96.684 -14.298  45.327  1.00  0.00     0.045 C 
HETATM   38  C14 UNL     1     -97.778 -13.209  47.183  1.00  0.00     0.045 C 
HETATM   39  C15 UNL     1     -99.136 -14.222  45.446  1.00  0.00     0.045 C 
ENDBRANCH  35  36
ENDBRANCH  32  35
ENDBRANCH  31  32
ENDBRANCH   9  31
TORSDOF 11
ENDMDL
