MODEL 1
REMARK VINA RESULT: -9.342758141      0.000      0.000
REMARK  6 active torsions:
REMARK  status: ('A' for Active; 'I' for Inactive)
REMARK    1  A    between atoms: C4_4  and  C5_5 
REMARK    2  A    between atoms: C5_5  and  N1_6 
REMARK    3  A    between atoms: N1_6  and  C6_8 
REMARK    4  A    between atoms: N5_19  and  C11_20 
REMARK    5  A    between atoms: C11_20  and  C12_21 
REMARK    6  A    between atoms: C15_24  and  N6_25 
ROOT
HETATM    1  C6  UNL     1     -11.896  17.964 -24.646  1.00  0.00     0.132 A 
HETATM    2  N2  UNL     1     -12.369  16.803 -25.137  1.00  0.00    -0.351 N 
ATOM      3  H2  UNL     1     -12.275  16.635 -26.138  1.00  0.00     0.166 HD
HETATM    4  C7  UNL     1     -12.952  15.858 -24.396  1.00  0.00     0.092 A 
HETATM    5  C8  UNL     1     -13.109  16.031 -23.024  1.00  0.00     0.051 A 
HETATM    6  C9  UNL     1     -12.638  17.205 -22.485  1.00  0.00     0.085 A 
HETATM    7  C10 UNL     1     -12.044  18.151 -23.281  1.00  0.00     0.121 A 
HETATM    8  N3  UNL     1     -11.702  19.162 -22.473  1.00  0.00    -0.280 N 
ATOM      9  H3  UNL     1     -11.238  20.027 -22.752  1.00  0.00     0.188 HD
HETATM   10  N4  UNL     1     -12.077  18.832 -21.238  1.00  0.00    -0.239 N 
ATOM     11  H4  UNL     1     -11.941  19.419 -20.415  1.00  0.00     0.208 HD
HETATM   12  N5  UNL     1     -12.647  17.647 -21.225  1.00  0.00    -0.271 N 
ENDROOT
BRANCH  12  13
HETATM   13  C11 UNL     1     -13.171  16.973 -20.062  1.00  0.00     0.189 C 
BRANCH  13  14
HETATM   14  C12 UNL     1     -12.134  16.233 -19.292  1.00  0.00    -0.038 A 
HETATM   15  C13 UNL     1     -11.543  15.099 -19.800  1.00  0.00     0.011 A 
HETATM   16  C14 UNL     1     -10.562  14.394 -19.088  1.00  0.00     0.030 A 
HETATM   17  C15 UNL     1     -10.145  14.803 -17.844  1.00  0.00     0.030 A 
HETATM   18  C20 UNL     1     -10.753  15.952 -17.346  1.00  0.00     0.030 A 
HETATM   19  C21 UNL     1     -11.718  16.650 -18.040  1.00  0.00     0.011 A 
BRANCH  17  20
HETATM   20  N6  UNL     1      -9.157  14.129 -17.080  1.00  0.00    -0.377 N 
HETATM   21  C16 UNL     1      -8.534  12.919 -17.491  1.00  0.00     0.149 C 
HETATM   22  C17 UNL     1      -8.854  11.861 -16.456  1.00  0.00     0.187 C 
HETATM   23  O1  UNL     1      -8.707  12.349 -15.181  1.00  0.00    -0.388 OA
HETATM   24  C18 UNL     1      -7.988  13.535 -15.100  1.00  0.00     0.187 C 
HETATM   25  C19 UNL     1      -8.721  14.670 -15.784  1.00  0.00     0.149 C 
ENDBRANCH  17  20
ENDBRANCH  13  14
ENDBRANCH  12  13
BRANCH   1  26
HETATM   26  N1  UNL     1     -11.333  18.865 -25.384  1.00  0.00    -0.370 N 
ATOM     27  H1  UNL     1     -11.617  19.844 -25.341  1.00  0.00     0.161 HD
BRANCH  26  28
HETATM   28  C5  UNL     1     -10.277  18.416 -26.277  1.00  0.00     0.160 C 
BRANCH  28  29
HETATM   29  C4  UNL     1     -10.501  18.860 -27.662  1.00  0.00    -0.041 A 
HETATM   30  C3  UNL     1     -10.573  20.212 -27.923  1.00  0.00     0.009 A 
HETATM   31  C2  UNL     1     -10.780  20.675 -29.198  1.00  0.00     0.001 A 
HETATM   32  C1  UNL     1     -10.916  19.767 -30.228  1.00  0.00     0.000 A 
HETATM   33  C23 UNL     1     -10.844  18.418 -29.966  1.00  0.00     0.001 A 
HETATM   34  C22 UNL     1     -10.635  17.939 -28.682  1.00  0.00     0.009 A 
ENDBRANCH  28  29
ENDBRANCH  26  28
ENDBRANCH   1  26
TORSDOF 6
ENDMDL
MODEL 2
REMARK VINA RESULT: -9.316186142      0.066      1.226
REMARK  6 active torsions:
REMARK  status: ('A' for Active; 'I' for Inactive)
REMARK    1  A    between atoms: C4_4  and  C5_5 
REMARK    2  A    between atoms: C5_5  and  N1_6 
REMARK    3  A    between atoms: N1_6  and  C6_8 
REMARK    4  A    between atoms: N5_19  and  C11_20 
REMARK    5  A    between atoms: C11_20  and  C12_21 
REMARK    6  A    between atoms: C15_24  and  N6_25 
ROOT
HETATM    1  C6  UNL     1     -11.921  17.972 -24.608  1.00  0.00     0.132 A 
HETATM    2  N2  UNL     1     -12.386  16.806 -25.095  1.00  0.00    -0.351 N 
ATOM      3  H2  UNL     1     -12.293  16.636 -26.096  1.00  0.00     0.166 HD
HETATM    4  C7  UNL     1     -12.962  15.860 -24.350  1.00  0.00     0.092 A 
HETATM    5  C8  UNL     1     -13.117  16.035 -22.978  1.00  0.00     0.051 A 
HETATM    6  C9  UNL     1     -12.653  17.214 -22.444  1.00  0.00     0.085 A 
HETATM    7  C10 UNL     1     -12.067  18.162 -23.244  1.00  0.00     0.121 A 
HETATM    8  N3  UNL     1     -11.731  19.177 -22.439  1.00  0.00    -0.280 N 
ATOM      9  H3  UNL     1     -11.273  20.044 -22.721  1.00  0.00     0.188 HD
HETATM   10  N4  UNL     1     -12.102  18.848 -21.202  1.00  0.00    -0.239 N 
ATOM     11  H4  UNL     1     -11.968  19.437 -20.381  1.00  0.00     0.208 HD
HETATM   12  N5  UNL     1     -12.664  17.659 -21.185  1.00  0.00    -0.271 N 
ENDROOT
BRANCH  12  13
HETATM   13  C11 UNL     1     -13.180  16.984 -20.019  1.00  0.00     0.189 C 
BRANCH  13  14
HETATM   14  C12 UNL     1     -12.137  16.253 -19.249  1.00  0.00    -0.038 A 
HETATM   15  C13 UNL     1     -11.756  16.667 -17.994  1.00  0.00     0.011 A 
HETATM   16  C14 UNL     1     -10.777  15.986 -17.256  1.00  0.00     0.030 A 
HETATM   17  C15 UNL     1     -10.149  14.870 -17.754  1.00  0.00     0.030 A 
HETATM   18  C20 UNL     1     -10.547  14.465 -19.026  1.00  0.00     0.030 A 
HETATM   19  C21 UNL     1     -11.508  15.129 -19.757  1.00  0.00     0.011 A 
BRANCH  17  20
HETATM   20  N6  UNL     1      -9.154  14.142 -17.052  1.00  0.00    -0.377 N 
HETATM   21  C16 UNL     1      -8.588  12.927 -17.525  1.00  0.00     0.149 C 
HETATM   22  C17 UNL     1      -8.901  11.847 -16.510  1.00  0.00     0.187 C 
HETATM   23  O1  UNL     1      -8.688  12.289 -15.228  1.00  0.00    -0.388 OA
HETATM   24  C18 UNL     1      -7.928  13.448 -15.140  1.00  0.00     0.187 C 
HETATM   25  C19 UNL     1      -8.650  14.627 -15.758  1.00  0.00     0.149 C 
ENDBRANCH  17  20
ENDBRANCH  13  14
ENDBRANCH  12  13
BRANCH   1  26
HETATM   26  N1  UNL     1     -11.366  18.875 -25.350  1.00  0.00    -0.370 N 
ATOM     27  H1  UNL     1     -11.654  19.852 -25.307  1.00  0.00     0.161 HD
BRANCH  26  28
HETATM   28  C5  UNL     1     -10.312  18.430 -26.247  1.00  0.00     0.160 C 
BRANCH  28  29
HETATM   29  C4  UNL     1     -10.509  18.927 -27.618  1.00  0.00    -0.041 A 
HETATM   30  C3  UNL     1     -10.634  18.015 -28.644  1.00  0.00     0.009 A 
HETATM   31  C2  UNL     1     -10.820  18.429 -29.939  1.00  0.00     0.001 A 
HETATM   32  C1  UNL     1     -10.880  19.781 -30.208  1.00  0.00     0.000 A 
HETATM   33  C23 UNL     1     -10.754  20.691 -29.184  1.00  0.00     0.001 A 
HETATM   34  C22 UNL     1     -10.567  20.283 -27.872  1.00  0.00     0.009 A 
ENDBRANCH  28  29
ENDBRANCH  26  28
ENDBRANCH   1  26
TORSDOF 6
ENDMDL
MODEL 3
REMARK VINA RESULT: -9.164288366      3.539     10.141
REMARK  6 active torsions:
REMARK  status: ('A' for Active; 'I' for Inactive)
REMARK    1  A    between atoms: C4_4  and  C5_5 
REMARK    2  A    between atoms: C5_5  and  N1_6 
REMARK    3  A    between atoms: N1_6  and  C6_8 
REMARK    4  A    between atoms: N5_19  and  C11_20 
REMARK    5  A    between atoms: C11_20  and  C12_21 
REMARK    6  A    between atoms: C15_24  and  N6_25 
ROOT
HETATM    1  C6  UNL     1     -12.477  16.881 -21.076  1.00  0.00     0.132 A 
HETATM    2  N2  UNL     1     -12.907  15.785 -21.727  1.00  0.00    -0.351 N 
ATOM      3  H2  UNL     1     -12.795  14.881 -21.267  1.00  0.00     0.166 HD
HETATM    4  C7  UNL     1     -13.472  15.806 -22.937  1.00  0.00     0.092 A 
HETATM    5  C8  UNL     1     -13.652  17.009 -23.613  1.00  0.00     0.051 A 
HETATM    6  C9  UNL     1     -13.224  18.151 -22.978  1.00  0.00     0.085 A 
HETATM    7  C10 UNL     1     -12.649  18.087 -21.735  1.00  0.00     0.121 A 
HETATM    8  N3  UNL     1     -12.343  19.345 -21.397  1.00  0.00    -0.280 N 
ATOM      9  H3  UNL     1     -11.901  19.645 -20.527  1.00  0.00     0.188 HD
HETATM   10  N4  UNL     1     -12.723  20.134 -22.401  1.00  0.00    -0.239 N 
ATOM     11  H4  UNL     1     -12.612  21.148 -22.415  1.00  0.00     0.208 HD
HETATM   12  N5  UNL     1     -13.260  19.427 -23.371  1.00  0.00    -0.271 N 
ENDROOT
BRANCH  12  13
HETATM   13  C11 UNL     1     -13.785  19.950 -24.609  1.00  0.00     0.189 C 
BRANCH  13  14
HETATM   14  C12 UNL     1     -12.736  20.193 -25.638  1.00  0.00    -0.038 A 
HETATM   15  C13 UNL     1     -11.795  19.236 -25.936  1.00  0.00     0.011 A 
HETATM   16  C14 UNL     1     -10.804  19.449 -26.906  1.00  0.00     0.030 A 
HETATM   17  C15 UNL     1     -10.726  20.630 -27.604  1.00  0.00     0.030 A 
HETATM   18  C20 UNL     1     -11.687  21.588 -27.290  1.00  0.00     0.030 A 
HETATM   19  C21 UNL     1     -12.663  21.385 -26.338  1.00  0.00     0.011 A 
BRANCH  17  20
HETATM   20  N6  UNL     1      -9.746  20.900 -28.595  1.00  0.00    -0.377 N 
HETATM   21  C16 UNL     1      -9.966  20.718 -29.988  1.00  0.00     0.149 C 
HETATM   22  C17 UNL     1      -8.969  19.690 -30.481  1.00  0.00     0.187 C 
HETATM   23  O1  UNL     1      -7.716  19.927 -29.975  1.00  0.00    -0.388 OA
HETATM   24  C18 UNL     1      -7.545  21.196 -29.435  1.00  0.00     0.187 C 
HETATM   25  C19 UNL     1      -8.415  21.394 -28.212  1.00  0.00     0.149 C 
ENDBRANCH  17  20
ENDBRANCH  13  14
ENDBRANCH  12  13
BRANCH   1  26
HETATM   26  N1  UNL     1     -11.933  16.836 -19.902  1.00  0.00    -0.370 N 
ATOM     27  H1  UNL     1     -11.781  17.681 -19.351  1.00  0.00     0.161 HD
BRANCH  26  28
HETATM   28  C5  UNL     1     -11.548  15.524 -19.407  1.00  0.00     0.160 C 
BRANCH  28  29
HETATM   29  C4  UNL     1     -10.817  15.609 -18.132  1.00  0.00    -0.041 A 
HETATM   30  C3  UNL     1     -11.001  16.718 -17.334  1.00  0.00     0.009 A 
HETATM   31  C2  UNL     1     -10.342  16.843 -16.137  1.00  0.00     0.001 A 
HETATM   32  C1  UNL     1      -9.486  15.839 -15.734  1.00  0.00     0.000 A 
HETATM   33  C23 UNL     1      -9.303  14.732 -16.531  1.00  0.00     0.001 A 
HETATM   34  C22 UNL     1      -9.964  14.596 -17.743  1.00  0.00     0.009 A 
ENDBRANCH  28  29
ENDBRANCH  26  28
ENDBRANCH   1  26
TORSDOF 6
ENDMDL
MODEL 4
REMARK VINA RESULT: -9.068459441      4.343      9.898
REMARK  6 active torsions:
REMARK  status: ('A' for Active; 'I' for Inactive)
REMARK    1  A    between atoms: C4_4  and  C5_5 
REMARK    2  A    between atoms: C5_5  and  N1_6 
REMARK    3  A    between atoms: N1_6  and  C6_8 
REMARK    4  A    between atoms: N5_19  and  C11_20 
REMARK    5  A    between atoms: C11_20  and  C12_21 
REMARK    6  A    between atoms: C15_24  and  N6_25 
ROOT
HETATM    1  C6  UNL     1     -10.986  13.859 -20.320  1.00  0.00     0.132 A 
HETATM    2  N2  UNL     1     -11.550  12.643 -20.204  1.00  0.00    -0.351 N 
ATOM      3  H2  UNL     1     -11.195  12.018 -19.480  1.00  0.00     0.166 HD
HETATM    4  C7  UNL     1     -12.546  12.202 -20.977  1.00  0.00     0.092 A 
HETATM    5  C8  UNL     1     -13.072  13.009 -21.982  1.00  0.00     0.051 A 
HETATM    6  C9  UNL     1     -12.520  14.259 -22.131  1.00  0.00     0.085 A 
HETATM    7  C10 UNL     1     -11.498  14.675 -21.316  1.00  0.00     0.121 A 
HETATM    8  N3  UNL     1     -11.185  15.915 -21.708  1.00  0.00    -0.280 N 
ATOM      9  H3  UNL     1     -10.461  16.510 -21.304  1.00  0.00     0.188 HD
HETATM   10  N4  UNL     1     -11.990  16.231 -22.722  1.00  0.00    -0.239 N 
ATOM     11  H4  UNL     1     -11.974  17.121 -23.219  1.00  0.00     0.208 HD
HETATM   12  N5  UNL     1     -12.809  15.238 -22.993  1.00  0.00    -0.271 N 
ENDROOT
BRANCH  12  13
HETATM   13  C11 UNL     1     -13.818  15.231 -24.024  1.00  0.00     0.189 C 
BRANCH  13  14
HETATM   14  C12 UNL     1     -13.400  14.503 -25.254  1.00  0.00    -0.038 A 
HETATM   15  C13 UNL     1     -14.164  13.485 -25.774  1.00  0.00     0.011 A 
HETATM   16  C14 UNL     1     -13.785  12.794 -26.934  1.00  0.00     0.030 A 
HETATM   17  C15 UNL     1     -12.627  13.101 -27.606  1.00  0.00     0.030 A 
HETATM   18  C20 UNL     1     -11.865  14.134 -27.066  1.00  0.00     0.030 A 
HETATM   19  C21 UNL     1     -12.232  14.818 -25.926  1.00  0.00     0.011 A 
BRANCH  17  20
HETATM   20  N6  UNL     1     -12.195  12.436 -28.784  1.00  0.00    -0.377 N 
HETATM   21  C16 UNL     1     -12.271  11.028 -28.964  1.00  0.00     0.149 C 
HETATM   22  C17 UNL     1     -10.861  10.513 -29.165  1.00  0.00     0.187 C 
HETATM   23  O1  UNL     1     -10.155  11.313 -30.029  1.00  0.00    -0.388 OA
HETATM   24  C18 UNL     1     -10.941  12.177 -30.783  1.00  0.00     0.187 C 
HETATM   25  C19 UNL     1     -11.629  13.200 -29.905  1.00  0.00     0.149 C 
ENDBRANCH  17  20
ENDBRANCH  13  14
ENDBRANCH  12  13
BRANCH   1  26
HETATM   26  N1  UNL     1     -10.022  14.265 -19.558  1.00  0.00    -0.370 N 
ATOM     27  H1  UNL     1      -9.239  14.804 -19.929  1.00  0.00     0.161 HD
BRANCH  26  28
HETATM   28  C5  UNL     1     -10.107  13.916 -18.149  1.00  0.00     0.160 C 
BRANCH  28  29
HETATM   29  C4  UNL     1     -10.138  15.108 -17.287  1.00  0.00    -0.041 A 
HETATM   30  C3  UNL     1      -9.289  15.165 -16.202  1.00  0.00     0.009 A 
HETATM   31  C2  UNL     1      -9.280  16.255 -15.369  1.00  0.00     0.001 A 
HETATM   32  C1  UNL     1     -10.137  17.305 -15.629  1.00  0.00     0.000 A 
HETATM   33  C23 UNL     1     -10.983  17.248 -16.712  1.00  0.00     0.001 A 
HETATM   34  C22 UNL     1     -11.000  16.151 -17.560  1.00  0.00     0.009 A 
ENDBRANCH  28  29
ENDBRANCH  26  28
ENDBRANCH   1  26
TORSDOF 6
ENDMDL
MODEL 5
REMARK VINA RESULT: -9.062274487      3.865     10.089
REMARK  6 active torsions:
REMARK  status: ('A' for Active; 'I' for Inactive)
REMARK    1  A    between atoms: C4_4  and  C5_5 
REMARK    2  A    between atoms: C5_5  and  N1_6 
REMARK    3  A    between atoms: N1_6  and  C6_8 
REMARK    4  A    between atoms: N5_19  and  C11_20 
REMARK    5  A    between atoms: C11_20  and  C12_21 
REMARK    6  A    between atoms: C15_24  and  N6_25 
ROOT
HETATM    1  C6  UNL     1     -10.828  13.931 -19.875  1.00  0.00     0.132 A 
HETATM    2  N2  UNL     1     -11.277  12.662 -19.874  1.00  0.00    -0.351 N 
ATOM      3  H2  UNL     1     -10.861  12.009 -19.210  1.00  0.00     0.166 HD
HETATM    4  C7  UNL     1     -12.232  12.204 -20.686  1.00  0.00     0.092 A 
HETATM    5  C8  UNL     1     -12.837  13.048 -21.613  1.00  0.00     0.051 A 
HETATM    6  C9  UNL     1     -12.405  14.353 -21.644  1.00  0.00     0.085 A 
HETATM    7  C10 UNL     1     -11.420  14.784 -20.792  1.00  0.00     0.121 A 
HETATM    8  N3  UNL     1     -11.225  16.079 -21.067  1.00  0.00    -0.280 N 
ATOM      9  H3  UNL     1     -10.557  16.699 -20.608  1.00  0.00     0.188 HD
HETATM   10  N4  UNL     1     -12.063  16.411 -22.048  1.00  0.00    -0.239 N 
ATOM     11  H4  UNL     1     -12.133  17.342 -22.460  1.00  0.00     0.208 HD
HETATM   12  N5  UNL     1     -12.788  15.376 -22.412  1.00  0.00    -0.271 N 
ENDROOT
BRANCH  12  13
HETATM   13  C11 UNL     1     -13.799  15.371 -23.441  1.00  0.00     0.189 C 
BRANCH  13  14
HETATM   14  C12 UNL     1     -13.237  15.390 -24.820  1.00  0.00    -0.038 A 
HETATM   15  C13 UNL     1     -12.320  14.449 -25.229  1.00  0.00     0.011 A 
HETATM   16  C14 UNL     1     -11.786  14.452 -26.526  1.00  0.00     0.030 A 
HETATM   17  C15 UNL     1     -12.153  15.399 -27.451  1.00  0.00     0.030 A 
HETATM   18  C20 UNL     1     -13.082  16.343 -27.021  1.00  0.00     0.030 A 
HETATM   19  C21 UNL     1     -13.611  16.346 -25.748  1.00  0.00     0.011 A 
BRANCH  17  20
HETATM   20  N6  UNL     1     -11.645  15.449 -28.776  1.00  0.00    -0.377 N 
HETATM   21  C16 UNL     1     -10.384  16.011 -29.114  1.00  0.00     0.149 C 
HETATM   22  C17 UNL     1     -10.634  17.165 -30.062  1.00  0.00     0.187 C 
HETATM   23  O1  UNL     1     -11.555  16.831 -31.024  1.00  0.00    -0.388 OA
HETATM   24  C18 UNL     1     -11.788  15.467 -31.146  1.00  0.00     0.187 C 
HETATM   25  C19 UNL     1     -12.430  14.906 -29.895  1.00  0.00     0.149 C 
ENDBRANCH  17  20
ENDBRANCH  13  14
ENDBRANCH  12  13
BRANCH   1  26
HETATM   26  N1  UNL     1      -9.901  14.352 -19.077  1.00  0.00    -0.370 N 
ATOM     27  H1  UNL     1      -9.074  14.837 -19.427  1.00  0.00     0.161 HD
BRANCH  26  28
HETATM   28  C5  UNL     1     -10.093  14.102 -17.657  1.00  0.00     0.160 C 
BRANCH  28  29
HETATM   29  C4  UNL     1     -10.097  15.348 -16.874  1.00  0.00    -0.041 A 
HETATM   30  C3  UNL     1     -10.960  16.360 -17.240  1.00  0.00     0.009 A 
HETATM   31  C2  UNL     1     -11.001  17.539 -16.540  1.00  0.00     0.001 A 
HETATM   32  C1  UNL     1     -10.163  17.707 -15.457  1.00  0.00     0.000 A 
HETATM   33  C23 UNL     1      -9.303  16.696 -15.093  1.00  0.00     0.001 A 
HETATM   34  C22 UNL     1      -9.254  15.500 -15.791  1.00  0.00     0.009 A 
ENDBRANCH  28  29
ENDBRANCH  26  28
ENDBRANCH   1  26
TORSDOF 6
ENDMDL
