MODEL 1
REMARK VINA RESULT: -7.745301474      0.000      0.000
REMARK  11 active torsions:
REMARK  status: ('A' for Active; 'I' for Inactive)
REMARK    1  A    between atoms: O1_1  and  N1_3 
REMARK    2  A    between atoms: C1_5  and  O2_6 
REMARK    3  A    between atoms: C1_5  and  C2_8 
REMARK    4  A    between atoms: C3_9  and  C4_10 
REMARK    5  A    between atoms: C4_10  and  C5_11 
REMARK    6  A    between atoms: C5_11  and  C6_12 
REMARK    7  A    between atoms: C6_12  and  O3_13 
REMARK    8  A    between atoms: O3_13  and  C7_14 
REMARK    9  A    between atoms: C7_14  and  C8_15 
REMARK   10  A    between atoms: C8_15  and  N2_16 
REMARK   11  A    between atoms: N2_16  and  C9_17 
ROOT
HETATM    1  C9  UNL     1      10.701  14.325   8.956  1.00  0.00     0.209 A 
HETATM    2  C10 UNL     1      11.069  15.667   8.764  1.00  0.00     0.025 A 
HETATM    3  C11 UNL     1      10.081  16.641   8.656  1.00  0.00     0.022 A 
HETATM    4  N3  UNL     1       8.811  16.257   8.741  1.00  0.00    -0.344 N 
ATOM      5  H3  UNL     1       8.076  16.960   8.666  1.00  0.00     0.167 HD
HETATM    6  C12 UNL     1       8.461  14.960   8.926  1.00  0.00     0.131 A 
HETATM    7  C13 UNL     1       7.214  14.330   9.040  1.00  0.00     0.069 A 
HETATM    8  C14 UNL     1       7.435  12.985   9.216  1.00  0.00     0.111 A 
HETATM    9  N4  UNL     1       8.748  12.814   9.207  1.00  0.00    -0.301 N 
ATOM     10  H4  UNL     1       9.226  11.919   9.316  1.00  0.00     0.186 HD
HETATM   11  N5  UNL     1       9.351  13.998   9.034  1.00  0.00    -0.211 N 
HETATM   12  C15 UNL     1      10.366  18.080   8.440  1.00  0.00     0.058 C 
HETATM   13  C16 UNL     1       9.358  18.829   7.644  1.00  0.00     0.006 C 
HETATM   14  C17 UNL     1       9.927  19.415   6.332  1.00  0.00     0.000 C 
HETATM   15  C18 UNL     1      10.846  18.381   5.811  1.00  0.00     0.000 C 
HETATM   16  C19 UNL     1      10.901  18.166   4.324  1.00  0.00     0.000 C 
HETATM   17  C20 UNL     1      11.343  16.687   4.194  1.00  0.00     0.000 C 
HETATM   18  C21 UNL     1      12.572  16.391   4.970  1.00  0.00     0.000 C 
HETATM   19  C22 UNL     1      12.415  15.551   6.197  1.00  0.00     0.000 C 
HETATM   20  C23 UNL     1      13.140  16.091   7.379  1.00  0.00     0.005 C 
HETATM   21  C24 UNL     1      12.504  16.035   8.700  1.00  0.00     0.046 C 
ENDROOT
BRANCH   1  22
HETATM   22  N2  UNL     1      11.497  13.398   9.070  1.00  0.00    -0.399 NA
BRANCH  22  23
HETATM   23  C8  UNL     1      12.319  12.386   8.767  1.00  0.00     0.183 C 
BRANCH  23  24
HETATM   24  C7  UNL     1      13.801  12.648   8.602  1.00  0.00     0.226 C 
BRANCH  24  25
HETATM   25  O3  UNL     1      14.684  12.159   9.426  1.00  0.00    -0.385 OA
BRANCH  25  26
HETATM   26  C6  UNL     1      14.686  11.051  10.143  1.00  0.00     0.168 C 
BRANCH  26  27
HETATM   27  C5  UNL     1      15.403  11.033  11.466  1.00  0.00     0.030 C 
BRANCH  27  28
HETATM   28  C4  UNL     1      14.396  10.754  12.603  1.00  0.00     0.029 C 
BRANCH  28  29
HETATM   29  C3  UNL     1      13.030  10.640  12.077  1.00  0.00    -0.022 C 
HETATM   30  C2  UNL     1      12.014  11.007  12.807  1.00  0.00     0.053 C 
BRANCH  30  31
HETATM   31  C1  UNL     1      10.650  10.884  12.259  1.00  0.00     0.159 C 
HETATM   32  N1  UNL     1       9.704  10.337  12.932  1.00  0.00    -0.248 N 
ATOM     33  H1  UNL     1       9.891   9.976  13.868  1.00  0.00     0.196 HD
BRANCH  32  34
HETATM   34  O1  UNL     1       8.462  10.234  12.411  1.00  0.00    -0.288 OA
ATOM     35  H1  UNL     1       7.854   9.581  12.738  1.00  0.00     0.244 HD
ENDBRANCH  32  34
BRANCH  31  36
HETATM   36  O2  UNL     1      10.363  11.364  10.989  1.00  0.00    -0.345 OA
ATOM     37  H2  UNL     1      10.614  12.255  10.775  1.00  0.00     0.219 HD
ENDBRANCH  31  36
ENDBRANCH  30  31
ENDBRANCH  28  29
ENDBRANCH  27  28
ENDBRANCH  26  27
ENDBRANCH  25  26
ENDBRANCH  24  25
ENDBRANCH  23  24
ENDBRANCH  22  23
ENDBRANCH   1  22
TORSDOF 11
ENDMDL
MODEL 2
REMARK VINA RESULT: -7.306612203      2.123      2.921
REMARK  11 active torsions:
REMARK  status: ('A' for Active; 'I' for Inactive)
REMARK    1  A    between atoms: O1_1  and  N1_3 
REMARK    2  A    between atoms: C1_5  and  O2_6 
REMARK    3  A    between atoms: C1_5  and  C2_8 
REMARK    4  A    between atoms: C3_9  and  C4_10 
REMARK    5  A    between atoms: C4_10  and  C5_11 
REMARK    6  A    between atoms: C5_11  and  C6_12 
REMARK    7  A    between atoms: C6_12  and  O3_13 
REMARK    8  A    between atoms: O3_13  and  C7_14 
REMARK    9  A    between atoms: C7_14  and  C8_15 
REMARK   10  A    between atoms: C8_15  and  N2_16 
REMARK   11  A    between atoms: N2_16  and  C9_17 
ROOT
HETATM    1  C9  UNL     1      10.556  14.415   9.028  1.00  0.00     0.209 A 
HETATM    2  C10 UNL     1      10.958  15.744   8.811  1.00  0.00     0.025 A 
HETATM    3  C11 UNL     1       9.995  16.736   8.659  1.00  0.00     0.022 A 
HETATM    4  N3  UNL     1       8.715  16.382   8.728  1.00  0.00    -0.344 N 
ATOM      5  H3  UNL     1       7.998  17.099   8.620  1.00  0.00     0.167 HD
HETATM    6  C12 UNL     1       8.332  15.099   8.938  1.00  0.00     0.131 A 
HETATM    7  C13 UNL     1       7.069  14.500   9.041  1.00  0.00     0.069 A 
HETATM    8  C14 UNL     1       7.256  13.155   9.254  1.00  0.00     0.111 A 
HETATM    9  N4  UNL     1       8.565  12.954   9.277  1.00  0.00    -0.301 N 
ATOM     10  H4  UNL     1       9.020  12.053   9.417  1.00  0.00     0.186 HD
HETATM   11  N5  UNL     1       9.198  14.120   9.087  1.00  0.00    -0.211 N 
HETATM   12  C15 UNL     1      10.317  18.163   8.413  1.00  0.00     0.058 C 
HETATM   13  C16 UNL     1       9.342  18.914   7.579  1.00  0.00     0.006 C 
HETATM   14  C17 UNL     1       9.951  19.453   6.265  1.00  0.00     0.000 C 
HETATM   15  C18 UNL     1      10.856  18.387   5.788  1.00  0.00     0.000 C 
HETATM   16  C19 UNL     1      10.936  18.133   4.309  1.00  0.00     0.000 C 
HETATM   17  C20 UNL     1      11.347  16.642   4.224  1.00  0.00     0.000 C 
HETATM   18  C21 UNL     1      12.553  16.338   5.032  1.00  0.00     0.000 C 
HETATM   19  C22 UNL     1      12.352  15.533   6.276  1.00  0.00     0.000 C 
HETATM   20  C23 UNL     1      13.065  16.087   7.459  1.00  0.00     0.005 C 
HETATM   21  C24 UNL     1      12.402  16.077   8.768  1.00  0.00     0.046 C 
ENDROOT
BRANCH   1  22
HETATM   22  N2  UNL     1      11.329  13.473   9.182  1.00  0.00    -0.399 NA
BRANCH  22  23
HETATM   23  C8  UNL     1      12.109  12.417   8.924  1.00  0.00     0.183 C 
BRANCH  23  24
HETATM   24  C7  UNL     1      13.594  12.495   9.212  1.00  0.00     0.226 C 
BRANCH  24  25
HETATM   25  O3  UNL     1      14.452  12.877   8.308  1.00  0.00    -0.385 OA
BRANCH  25  26
HETATM   26  C6  UNL     1      14.551  12.587   7.025  1.00  0.00     0.168 C 
BRANCH  26  27
HETATM   27  C5  UNL     1      15.554  11.556   6.580  1.00  0.00     0.030 C 
BRANCH  27  28
HETATM   28  C4  UNL     1      14.824  10.260   6.169  1.00  0.00     0.029 C 
BRANCH  28  29
HETATM   29  C3  UNL     1      14.246   9.590   7.341  1.00  0.00    -0.022 C 
HETATM   30  C2  UNL     1      15.018   9.177   8.307  1.00  0.00     0.053 C 
BRANCH  30  31
HETATM   31  C1  UNL     1      14.416   8.506   9.475  1.00  0.00     0.159 C 
HETATM   32  N1  UNL     1      14.760   7.318   9.817  1.00  0.00    -0.248 N 
ATOM     33  H1  UNL     1      15.466   6.820   9.274  1.00  0.00     0.196 HD
BRANCH  32  34
HETATM   34  O1  UNL     1      14.196   6.723  10.890  1.00  0.00    -0.288 OA
ATOM     35  H1  UNL     1      13.258   6.575  10.922  1.00  0.00     0.244 HD
ENDBRANCH  32  34
BRANCH  31  36
HETATM   36  O2  UNL     1      13.453   9.157  10.233  1.00  0.00    -0.345 OA
ATOM     37  H2  UNL     1      12.769   9.636   9.780  1.00  0.00     0.219 HD
ENDBRANCH  31  36
ENDBRANCH  30  31
ENDBRANCH  28  29
ENDBRANCH  27  28
ENDBRANCH  26  27
ENDBRANCH  25  26
ENDBRANCH  24  25
ENDBRANCH  23  24
ENDBRANCH  22  23
ENDBRANCH   1  22
TORSDOF 11
ENDMDL
MODEL 3
REMARK VINA RESULT: -7.284373750      3.517      7.238
REMARK  11 active torsions:
REMARK  status: ('A' for Active; 'I' for Inactive)
REMARK    1  A    between atoms: O1_1  and  N1_3 
REMARK    2  A    between atoms: C1_5  and  O2_6 
REMARK    3  A    between atoms: C1_5  and  C2_8 
REMARK    4  A    between atoms: C3_9  and  C4_10 
REMARK    5  A    between atoms: C4_10  and  C5_11 
REMARK    6  A    between atoms: C5_11  and  C6_12 
REMARK    7  A    between atoms: C6_12  and  O3_13 
REMARK    8  A    between atoms: O3_13  and  C7_14 
REMARK    9  A    between atoms: C7_14  and  C8_15 
REMARK   10  A    between atoms: C8_15  and  N2_16 
REMARK   11  A    between atoms: N2_16  and  C9_17 
ROOT
HETATM    1  C9  UNL     1      12.418  11.268  10.446  1.00  0.00     0.209 A 
HETATM    2  C10 UNL     1      13.445  11.121   9.499  1.00  0.00     0.025 A 
HETATM    3  C11 UNL     1      14.704  10.698   9.913  1.00  0.00     0.022 A 
HETATM    4  N3  UNL     1      14.886  10.444  11.206  1.00  0.00    -0.344 N 
ATOM      5  H3  UNL     1      15.804  10.131  11.524  1.00  0.00     0.167 HD
HETATM    6  C12 UNL     1      13.891  10.588  12.116  1.00  0.00     0.131 A 
HETATM    7  C13 UNL     1      13.850  10.388  13.503  1.00  0.00     0.069 A 
HETATM    8  C14 UNL     1      12.580  10.686  13.934  1.00  0.00     0.111 A 
HETATM    9  N4  UNL     1      11.891  11.047  12.862  1.00  0.00    -0.301 N 
ATOM     10  H4  UNL     1      10.911  11.329  12.859  1.00  0.00     0.186 HD
HETATM   11  N5  UNL     1      12.683  10.985  11.782  1.00  0.00    -0.211 N 
HETATM   12  C15 UNL     1      15.856  10.525   8.995  1.00  0.00     0.058 C 
HETATM   13  C16 UNL     1      17.196  10.801   9.576  1.00  0.00     0.006 C 
HETATM   14  C17 UNL     1      17.935  11.966   8.880  1.00  0.00     0.000 C 
HETATM   15  C18 UNL     1      16.892  12.974   8.595  1.00  0.00     0.000 C 
HETATM   16  C19 UNL     1      17.250  14.426   8.740  1.00  0.00     0.000 C 
HETATM   17  C20 UNL     1      15.891  15.098   9.060  1.00  0.00     0.000 C 
HETATM   18  C21 UNL     1      14.840  14.753   8.072  1.00  0.00     0.000 C 
HETATM   19  C22 UNL     1      13.751  13.838   8.531  1.00  0.00     0.000 C 
HETATM   20  C23 UNL     1      13.450  12.747   7.565  1.00  0.00     0.005 C 
HETATM   21  C24 UNL     1      13.172  11.397   8.069  1.00  0.00     0.046 C 
ENDROOT
BRANCH   1  22
HETATM   22  N2  UNL     1      11.275  11.627  10.179  1.00  0.00    -0.399 NA
BRANCH  22  23
HETATM   23  C8  UNL     1      10.161  12.365  10.105  1.00  0.00     0.183 C 
BRANCH  23  24
HETATM   24  C7  UNL     1      10.117  13.565   9.182  1.00  0.00     0.226 C 
BRANCH  24  25
HETATM   25  O3  UNL     1       9.051  14.306   9.062  1.00  0.00    -0.385 OA
BRANCH  25  26
HETATM   26  C6  UNL     1       8.223  14.791   9.967  1.00  0.00     0.168 C 
BRANCH  26  27
HETATM   27  C5  UNL     1       6.754  14.873   9.650  1.00  0.00     0.030 C 
BRANCH  27  28
HETATM   28  C4  UNL     1       6.303  13.587   8.926  1.00  0.00     0.029 C 
BRANCH  28  29
HETATM   29  C3  UNL     1       4.956  13.189   9.353  1.00  0.00    -0.022 C 
HETATM   30  C2  UNL     1       4.749  11.999   9.845  1.00  0.00     0.053 C 
BRANCH  30  31
HETATM   31  C1  UNL     1       3.387  11.620  10.268  1.00  0.00     0.159 C 
HETATM   32  N1  UNL     1       3.084  11.488  11.508  1.00  0.00    -0.248 N 
ATOM     33  H1  UNL     1       3.794  11.648  12.223  1.00  0.00     0.196 HD
BRANCH  32  34
HETATM   34  O1  UNL     1       1.831  11.141  11.874  1.00  0.00    -0.288 OA
ATOM     35  H1  UNL     1       1.504  10.264  11.704  1.00  0.00     0.244 HD
ENDBRANCH  32  34
BRANCH  31  36
HETATM   36  O2  UNL     1       2.399  11.395   9.320  1.00  0.00    -0.345 OA
ATOM     37  H2  UNL     1       2.284  12.036   8.628  1.00  0.00     0.219 HD
ENDBRANCH  31  36
ENDBRANCH  30  31
ENDBRANCH  28  29
ENDBRANCH  27  28
ENDBRANCH  26  27
ENDBRANCH  25  26
ENDBRANCH  24  25
ENDBRANCH  23  24
ENDBRANCH  22  23
ENDBRANCH   1  22
TORSDOF 11
ENDMDL
MODEL 4
REMARK VINA RESULT: -7.272970021      1.924      3.346
REMARK  11 active torsions:
REMARK  status: ('A' for Active; 'I' for Inactive)
REMARK    1  A    between atoms: O1_1  and  N1_3 
REMARK    2  A    between atoms: C1_5  and  O2_6 
REMARK    3  A    between atoms: C1_5  and  C2_8 
REMARK    4  A    between atoms: C3_9  and  C4_10 
REMARK    5  A    between atoms: C4_10  and  C5_11 
REMARK    6  A    between atoms: C5_11  and  C6_12 
REMARK    7  A    between atoms: C6_12  and  O3_13 
REMARK    8  A    between atoms: O3_13  and  C7_14 
REMARK    9  A    between atoms: C7_14  and  C8_15 
REMARK   10  A    between atoms: C8_15  and  N2_16 
REMARK   11  A    between atoms: N2_16  and  C9_17 
ROOT
HETATM    1  C9  UNL     1      10.500  14.040   8.988  1.00  0.00     0.209 A 
HETATM    2  C10 UNL     1      10.910  15.376   8.844  1.00  0.00     0.025 A 
HETATM    3  C11 UNL     1       9.953  16.384   8.785  1.00  0.00     0.022 A 
HETATM    4  N3  UNL     1       8.672  16.038   8.870  1.00  0.00    -0.344 N 
ATOM      5  H3  UNL     1       7.959  16.767   8.830  1.00  0.00     0.167 HD
HETATM    6  C12 UNL     1       8.282  14.747   9.008  1.00  0.00     0.131 A 
HETATM    7  C13 UNL     1       7.015  14.153   9.111  1.00  0.00     0.069 A 
HETATM    8  C14 UNL     1       7.194  12.796   9.232  1.00  0.00     0.111 A 
HETATM    9  N4  UNL     1       8.501  12.583   9.202  1.00  0.00    -0.301 N 
ATOM     10  H4  UNL     1       8.951  11.670   9.270  1.00  0.00     0.186 HD
HETATM   11  N5  UNL     1       9.141  13.753   9.069  1.00  0.00    -0.211 N 
HETATM   12  C15 UNL     1      10.283  17.821   8.622  1.00  0.00     0.058 C 
HETATM   13  C16 UNL     1       9.292  18.632   7.867  1.00  0.00     0.006 C 
HETATM   14  C17 UNL     1       9.867  19.250   6.573  1.00  0.00     0.000 C 
HETATM   15  C18 UNL     1      10.746  18.209   6.001  1.00  0.00     0.000 C 
HETATM   16  C19 UNL     1      10.780  18.050   4.507  1.00  0.00     0.000 C 
HETATM   17  C20 UNL     1      11.172  16.564   4.315  1.00  0.00     0.000 C 
HETATM   18  C21 UNL     1      12.398  16.198   5.065  1.00  0.00     0.000 C 
HETATM   19  C22 UNL     1      12.226  15.317   6.260  1.00  0.00     0.000 C 
HETATM   20  C23 UNL     1      12.979  15.787   7.454  1.00  0.00     0.005 C 
HETATM   21  C24 UNL     1      12.355  15.699   8.779  1.00  0.00     0.046 C 
ENDROOT
BRANCH   1  22
HETATM   22  N2  UNL     1      11.266  13.083   9.057  1.00  0.00    -0.399 NA
BRANCH  22  23
HETATM   23  C8  UNL     1      12.065  12.130   9.551  1.00  0.00     0.183 C 
BRANCH  23  24
HETATM   24  C7  UNL     1      11.585  11.273  10.704  1.00  0.00     0.226 C 
BRANCH  24  25
HETATM   25  O3  UNL     1      12.354  10.389  11.274  1.00  0.00    -0.385 OA
BRANCH  25  26
HETATM   26  C6  UNL     1      13.517  10.512  11.885  1.00  0.00     0.168 C 
BRANCH  26  27
HETATM   27  C5  UNL     1      14.771  10.086  11.170  1.00  0.00     0.030 C 
BRANCH  27  28
HETATM   28  C4  UNL     1      14.432   9.010  10.116  1.00  0.00     0.029 C 
BRANCH  28  29
HETATM   29  C3  UNL     1      14.836   9.444   8.773  1.00  0.00    -0.022 C 
HETATM   30  C2  UNL     1      13.934   9.784   7.895  1.00  0.00     0.053 C 
BRANCH  30  31
HETATM   31  C1  UNL     1      14.362  10.218   6.552  1.00  0.00     0.159 C 
HETATM   32  N1  UNL     1      14.648   9.369   5.633  1.00  0.00    -0.248 N 
ATOM     33  H1  UNL     1      14.579   8.370   5.828  1.00  0.00     0.196 HD
BRANCH  32  34
HETATM   34  O1  UNL     1      15.038   9.788   4.410  1.00  0.00    -0.288 OA
ATOM     35  H1  UNL     1      15.937   9.675   4.125  1.00  0.00     0.244 HD
ENDBRANCH  32  34
BRANCH  31  36
HETATM   36  O2  UNL     1      14.465  11.570   6.255  1.00  0.00    -0.345 OA
ATOM     37  H2  UNL     1      15.157  12.072   6.671  1.00  0.00     0.219 HD
ENDBRANCH  31  36
ENDBRANCH  30  31
ENDBRANCH  28  29
ENDBRANCH  27  28
ENDBRANCH  26  27
ENDBRANCH  25  26
ENDBRANCH  24  25
ENDBRANCH  23  24
ENDBRANCH  22  23
ENDBRANCH   1  22
TORSDOF 11
ENDMDL
MODEL 5
REMARK VINA RESULT: -7.224565403      2.164      2.813
REMARK  11 active torsions:
REMARK  status: ('A' for Active; 'I' for Inactive)
REMARK    1  A    between atoms: O1_1  and  N1_3 
REMARK    2  A    between atoms: C1_5  and  O2_6 
REMARK    3  A    between atoms: C1_5  and  C2_8 
REMARK    4  A    between atoms: C3_9  and  C4_10 
REMARK    5  A    between atoms: C4_10  and  C5_11 
REMARK    6  A    between atoms: C5_11  and  C6_12 
REMARK    7  A    between atoms: C6_12  and  O3_13 
REMARK    8  A    between atoms: O3_13  and  C7_14 
REMARK    9  A    between atoms: C7_14  and  C8_15 
REMARK   10  A    between atoms: C8_15  and  N2_16 
REMARK   11  A    between atoms: N2_16  and  C9_17 
ROOT
HETATM    1  C9  UNL     1      10.556  14.479   9.014  1.00  0.00     0.209 A 
HETATM    2  C10 UNL     1      10.956  15.807   8.788  1.00  0.00     0.025 A 
HETATM    3  C11 UNL     1       9.992  16.797   8.631  1.00  0.00     0.022 A 
HETATM    4  N3  UNL     1       8.712  16.442   8.703  1.00  0.00    -0.344 N 
ATOM      5  H3  UNL     1       7.994  17.157   8.591  1.00  0.00     0.167 HD
HETATM    6  C12 UNL     1       8.331  15.159   8.921  1.00  0.00     0.131 A 
HETATM    7  C13 UNL     1       7.069  14.559   9.029  1.00  0.00     0.069 A 
HETATM    8  C14 UNL     1       7.258  13.216   9.250  1.00  0.00     0.111 A 
HETATM    9  N4  UNL     1       8.567  13.017   9.273  1.00  0.00    -0.301 N 
ATOM     10  H4  UNL     1       9.023  12.117   9.418  1.00  0.00     0.186 HD
HETATM   11  N5  UNL     1       9.198  14.182   9.076  1.00  0.00    -0.211 N 
HETATM   12  C15 UNL     1      10.311  18.222   8.376  1.00  0.00     0.058 C 
HETATM   13  C16 UNL     1       9.335  18.967   7.538  1.00  0.00     0.006 C 
HETATM   14  C17 UNL     1       9.942  19.499   6.221  1.00  0.00     0.000 C 
HETATM   15  C18 UNL     1      10.848  18.431   5.750  1.00  0.00     0.000 C 
HETATM   16  C19 UNL     1      10.927  18.169   4.272  1.00  0.00     0.000 C 
HETATM   17  C20 UNL     1      11.340  16.677   4.196  1.00  0.00     0.000 C 
HETATM   18  C21 UNL     1      12.547  16.380   5.005  1.00  0.00     0.000 C 
HETATM   19  C22 UNL     1      12.349  15.583   6.254  1.00  0.00     0.000 C 
HETATM   20  C23 UNL     1      13.062  16.144   7.433  1.00  0.00     0.005 C 
HETATM   21  C24 UNL     1      12.400  16.142   8.742  1.00  0.00     0.046 C 
ENDROOT
BRANCH   1  22
HETATM   22  N2  UNL     1      11.330  13.539   9.172  1.00  0.00    -0.399 NA
BRANCH  22  23
HETATM   23  C8  UNL     1      12.166  12.526   8.915  1.00  0.00     0.183 C 
BRANCH  23  24
HETATM   24  C7  UNL     1      12.754  12.374   7.528  1.00  0.00     0.226 C 
BRANCH  24  25
HETATM   25  O3  UNL     1      14.015  12.598   7.285  1.00  0.00    -0.385 OA
BRANCH  25  26
HETATM   26  C6  UNL     1      14.948  11.832   6.753  1.00  0.00     0.168 C 
BRANCH  26  27
HETATM   27  C5  UNL     1      14.541  10.581   6.020  1.00  0.00     0.030 C 
BRANCH  27  28
HETATM   28  C4  UNL     1      15.102   9.342   6.749  1.00  0.00     0.029 C 
BRANCH  28  29
HETATM   29  C3  UNL     1      14.552   9.238   8.106  1.00  0.00    -0.022 C 
HETATM   30  C2  UNL     1      15.166   8.526   9.010  1.00  0.00     0.053 C 
BRANCH  30  31
HETATM   31  C1  UNL     1      14.595   8.436  10.367  1.00  0.00     0.159 C 
HETATM   32  N1  UNL     1      14.490   9.469  11.120  1.00  0.00    -0.248 N 
ATOM     33  H1  UNL     1      14.806  10.378  10.780  1.00  0.00     0.196 HD
BRANCH  32  34
HETATM   34  O1  UNL     1      13.965   9.364  12.360  1.00  0.00    -0.288 OA
ATOM     35  H1  UNL     1      14.387   8.826  13.019  1.00  0.00     0.244 HD
ENDBRANCH  32  34
BRANCH  31  36
HETATM   36  O2  UNL     1      14.157   7.215  10.860  1.00  0.00    -0.345 OA
ATOM     37  H2  UNL     1      13.224   7.088  10.987  1.00  0.00     0.219 HD
ENDBRANCH  31  36
ENDBRANCH  30  31
ENDBRANCH  28  29
ENDBRANCH  27  28
ENDBRANCH  26  27
ENDBRANCH  25  26
ENDBRANCH  24  25
ENDBRANCH  23  24
ENDBRANCH  22  23
ENDBRANCH   1  22
TORSDOF 11
ENDMDL
