MODEL 1
REMARK VINA RESULT: -6.414208877      0.000      0.000
REMARK  13 active torsions:
REMARK  status: ('A' for Active; 'I' for Inactive)
REMARK    1  A    between atoms: C3_3  and  C4_4 
REMARK    2  A    between atoms: C4_4  and  C5_5 
REMARK    3  A    between atoms: C4_4  and  O2_10 
REMARK    4  A    between atoms: C5_5  and  C6_6 
REMARK    5  A    between atoms: C6_6  and  O1_7 
REMARK    6  A    between atoms: O2_10  and  C7_11 
REMARK    7  A    between atoms: C7_11  and  C8_13 
REMARK    8  A    between atoms: C8_13  and  C9_14 
REMARK    9  A    between atoms: C9_14  and  C10_15 
REMARK   10  A    between atoms: C10_15  and  O4_16 
REMARK   11  A    between atoms: C10_15  and  C11_18 
REMARK   12  A    between atoms: C11_18  and  O5_19 
REMARK   13  A    between atoms: C16_25  and  C17_26 
ROOT
HETATM    1  C11 UNL     1      15.026  11.495   6.937  1.00  0.00     0.092 C 
HETATM    2  C12 UNL     1      14.168  10.449   6.258  1.00  0.00     0.042 C 
HETATM    3  C13 UNL     1      15.106   9.246   6.124  1.00  0.00     0.012 C 
HETATM    4  C14 UNL     1      16.208   9.533   7.109  1.00  0.00     0.020 C 
HETATM    5  C15 UNL     1      16.584   8.329   7.838  1.00  0.00    -0.018 C 
HETATM    6  C16 UNL     1      15.909   7.955   8.906  1.00  0.00    -0.075 C 
HETATM    7  C21 UNL     1      14.770   8.771   9.346  1.00  0.00     0.039 C 
HETATM    8  C22 UNL     1      14.893  10.238   9.130  1.00  0.00    -0.003 C 
HETATM    9  C23 UNL     1      15.375  10.838  10.456  1.00  0.00     0.011 C 
HETATM   10  C24 UNL     1      15.717  10.661   7.981  1.00  0.00    -0.000 C 
HETATM   11  C25 UNL     1      16.943  11.425   8.437  1.00  0.00     0.019 C 
ENDROOT
BRANCH   1  12
HETATM   12  C10 UNL     1      14.298  12.680   7.403  1.00  0.00     0.153 C 
BRANCH  12  13
HETATM   13  C9  UNL     1      12.817  12.581   7.504  1.00  0.00     0.044 C 
BRANCH  13  14
HETATM   14  C8  UNL     1      12.247  12.408   8.868  1.00  0.00     0.114 C 
BRANCH  14  15
HETATM   15  C7  UNL     1      10.979  13.165   9.047  1.00  0.00     0.259 C 
HETATM   16  O3  UNL     1      10.007  12.595   9.595  1.00  0.00    -0.265 OA
BRANCH  15  17
HETATM   17  O2  UNL     1      10.891  14.458   8.619  1.00  0.00    -0.312 OA
BRANCH  17  18
HETATM   18  C4  UNL     1      10.252  15.489   9.356  1.00  0.00     0.161 C 
BRANCH  18  19
HETATM   19  C3  UNL     1       9.018  15.960   8.658  1.00  0.00     0.001 C 
HETATM   20  C2  UNL     1       7.825  15.623   9.079  1.00  0.00    -0.032 C 
HETATM   21  C1  UNL     1       7.552  14.766  10.249  1.00  0.00     0.036 C 
ENDBRANCH  18  19
BRANCH  18  22
HETATM   22  C5  UNL     1      11.202  16.660   9.453  1.00  0.00     0.113 C 
BRANCH  22  23
HETATM   23  C6  UNL     1      12.233  16.565   8.403  1.00  0.00     0.112 C 
HETATM   24  S1  UNL     1      12.054  17.329   6.974  1.00  0.00    -0.058 SA
BRANCH  23  25
HETATM   25  O1  UNL     1      13.384  15.820   8.607  1.00  0.00    -0.354 OA
ATOM     26  H1  UNL     1      13.354  14.871   8.605  1.00  0.00     0.218 HD
ENDBRANCH  23  25
ENDBRANCH  22  23
ENDBRANCH  18  22
ENDBRANCH  17  18
ENDBRANCH  15  17
ENDBRANCH  14  15
ENDBRANCH  13  14
ENDBRANCH  12  13
BRANCH  12  27
HETATM   27  O4  UNL     1      14.613  13.784   6.585  1.00  0.00    -0.393 OA
ATOM     28  H4  UNL     1      15.383  13.566   6.073  1.00  0.00     0.210 HD
ENDBRANCH  12  27
ENDBRANCH   1  12
BRANCH   1  29
HETATM   29  O5  UNL     1      16.014  11.829   6.001  1.00  0.00    -0.386 OA
ATOM     30  H5  UNL     1      16.455  11.057   5.666  1.00  0.00     0.210 HD
ENDBRANCH   1  29
BRANCH   6  31
HETATM   31  C17 UNL     1      16.337   6.715   9.615  1.00  0.00    -0.028 C 
HETATM   32  C18 UNL     1      17.236   5.892   8.752  1.00  0.00     0.019 C 
HETATM   33  C19 UNL     1      15.143   5.888  10.045  1.00  0.00     0.019 C 
HETATM   34  C20 UNL     1      17.113   7.058  10.887  1.00  0.00     0.019 C 
ENDBRANCH   6  31
TORSDOF 13
ENDMDL
MODEL 2
REMARK VINA RESULT: -6.265992705      2.863      7.880
REMARK  13 active torsions:
REMARK  status: ('A' for Active; 'I' for Inactive)
REMARK    1  A    between atoms: C3_3  and  C4_4 
REMARK    2  A    between atoms: C4_4  and  C5_5 
REMARK    3  A    between atoms: C4_4  and  O2_10 
REMARK    4  A    between atoms: C5_5  and  C6_6 
REMARK    5  A    between atoms: C6_6  and  O1_7 
REMARK    6  A    between atoms: O2_10  and  C7_11 
REMARK    7  A    between atoms: C7_11  and  C8_13 
REMARK    8  A    between atoms: C8_13  and  C9_14 
REMARK    9  A    between atoms: C9_14  and  C10_15 
REMARK   10  A    between atoms: C10_15  and  O4_16 
REMARK   11  A    between atoms: C10_15  and  C11_18 
REMARK   12  A    between atoms: C11_18  and  O5_19 
REMARK   13  A    between atoms: C16_25  and  C17_26 
ROOT
HETATM    1  C11 UNL     1      13.858  15.994   7.604  1.00  0.00     0.092 C 
HETATM    2  C12 UNL     1      13.907  16.250   9.096  1.00  0.00     0.042 C 
HETATM    3  C13 UNL     1      12.516  16.807   9.411  1.00  0.00     0.012 C 
HETATM    4  C14 UNL     1      11.683  16.401   8.224  1.00  0.00     0.020 C 
HETATM    5  C15 UNL     1      10.368  15.937   8.643  1.00  0.00    -0.018 C 
HETATM    6  C16 UNL     1      10.189  14.689   9.027  1.00  0.00    -0.075 C 
HETATM    7  C21 UNL     1      11.340  13.776   9.027  1.00  0.00     0.039 C 
HETATM    8  C22 UNL     1      12.349  13.994   7.955  1.00  0.00    -0.003 C 
HETATM    9  C23 UNL     1      12.018  13.001   6.834  1.00  0.00     0.011 C 
HETATM   10  C24 UNL     1      12.492  15.379   7.467  1.00  0.00    -0.000 C 
HETATM   11  C25 UNL     1      12.085  15.491   6.012  1.00  0.00     0.019 C 
ENDROOT
BRANCH   1  12
HETATM   12  C10 UNL     1      14.992  15.232   7.072  1.00  0.00     0.153 C 
BRANCH  12  13
HETATM   13  C9  UNL     1      15.932  14.626   8.053  1.00  0.00     0.044 C 
BRANCH  13  14
HETATM   14  C8  UNL     1      15.901  13.144   8.188  1.00  0.00     0.114 C 
BRANCH  14  15
HETATM   15  C7  UNL     1      16.035  12.457   6.876  1.00  0.00     0.259 C 
HETATM   16  O3  UNL     1      17.112  12.564   6.245  1.00  0.00    -0.265 OA
BRANCH  15  17
HETATM   17  O2  UNL     1      14.994  11.725   6.381  1.00  0.00    -0.312 OA
BRANCH  17  18
HETATM   18  C4  UNL     1      14.893  10.315   6.512  1.00  0.00     0.161 C 
BRANCH  18  19
HETATM   19  C3  UNL     1      14.295   9.706   5.286  1.00  0.00     0.001 C 
HETATM   20  C2  UNL     1      15.027   9.049   4.423  1.00  0.00    -0.032 C 
HETATM   21  C1  UNL     1      16.483   8.834   4.540  1.00  0.00     0.036 C 
ENDBRANCH  18  19
BRANCH  18  22
HETATM   22  C5  UNL     1      13.974  10.012   7.673  1.00  0.00     0.113 C 
BRANCH  22  23
HETATM   23  C6  UNL     1      14.663   9.152   8.653  1.00  0.00     0.112 C 
HETATM   24  S1  UNL     1      16.210   8.688   8.428  1.00  0.00    -0.058 SA
BRANCH  23  25
HETATM   25  O1  UNL     1      14.009   8.715   9.794  1.00  0.00    -0.354 OA
ATOM     26  H1  UNL     1      14.076   7.810  10.074  1.00  0.00     0.218 HD
ENDBRANCH  23  25
ENDBRANCH  22  23
ENDBRANCH  18  22
ENDBRANCH  17  18
ENDBRANCH  15  17
ENDBRANCH  14  15
ENDBRANCH  13  14
ENDBRANCH  12  13
BRANCH  12  27
HETATM   27  O4  UNL     1      15.734  16.038   6.187  1.00  0.00    -0.393 OA
ATOM     28  H4  UNL     1      15.169  16.734   5.872  1.00  0.00     0.210 HD
ENDBRANCH  12  27
ENDBRANCH   1  12
BRANCH   1  29
HETATM   29  O5  UNL     1      13.764  17.262   7.014  1.00  0.00    -0.386 OA
ATOM     30  H5  UNL     1      13.445  17.913   7.628  1.00  0.00     0.210 HD
ENDBRANCH   1  29
BRANCH   6  31
HETATM   31  C17 UNL     1       8.821  14.266   9.444  1.00  0.00    -0.028 C 
HETATM   32  C18 UNL     1       8.645  14.418  10.920  1.00  0.00     0.019 C 
HETATM   33  C19 UNL     1       8.542  12.833   9.041  1.00  0.00     0.019 C 
HETATM   34  C20 UNL     1       7.757  15.127   8.766  1.00  0.00     0.019 C 
ENDBRANCH   6  31
TORSDOF 13
ENDMDL
MODEL 3
REMARK VINA RESULT: -6.206354885      4.820      8.609
REMARK  13 active torsions:
REMARK  status: ('A' for Active; 'I' for Inactive)
REMARK    1  A    between atoms: C3_3  and  C4_4 
REMARK    2  A    between atoms: C4_4  and  C5_5 
REMARK    3  A    between atoms: C4_4  and  O2_10 
REMARK    4  A    between atoms: C5_5  and  C6_6 
REMARK    5  A    between atoms: C6_6  and  O1_7 
REMARK    6  A    between atoms: O2_10  and  C7_11 
REMARK    7  A    between atoms: C7_11  and  C8_13 
REMARK    8  A    between atoms: C8_13  and  C9_14 
REMARK    9  A    between atoms: C9_14  and  C10_15 
REMARK   10  A    between atoms: C10_15  and  O4_16 
REMARK   11  A    between atoms: C10_15  and  C11_18 
REMARK   12  A    between atoms: C11_18  and  O5_19 
REMARK   13  A    between atoms: C16_25  and  C17_26 
ROOT
HETATM    1  C11 UNL     1      12.787  15.762   8.360  1.00  0.00     0.092 C 
HETATM    2  C12 UNL     1      11.748  16.089   9.412  1.00  0.00     0.042 C 
HETATM    3  C13 UNL     1      11.809  17.615   9.516  1.00  0.00     0.012 C 
HETATM    4  C14 UNL     1      12.502  18.039   8.248  1.00  0.00     0.020 C 
HETATM    5  C15 UNL     1      11.868  19.219   7.677  1.00  0.00    -0.018 C 
HETATM    6  C16 UNL     1      10.808  19.101   6.901  1.00  0.00    -0.075 C 
HETATM    7  C21 UNL     1      10.278  17.759   6.626  1.00  0.00     0.039 C 
HETATM    8  C22 UNL     1      11.281  16.664   6.537  1.00  0.00    -0.003 C 
HETATM    9  C23 UNL     1      11.577  16.461   5.046  1.00  0.00     0.011 C 
HETATM   10  C24 UNL     1      12.506  16.834   7.343  1.00  0.00    -0.000 C 
HETATM   11  C25 UNL     1      13.730  16.957   6.459  1.00  0.00     0.019 C 
ENDROOT
BRANCH   1  12
HETATM   12  C10 UNL     1      12.772  14.374   7.889  1.00  0.00     0.153 C 
BRANCH  12  13
HETATM   13  C9  UNL     1      12.098  13.365   8.751  1.00  0.00     0.044 C 
BRANCH  13  14
HETATM   14  C8  UNL     1      10.617  13.269   8.639  1.00  0.00     0.114 C 
BRANCH  14  15
HETATM   15  C7  UNL     1      10.020  12.475   9.747  1.00  0.00     0.259 C 
HETATM   16  O3  UNL     1      10.774  11.786  10.472  1.00  0.00    -0.265 OA
BRANCH  15  17
HETATM   17  O2  UNL     1       8.672  12.508   9.958  1.00  0.00    -0.312 OA
BRANCH  17  18
HETATM   18  C4  UNL     1       7.754  13.141   9.080  1.00  0.00     0.161 C 
BRANCH  18  19
HETATM   19  C3  UNL     1       6.878  14.098   9.821  1.00  0.00     0.001 C 
HETATM   20  C2  UNL     1       7.076  15.390   9.764  1.00  0.00    -0.032 C 
HETATM   21  C1  UNL     1       8.150  16.047   8.992  1.00  0.00     0.036 C 
ENDBRANCH  18  19
BRANCH  18  22
HETATM   22  C5  UNL     1       6.867  12.078   8.474  1.00  0.00     0.113 C 
BRANCH  22  23
HETATM   23  C6  UNL     1       5.928  11.564   9.489  1.00  0.00     0.112 C 
HETATM   24  S1  UNL     1       4.371  12.045   9.519  1.00  0.00    -0.058 SA
BRANCH  23  25
HETATM   25  O1  UNL     1       6.350  10.654  10.446  1.00  0.00    -0.354 OA
ATOM     26  H1  UNL     1       7.158  10.794  10.925  1.00  0.00     0.218 HD
ENDBRANCH  23  25
ENDBRANCH  22  23
ENDBRANCH  18  22
ENDBRANCH  17  18
ENDBRANCH  15  17
ENDBRANCH  14  15
ENDBRANCH  13  14
ENDBRANCH  12  13
BRANCH  12  27
HETATM   27  O4  UNL     1      14.091  13.939   7.648  1.00  0.00    -0.393 OA
ATOM     28  H4  UNL     1      14.683  14.649   7.864  1.00  0.00     0.210 HD
ENDBRANCH  12  27
ENDBRANCH   1  12
BRANCH   1  29
HETATM   29  O5  UNL     1      14.019  16.101   8.937  1.00  0.00    -0.386 OA
ATOM     30  H5  UNL     1      14.579  16.562   8.325  1.00  0.00     0.210 HD
ENDBRANCH   1  29
BRANCH   6  31
HETATM   31  C17 UNL     1      10.199  20.342   6.341  1.00  0.00    -0.028 C 
HETATM   32  C18 UNL     1      11.241  21.209   5.713  1.00  0.00     0.019 C 
HETATM   33  C19 UNL     1       9.462  21.122   7.410  1.00  0.00     0.019 C 
HETATM   34  C20 UNL     1       9.174  20.002   5.260  1.00  0.00     0.019 C 
ENDBRANCH   6  31
TORSDOF 13
ENDMDL
MODEL 4
REMARK VINA RESULT: -6.166899394      1.751      2.514
REMARK  13 active torsions:
REMARK  status: ('A' for Active; 'I' for Inactive)
REMARK    1  A    between atoms: C3_3  and  C4_4 
REMARK    2  A    between atoms: C4_4  and  C5_5 
REMARK    3  A    between atoms: C4_4  and  O2_10 
REMARK    4  A    between atoms: C5_5  and  C6_6 
REMARK    5  A    between atoms: C6_6  and  O1_7 
REMARK    6  A    between atoms: O2_10  and  C7_11 
REMARK    7  A    between atoms: C7_11  and  C8_13 
REMARK    8  A    between atoms: C8_13  and  C9_14 
REMARK    9  A    between atoms: C9_14  and  C10_15 
REMARK   10  A    between atoms: C10_15  and  O4_16 
REMARK   11  A    between atoms: C10_15  and  C11_18 
REMARK   12  A    between atoms: C11_18  and  O5_19 
REMARK   13  A    between atoms: C16_25  and  C17_26 
ROOT
HETATM    1  C11 UNL     1      15.119  11.505   6.856  1.00  0.00     0.092 C 
HETATM    2  C12 UNL     1      14.245  10.474   6.173  1.00  0.00     0.042 C 
HETATM    3  C13 UNL     1      15.136   9.230   6.115  1.00  0.00     0.012 C 
HETATM    4  C14 UNL     1      16.209   9.502   7.135  1.00  0.00     0.020 C 
HETATM    5  C15 UNL     1      16.504   8.307   7.914  1.00  0.00    -0.018 C 
HETATM    6  C16 UNL     1      15.771   7.995   8.965  1.00  0.00    -0.075 C 
HETATM    7  C21 UNL     1      14.651   8.871   9.333  1.00  0.00     0.039 C 
HETATM    8  C22 UNL     1      14.845  10.324   9.078  1.00  0.00    -0.003 C 
HETATM    9  C23 UNL     1      15.298  10.945  10.405  1.00  0.00     0.011 C 
HETATM   10  C24 UNL     1      15.731  10.676   7.952  1.00  0.00    -0.000 C 
HETATM   11  C25 UNL     1      16.970  11.402   8.436  1.00  0.00     0.019 C 
ENDROOT
BRANCH   1  12
HETATM   12  C10 UNL     1      14.425  12.733   7.256  1.00  0.00     0.153 C 
BRANCH  12  13
HETATM   13  C9  UNL     1      12.939  12.740   7.172  1.00  0.00     0.044 C 
BRANCH  13  14
HETATM   14  C8  UNL     1      12.220  13.676   8.078  1.00  0.00     0.114 C 
BRANCH  14  15
HETATM   15  C7  UNL     1      11.260  12.971   8.969  1.00  0.00     0.259 C 
HETATM   16  O3  UNL     1      11.702  12.150   9.806  1.00  0.00    -0.265 OA
BRANCH  15  17
HETATM   17  O2  UNL     1       9.923  13.225   8.866  1.00  0.00    -0.312 OA
BRANCH  17  18
HETATM   18  C4  UNL     1       9.343  14.496   9.120  1.00  0.00     0.161 C 
BRANCH  18  19
HETATM   19  C3  UNL     1      10.349  15.439   9.693  1.00  0.00     0.001 C 
HETATM   20  C2  UNL     1      10.550  16.622   9.172  1.00  0.00    -0.032 C 
HETATM   21  C1  UNL     1       9.839  17.160   7.996  1.00  0.00     0.036 C 
ENDBRANCH  18  19
BRANCH  18  22
HETATM   22  C5  UNL     1       8.243  14.318  10.142  1.00  0.00     0.113 C 
BRANCH  22  23
HETATM   23  C6  UNL     1       6.925  14.372   9.482  1.00  0.00     0.112 C 
HETATM   24  S1  UNL     1       6.055  13.019   9.224  1.00  0.00    -0.058 SA
BRANCH  23  25
HETATM   25  O1  UNL     1       6.392  15.582   9.064  1.00  0.00    -0.354 OA
ATOM     26  H1  UNL     1       5.466  15.662   8.869  1.00  0.00     0.218 HD
ENDBRANCH  23  25
ENDBRANCH  22  23
ENDBRANCH  18  22
ENDBRANCH  17  18
ENDBRANCH  15  17
ENDBRANCH  14  15
ENDBRANCH  13  14
ENDBRANCH  12  13
BRANCH  12  27
HETATM   27  O4  UNL     1      14.915  13.822   6.507  1.00  0.00    -0.393 OA
ATOM     28  H4  UNL     1      14.982  14.574   7.083  1.00  0.00     0.210 HD
ENDBRANCH  12  27
ENDBRANCH   1  12
BRANCH   1  29
HETATM   29  O5  UNL     1      16.158  11.767   5.953  1.00  0.00    -0.386 OA
ATOM     30  H5  UNL     1      16.900  11.192   6.093  1.00  0.00     0.210 HD
ENDBRANCH   1  29
BRANCH   6  31
HETATM   31  C17 UNL     1      16.117   6.761   9.728  1.00  0.00    -0.028 C 
HETATM   32  C18 UNL     1      17.045   5.893   8.943  1.00  0.00     0.019 C 
HETATM   33  C19 UNL     1      14.874   5.978  10.098  1.00  0.00     0.019 C 
HETATM   34  C20 UNL     1      16.819   7.114  11.039  1.00  0.00     0.019 C 
ENDBRANCH   6  31
TORSDOF 13
ENDMDL
MODEL 5
REMARK VINA RESULT: -6.131587291      5.143      7.608
REMARK  13 active torsions:
REMARK  status: ('A' for Active; 'I' for Inactive)
REMARK    1  A    between atoms: C3_3  and  C4_4 
REMARK    2  A    between atoms: C4_4  and  C5_5 
REMARK    3  A    between atoms: C4_4  and  O2_10 
REMARK    4  A    between atoms: C5_5  and  C6_6 
REMARK    5  A    between atoms: C6_6  and  O1_7 
REMARK    6  A    between atoms: O2_10  and  C7_11 
REMARK    7  A    between atoms: C7_11  and  C8_13 
REMARK    8  A    between atoms: C8_13  and  C9_14 
REMARK    9  A    between atoms: C9_14  and  C10_15 
REMARK   10  A    between atoms: C10_15  and  O4_16 
REMARK   11  A    between atoms: C10_15  and  C11_18 
REMARK   12  A    between atoms: C11_18  and  O5_19 
REMARK   13  A    between atoms: C16_25  and  C17_26 
ROOT
HETATM    1  C11 UNL     1      12.747  16.439   7.450  1.00  0.00     0.092 C 
HETATM    2  C12 UNL     1      12.586  15.220   6.564  1.00  0.00     0.042 C 
HETATM    3  C13 UNL     1      12.306  14.089   7.557  1.00  0.00     0.012 C 
HETATM    4  C14 UNL     1      11.884  14.803   8.814  1.00  0.00     0.020 C 
HETATM    5  C15 UNL     1      10.757  14.131   9.444  1.00  0.00    -0.018 C 
HETATM    6  C16 UNL     1       9.523  14.378   9.050  1.00  0.00    -0.075 C 
HETATM    7  C21 UNL     1       9.308  15.341   7.962  1.00  0.00     0.039 C 
HETATM    8  C22 UNL     1      10.257  16.486   7.902  1.00  0.00    -0.003 C 
HETATM    9  C23 UNL     1       9.566  17.664   8.600  1.00  0.00     0.011 C 
HETATM   10  C24 UNL     1      11.616  16.234   8.420  1.00  0.00    -0.000 C 
HETATM   11  C25 UNL     1      11.903  17.083   9.641  1.00  0.00     0.019 C 
ENDROOT
BRANCH   1  12
HETATM   12  C10 UNL     1      12.790  17.718   6.735  1.00  0.00     0.153 C 
BRANCH  12  13
HETATM   13  C9  UNL     1      12.772  17.674   5.247  1.00  0.00     0.044 C 
BRANCH  13  14
HETATM   14  C8  UNL     1      11.768  18.534   4.562  1.00  0.00     0.114 C 
BRANCH  14  15
HETATM   15  C7  UNL     1      10.407  17.934   4.580  1.00  0.00     0.259 C 
HETATM   16  O3  UNL     1      10.266  16.745   4.211  1.00  0.00    -0.265 OA
BRANCH  15  17
HETATM   17  O2  UNL     1       9.341  18.678   4.995  1.00  0.00    -0.312 OA
BRANCH  17  18
HETATM   18  C4  UNL     1       9.373  20.090   5.132  1.00  0.00     0.161 C 
BRANCH  18  19
HETATM   19  C3  UNL     1       8.685  20.523   6.385  1.00  0.00     0.001 C 
HETATM   20  C2  UNL     1       9.357  20.995   7.404  1.00  0.00    -0.032 C 
HETATM   21  C1  UNL     1      10.824  21.155   7.449  1.00  0.00     0.036 C 
ENDBRANCH  18  19
BRANCH  18  22
HETATM   22  C5  UNL     1       8.628  20.696   3.965  1.00  0.00     0.113 C 
BRANCH  22  23
HETATM   23  C6  UNL     1       9.567  21.409   3.079  1.00  0.00     0.112 C 
HETATM   24  S1  UNL     1      10.842  22.225   3.684  1.00  0.00    -0.058 SA
BRANCH  23  25
HETATM   25  O1  UNL     1       9.387  21.403   1.705  1.00  0.00    -0.354 OA
ATOM     26  H1  UNL     1       8.546  21.174   1.327  1.00  0.00     0.218 HD
ENDBRANCH  23  25
ENDBRANCH  22  23
ENDBRANCH  18  22
ENDBRANCH  17  18
ENDBRANCH  15  17
ENDBRANCH  14  15
ENDBRANCH  13  14
ENDBRANCH  12  13
BRANCH  12  27
HETATM   27  O4  UNL     1      13.922  18.452   7.142  1.00  0.00    -0.393 OA
ATOM     28  H4  UNL     1      14.555  18.441   6.434  1.00  0.00     0.210 HD
ENDBRANCH  12  27
ENDBRANCH   1  12
BRANCH   1  29
HETATM   29  O5  UNL     1      13.920  16.213   8.181  1.00  0.00    -0.386 OA
ATOM     30  H5  UNL     1      14.567  15.741   7.671  1.00  0.00     0.210 HD
ENDBRANCH   1  29
BRANCH   6  31
HETATM   31  C17 UNL     1       8.406  13.663   9.730  1.00  0.00    -0.028 C 
HETATM   32  C18 UNL     1       7.760  12.685   8.805  1.00  0.00     0.019 C 
HETATM   33  C19 UNL     1       7.368  14.635  10.251  1.00  0.00     0.019 C 
HETATM   34  C20 UNL     1       8.919  12.880  10.938  1.00  0.00     0.019 C 
ENDBRANCH   6  31
TORSDOF 13
ENDMDL
