MODEL 1
REMARK VINA RESULT: -7.450310527      0.000      0.000
REMARK  14 active torsions:
REMARK  status: ('A' for Active; 'I' for Inactive)
REMARK    1  A    between atoms: C2_2  and  N1_3 
REMARK       I    between atoms: N1_3  and  C3_5 
REMARK    2  A    between atoms: C3_5  and  O2_7 
REMARK    3  A    between atoms: O2_7  and  C4_8 
REMARK    4  A    between atoms: C4_8  and  C5_9 
REMARK    5  A    between atoms: C8_12  and  C9_13 
REMARK    6  A    between atoms: C9_13  and  C10_14 
REMARK    7  A    between atoms: C11_15  and  C12_16 
REMARK    8  A    between atoms: C12_16  and  O3_17 
REMARK    9  A    between atoms: N2_19  and  O4_21 
REMARK   10  A    between atoms: C13_23  and  N3_24 
REMARK   11  A    between atoms: N3_24  and  N4_26 
REMARK   12  A    between atoms: N4_26  and  N5_27 
REMARK   13  A    between atoms: C14_30  and  C15_31 
REMARK       I    between atoms: N6_32  and  C16_34 
REMARK   14  A    between atoms: C16_34  and  C17_36 
ROOT
HETATM    1  C5  UNL     1       9.555  14.865   9.726  1.00  0.00     0.021 C 
HETATM    2  C6  UNL     1       8.212  15.260  10.173  1.00  0.00     0.008 C 
HETATM    3  C7  UNL     1       7.050  14.490   9.739  1.00  0.00     0.007 C 
HETATM    4  C8  UNL     1       7.308  13.223   8.952  1.00  0.00     0.015 C 
HETATM    5  C13 UNL     1       8.590  12.646   9.482  1.00  0.00     0.128 C 
HETATM    6  C14 UNL     1       9.659  13.612   8.931  1.00  0.00     0.056 C 
ENDROOT
BRANCH   4   7
HETATM    7  C9  UNL     1       6.125  12.287   9.029  1.00  0.00     0.034 C 
BRANCH   7   8
HETATM    8  C10 UNL     1       4.939  13.063   9.442  1.00  0.00    -0.022 C 
HETATM    9  C11 UNL     1       3.759  12.632   9.770  1.00  0.00     0.053 C 
BRANCH   9  10
HETATM   10  C12 UNL     1       3.213  11.312   9.842  1.00  0.00     0.159 C 
HETATM   11  N2  UNL     1       2.833  10.777  10.983  1.00  0.00    -0.248 N 
ATOM     12  H2  UNL     1       2.449   9.831  10.992  1.00  0.00     0.196 HD
BRANCH  10  13
HETATM   13  O3  UNL     1       3.048  10.515   8.741  1.00  0.00    -0.345 OA
ATOM     14  H3  UNL     1       3.778  10.154   8.252  1.00  0.00     0.219 HD
ENDBRANCH  10  13
BRANCH  11  15
HETATM   15  O4  UNL     1       2.946  11.471  12.160  1.00  0.00    -0.288 OA
ATOM     16  H4  UNL     1       3.655  12.088  12.296  1.00  0.00     0.244 HD
ENDBRANCH  11  15
ENDBRANCH   9  10
ENDBRANCH   7   8
ENDBRANCH   4   7
BRANCH   5  17
HETATM   17  N3  UNL     1       8.697  12.765  10.922  1.00  0.00    -0.247 N 
ATOM     18  H3  UNL     1       8.472  13.667  11.342  1.00  0.00     0.197 HD
BRANCH  17  19
HETATM   19  N4  UNL     1       9.036  11.867  11.662  1.00  0.00    -0.248 NA
BRANCH  19  20
HETATM   20  N5  UNL     1       9.689  11.011  12.237  1.00  0.00    -0.261 N 
ATOM     21  H52 UNL     1      10.514  11.600  12.349  1.00  0.00     0.193 HD
ATOM     22  H51 UNL     1       9.983  10.139  12.675  1.00  0.00     0.193 HD
ENDBRANCH  19  20
ENDBRANCH  17  19
ENDBRANCH   5  17
BRANCH   6  23
HETATM   23  C15 UNL     1      11.003  13.012   9.049  1.00  0.00     0.071 C 
HETATM   24  N6  UNL     1      11.722  12.729   8.024  1.00  0.00    -0.340 N 
HETATM   25  C16 UNL     1      13.010  12.155   8.140  1.00  0.00     0.225 C 
ATOM     26  H6  UNL     1      11.352  12.926   7.094  1.00  0.00     0.167 HD
HETATM   27  O5  UNL     1      13.240  11.307   9.023  1.00  0.00    -0.273 OA
BRANCH  25  28
HETATM   28  C17 UNL     1      14.084  12.566   7.207  1.00  0.00     0.078 C 
HETATM   29  C18 UNL     1      14.640  11.359   6.532  1.00  0.00     0.014 C 
HETATM   30  C19 UNL     1      16.138  11.526   6.474  1.00  0.00     0.001 C 
HETATM   31  C20 UNL     1      16.492  12.728   7.293  1.00  0.00     0.001 C 
HETATM   32  C21 UNL     1      15.225  13.243   7.924  1.00  0.00     0.014 C 
ENDBRANCH  25  28
ENDBRANCH   6  23
BRANCH   1  33
HETATM   33  C4  UNL     1      10.205  15.972   8.882  1.00  0.00     0.185 C 
BRANCH  33  34
HETATM   34  O2  UNL     1      11.352  16.483   9.570  1.00  0.00    -0.304 OA
BRANCH  34  35
HETATM   35  C3  UNL     1      12.617  16.418   9.056  1.00  0.00     0.360 C 
HETATM   36  N1  UNL     1      13.745  17.064   9.652  1.00  0.00    -0.337 N 
ATOM     37  H1  UNL     1      13.619  17.606  10.506  1.00  0.00     0.164 HD
HETATM   38  O1  UNL     1      12.799  15.755   8.003  1.00  0.00    -0.239 OA
BRANCH  36  39
HETATM   39  C2  UNL     1      15.073  16.960   9.059  1.00  0.00     0.120 C 
HETATM   40  C1  UNL     1      16.059  16.307   9.971  1.00  0.00     0.026 C 
ENDBRANCH  36  39
ENDBRANCH  34  35
ENDBRANCH  33  34
ENDBRANCH   1  33
TORSDOF 14
ENDMDL
MODEL 2
REMARK VINA RESULT: -7.436029328      1.626      2.045
REMARK  14 active torsions:
REMARK  status: ('A' for Active; 'I' for Inactive)
REMARK    1  A    between atoms: C2_2  and  N1_3 
REMARK       I    between atoms: N1_3  and  C3_5 
REMARK    2  A    between atoms: C3_5  and  O2_7 
REMARK    3  A    between atoms: O2_7  and  C4_8 
REMARK    4  A    between atoms: C4_8  and  C5_9 
REMARK    5  A    between atoms: C8_12  and  C9_13 
REMARK    6  A    between atoms: C9_13  and  C10_14 
REMARK    7  A    between atoms: C11_15  and  C12_16 
REMARK    8  A    between atoms: C12_16  and  O3_17 
REMARK    9  A    between atoms: N2_19  and  O4_21 
REMARK   10  A    between atoms: C13_23  and  N3_24 
REMARK   11  A    between atoms: N3_24  and  N4_26 
REMARK   12  A    between atoms: N4_26  and  N5_27 
REMARK   13  A    between atoms: C14_30  and  C15_31 
REMARK       I    between atoms: N6_32  and  C16_34 
REMARK   14  A    between atoms: C16_34  and  C17_36 
ROOT
HETATM    1  C5  UNL     1       9.660  14.733   9.604  1.00  0.00     0.021 C 
HETATM    2  C6  UNL     1       8.376  15.122  10.203  1.00  0.00     0.008 C 
HETATM    3  C7  UNL     1       7.162  14.393   9.848  1.00  0.00     0.007 C 
HETATM    4  C8  UNL     1       7.316  13.167   8.975  1.00  0.00     0.015 C 
HETATM    5  C13 UNL     1       8.632  12.544   9.343  1.00  0.00     0.128 C 
HETATM    6  C14 UNL     1       9.661  13.523   8.739  1.00  0.00     0.056 C 
ENDROOT
BRANCH   4   7
HETATM    7  C9  UNL     1       6.128  12.245   9.121  1.00  0.00     0.034 C 
BRANCH   7   8
HETATM    8  C10 UNL     1       4.956  13.050   9.517  1.00  0.00    -0.022 C 
HETATM    9  C11 UNL     1       3.756  12.649   9.810  1.00  0.00     0.053 C 
BRANCH   9  10
HETATM   10  C12 UNL     1       3.171  11.346   9.851  1.00  0.00     0.159 C 
HETATM   11  N2  UNL     1       2.758  10.801  10.977  1.00  0.00    -0.248 N 
ATOM     12  H2  UNL     1       2.346   9.868  10.962  1.00  0.00     0.196 HD
BRANCH  10  13
HETATM   13  O3  UNL     1       2.998  10.574   8.733  1.00  0.00    -0.345 OA
ATOM     14  H3  UNL     1       2.730   9.663   8.772  1.00  0.00     0.219 HD
ENDBRANCH  10  13
BRANCH  11  15
HETATM   15  O4  UNL     1       2.875  11.470  12.168  1.00  0.00    -0.288 OA
ATOM     16  H4  UNL     1       3.002  10.998  12.982  1.00  0.00     0.244 HD
ENDBRANCH  11  15
ENDBRANCH   9  10
ENDBRANCH   7   8
ENDBRANCH   4   7
BRANCH   5  17
HETATM   17  N3  UNL     1       8.885  12.584  10.769  1.00  0.00    -0.247 N 
ATOM     18  H3  UNL     1       8.845  13.492  11.233  1.00  0.00     0.197 HD
BRANCH  17  19
HETATM   19  N4  UNL     1       9.140  11.614  11.449  1.00  0.00    -0.248 NA
BRANCH  19  20
HETATM   20  N5  UNL     1       9.621  10.870  12.288  1.00  0.00    -0.261 N 
ATOM     21  H52 UNL     1       9.780  11.610  12.972  1.00  0.00     0.193 HD
ATOM     22  H51 UNL     1       9.969  10.045  12.776  1.00  0.00     0.193 HD
ENDBRANCH  19  20
ENDBRANCH  17  19
ENDBRANCH   5  17
BRANCH   6  23
HETATM   23  C15 UNL     1      10.998  12.898   8.691  1.00  0.00     0.071 C 
HETATM   24  N6  UNL     1      11.488  12.247   9.682  1.00  0.00    -0.340 N 
HETATM   25  C16 UNL     1      12.769  11.649   9.632  1.00  0.00     0.225 C 
ATOM     26  H6  UNL     1      10.936  12.159  10.535  1.00  0.00     0.167 HD
HETATM   27  O5  UNL     1      13.705  12.219   9.039  1.00  0.00    -0.273 OA
BRANCH  25  28
HETATM   28  C17 UNL     1      12.994  10.340  10.288  1.00  0.00     0.078 C 
HETATM   29  C18 UNL     1      13.516  10.562  11.667  1.00  0.00     0.014 C 
HETATM   30  C19 UNL     1      14.605   9.545  11.905  1.00  0.00     0.001 C 
HETATM   31  C20 UNL     1      14.872   8.855  10.604  1.00  0.00     0.001 C 
HETATM   32  C21 UNL     1      14.015   9.508   9.552  1.00  0.00     0.014 C 
ENDBRANCH  25  28
ENDBRANCH   6  23
BRANCH   1  33
HETATM   33  C4  UNL     1      10.245  15.874   8.758  1.00  0.00     0.185 C 
BRANCH  33  34
HETATM   34  O2  UNL     1      11.340  16.474   9.460  1.00  0.00    -0.304 OA
BRANCH  34  35
HETATM   35  C3  UNL     1      12.638  16.360   9.046  1.00  0.00     0.360 C 
HETATM   36  N1  UNL     1      13.727  17.046   9.669  1.00  0.00    -0.337 N 
ATOM     37  H1  UNL     1      13.546  17.656  10.466  1.00  0.00     0.164 HD
HETATM   38  O1  UNL     1      12.889  15.614   8.066  1.00  0.00    -0.239 OA
BRANCH  36  39
HETATM   39  C2  UNL     1      15.093  16.888   9.185  1.00  0.00     0.120 C 
HETATM   40  C1  UNL     1      16.049  16.524  10.274  1.00  0.00     0.026 C 
ENDBRANCH  36  39
ENDBRANCH  34  35
ENDBRANCH  33  34
ENDBRANCH   1  33
TORSDOF 14
ENDMDL
MODEL 3
REMARK VINA RESULT: -7.399521686      2.504      3.259
REMARK  14 active torsions:
REMARK  status: ('A' for Active; 'I' for Inactive)
REMARK    1  A    between atoms: C2_2  and  N1_3 
REMARK       I    between atoms: N1_3  and  C3_5 
REMARK    2  A    between atoms: C3_5  and  O2_7 
REMARK    3  A    between atoms: O2_7  and  C4_8 
REMARK    4  A    between atoms: C4_8  and  C5_9 
REMARK    5  A    between atoms: C8_12  and  C9_13 
REMARK    6  A    between atoms: C9_13  and  C10_14 
REMARK    7  A    between atoms: C11_15  and  C12_16 
REMARK    8  A    between atoms: C12_16  and  O3_17 
REMARK    9  A    between atoms: N2_19  and  O4_21 
REMARK   10  A    between atoms: C13_23  and  N3_24 
REMARK   11  A    between atoms: N3_24  and  N4_26 
REMARK   12  A    between atoms: N4_26  and  N5_27 
REMARK   13  A    between atoms: C14_30  and  C15_31 
REMARK       I    between atoms: N6_32  and  C16_34 
REMARK   14  A    between atoms: C16_34  and  C17_36 
ROOT
HETATM    1  C5  UNL     1       9.748  14.616   9.539  1.00  0.00     0.021 C 
HETATM    2  C6  UNL     1       8.459  15.064  10.085  1.00  0.00     0.008 C 
HETATM    3  C7  UNL     1       7.241  14.329   9.757  1.00  0.00     0.007 C 
HETATM    4  C8  UNL     1       7.392  13.043   8.974  1.00  0.00     0.015 C 
HETATM    5  C13 UNL     1       8.691  12.429   9.409  1.00  0.00     0.128 C 
HETATM    6  C14 UNL     1       9.746  13.350   8.760  1.00  0.00     0.056 C 
ENDROOT
BRANCH   4   7
HETATM    7  C9  UNL     1       6.188  12.151   9.159  1.00  0.00     0.034 C 
BRANCH   7   8
HETATM    8  C10 UNL     1       5.030  12.993   9.520  1.00  0.00    -0.022 C 
HETATM    9  C11 UNL     1       3.816  12.629   9.802  1.00  0.00     0.053 C 
BRANCH   9  10
HETATM   10  C12 UNL     1       3.197  11.342   9.860  1.00  0.00     0.159 C 
HETATM   11  N2  UNL     1       2.803  10.807  10.996  1.00  0.00    -0.248 N 
ATOM     12  H2  UNL     1       2.365   9.886  10.994  1.00  0.00     0.196 HD
BRANCH  10  13
HETATM   13  O3  UNL     1       2.970  10.576   8.747  1.00  0.00    -0.345 OA
ATOM     14  H3  UNL     1       3.090   9.634   8.737  1.00  0.00     0.219 HD
ENDBRANCH  10  13
BRANCH  11  15
HETATM   15  O4  UNL     1       2.972  11.472  12.184  1.00  0.00    -0.288 OA
ATOM     16  H4  UNL     1       2.330  11.398  12.880  1.00  0.00     0.244 HD
ENDBRANCH  11  15
ENDBRANCH   9  10
ENDBRANCH   7   8
ENDBRANCH   4   7
BRANCH   5  17
HETATM   17  N3  UNL     1       8.918  12.564  10.834  1.00  0.00    -0.247 N 
ATOM     18  H3  UNL     1       8.827  13.494  11.244  1.00  0.00     0.197 HD
BRANCH  17  19
HETATM   19  N4  UNL     1       9.208  11.649  11.574  1.00  0.00    -0.248 NA
BRANCH  19  20
HETATM   20  N5  UNL     1       9.149  10.663  12.290  1.00  0.00    -0.261 N 
ATOM     21  H52 UNL     1       8.154  10.768  12.490  1.00  0.00     0.193 HD
ATOM     22  H51 UNL     1       9.390   9.825  12.818  1.00  0.00     0.193 HD
ENDBRANCH  19  20
ENDBRANCH  17  19
ENDBRANCH   5  17
BRANCH   6  23
HETATM   23  C15 UNL     1      11.074  12.704   8.781  1.00  0.00     0.071 C 
HETATM   24  N6  UNL     1      11.545  12.135   9.830  1.00  0.00    -0.340 N 
HETATM   25  C16 UNL     1      12.817  11.517   9.847  1.00  0.00     0.225 C 
ATOM     26  H6  UNL     1      10.982  12.129  10.681  1.00  0.00     0.167 HD
HETATM   27  O5  UNL     1      13.767  12.021   9.218  1.00  0.00    -0.273 OA
BRANCH  25  28
HETATM   28  C17 UNL     1      13.016  10.267  10.617  1.00  0.00     0.078 C 
HETATM   29  C18 UNL     1      13.448  10.604  12.003  1.00  0.00     0.014 C 
HETATM   30  C19 UNL     1      14.532   9.627  12.386  1.00  0.00     0.001 C 
HETATM   31  C20 UNL     1      14.888   8.842  11.163  1.00  0.00     0.001 C 
HETATM   32  C21 UNL     1      14.090   9.397  10.012  1.00  0.00     0.014 C 
ENDBRANCH  25  28
ENDBRANCH   6  23
BRANCH   1  33
HETATM   33  C4  UNL     1      10.365  15.688   8.628  1.00  0.00     0.185 C 
BRANCH  33  34
HETATM   34  O2  UNL     1       9.521  16.846   8.617  1.00  0.00    -0.304 OA
BRANCH  34  35
HETATM   35  C3  UNL     1       9.871  18.014   7.999  1.00  0.00     0.360 C 
HETATM   36  N1  UNL     1       8.947  18.830   7.274  1.00  0.00    -0.337 N 
ATOM     37  H1  UNL     1       7.971  18.543   7.205  1.00  0.00     0.164 HD
HETATM   38  O1  UNL     1      11.068  18.390   8.068  1.00  0.00    -0.239 OA
BRANCH  36  39
HETATM   39  C2  UNL     1       9.376  20.067   6.633  1.00  0.00     0.120 C 
HETATM   40  C1  UNL     1       9.008  21.280   7.422  1.00  0.00     0.026 C 
ENDBRANCH  36  39
ENDBRANCH  34  35
ENDBRANCH  33  34
ENDBRANCH   1  33
TORSDOF 14
ENDMDL
MODEL 4
REMARK VINA RESULT: -7.302008671      2.091      2.805
REMARK  14 active torsions:
REMARK  status: ('A' for Active; 'I' for Inactive)
REMARK    1  A    between atoms: C2_2  and  N1_3 
REMARK       I    between atoms: N1_3  and  C3_5 
REMARK    2  A    between atoms: C3_5  and  O2_7 
REMARK    3  A    between atoms: O2_7  and  C4_8 
REMARK    4  A    between atoms: C4_8  and  C5_9 
REMARK    5  A    between atoms: C8_12  and  C9_13 
REMARK    6  A    between atoms: C9_13  and  C10_14 
REMARK    7  A    between atoms: C11_15  and  C12_16 
REMARK    8  A    between atoms: C12_16  and  O3_17 
REMARK    9  A    between atoms: N2_19  and  O4_21 
REMARK   10  A    between atoms: C13_23  and  N3_24 
REMARK   11  A    between atoms: N3_24  and  N4_26 
REMARK   12  A    between atoms: N4_26  and  N5_27 
REMARK   13  A    between atoms: C14_30  and  C15_31 
REMARK       I    between atoms: N6_32  and  C16_34 
REMARK   14  A    between atoms: C16_34  and  C17_36 
ROOT
HETATM    1  C5  UNL     1       9.976  14.620   9.822  1.00  0.00     0.021 C 
HETATM    2  C6  UNL     1       8.554  14.938  10.016  1.00  0.00     0.008 C 
HETATM    3  C7  UNL     1       7.534  14.099   9.394  1.00  0.00     0.007 C 
HETATM    4  C8  UNL     1       8.000  12.846   8.686  1.00  0.00     0.015 C 
HETATM    5  C13 UNL     1       9.196  12.347   9.444  1.00  0.00     0.128 C 
HETATM    6  C14 UNL     1      10.291  13.371   9.079  1.00  0.00     0.056 C 
ENDROOT
BRANCH   4   7
HETATM    7  C9  UNL     1       6.877  11.843   8.564  1.00  0.00     0.034 C 
BRANCH   7   8
HETATM    8  C10 UNL     1       5.639  12.460   9.080  1.00  0.00    -0.022 C 
HETATM    9  C11 UNL     1       4.713  11.929   9.820  1.00  0.00     0.053 C 
BRANCH   9  10
HETATM   10  C12 UNL     1       4.570  10.618  10.371  1.00  0.00     0.159 C 
HETATM   11  N2  UNL     1       3.389  10.073  10.577  1.00  0.00    -0.248 N 
ATOM     12  H2  UNL     1       3.331   9.134  10.973  1.00  0.00     0.196 HD
BRANCH  10  13
HETATM   13  O3  UNL     1       5.640   9.839  10.725  1.00  0.00    -0.345 OA
ATOM     14  H3  UNL     1       5.599   9.191  11.418  1.00  0.00     0.219 HD
ENDBRANCH  10  13
BRANCH  11  15
HETATM   15  O4  UNL     1       2.237  10.748  10.266  1.00  0.00    -0.288 OA
ATOM     16  H4  UNL     1       2.155  11.679  10.438  1.00  0.00     0.244 HD
ENDBRANCH  11  15
ENDBRANCH   9  10
ENDBRANCH   7   8
ENDBRANCH   4   7
BRANCH   5  17
HETATM   17  N3  UNL     1       9.038  12.480  10.878  1.00  0.00    -0.247 N 
ATOM     18  H3  UNL     1       8.899  13.417  11.256  1.00  0.00     0.197 HD
BRANCH  17  19
HETATM   19  N4  UNL     1       9.058  11.554  11.660  1.00  0.00    -0.248 NA
BRANCH  19  20
HETATM   20  N5  UNL     1       9.431  10.648  12.387  1.00  0.00    -0.261 N 
ATOM     21  H52 UNL     1       9.500   9.963  11.634  1.00  0.00     0.193 HD
ATOM     22  H51 UNL     1       9.717  10.105  13.202  1.00  0.00     0.193 HD
ENDBRANCH  19  20
ENDBRANCH  17  19
ENDBRANCH   5  17
BRANCH   6  23
HETATM   23  C15 UNL     1      11.624  12.851   9.444  1.00  0.00     0.071 C 
HETATM   24  N6  UNL     1      12.234  11.970   8.738  1.00  0.00    -0.340 N 
HETATM   25  C16 UNL     1      13.511  11.474   9.090  1.00  0.00     0.225 C 
ATOM     26  H6  UNL     1      11.782  11.615   7.895  1.00  0.00     0.167 HD
HETATM   27  O5  UNL     1      13.802  11.285  10.286  1.00  0.00    -0.273 OA
BRANCH  25  28
HETATM   28  C17 UNL     1      14.502  11.179   8.029  1.00  0.00     0.078 C 
HETATM   29  C18 UNL     1      13.894  11.452   6.696  1.00  0.00     0.014 C 
HETATM   30  C19 UNL     1      14.320  10.339   5.771  1.00  0.00     0.001 C 
HETATM   31  C20 UNL     1      15.008   9.300   6.599  1.00  0.00     0.001 C 
HETATM   32  C21 UNL     1      14.925   9.731   8.040  1.00  0.00     0.014 C 
ENDBRANCH  25  28
ENDBRANCH   6  23
BRANCH   1  33
HETATM   33  C4  UNL     1      10.702  15.759   9.091  1.00  0.00     0.185 C 
BRANCH  33  34
HETATM   34  O2  UNL     1       9.893  16.217   8.001  1.00  0.00    -0.304 OA
BRANCH  34  35
HETATM   35  C3  UNL     1      10.157  17.368   7.313  1.00  0.00     0.360 C 
HETATM   36  N1  UNL     1       9.814  17.562   5.938  1.00  0.00    -0.337 N 
ATOM     37  H1  UNL     1       9.347  16.813   5.428  1.00  0.00     0.164 HD
HETATM   38  O1  UNL     1      10.732  18.307   7.920  1.00  0.00    -0.239 OA
BRANCH  36  39
HETATM   39  C2  UNL     1      10.120  18.812   5.254  1.00  0.00     0.120 C 
HETATM   40  C1  UNL     1       8.898  19.618   4.957  1.00  0.00     0.026 C 
ENDBRANCH  36  39
ENDBRANCH  34  35
ENDBRANCH  33  34
ENDBRANCH   1  33
TORSDOF 14
ENDMDL
MODEL 5
REMARK VINA RESULT: -7.226032713      1.809      2.533
REMARK  14 active torsions:
REMARK  status: ('A' for Active; 'I' for Inactive)
REMARK    1  A    between atoms: C2_2  and  N1_3 
REMARK       I    between atoms: N1_3  and  C3_5 
REMARK    2  A    between atoms: C3_5  and  O2_7 
REMARK    3  A    between atoms: O2_7  and  C4_8 
REMARK    4  A    between atoms: C4_8  and  C5_9 
REMARK    5  A    between atoms: C8_12  and  C9_13 
REMARK    6  A    between atoms: C9_13  and  C10_14 
REMARK    7  A    between atoms: C11_15  and  C12_16 
REMARK    8  A    between atoms: C12_16  and  O3_17 
REMARK    9  A    between atoms: N2_19  and  O4_21 
REMARK   10  A    between atoms: C13_23  and  N3_24 
REMARK   11  A    between atoms: N3_24  and  N4_26 
REMARK   12  A    between atoms: N4_26  and  N5_27 
REMARK   13  A    between atoms: C14_30  and  C15_31 
REMARK       I    between atoms: N6_32  and  C16_34 
REMARK   14  A    between atoms: C16_34  and  C17_36 
ROOT
HETATM    1  C5  UNL     1       9.770  14.634   9.723  1.00  0.00     0.021 C 
HETATM    2  C6  UNL     1       8.452  15.069  10.206  1.00  0.00     0.008 C 
HETATM    3  C7  UNL     1       7.255  14.340   9.797  1.00  0.00     0.007 C 
HETATM    4  C8  UNL     1       7.452  13.070   8.997  1.00  0.00     0.015 C 
HETATM    5  C13 UNL     1       8.726  12.449   9.491  1.00  0.00     0.128 C 
HETATM    6  C14 UNL     1       9.813  13.383   8.919  1.00  0.00     0.056 C 
ENDROOT
BRANCH   4   7
HETATM    7  C9  UNL     1       6.241  12.173   9.098  1.00  0.00     0.034 C 
BRANCH   7   8
HETATM    8  C10 UNL     1       5.076  12.997   9.479  1.00  0.00    -0.022 C 
HETATM    9  C11 UNL     1       3.873  12.614   9.781  1.00  0.00     0.053 C 
BRANCH   9  10
HETATM   10  C12 UNL     1       3.275  11.317   9.848  1.00  0.00     0.159 C 
HETATM   11  N2  UNL     1       2.878  10.790  10.987  1.00  0.00    -0.248 N 
ATOM     12  H2  UNL     1       2.456   9.861  10.991  1.00  0.00     0.196 HD
BRANCH  10  13
HETATM   13  O3  UNL     1       3.073  10.534   8.743  1.00  0.00    -0.345 OA
ATOM     14  H3  UNL     1       2.637  10.850   7.960  1.00  0.00     0.219 HD
ENDBRANCH  10  13
BRANCH  11  15
HETATM   15  O4  UNL     1       3.024  11.472  12.168  1.00  0.00    -0.288 OA
ATOM     16  H4  UNL     1       2.300  11.959  12.542  1.00  0.00     0.244 HD
ENDBRANCH  11  15
ENDBRANCH   9  10
ENDBRANCH   7   8
ENDBRANCH   4   7
BRANCH   5  17
HETATM   17  N3  UNL     1       8.874  12.555  10.928  1.00  0.00    -0.247 N 
ATOM     18  H3  UNL     1       8.676  13.457  11.361  1.00  0.00     0.197 HD
BRANCH  17  19
HETATM   19  N4  UNL     1       9.217  11.645  11.653  1.00  0.00    -0.248 NA
BRANCH  19  20
HETATM   20  N5  UNL     1       9.212  10.659  12.370  1.00  0.00    -0.261 N 
ATOM     21  H52 UNL     1       8.670  11.102  13.113  1.00  0.00     0.193 HD
ATOM     22  H51 UNL     1       9.365   9.722  12.742  1.00  0.00     0.193 HD
ENDBRANCH  19  20
ENDBRANCH  17  19
ENDBRANCH   5  17
BRANCH   6  23
HETATM   23  C15 UNL     1      11.139  12.739   8.999  1.00  0.00     0.071 C 
HETATM   24  N6  UNL     1      11.849  12.496   7.958  1.00  0.00    -0.340 N 
HETATM   25  C16 UNL     1      13.120  11.879   8.039  1.00  0.00     0.225 C 
ATOM     26  H6  UNL     1      11.485  12.756   7.042  1.00  0.00     0.167 HD
HETATM   27  O5  UNL     1      13.326  10.975   8.870  1.00  0.00    -0.273 OA
BRANCH  25  28
HETATM   28  C17 UNL     1      14.205  12.312   7.129  1.00  0.00     0.078 C 
HETATM   29  C18 UNL     1      14.707  11.136   6.363  1.00  0.00     0.014 C 
HETATM   30  C19 UNL     1      16.211  11.246   6.305  1.00  0.00     0.001 C 
HETATM   31  C20 UNL     1      16.618  12.369   7.206  1.00  0.00     0.001 C 
HETATM   32  C21 UNL     1      15.377  12.889   7.884  1.00  0.00     0.014 C 
ENDBRANCH  25  28
ENDBRANCH   6  23
BRANCH   1  33
HETATM   33  C4  UNL     1      10.434  15.725   8.869  1.00  0.00     0.185 C 
BRANCH  33  34
HETATM   34  O2  UNL     1       9.548  16.844   8.755  1.00  0.00    -0.304 OA
BRANCH  34  35
HETATM   35  C3  UNL     1       9.844  17.953   8.013  1.00  0.00     0.360 C 
HETATM   36  N1  UNL     1       8.866  18.698   7.283  1.00  0.00    -0.337 N 
ATOM     37  H1  UNL     1       7.890  18.403   7.306  1.00  0.00     0.164 HD
HETATM   38  O1  UNL     1      11.040  18.339   7.967  1.00  0.00    -0.239 OA
BRANCH  36  39
HETATM   39  C2  UNL     1       9.239  19.874   6.506  1.00  0.00     0.120 C 
HETATM   40  C1  UNL     1       8.222  20.224   5.470  1.00  0.00     0.026 C 
ENDBRANCH  36  39
ENDBRANCH  34  35
ENDBRANCH  33  34
ENDBRANCH   1  33
TORSDOF 14
ENDMDL
