MODEL 1
REMARK VINA RESULT: -7.826990746      0.000      0.000
REMARK  11 active torsions:
REMARK  status: ('A' for Active; 'I' for Inactive)
REMARK    1  A    between atoms: C2_2  and  N1_3 
REMARK    2  A    between atoms: N3_8  and  C5_9 
REMARK    3  A    between atoms: C5_9  and  C6_10 
REMARK    4  A    between atoms: C6_10  and  C7_11 
REMARK    5  A    between atoms: C7_11  and  C8_12 
REMARK    6  A    between atoms: C8_12  and  C9_13 
REMARK    7  A    between atoms: C9_13  and  O1_14 
REMARK    8  A    between atoms: O1_14  and  C10_15 
REMARK    9  A    between atoms: C13_18  and  O2_19 
REMARK   10  A    between atoms: C15_22  and  O3_23 
REMARK   11  A    between atoms: C19_28  and  O4_29 
ROOT
HETATM    1  C10 UNL     1      11.372  14.320   9.037  1.00  0.00     0.089 A 
HETATM    2  C11 UNL     1      11.868  15.508   8.617  1.00  0.00    -0.015 A 
HETATM    3  C12 UNL     1      10.989  16.564   8.367  1.00  0.00    -0.015 A 
HETATM    4  C13 UNL     1       9.641  16.434   8.527  1.00  0.00     0.086 A 
HETATM    5  C14 UNL     1       9.097  15.206   8.957  1.00  0.00     0.047 A 
HETATM    6  C15 UNL     1       7.736  15.048   9.071  1.00  0.00     0.085 A 
HETATM    7  C16 UNL     1       7.227  13.785   9.443  1.00  0.00    -0.025 A 
HETATM    8  C17 UNL     1       5.774  13.566   9.582  1.00  0.00     0.051 C 
HETATM    9  C18 UNL     1       8.079  12.761   9.677  1.00  0.00     0.047 A 
HETATM   10  C19 UNL     1       9.450  12.954   9.553  1.00  0.00     0.080 A 
HETATM   11  C20 UNL     1      10.015  14.171   9.197  1.00  0.00     0.047 A 
HETATM   12  C21 UNL     1      11.636  17.819   7.936  1.00  0.00     0.042 C 
HETATM   13  C22 UNL     1      12.863  18.180   8.746  1.00  0.00     0.005 C 
HETATM   14  C23 UNL     1      13.641  16.980   9.233  1.00  0.00     0.005 C 
HETATM   15  C24 UNL     1      13.287  15.838   8.338  1.00  0.00     0.042 C 
ENDROOT
BRANCH   1  16
HETATM   16  O1  UNL     1      12.282  13.305   9.289  1.00  0.00    -0.350 OA
BRANCH  16  17
HETATM   17  C9  UNL     1      13.314  12.891   8.458  1.00  0.00     0.175 C 
BRANCH  17  18
HETATM   18  C8  UNL     1      13.071  12.164   7.209  1.00  0.00     0.027 C 
BRANCH  18  19
HETATM   19  C7  UNL     1      13.829  10.842   7.105  1.00  0.00     0.004 C 
BRANCH  19  20
HETATM   20  C6  UNL     1      14.893  10.765   8.130  1.00  0.00     0.020 C 
BRANCH  20  21
HETATM   21  C5  UNL     1      14.766   9.622   9.107  1.00  0.00     0.128 C 
BRANCH  21  22
HETATM   22  N3  UNL     1      14.735   9.991  10.479  1.00  0.00    -0.328 N 
HETATM   23  C4  UNL     1      15.953  10.115  11.235  1.00  0.00     0.173 A 
HETATM   24  C3  UNL     1      15.756  10.529  12.638  1.00  0.00     0.100 A 
HETATM   25  N2  UNL     1      14.650  10.759  13.184  1.00  0.00    -0.308 N 
HETATM   26  N1  UNL     1      13.449  10.646  12.501  1.00  0.00    -0.244 N 
ATOM     27  H2  UNL     1      14.633  11.040  14.164  1.00  0.00     0.186 HD
HETATM   28  C25 UNL     1      13.504  10.255  11.129  1.00  0.00     0.339 A 
HETATM   29  O5  UNL     1      12.403  10.157  10.537  1.00  0.00    -0.245 OA
BRANCH  26  30
HETATM   30  C2  UNL     1      12.219  10.928  13.208  1.00  0.00     0.149 C 
HETATM   31  C1  UNL     1      12.458  11.259  14.667  1.00  0.00     0.028 C 
ENDBRANCH  26  30
ENDBRANCH  21  22
ENDBRANCH  20  21
ENDBRANCH  19  20
ENDBRANCH  18  19
ENDBRANCH  17  18
ENDBRANCH  16  17
ENDBRANCH   1  16
BRANCH  10  32
HETATM   32  O4  UNL     1      10.245  11.848   9.793  1.00  0.00    -0.360 OA
ATOM     33  H4  UNL     1      10.940  11.963  10.430  1.00  0.00     0.217 HD
ENDBRANCH  10  32
BRANCH   4  34
HETATM   34  O2  UNL     1       8.761  17.462   8.286  1.00  0.00    -0.359 OA
ATOM     35  H2  UNL     1       7.962  17.347   7.785  1.00  0.00     0.217 HD
ENDBRANCH   4  34
BRANCH   6  36
HETATM   36  O3  UNL     1       6.827  16.003   8.859  1.00  0.00    -0.359 OA
ATOM     37  H3  UNL     1       6.549  16.318   8.007  1.00  0.00     0.217 HD
ENDBRANCH   6  36
TORSDOF 11
ENDMDL
MODEL 2
REMARK VINA RESULT: -7.639634501      1.351      2.008
REMARK  11 active torsions:
REMARK  status: ('A' for Active; 'I' for Inactive)
REMARK    1  A    between atoms: C2_2  and  N1_3 
REMARK    2  A    between atoms: N3_8  and  C5_9 
REMARK    3  A    between atoms: C5_9  and  C6_10 
REMARK    4  A    between atoms: C6_10  and  C7_11 
REMARK    5  A    between atoms: C7_11  and  C8_12 
REMARK    6  A    between atoms: C8_12  and  C9_13 
REMARK    7  A    between atoms: C9_13  and  O1_14 
REMARK    8  A    between atoms: O1_14  and  C10_15 
REMARK    9  A    between atoms: C13_18  and  O2_19 
REMARK   10  A    between atoms: C15_22  and  O3_23 
REMARK   11  A    between atoms: C19_28  and  O4_29 
ROOT
HETATM    1  C10 UNL     1      11.161  14.186   9.084  1.00  0.00     0.089 A 
HETATM    2  C11 UNL     1      11.718  15.341   8.650  1.00  0.00    -0.015 A 
HETATM    3  C12 UNL     1      10.894  16.437   8.382  1.00  0.00    -0.015 A 
HETATM    4  C13 UNL     1       9.541  16.377   8.539  1.00  0.00     0.086 A 
HETATM    5  C14 UNL     1       8.934  15.185   8.983  1.00  0.00     0.047 A 
HETATM    6  C15 UNL     1       7.567  15.098   9.094  1.00  0.00     0.085 A 
HETATM    7  C16 UNL     1       6.993  13.867   9.481  1.00  0.00    -0.025 A 
HETATM    8  C17 UNL     1       5.531  13.724   9.618  1.00  0.00     0.051 C 
HETATM    9  C18 UNL     1       7.792  12.804   9.732  1.00  0.00     0.047 A 
HETATM   10  C19 UNL     1       9.171  12.926   9.610  1.00  0.00     0.080 A 
HETATM   11  C20 UNL     1       9.798  14.108   9.241  1.00  0.00     0.047 A 
HETATM   12  C21 UNL     1      11.605  17.652   7.937  1.00  0.00     0.042 C 
HETATM   13  C22 UNL     1      12.846  17.961   8.746  1.00  0.00     0.005 C 
HETATM   14  C23 UNL     1      13.562  16.730   9.252  1.00  0.00     0.005 C 
HETATM   15  C24 UNL     1      13.153  15.596   8.372  1.00  0.00     0.042 C 
ENDROOT
BRANCH   1  16
HETATM   16  O1  UNL     1      12.018  13.130   9.352  1.00  0.00    -0.350 OA
BRANCH  16  17
HETATM   17  C9  UNL     1      12.706  12.362   8.423  1.00  0.00     0.175 C 
BRANCH  17  18
HETATM   18  C8  UNL     1      14.012  11.764   8.714  1.00  0.00     0.027 C 
BRANCH  18  19
HETATM   19  C7  UNL     1      13.979  10.242   8.845  1.00  0.00     0.004 C 
BRANCH  19  20
HETATM   20  C6  UNL     1      13.421   9.839  10.154  1.00  0.00     0.020 C 
BRANCH  20  21
HETATM   21  C5  UNL     1      14.119  10.421  11.360  1.00  0.00     0.128 C 
BRANCH  21  22
HETATM   22  N3  UNL     1      13.329  10.513  12.537  1.00  0.00    -0.328 N 
HETATM   23  C4  UNL     1      11.999  11.060  12.489  1.00  0.00     0.173 A 
HETATM   24  C3  UNL     1      11.298  11.066  13.788  1.00  0.00     0.100 A 
HETATM   25  N2  UNL     1      11.771  10.652  14.875  1.00  0.00    -0.308 N 
HETATM   26  N1  UNL     1      13.049  10.124  14.974  1.00  0.00    -0.244 N 
ATOM     27  H2  UNL     1      11.194  10.706  15.714  1.00  0.00     0.186 HD
HETATM   28  C25 UNL     1      13.831  10.060  13.782  1.00  0.00     0.339 A 
HETATM   29  O5  UNL     1      14.983   9.581  13.901  1.00  0.00    -0.245 OA
BRANCH  26  30
HETATM   30  C2  UNL     1      13.514   9.673  16.267  1.00  0.00     0.149 C 
HETATM   31  C1  UNL     1      12.416   9.688  17.311  1.00  0.00     0.028 C 
ENDBRANCH  26  30
ENDBRANCH  21  22
ENDBRANCH  20  21
ENDBRANCH  19  20
ENDBRANCH  18  19
ENDBRANCH  17  18
ENDBRANCH  16  17
ENDBRANCH   1  16
BRANCH  10  32
HETATM   32  O4  UNL     1       9.908  11.785   9.868  1.00  0.00    -0.360 OA
ATOM     33  H4  UNL     1      10.366  11.761  10.700  1.00  0.00     0.217 HD
ENDBRANCH  10  32
BRANCH   4  34
HETATM   34  O2  UNL     1       8.715  17.445   8.281  1.00  0.00    -0.359 OA
ATOM     35  H2  UNL     1       9.024  18.247   7.875  1.00  0.00     0.217 HD
ENDBRANCH   4  34
BRANCH   6  36
HETATM   36  O3  UNL     1       6.708  16.094   8.866  1.00  0.00    -0.359 OA
ATOM     37  H3  UNL     1       6.256  16.595   9.536  1.00  0.00     0.217 HD
ENDBRANCH   6  36
TORSDOF 11
ENDMDL
MODEL 3
REMARK VINA RESULT: -7.524428284      3.735      7.199
REMARK  11 active torsions:
REMARK  status: ('A' for Active; 'I' for Inactive)
REMARK    1  A    between atoms: C2_2  and  N1_3 
REMARK    2  A    between atoms: N3_8  and  C5_9 
REMARK    3  A    between atoms: C5_9  and  C6_10 
REMARK    4  A    between atoms: C6_10  and  C7_11 
REMARK    5  A    between atoms: C7_11  and  C8_12 
REMARK    6  A    between atoms: C8_12  and  C9_13 
REMARK    7  A    between atoms: C9_13  and  O1_14 
REMARK    8  A    between atoms: O1_14  and  C10_15 
REMARK    9  A    between atoms: C13_18  and  O2_19 
REMARK   10  A    between atoms: C15_22  and  O3_23 
REMARK   11  A    between atoms: C19_28  and  O4_29 
ROOT
HETATM    1  C10 UNL     1      11.427  14.195   8.925  1.00  0.00     0.089 A 
HETATM    2  C11 UNL     1      11.498  15.439   8.396  1.00  0.00    -0.015 A 
HETATM    3  C12 UNL     1      12.501  15.731   7.468  1.00  0.00    -0.015 A 
HETATM    4  C13 UNL     1      13.418  14.799   7.082  1.00  0.00     0.086 A 
HETATM    5  C14 UNL     1      13.372  13.498   7.622  1.00  0.00     0.047 A 
HETATM    6  C15 UNL     1      14.323  12.567   7.278  1.00  0.00     0.085 A 
HETATM    7  C16 UNL     1      14.280  11.294   7.888  1.00  0.00    -0.025 A 
HETATM    8  C17 UNL     1      15.277  10.259   7.551  1.00  0.00     0.051 C 
HETATM    9  C18 UNL     1      13.313  11.016   8.793  1.00  0.00     0.047 A 
HETATM   10  C19 UNL     1      12.366  11.980   9.117  1.00  0.00     0.080 A 
HETATM   11  C20 UNL     1      12.348  13.247   8.549  1.00  0.00     0.047 A 
HETATM   12  C21 UNL     1      12.472  17.108   6.939  1.00  0.00     0.042 C 
HETATM   13  C22 UNL     1      11.087  17.587   6.561  1.00  0.00     0.005 C 
HETATM   14  C23 UNL     1       9.992  17.021   7.435  1.00  0.00     0.005 C 
HETATM   15  C24 UNL     1      10.631  16.600   8.717  1.00  0.00     0.042 C 
ENDROOT
BRANCH   1  16
HETATM   16  O1  UNL     1      10.405  13.947   9.828  1.00  0.00    -0.350 OA
BRANCH  16  17
HETATM   17  C9  UNL     1       9.064  13.747   9.531  1.00  0.00     0.175 C 
BRANCH  17  18
HETATM   18  C8  UNL     1       7.988  14.350  10.323  1.00  0.00     0.027 C 
BRANCH  18  19
HETATM   19  C7  UNL     1       7.109  15.318   9.533  1.00  0.00     0.004 C 
BRANCH  19  20
HETATM   20  C6  UNL     1       5.702  14.862   9.524  1.00  0.00     0.020 C 
BRANCH  20  21
HETATM   21  C5  UNL     1       5.432  13.617   8.714  1.00  0.00     0.128 C 
BRANCH  21  22
HETATM   22  N3  UNL     1       4.704  12.598   9.385  1.00  0.00    -0.328 N 
HETATM   23  C4  UNL     1       3.306  12.767   9.681  1.00  0.00     0.173 A 
HETATM   24  C3  UNL     1       2.685  11.611  10.358  1.00  0.00     0.100 A 
HETATM   25  N2  UNL     1       3.275  10.551  10.681  1.00  0.00    -0.308 N 
HETATM   26  N1  UNL     1       4.621  10.343  10.425  1.00  0.00    -0.244 N 
ATOM     27  H2  UNL     1       2.744   9.815  11.148  1.00  0.00     0.186 HD
HETATM   28  C25 UNL     1       5.337  11.389   9.768  1.00  0.00     0.339 A 
HETATM   29  O5  UNL     1       6.553  11.177   9.552  1.00  0.00    -0.245 OA
BRANCH  26  30
HETATM   30  C2  UNL     1       5.221   9.092  10.834  1.00  0.00     0.149 C 
HETATM   31  C1  UNL     1       5.855   9.179  12.207  1.00  0.00     0.028 C 
ENDBRANCH  26  30
ENDBRANCH  21  22
ENDBRANCH  20  21
ENDBRANCH  19  20
ENDBRANCH  18  19
ENDBRANCH  17  18
ENDBRANCH  16  17
ENDBRANCH   1  16
BRANCH  10  32
HETATM   32  O4  UNL     1      11.426  11.616  10.064  1.00  0.00    -0.360 OA
ATOM     33  H4  UNL     1      10.516  11.692   9.801  1.00  0.00     0.217 HD
ENDBRANCH  10  32
BRANCH   4  34
HETATM   34  O2  UNL     1      14.411  15.067   6.171  1.00  0.00    -0.359 OA
ATOM     35  H2  UNL     1      15.216  14.564   6.125  1.00  0.00     0.217 HD
ENDBRANCH   4  34
BRANCH   6  36
HETATM   36  O3  UNL     1      15.309  12.757   6.399  1.00  0.00    -0.359 OA
ATOM     37  H3  UNL     1      16.220  12.913   6.619  1.00  0.00     0.217 HD
ENDBRANCH   6  36
TORSDOF 11
ENDMDL
MODEL 4
REMARK VINA RESULT: -7.507472335      1.628      2.177
REMARK  11 active torsions:
REMARK  status: ('A' for Active; 'I' for Inactive)
REMARK    1  A    between atoms: C2_2  and  N1_3 
REMARK    2  A    between atoms: N3_8  and  C5_9 
REMARK    3  A    between atoms: C5_9  and  C6_10 
REMARK    4  A    between atoms: C6_10  and  C7_11 
REMARK    5  A    between atoms: C7_11  and  C8_12 
REMARK    6  A    between atoms: C8_12  and  C9_13 
REMARK    7  A    between atoms: C9_13  and  O1_14 
REMARK    8  A    between atoms: O1_14  and  C10_15 
REMARK    9  A    between atoms: C13_18  and  O2_19 
REMARK   10  A    between atoms: C15_22  and  O3_23 
REMARK   11  A    between atoms: C19_28  and  O4_29 
ROOT
HETATM    1  C10 UNL     1      11.292  14.168   9.057  1.00  0.00     0.089 A 
HETATM    2  C11 UNL     1      11.856  15.317   8.614  1.00  0.00    -0.015 A 
HETATM    3  C12 UNL     1      11.042  16.420   8.348  1.00  0.00    -0.015 A 
HETATM    4  C13 UNL     1       9.689  16.374   8.516  1.00  0.00     0.086 A 
HETATM    5  C14 UNL     1       9.074  15.189   8.969  1.00  0.00     0.047 A 
HETATM    6  C15 UNL     1       7.707  15.117   9.092  1.00  0.00     0.085 A 
HETATM    7  C16 UNL     1       7.124  13.893   9.488  1.00  0.00    -0.025 A 
HETATM    8  C17 UNL     1       5.662  13.765   9.637  1.00  0.00     0.051 C 
HETATM    9  C18 UNL     1       7.914  12.823   9.736  1.00  0.00     0.047 A 
HETATM   10  C19 UNL     1       9.293  12.931   9.603  1.00  0.00     0.080 A 
HETATM   11  C20 UNL     1       9.929  14.105   9.225  1.00  0.00     0.047 A 
HETATM   12  C21 UNL     1      11.762  17.625   7.893  1.00  0.00     0.042 C 
HETATM   13  C22 UNL     1      13.012  17.926   8.691  1.00  0.00     0.005 C 
HETATM   14  C23 UNL     1      13.719  16.689   9.197  1.00  0.00     0.005 C 
HETATM   15  C24 UNL     1      13.292  15.556   8.324  1.00  0.00     0.042 C 
ENDROOT
BRANCH   1  16
HETATM   16  O1  UNL     1      12.140  13.105   9.323  1.00  0.00    -0.350 OA
BRANCH  16  17
HETATM   17  C9  UNL     1      12.721  12.254   8.393  1.00  0.00     0.175 C 
BRANCH  17  18
HETATM   18  C8  UNL     1      13.728  11.256   8.766  1.00  0.00     0.027 C 
BRANCH  18  19
HETATM   19  C7  UNL     1      13.272  10.300   9.867  1.00  0.00     0.004 C 
BRANCH  19  20
HETATM   20  C6  UNL     1      13.971  10.591  11.138  1.00  0.00     0.020 C 
BRANCH  20  21
HETATM   21  C5  UNL     1      13.073  10.912  12.309  1.00  0.00     0.128 C 
BRANCH  21  22
HETATM   22  N3  UNL     1      13.420  10.283  13.534  1.00  0.00    -0.328 N 
HETATM   23  C4  UNL     1      14.545   9.388  13.609  1.00  0.00     0.173 A 
HETATM   24  C3  UNL     1      14.791   8.834  14.955  1.00  0.00     0.100 A 
HETATM   25  N2  UNL     1      14.110   9.077  15.981  1.00  0.00    -0.308 N 
HETATM   26  N1  UNL     1      13.012   9.924  15.958  1.00  0.00    -0.244 N 
ATOM     27  H2  UNL     1      14.372   8.635  16.862  1.00  0.00     0.186 HD
HETATM   28  C25 UNL     1      12.671  10.529  14.711  1.00  0.00     0.339 A 
HETATM   29  O5  UNL     1      11.674  11.288  14.719  1.00  0.00    -0.245 OA
BRANCH  26  30
HETATM   30  C2  UNL     1      12.282  10.145  17.187  1.00  0.00     0.149 C 
HETATM   31  C1  UNL     1      12.097   8.870  17.984  1.00  0.00     0.028 C 
ENDBRANCH  26  30
ENDBRANCH  21  22
ENDBRANCH  20  21
ENDBRANCH  19  20
ENDBRANCH  18  19
ENDBRANCH  17  18
ENDBRANCH  16  17
ENDBRANCH   1  16
BRANCH  10  32
HETATM   32  O4  UNL     1      10.021  11.783   9.860  1.00  0.00    -0.360 OA
ATOM     33  H4  UNL     1      10.679  11.552   9.215  1.00  0.00     0.217 HD
ENDBRANCH  10  32
BRANCH   4  34
HETATM   34  O2  UNL     1       8.872  17.449   8.261  1.00  0.00    -0.359 OA
ATOM     35  H2  UNL     1       8.543  18.018   8.947  1.00  0.00     0.217 HD
ENDBRANCH   4  34
BRANCH   6  36
HETATM   36  O3  UNL     1       6.856  16.121   8.867  1.00  0.00    -0.359 OA
ATOM     37  H3  UNL     1       6.162  16.119   8.217  1.00  0.00     0.217 HD
ENDBRANCH   6  36
TORSDOF 11
ENDMDL
MODEL 5
REMARK VINA RESULT: -7.458066112      2.142      4.791
REMARK  11 active torsions:
REMARK  status: ('A' for Active; 'I' for Inactive)
REMARK    1  A    between atoms: C2_2  and  N1_3 
REMARK    2  A    between atoms: N3_8  and  C5_9 
REMARK    3  A    between atoms: C5_9  and  C6_10 
REMARK    4  A    between atoms: C6_10  and  C7_11 
REMARK    5  A    between atoms: C7_11  and  C8_12 
REMARK    6  A    between atoms: C8_12  and  C9_13 
REMARK    7  A    between atoms: C9_13  and  O1_14 
REMARK    8  A    between atoms: O1_14  and  C10_15 
REMARK    9  A    between atoms: C13_18  and  O2_19 
REMARK   10  A    between atoms: C15_22  and  O3_23 
REMARK   11  A    between atoms: C19_28  and  O4_29 
ROOT
HETATM    1  C10 UNL     1      10.640  13.639   9.173  1.00  0.00     0.089 A 
HETATM    2  C11 UNL     1       9.339  13.819   9.502  1.00  0.00    -0.015 A 
HETATM    3  C12 UNL     1       8.737  15.056   9.259  1.00  0.00    -0.015 A 
HETATM    4  C13 UNL     1       9.425  16.095   8.704  1.00  0.00     0.086 A 
HETATM    5  C14 UNL     1      10.782  15.938   8.358  1.00  0.00     0.047 A 
HETATM    6  C15 UNL     1      11.498  16.995   7.847  1.00  0.00     0.085 A 
HETATM    7  C16 UNL     1      12.871  16.816   7.572  1.00  0.00    -0.025 A 
HETATM    8  C17 UNL     1      13.682  17.918   7.019  1.00  0.00     0.051 C 
HETATM    9  C18 UNL     1      13.454  15.619   7.816  1.00  0.00     0.047 A 
HETATM   10  C19 UNL     1      12.701  14.571   8.333  1.00  0.00     0.080 A 
HETATM   11  C20 UNL     1      11.347  14.679   8.618  1.00  0.00     0.047 A 
HETATM   12  C21 UNL     1       7.312  15.136   9.634  1.00  0.00     0.042 C 
HETATM   13  C22 UNL     1       6.502  13.931   9.207  1.00  0.00     0.005 C 
HETATM   14  C23 UNL     1       7.284  12.638   9.224  1.00  0.00     0.005 C 
HETATM   15  C24 UNL     1       8.436  12.838  10.153  1.00  0.00     0.042 C 
ENDROOT
BRANCH   1  16
HETATM   16  O1  UNL     1      11.190  12.391   9.416  1.00  0.00    -0.350 OA
BRANCH  16  17
HETATM   17  C9  UNL     1      11.070  11.643  10.580  1.00  0.00     0.175 C 
BRANCH  17  18
HETATM   18  C8  UNL     1      12.221  10.998  11.218  1.00  0.00     0.027 C 
BRANCH  18  19
HETATM   19  C7  UNL     1      12.139  10.957  12.744  1.00  0.00     0.004 C 
BRANCH  19  20
HETATM   20  C6  UNL     1      13.482  10.786  13.337  1.00  0.00     0.020 C 
BRANCH  20  21
HETATM   21  C5  UNL     1      14.541  10.260  12.398  1.00  0.00     0.128 C 
BRANCH  21  22
HETATM   22  N3  UNL     1      14.824   8.873  12.511  1.00  0.00    -0.328 N 
HETATM   23  C4  UNL     1      15.112   8.284  13.792  1.00  0.00     0.173 A 
HETATM   24  C3  UNL     1      15.361   6.829  13.748  1.00  0.00     0.100 A 
HETATM   25  N2  UNL     1      15.345   6.116  12.715  1.00  0.00    -0.308 N 
HETATM   26  N1  UNL     1      15.081   6.637  11.458  1.00  0.00    -0.244 N 
ATOM     27  H2  UNL     1      15.533   5.117  12.804  1.00  0.00     0.186 HD
HETATM   28  C25 UNL     1      14.818   8.038  11.367  1.00  0.00     0.339 A 
HETATM   29  O5  UNL     1      14.586   8.483  10.219  1.00  0.00    -0.245 OA
BRANCH  26  30
HETATM   30  C2  UNL     1      15.085   5.744  10.321  1.00  0.00     0.149 C 
HETATM   31  C1  UNL     1      14.443   4.408  10.637  1.00  0.00     0.028 C 
ENDBRANCH  26  30
ENDBRANCH  21  22
ENDBRANCH  20  21
ENDBRANCH  19  20
ENDBRANCH  18  19
ENDBRANCH  17  18
ENDBRANCH  16  17
ENDBRANCH   1  16
BRANCH  10  32
HETATM   32  O4  UNL     1      13.382  13.390   8.567  1.00  0.00    -0.360 OA
ATOM     33  H4  UNL     1      14.325  13.463   8.663  1.00  0.00     0.217 HD
ENDBRANCH  10  32
BRANCH   4  34
HETATM   34  O2  UNL     1       8.850  17.318   8.458  1.00  0.00    -0.359 OA
ATOM     35  H2  UNL     1       9.198  18.129   8.811  1.00  0.00     0.217 HD
ENDBRANCH   4  34
BRANCH   6  36
HETATM   36  O3  UNL     1      11.004  18.205   7.578  1.00  0.00    -0.359 OA
ATOM     37  H3  UNL     1      11.152  18.694   6.777  1.00  0.00     0.217 HD
ENDBRANCH   6  36
TORSDOF 11
ENDMDL
