MODEL 1
REMARK VINA RESULT: -6.220519040      0.000      0.000
REMARK  2 active torsions:
REMARK  status: ('A' for Active; 'I' for Inactive)
REMARK    1  A    between atoms: N2_4  and  N3_6 
REMARK    2  A    between atoms: C2_13  and  N6_14 
REMARK       I    between atoms: N6_14  and  C3_16 
ROOT
HETATM    1  N3  UNL     1     -14.369 -31.909  96.539  1.00  0.00    -0.015 N 
HETATM    2  C1  UNL     1     -13.174 -31.578  97.065  1.00  0.00     0.376 A 
HETATM    3  O1  UNL     1     -12.930 -30.571  97.784  1.00  0.00    -0.243 OA
HETATM    4  N4  UNL     1     -12.292 -32.516  96.685  1.00  0.00    -0.235 N 
ATOM      5  H4  UNL     1     -11.304 -32.522  96.940  1.00  0.00     0.192 HD
HETATM    6  N5  UNL     1     -12.879 -33.430  95.938  1.00  0.00    -0.126 N 
ATOM      7  H5  UNL     1     -12.448 -34.252  95.515  1.00  0.00     0.206 HD
HETATM    8  C2  UNL     1     -14.164 -33.052  95.849  1.00  0.00     0.726 A 
ENDROOT
BRANCH   8   9
HETATM    9  N6  UNL     1     -15.077 -33.674  95.206  1.00  0.00    -0.160 N 
HETATM   10  C3  UNL     1     -15.020 -34.994  94.766  1.00  0.00     0.200 C 
HETATM   11  N7  UNL     1     -15.735 -35.956  95.295  1.00  0.00    -0.373 N 
HETATM   12  N8  UNL     1     -14.148 -35.325  93.693  1.00  0.00    -0.063 NA
ATOM     13  H72 UNL     1     -16.361 -35.718  96.064  1.00  0.00     0.158 HD
ATOM     14  H71 UNL     1     -15.693 -36.922  94.971  1.00  0.00     0.158 HD
ATOM     15  H6  UNL     1     -15.929 -33.155  94.996  1.00  0.00     0.187 HD
ENDBRANCH   8   9
BRANCH   1  16
HETATM   16  N2  UNL     1     -15.584 -31.252  96.649  1.00  0.00    -0.224 N 
HETATM   17  N1  UNL     1     -16.032 -30.983  97.790  1.00  0.00    -0.330 N 
ATOM     18  H12 UNL     1     -15.496 -31.252  98.616  1.00  0.00     0.178 HD
ATOM     19  H11 UNL     1     -16.926 -30.499  97.871  1.00  0.00     0.178 HD
ATOM     20  H2  UNL     1     -16.108 -30.990  95.814  1.00  0.00     0.209 HD
ENDBRANCH   1  16
TORSDOF 2
ENDMDL
MODEL 2
REMARK VINA RESULT: -5.707458475      0.963      1.053
REMARK  2 active torsions:
REMARK  status: ('A' for Active; 'I' for Inactive)
REMARK    1  A    between atoms: N2_4  and  N3_6 
REMARK    2  A    between atoms: C2_13  and  N6_14 
REMARK       I    between atoms: N6_14  and  C3_16 
ROOT
HETATM    1  N3  UNL     1     -14.303 -31.979  97.223  1.00  0.00    -0.015 N 
HETATM    2  C1  UNL     1     -13.009 -31.604  97.213  1.00  0.00     0.376 A 
HETATM    3  O1  UNL     1     -12.550 -30.504  97.622  1.00  0.00    -0.243 OA
HETATM    4  N4  UNL     1     -12.300 -32.618  96.692  1.00  0.00    -0.235 N 
ATOM      5  H4  UNL     1     -11.288 -32.613  96.563  1.00  0.00     0.192 HD
HETATM    6  N5  UNL     1     -13.092 -33.622  96.369  1.00  0.00    -0.126 N 
ATOM      7  H5  UNL     1     -12.821 -34.513  95.954  1.00  0.00     0.206 HD
HETATM    8  C2  UNL     1     -14.330 -33.224  96.699  1.00  0.00     0.726 A 
ENDROOT
BRANCH   8   9
HETATM    9  N6  UNL     1     -15.396 -33.912  96.544  1.00  0.00    -0.160 N 
HETATM   10  C3  UNL     1     -15.464 -35.247  96.154  1.00  0.00     0.200 C 
HETATM   11  N7  UNL     1     -15.813 -36.213  96.968  1.00  0.00    -0.373 N 
HETATM   12  N8  UNL     1     -15.142 -35.590  94.813  1.00  0.00    -0.063 NA
ATOM     13  H72 UNL     1     -16.045 -35.967  97.931  1.00  0.00     0.158 HD
ATOM     14  H71 UNL     1     -15.863 -37.191  96.681  1.00  0.00     0.158 HD
ATOM     15  H6  UNL     1     -16.281 -33.439  96.724  1.00  0.00     0.187 HD
ENDBRANCH   8   9
BRANCH   1  16
HETATM   16  N2  UNL     1     -15.412 -31.275  97.665  1.00  0.00    -0.224 N 
HETATM   17  N1  UNL     1     -15.798 -30.272  97.019  1.00  0.00    -0.330 N 
ATOM     18  H12 UNL     1     -15.289 -29.990  96.180  1.00  0.00     0.178 HD
ATOM     19  H11 UNL     1     -16.614 -29.755  97.344  1.00  0.00     0.178 HD
ATOM     20  H2  UNL     1     -15.909 -31.570  98.507  1.00  0.00     0.209 HD
ENDBRANCH   1  16
TORSDOF 2
ENDMDL
MODEL 3
REMARK VINA RESULT: -5.545703252      1.000      2.466
REMARK  2 active torsions:
REMARK  status: ('A' for Active; 'I' for Inactive)
REMARK    1  A    between atoms: N2_4  and  N3_6 
REMARK    2  A    between atoms: C2_13  and  N6_14 
REMARK       I    between atoms: N6_14  and  C3_16 
ROOT
HETATM    1  N3  UNL     1     -13.340 -32.341  96.149  1.00  0.00    -0.015 N 
HETATM    2  C1  UNL     1     -14.173 -31.470  96.751  1.00  0.00     0.376 A 
HETATM    3  O1  UNL     1     -13.858 -30.344  97.222  1.00  0.00    -0.243 OA
HETATM    4  N4  UNL     1     -15.398 -32.020  96.754  1.00  0.00    -0.235 N 
ATOM      5  H4  UNL     1     -16.231 -31.581  97.147  1.00  0.00     0.192 HD
HETATM    6  N5  UNL     1     -15.376 -33.207  96.179  1.00  0.00    -0.126 N 
ATOM      7  H5  UNL     1     -16.162 -33.843  96.047  1.00  0.00     0.206 HD
HETATM    8  C2  UNL     1     -14.102 -33.403  95.806  1.00  0.00     0.726 A 
ENDROOT
BRANCH   8   9
HETATM    9  N6  UNL     1     -13.656 -34.441  95.209  1.00  0.00    -0.160 N 
HETATM   10  C3  UNL     1     -14.421 -35.471  94.667  1.00  0.00     0.200 C 
HETATM   11  N7  UNL     1     -14.549 -35.663  93.377  1.00  0.00    -0.373 N 
HETATM   12  N8  UNL     1     -15.098 -36.361  95.544  1.00  0.00    -0.063 NA
ATOM     13  H72 UNL     1     -14.063 -35.024  92.747  1.00  0.00     0.158 HD
ATOM     14  H71 UNL     1     -15.109 -36.418  92.980  1.00  0.00     0.158 HD
ATOM     15  H6  UNL     1     -12.643 -34.524  95.122  1.00  0.00     0.187 HD
ENDBRANCH   8   9
BRANCH   1  16
HETATM   16  N2  UNL     1     -11.980 -32.225  95.908  1.00  0.00    -0.224 N 
HETATM   17  N1  UNL     1     -11.236 -31.770  96.810  1.00  0.00    -0.330 N 
ATOM     18  H12 UNL     1     -11.643 -31.494  97.704  1.00  0.00     0.178 HD
ATOM     19  H11 UNL     1     -10.236 -31.684  96.632  1.00  0.00     0.178 HD
ATOM     20  H2  UNL     1     -11.589 -32.505  95.008  1.00  0.00     0.209 HD
ENDBRANCH   1  16
TORSDOF 2
ENDMDL
MODEL 4
REMARK VINA RESULT: -5.523645668      1.261      2.305
REMARK  2 active torsions:
REMARK  status: ('A' for Active; 'I' for Inactive)
REMARK    1  A    between atoms: N2_4  and  N3_6 
REMARK    2  A    between atoms: C2_13  and  N6_14 
REMARK       I    between atoms: N6_14  and  C3_16 
ROOT
HETATM    1  N3  UNL     1     -13.359 -31.824  96.245  1.00  0.00    -0.015 N 
HETATM    2  C1  UNL     1     -12.951 -31.181  97.356  1.00  0.00     0.376 A 
HETATM    3  O1  UNL     1     -11.878 -30.532  97.489  1.00  0.00    -0.243 OA
HETATM    4  N4  UNL     1     -13.896 -31.356  98.294  1.00  0.00    -0.235 N 
ATOM      5  H4  UNL     1     -13.853 -30.976  99.240  1.00  0.00     0.192 HD
HETATM    6  N5  UNL     1     -14.888 -32.086  97.823  1.00  0.00    -0.126 N 
ATOM      7  H5  UNL     1     -15.733 -32.372  98.318  1.00  0.00     0.206 HD
HETATM    8  C2  UNL     1     -14.554 -32.374  96.556  1.00  0.00     0.726 A 
ENDROOT
BRANCH   8   9
HETATM    9  N6  UNL     1     -15.255 -33.069  95.743  1.00  0.00    -0.160 N 
HETATM   10  C3  UNL     1     -14.959 -34.354  95.295  1.00  0.00     0.200 C 
HETATM   11  N7  UNL     1     -15.637 -35.413  95.664  1.00  0.00    -0.373 N 
HETATM   12  N8  UNL     1     -13.875 -34.538  94.395  1.00  0.00    -0.063 NA
ATOM     13  H72 UNL     1     -16.416 -35.282  96.310  1.00  0.00     0.158 HD
ATOM     14  H71 UNL     1     -15.421 -36.354  95.335  1.00  0.00     0.158 HD
ATOM     15  H6  UNL     1     -16.111 -32.643  95.390  1.00  0.00     0.187 HD
ENDBRANCH   8   9
BRANCH   1  16
HETATM   16  N2  UNL     1     -12.727 -31.932  95.017  1.00  0.00    -0.224 N 
HETATM   17  N1  UNL     1     -11.491 -32.147  94.982  1.00  0.00    -0.330 N 
ATOM     18  H12 UNL     1     -10.973 -32.239  95.856  1.00  0.00     0.178 HD
ATOM     19  H11 UNL     1     -11.026 -32.227  94.078  1.00  0.00     0.178 HD
ATOM     20  H2  UNL     1     -13.259 -31.838  94.152  1.00  0.00     0.209 HD
ENDBRANCH   1  16
TORSDOF 2
ENDMDL
MODEL 5
REMARK VINA RESULT: -5.419767708      2.466      3.780
REMARK  2 active torsions:
REMARK  status: ('A' for Active; 'I' for Inactive)
REMARK    1  A    between atoms: N2_4  and  N3_6 
REMARK    2  A    between atoms: C2_13  and  N6_14 
REMARK       I    between atoms: N6_14  and  C3_16 
ROOT
HETATM    1  N3  UNL     1     -12.947 -31.611  96.316  1.00  0.00    -0.015 N 
HETATM    2  C1  UNL     1     -12.127 -31.228  97.314  1.00  0.00     0.376 A 
HETATM    3  O1  UNL     1     -10.867 -31.235  97.286  1.00  0.00    -0.243 OA
HETATM    4  N4  UNL     1     -12.898 -30.835  98.341  1.00  0.00    -0.235 N 
ATOM      5  H4  UNL     1     -12.544 -30.492  99.235  1.00  0.00     0.192 HD
HETATM    6  N5  UNL     1     -14.175 -30.955  98.036  1.00  0.00    -0.126 N 
ATOM      7  H5  UNL     1     -14.975 -30.731  98.628  1.00  0.00     0.206 HD
HETATM    8  C2  UNL     1     -14.203 -31.434  96.783  1.00  0.00     0.726 A 
ENDROOT
BRANCH   8   9
HETATM    9  N6  UNL     1     -15.259 -31.694  96.111  1.00  0.00    -0.160 N 
HETATM   10  C3  UNL     1     -16.512 -31.111  96.290  1.00  0.00     0.200 C 
HETATM   11  N7  UNL     1     -17.037 -30.269  95.435  1.00  0.00    -0.373 N 
HETATM   12  N8  UNL     1     -17.263 -31.437  97.451  1.00  0.00    -0.063 NA
ATOM     13  H72 UNL     1     -16.498 -30.035  94.601  1.00  0.00     0.158 HD
ATOM     14  H71 UNL     1     -17.955 -29.843  95.566  1.00  0.00     0.158 HD
ATOM     15  H6  UNL     1     -15.177 -32.393  95.374  1.00  0.00     0.187 HD
ENDBRANCH   8   9
BRANCH   1  16
HETATM   16  N2  UNL     1     -12.625 -32.092  95.057  1.00  0.00    -0.224 N 
HETATM   17  N1  UNL     1     -11.434 -32.033  94.667  1.00  0.00    -0.330 N 
ATOM     18  H12 UNL     1     -10.724 -31.633  95.281  1.00  0.00     0.178 HD
ATOM     19  H11 UNL     1     -11.197 -32.388  93.740  1.00  0.00     0.178 HD
ATOM     20  H2  UNL     1     -13.347 -32.489  94.455  1.00  0.00     0.209 HD
ENDBRANCH   1  16
TORSDOF 2
ENDMDL
