MODEL 1
REMARK VINA RESULT: -5.737198501      0.000      0.000
REMARK  0 active torsions:
REMARK  status: ('A' for Active; 'I' for Inactive)
ROOT
HETATM    1  N1  UNL     1     -11.211 -31.800  94.757  1.00  0.00    -0.233 N 
ATOM      2  H11 UNL     1     -10.965 -32.644  94.240  1.00  0.00     0.174 HD
ATOM      3  H12 UNL     1     -10.790 -30.872  94.739  1.00  0.00     0.174 HD
HETATM    4  C1  UNL     1     -12.214 -31.916  95.562  1.00  0.00     0.692 C 
HETATM    5  N2  UNL     1     -12.559 -30.736  96.286  1.00  0.00    -0.116 N 
ATOM      6  H2  UNL     1     -12.114 -29.918  95.868  1.00  0.00     0.203 HD
HETATM    7  N3  UNL     1     -13.322 -30.365  97.392  1.00  0.00    -0.005 NA
HETATM    8  N4  UNL     1     -14.693 -30.577  97.210  1.00  0.00    -0.246 N 
ATOM      9  H4  UNL     1     -15.223 -29.706  97.190  1.00  0.00     0.187 HD
HETATM   10  C2  UNL     1     -15.534 -31.734  97.044  1.00  0.00     0.314 C 
HETATM   11  O1  UNL     1     -16.750 -31.539  97.287  1.00  0.00    -0.262 OA
HETATM   12  C3  UNL     1     -15.229 -33.113  96.639  1.00  0.00     0.308 C 
HETATM   13  O2  UNL     1     -16.169 -33.913  96.854  1.00  0.00    -0.276 OA
HETATM   14  C4  UNL     1     -14.060 -33.752  96.039  1.00  0.00     0.315 C 
HETATM   15  O3  UNL     1     -14.149 -34.989  95.882  1.00  0.00    -0.263 OA
HETATM   16  N5  UNL     1     -12.804 -33.216  95.587  1.00  0.00    -0.152 N 
ATOM     17  H5  UNL     1     -12.192 -33.930  95.192  1.00  0.00     0.187 HD
ENDROOT
TORSDOF 0
ENDMDL
MODEL 2
REMARK VINA RESULT: -5.540922569      2.691      4.422
REMARK  0 active torsions:
REMARK  status: ('A' for Active; 'I' for Inactive)
ROOT
HETATM    1  N1  UNL     1     -17.079 -31.020  97.018  1.00  0.00    -0.233 N 
ATOM      2  H11 UNL     1     -17.165 -30.437  97.851  1.00  0.00     0.174 HD
ATOM      3  H12 UNL     1     -17.779 -31.282  96.325  1.00  0.00     0.174 HD
HETATM    4  C1  UNL     1     -15.902 -31.503  96.797  1.00  0.00     0.692 C 
HETATM    5  N2  UNL     1     -15.782 -32.317  95.632  1.00  0.00    -0.116 N 
ATOM      6  H2  UNL     1     -16.588 -32.186  95.021  1.00  0.00     0.203 HD
HETATM    7  N3  UNL     1     -14.894 -33.237  95.079  1.00  0.00    -0.005 NA
HETATM    8  N4  UNL     1     -13.661 -32.672  94.733  1.00  0.00    -0.246 N 
ATOM      9  H4  UNL     1     -13.500 -32.677  93.726  1.00  0.00     0.187 HD
HETATM   10  C2  UNL     1     -12.568 -32.085  95.461  1.00  0.00     0.314 C 
HETATM   11  O1  UNL     1     -11.482 -32.037  94.831  1.00  0.00    -0.262 OA
HETATM   12  C3  UNL     1     -12.484 -31.526  96.817  1.00  0.00     0.308 C 
HETATM   13  O2  UNL     1     -11.308 -31.339  97.207  1.00  0.00    -0.276 OA
HETATM   14  C4  UNL     1     -13.485 -31.140  97.811  1.00  0.00     0.315 C 
HETATM   15  O3  UNL     1     -13.025 -30.741  98.903  1.00  0.00    -0.263 OA
HETATM   16  N5  UNL     1     -14.922 -31.135  97.768  1.00  0.00    -0.152 N 
ATOM     17  H5  UNL     1     -15.338 -30.787  98.632  1.00  0.00     0.187 HD
ENDROOT
TORSDOF 0
ENDMDL
MODEL 3
REMARK VINA RESULT: -5.247564825      2.710      3.486
REMARK  0 active torsions:
REMARK  status: ('A' for Active; 'I' for Inactive)
ROOT
HETATM    1  N1  UNL     1     -14.308 -35.335  94.788  1.00  0.00    -0.233 N 
ATOM      2  H11 UNL     1     -13.547 -35.611  94.167  1.00  0.00     0.174 HD
ATOM      3  H12 UNL     1     -15.151 -35.841  95.059  1.00  0.00     0.174 HD
HETATM    4  C1  UNL     1     -14.194 -34.164  95.320  1.00  0.00     0.692 C 
HETATM    5  N2  UNL     1     -15.258 -33.779  96.188  1.00  0.00    -0.116 N 
ATOM      6  H2  UNL     1     -15.820 -34.590  96.447  1.00  0.00     0.203 HD
HETATM    7  N3  UNL     1     -15.760 -32.626  96.790  1.00  0.00    -0.005 NA
HETATM    8  N4  UNL     1     -14.881 -32.065  97.723  1.00  0.00    -0.246 N 
ATOM      9  H4  UNL     1     -15.244 -32.108  98.675  1.00  0.00     0.187 HD
HETATM   10  C2  UNL     1     -13.585 -31.443  97.658  1.00  0.00     0.314 C 
HETATM   11  O1  UNL     1     -13.292 -30.732  98.652  1.00  0.00    -0.262 OA
HETATM   12  C3  UNL     1     -12.531 -31.483  96.635  1.00  0.00     0.308 C 
HETATM   13  O2  UNL     1     -11.645 -30.612  96.799  1.00  0.00    -0.276 OA
HETATM   14  C4  UNL     1     -12.296 -32.325  95.464  1.00  0.00     0.315 C 
HETATM   15  O3  UNL     1     -11.294 -32.021  94.781  1.00  0.00    -0.263 OA
HETATM   16  N5  UNL     1     -13.013 -33.457  94.940  1.00  0.00    -0.152 N 
ATOM     17  H5  UNL     1     -12.577 -33.843  94.103  1.00  0.00     0.187 HD
ENDROOT
TORSDOF 0
ENDMDL
MODEL 4
REMARK VINA RESULT: -4.579421561      3.671      5.466
REMARK  0 active torsions:
REMARK  status: ('A' for Active; 'I' for Inactive)
ROOT
HETATM    1  N1  UNL     1     -14.408 -34.001  97.247  1.00  0.00    -0.233 N 
ATOM      2  H11 UNL     1     -14.932 -34.118  98.115  1.00  0.00     0.174 HD
ATOM      3  H12 UNL     1     -13.683 -33.328  97.003  1.00  0.00     0.174 HD
HETATM    4  C1  UNL     1     -14.702 -34.834  96.305  1.00  0.00     0.692 C 
HETATM    5  N2  UNL     1     -13.970 -34.672  95.092  1.00  0.00    -0.116 N 
ATOM      6  H2  UNL     1     -13.153 -34.080  95.245  1.00  0.00     0.203 HD
HETATM    7  N3  UNL     1     -14.036 -35.079  93.761  1.00  0.00    -0.005 NA
HETATM    8  N4  UNL     1     -13.872 -36.460  93.600  1.00  0.00    -0.246 N 
ATOM      9  H4  UNL     1     -13.015 -36.694  93.100  1.00  0.00     0.187 HD
HETATM   10  C2  UNL     1     -14.627 -37.627  93.973  1.00  0.00     0.314 C 
HETATM   11  O1  UNL     1     -14.346 -38.664  93.323  1.00  0.00    -0.262 OA
HETATM   12  C3  UNL     1     -15.675 -37.832  94.982  1.00  0.00     0.308 C 
HETATM   13  O2  UNL     1     -16.287 -38.918  94.851  1.00  0.00    -0.276 OA
HETATM   14  C4  UNL     1     -16.157 -37.036  96.110  1.00  0.00     0.315 C 
HETATM   15  O3  UNL     1     -17.127 -37.523  96.730  1.00  0.00    -0.263 OA
HETATM   16  N5  UNL     1     -15.719 -35.777  96.648  1.00  0.00    -0.152 N 
ATOM     17  H5  UNL     1     -16.259 -35.491  97.464  1.00  0.00     0.187 HD
ENDROOT
TORSDOF 0
ENDMDL
MODEL 5
REMARK VINA RESULT: -4.564250128      1.079      2.959
REMARK  0 active torsions:
REMARK  status: ('A' for Active; 'I' for Inactive)
ROOT
HETATM    1  N1  UNL     1     -11.305 -30.554  96.675  1.00  0.00    -0.233 N 
ATOM      2  H11 UNL     1     -11.495 -29.682  97.169  1.00  0.00     0.174 HD
ATOM      3  H12 UNL     1     -10.418 -30.976  96.403  1.00  0.00     0.174 HD
HETATM    4  C1  UNL     1     -12.347 -31.240  96.339  1.00  0.00     0.692 C 
HETATM    5  N2  UNL     1     -12.081 -32.460  95.649  1.00  0.00    -0.116 N 
ATOM      6  H2  UNL     1     -11.100 -32.720  95.748  1.00  0.00     0.203 HD
HETATM    7  N3  UNL     1     -12.761 -33.403  94.880  1.00  0.00    -0.005 NA
HETATM    8  N4  UNL     1     -13.739 -34.098  95.600  1.00  0.00    -0.246 N 
ATOM      9  H4  UNL     1     -13.518 -35.089  95.701  1.00  0.00     0.187 HD
HETATM   10  C2  UNL     1     -14.984 -33.747  96.232  1.00  0.00     0.314 C 
HETATM   11  O1  UNL     1     -15.755 -34.714  96.448  1.00  0.00    -0.262 OA
HETATM   12  C3  UNL     1     -15.525 -32.454  96.673  1.00  0.00     0.308 C 
HETATM   13  O2  UNL     1     -16.747 -32.494  96.947  1.00  0.00    -0.276 OA
HETATM   14  C4  UNL     1     -14.939 -31.128  96.862  1.00  0.00     0.315 C 
HETATM   15  O3  UNL     1     -15.741 -30.235  97.208  1.00  0.00    -0.263 OA
HETATM   16  N5  UNL     1     -13.590 -30.650  96.720  1.00  0.00    -0.152 N 
ATOM     17  H5  UNL     1     -13.500 -29.659  96.944  1.00  0.00     0.187 HD
ENDROOT
TORSDOF 0
ENDMDL
