MODEL 1
REMARK VINA RESULT: -6.186177698      0.000      0.000
REMARK  2 active torsions:
REMARK  status: ('A' for Active; 'I' for Inactive)
REMARK    1  A    between atoms: C3_9  and  C4_10 
REMARK    2  A    between atoms: C5_15  and  N6_16 
ROOT
HETATM    1  C1  UNL     1     -16.697 -34.534  95.661  1.00  0.00     0.197 C 
HETATM    2  N1  UNL     1     -15.511 -33.705  95.723  1.00  0.00    -0.126 N 
HETATM    3  N2  UNL     1     -15.638 -32.473  96.182  1.00  0.00    -0.268 N 
ATOM      4  H2  UNL     1     -16.557 -32.143  96.477  1.00  0.00     0.189 HD
HETATM    5  C2  UNL     1     -14.580 -31.642  96.271  1.00  0.00     0.147 A 
HETATM    6  N3  UNL     1     -14.625 -30.446  96.702  1.00  0.00    -0.382 N 
ATOM      7  H31 UNL     1     -13.825 -29.817  96.770  1.00  0.00     0.157 HD
ATOM      8  H32 UNL     1     -15.530 -30.084  97.007  1.00  0.00     0.157 HD
HETATM    9  C3  UNL     1     -13.351 -32.133  95.858  1.00  0.00     0.158 A 
HETATM   10  N5  UNL     1     -13.271 -33.391  95.397  1.00  0.00    -0.181 N 
ATOM     11  H5  UNL     1     -12.361 -33.739  95.097  1.00  0.00     0.184 HD
HETATM   12  C5  UNL     1     -14.331 -34.217  95.311  1.00  0.00     0.701 A 
ENDROOT
BRANCH  12  13
HETATM   13  N6  UNL     1     -14.234 -35.550  94.821  1.00  0.00    -0.164 N 
HETATM   14  C6  UNL     1     -14.400 -35.886  93.605  1.00  0.00     0.215 C 
HETATM   15  N7  UNL     1     -14.273 -37.268  93.255  1.00  0.00    -0.066 NA
HETATM   16  N8  UNL     1     -14.705 -34.907  92.624  1.00  0.00    -0.066 NA
ATOM     17  H6  UNL     1     -14.015 -36.287  95.491  1.00  0.00     0.186 HD
ENDBRANCH  12  13
BRANCH   9  18
HETATM   18  C4  UNL     1     -12.178 -31.278  95.932  1.00  0.00     0.285 C 
HETATM   19  N4  UNL     1     -11.093 -31.546  96.805  1.00  0.00    -0.056 NA
HETATM   20  O1  UNL     1     -12.137 -30.267  95.190  1.00  0.00    -0.269 OA
ENDBRANCH   9  18
TORSDOF 2
ENDMDL
MODEL 2
REMARK VINA RESULT: -6.097057751      2.342      4.791
REMARK  2 active torsions:
REMARK  status: ('A' for Active; 'I' for Inactive)
REMARK    1  A    between atoms: C3_9  and  C4_10 
REMARK    2  A    between atoms: C5_15  and  N6_16 
ROOT
HETATM    1  C1  UNL     1     -16.224 -31.876  96.454  1.00  0.00     0.197 C 
HETATM    2  N1  UNL     1     -15.771 -33.141  95.916  1.00  0.00    -0.126 N 
HETATM    3  N2  UNL     1     -16.671 -33.945  95.377  1.00  0.00    -0.268 N 
ATOM      4  H2  UNL     1     -17.648 -33.656  95.357  1.00  0.00     0.189 HD
HETATM    5  C2  UNL     1     -16.325 -35.139  94.855  1.00  0.00     0.147 A 
HETATM    6  N3  UNL     1     -17.134 -35.964  94.321  1.00  0.00    -0.382 N 
ATOM      7  H31 UNL     1     -16.873 -36.867  93.926  1.00  0.00     0.157 HD
ATOM      8  H32 UNL     1     -18.120 -35.705  94.282  1.00  0.00     0.157 HD
HETATM    9  C3  UNL     1     -14.985 -35.492  94.907  1.00  0.00     0.158 A 
HETATM   10  N5  UNL     1     -14.108 -34.643  95.466  1.00  0.00    -0.181 N 
ATOM     11  H5  UNL     1     -13.125 -34.914  95.497  1.00  0.00     0.184 HD
HETATM   12  C5  UNL     1     -14.458 -33.452  95.985  1.00  0.00     0.701 A 
ENDROOT
BRANCH  12  13
HETATM   13  N6  UNL     1     -13.518 -32.559  96.574  1.00  0.00    -0.164 N 
HETATM   14  C6  UNL     1     -12.578 -31.981  95.941  1.00  0.00     0.215 C 
HETATM   15  N7  UNL     1     -11.704 -31.107  96.664  1.00  0.00    -0.066 NA
HETATM   16  N8  UNL     1     -12.406 -32.201  94.549  1.00  0.00    -0.066 NA
ATOM     17  H6  UNL     1     -13.604 -32.370  97.572  1.00  0.00     0.186 HD
ENDBRANCH  12  13
BRANCH   9  18
HETATM   18  C4  UNL     1     -14.560 -36.769  94.359  1.00  0.00     0.285 C 
HETATM   19  N4  UNL     1     -14.508 -37.953  95.138  1.00  0.00    -0.056 NA
HETATM   20  O1  UNL     1     -14.228 -36.811  93.150  1.00  0.00    -0.269 OA
ENDBRANCH   9  18
TORSDOF 2
ENDMDL
MODEL 3
REMARK VINA RESULT: -6.089638078      1.996      2.413
REMARK  2 active torsions:
REMARK  status: ('A' for Active; 'I' for Inactive)
REMARK    1  A    between atoms: C3_9  and  C4_10 
REMARK    2  A    between atoms: C5_15  and  N6_16 
ROOT
HETATM    1  C1  UNL     1     -16.789 -35.757  95.395  1.00  0.00     0.197 C 
HETATM    2  N1  UNL     1     -15.825 -34.710  95.662  1.00  0.00    -0.126 N 
HETATM    3  N2  UNL     1     -16.250 -33.459  95.656  1.00  0.00    -0.268 N 
ATOM      4  H2  UNL     1     -17.233 -33.267  95.464  1.00  0.00     0.189 HD
HETATM    5  C2  UNL     1     -15.413 -32.430  95.897  1.00  0.00     0.147 A 
HETATM    6  N3  UNL     1     -15.749 -31.203  95.907  1.00  0.00    -0.382 N 
ATOM      7  H31 UNL     1     -15.116 -30.424  96.090  1.00  0.00     0.157 HD
ATOM      8  H32 UNL     1     -16.726 -30.976  95.720  1.00  0.00     0.157 HD
HETATM    9  C3  UNL     1     -14.085 -32.738  96.151  1.00  0.00     0.158 A 
HETATM   10  N5  UNL     1     -13.700 -34.024  96.146  1.00  0.00    -0.181 N 
ATOM     11  H5  UNL     1     -12.721 -34.236  96.335  1.00  0.00     0.184 HD
HETATM   12  C5  UNL     1     -14.540 -35.047  95.905  1.00  0.00     0.701 A 
ENDROOT
BRANCH  12  13
HETATM   13  N6  UNL     1     -14.120 -36.408  95.904  1.00  0.00    -0.164 N 
HETATM   14  C6  UNL     1     -13.962 -37.115  96.949  1.00  0.00     0.215 C 
HETATM   15  N7  UNL     1     -13.533 -38.473  96.797  1.00  0.00    -0.066 NA
HETATM   16  N8  UNL     1     -14.207 -36.565  98.234  1.00  0.00    -0.066 NA
ATOM     17  H6  UNL     1     -13.933 -36.845  95.002  1.00  0.00     0.186 HD
ENDBRANCH  12  13
BRANCH   9  18
HETATM   18  C4  UNL     1     -13.140 -31.665  96.417  1.00  0.00     0.285 C 
HETATM   19  N4  UNL     1     -12.242 -31.180  95.432  1.00  0.00    -0.056 NA
HETATM   20  O1  UNL     1     -13.130 -31.159  97.564  1.00  0.00    -0.269 OA
ENDBRANCH   9  18
TORSDOF 2
ENDMDL
MODEL 4
REMARK VINA RESULT: -5.950800364      1.613      2.313
REMARK  2 active torsions:
REMARK  status: ('A' for Active; 'I' for Inactive)
REMARK    1  A    between atoms: C3_9  and  C4_10 
REMARK    2  A    between atoms: C5_15  and  N6_16 
ROOT
HETATM    1  C1  UNL     1     -17.175 -35.958  93.361  1.00  0.00     0.197 C 
HETATM    2  N1  UNL     1     -16.100 -35.099  93.814  1.00  0.00    -0.126 N 
HETATM    3  N2  UNL     1     -16.422 -33.957  94.396  1.00  0.00    -0.268 N 
ATOM      4  H2  UNL     1     -17.405 -33.714  94.507  1.00  0.00     0.189 HD
HETATM    5  C2  UNL     1     -15.477 -33.105  94.845  1.00  0.00     0.147 A 
HETATM    6  N3  UNL     1     -15.710 -31.991  95.413  1.00  0.00    -0.382 N 
ATOM      7  H31 UNL     1     -14.997 -31.347  95.753  1.00  0.00     0.157 HD
ATOM      8  H32 UNL     1     -16.685 -31.718  95.542  1.00  0.00     0.157 HD
HETATM    9  C3  UNL     1     -14.153 -33.476  94.670  1.00  0.00     0.158 A 
HETATM   10  N5  UNL     1     -13.875 -34.646  94.073  1.00  0.00    -0.181 N 
ATOM     11  H5  UNL     1     -12.897 -34.906  93.952  1.00  0.00     0.184 HD
HETATM   12  C5  UNL     1     -14.821 -35.493  93.627  1.00  0.00     0.701 A 
ENDROOT
BRANCH  12  13
HETATM   13  N6  UNL     1     -14.515 -36.731  92.996  1.00  0.00    -0.164 N 
HETATM   14  C6  UNL     1     -14.228 -37.805  93.615  1.00  0.00     0.215 C 
HETATM   15  N7  UNL     1     -13.940 -38.980  92.849  1.00  0.00    -0.066 NA
HETATM   16  N8  UNL     1     -14.198 -37.831  95.034  1.00  0.00    -0.066 NA
ATOM     17  H6  UNL     1     -14.525 -36.760  91.976  1.00  0.00     0.186 HD
ENDBRANCH  12  13
BRANCH   9  18
HETATM   18  C4  UNL     1     -13.096 -32.594  95.136  1.00  0.00     0.285 C 
HETATM   19  N4  UNL     1     -13.014 -32.146  96.479  1.00  0.00    -0.056 NA
HETATM   20  O1  UNL     1     -12.231 -32.221  94.307  1.00  0.00    -0.269 OA
ENDBRANCH   9  18
TORSDOF 2
ENDMDL
MODEL 5
REMARK VINA RESULT: -5.726933483      3.147      5.053
REMARK  2 active torsions:
REMARK  status: ('A' for Active; 'I' for Inactive)
REMARK    1  A    between atoms: C3_9  and  C4_10 
REMARK    2  A    between atoms: C5_15  and  N6_16 
ROOT
HETATM    1  C1  UNL     1     -15.700 -33.400  93.992  1.00  0.00     0.197 C 
HETATM    2  N1  UNL     1     -15.304 -34.397  94.964  1.00  0.00    -0.126 N 
HETATM    3  N2  UNL     1     -16.150 -35.379  95.226  1.00  0.00    -0.268 N 
ATOM      4  H2  UNL     1     -17.047 -35.406  94.742  1.00  0.00     0.189 HD
HETATM    5  C2  UNL     1     -15.852 -36.346  96.118  1.00  0.00     0.147 A 
HETATM    6  N3  UNL     1     -16.614 -37.319  96.420  1.00  0.00    -0.382 N 
ATOM      7  H31 UNL     1     -16.389 -38.050  97.094  1.00  0.00     0.157 HD
ATOM      8  H32 UNL     1     -17.520 -37.377  95.953  1.00  0.00     0.157 HD
HETATM    9  C3  UNL     1     -14.622 -36.267  96.752  1.00  0.00     0.158 A 
HETATM   10  N5  UNL     1     -13.797 -35.251  96.455  1.00  0.00    -0.181 N 
ATOM     11  H5  UNL     1     -12.895 -35.206  96.929  1.00  0.00     0.184 HD
HETATM   12  C5  UNL     1     -14.098 -34.289  95.564  1.00  0.00     0.701 A 
ENDROOT
BRANCH  12  13
HETATM   13  N6  UNL     1     -13.215 -33.216  95.256  1.00  0.00    -0.164 N 
HETATM   14  C6  UNL     1     -13.103 -32.153  95.946  1.00  0.00     0.215 C 
HETATM   15  N7  UNL     1     -12.171 -31.154  95.516  1.00  0.00    -0.066 NA
HETATM   16  N8  UNL     1     -13.887 -31.967  97.114  1.00  0.00    -0.066 NA
ATOM     17  H6  UNL     1     -12.630 -33.306  94.425  1.00  0.00     0.186 HD
ENDBRANCH  12  13
BRANCH   9  18
HETATM   18  C4  UNL     1     -14.253 -37.283  97.724  1.00  0.00     0.285 C 
HETATM   19  N4  UNL     1     -14.437 -37.107  99.119  1.00  0.00    -0.056 NA
HETATM   20  O1  UNL     1     -13.752 -38.352  97.298  1.00  0.00    -0.269 OA
ENDBRANCH   9  18
TORSDOF 2
ENDMDL
