MODEL 1
REMARK VINA RESULT: -5.562711581      0.000      0.000
REMARK  4 active torsions:
REMARK  status: ('A' for Active; 'I' for Inactive)
REMARK       I    between atoms: C1_4  and  N2_5 
REMARK       I    between atoms: C1_4  and  N5_14 
REMARK       I    between atoms: N2_5  and  C2_7 
REMARK       I    between atoms: C2_7  and  N3_9 
REMARK    1  A    between atoms: N3_9  and  N4_11 
REMARK    2  A    between atoms: N4_11  and  O2_12 
REMARK    3  A    between atoms: N5_14  and  S1_16 
REMARK    4  A    between atoms: S1_16  and  N6_17 
ROOT
HETATM    1  N1  UNL     1     -15.990 -31.147  97.423  1.00  0.00    -0.234 N 
ATOM      2  H11 UNL     1     -16.858 -31.675  97.324  1.00  0.00     0.174 HD
ATOM      3  H12 UNL     1     -15.875 -30.240  97.873  1.00  0.00     0.174 HD
HETATM    4  C1  UNL     1     -14.876 -31.660  96.929  1.00  0.00     0.690 C 
HETATM    5  N2  UNL     1     -13.695 -30.942  97.063  1.00  0.00    -0.140 N 
ATOM      6  H2  UNL     1     -13.703 -30.040  97.539  1.00  0.00     0.189 HD
HETATM    7  C2  UNL     1     -12.479 -31.449  96.544  1.00  0.00     0.351 C 
HETATM    8  O1  UNL     1     -12.414 -32.544  95.955  1.00  0.00    -0.245 OA
HETATM    9  N3  UNL     1     -11.284 -30.698  96.692  1.00  0.00    -0.229 N 
ATOM     10  H3  UNL     1     -11.321 -29.801  97.175  1.00  0.00     0.189 HD
HETATM   11  N5  UNL     1     -15.035 -32.911  96.307  1.00  0.00    -0.100 N 
ATOM     12  H5  UNL     1     -14.474 -33.700  96.629  1.00  0.00     0.199 HD
ENDROOT
BRANCH  11  13
HETATM   13  S1  UNL     1     -16.149 -33.146  95.022  1.00  0.00     0.330 S 
HETATM   14  O3  UNL     1     -16.854 -34.444  95.227  1.00  0.00    -0.182 OA
HETATM   15  O4  UNL     1     -17.146 -32.020  94.944  1.00  0.00    -0.182 OA
BRANCH  13  16
HETATM   16  N6  UNL     1     -15.335 -33.218  93.498  1.00  0.00    -0.311 N 
ATOM     17  H62 UNL     1     -14.375 -32.904  93.354  1.00  0.00     0.170 HD
ATOM     18  H61 UNL     1     -15.939 -33.612  92.777  1.00  0.00     0.170 HD
ENDBRANCH  13  16
ENDBRANCH  11  13
BRANCH   9  19
HETATM   19  N4  UNL     1     -10.052 -31.153  96.192  1.00  0.00     0.022 NA
BRANCH  19  20
HETATM   20  O2  UNL     1      -9.533 -32.032  97.100  1.00  0.00    -0.277 OA
ATOM     21  H2  UNL     1      -8.594 -31.894  97.133  1.00  0.00     0.240 HD
ENDBRANCH  19  20
ENDBRANCH   9  19
TORSDOF 4
ENDMDL
MODEL 2
REMARK VINA RESULT: -5.542586899      2.790      3.730
REMARK  4 active torsions:
REMARK  status: ('A' for Active; 'I' for Inactive)
REMARK       I    between atoms: C1_4  and  N2_5 
REMARK       I    between atoms: C1_4  and  N5_14 
REMARK       I    between atoms: N2_5  and  C2_7 
REMARK       I    between atoms: C2_7  and  N3_9 
REMARK    1  A    between atoms: N3_9  and  N4_11 
REMARK    2  A    between atoms: N4_11  and  O2_12 
REMARK    3  A    between atoms: N5_14  and  S1_16 
REMARK    4  A    between atoms: S1_16  and  N6_17 
ROOT
HETATM    1  N1  UNL     1     -15.537 -34.411  92.920  1.00  0.00    -0.234 N 
ATOM      2  H11 UNL     1     -16.096 -35.259  92.826  1.00  0.00     0.174 HD
ATOM      3  H12 UNL     1     -15.316 -33.740  92.185  1.00  0.00     0.174 HD
HETATM    4  C1  UNL     1     -15.027 -34.116  94.104  1.00  0.00     0.690 C 
HETATM    5  N2  UNL     1     -14.265 -32.961  94.231  1.00  0.00    -0.140 N 
ATOM      6  H2  UNL     1     -14.115 -32.362  93.420  1.00  0.00     0.189 HD
HETATM    7  C2  UNL     1     -13.694 -32.606  95.478  1.00  0.00     0.351 C 
HETATM    8  O1  UNL     1     -13.847 -33.303  96.500  1.00  0.00    -0.245 OA
HETATM    9  N3  UNL     1     -12.919 -31.423  95.586  1.00  0.00    -0.229 N 
ATOM     10  H3  UNL     1     -12.788 -30.841  94.758  1.00  0.00     0.189 HD
HETATM   11  N5  UNL     1     -15.330 -35.040  95.117  1.00  0.00    -0.100 N 
ATOM     12  H5  UNL     1     -15.787 -34.712  95.969  1.00  0.00     0.199 HD
ENDROOT
BRANCH  11  13
HETATM   13  S1  UNL     1     -14.952 -36.708  94.961  1.00  0.00     0.330 S 
HETATM   14  O3  UNL     1     -16.202 -37.503  95.130  1.00  0.00    -0.182 OA
HETATM   15  O4  UNL     1     -14.320 -37.007  93.628  1.00  0.00    -0.182 OA
BRANCH  13  16
HETATM   16  N6  UNL     1     -13.834 -37.210  96.183  1.00  0.00    -0.311 N 
ATOM     17  H62 UNL     1     -12.825 -37.247  96.044  1.00  0.00     0.170 HD
ATOM     18  H61 UNL     1     -14.319 -37.458  97.045  1.00  0.00     0.170 HD
ENDBRANCH  13  16
ENDBRANCH  11  13
BRANCH   9  19
HETATM   19  N4  UNL     1     -12.327 -31.028  96.797  1.00  0.00     0.022 NA
BRANCH  19  20
HETATM   20  O2  UNL     1     -13.330 -30.711  97.667  1.00  0.00    -0.277 OA
ATOM     21  H2  UNL     1     -12.981 -30.777  98.548  1.00  0.00     0.240 HD
ENDBRANCH  19  20
ENDBRANCH   9  19
TORSDOF 4
ENDMDL
MODEL 3
REMARK VINA RESULT: -5.512476604      1.573      2.479
REMARK  4 active torsions:
REMARK  status: ('A' for Active; 'I' for Inactive)
REMARK       I    between atoms: C1_4  and  N2_5 
REMARK       I    between atoms: C1_4  and  N5_14 
REMARK       I    between atoms: N2_5  and  C2_7 
REMARK       I    between atoms: C2_7  and  N3_9 
REMARK    1  A    between atoms: N3_9  and  N4_11 
REMARK    2  A    between atoms: N4_11  and  O2_12 
REMARK    3  A    between atoms: N5_14  and  S1_16 
REMARK    4  A    between atoms: S1_16  and  N6_17 
ROOT
HETATM    1  N1  UNL     1     -15.164 -34.310  94.839  1.00  0.00    -0.234 N 
ATOM      2  H11 UNL     1     -16.126 -34.228  94.510  1.00  0.00     0.174 HD
ATOM      3  H12 UNL     1     -14.632 -35.171  94.964  1.00  0.00     0.174 HD
HETATM    4  C1  UNL     1     -14.503 -33.207  95.146  1.00  0.00     0.690 C 
HETATM    5  N2  UNL     1     -13.193 -33.319  95.595  1.00  0.00    -0.140 N 
ATOM      6  H2  UNL     1     -12.763 -34.240  95.676  1.00  0.00     0.189 HD
HETATM    7  C2  UNL     1     -12.447 -32.166  95.941  1.00  0.00     0.351 C 
HETATM    8  O1  UNL     1     -12.925 -31.017  95.859  1.00  0.00    -0.245 OA
HETATM    9  N3  UNL     1     -11.111 -32.302  96.397  1.00  0.00    -0.229 N 
ATOM     10  H3  UNL     1     -10.706 -33.236  96.466  1.00  0.00     0.189 HD
HETATM   11  N5  UNL     1     -15.236 -32.021  94.975  1.00  0.00    -0.100 N 
ATOM     12  H5  UNL     1     -14.861 -31.288  94.372  1.00  0.00     0.199 HD
ENDROOT
BRANCH  11  13
HETATM   13  S1  UNL     1     -16.746 -31.771  95.752  1.00  0.00     0.330 S 
HETATM   14  O3  UNL     1     -17.584 -30.879  94.901  1.00  0.00    -0.182 OA
HETATM   15  O4  UNL     1     -17.459 -33.074  96.001  1.00  0.00    -0.182 OA
BRANCH  13  16
HETATM   16  N6  UNL     1     -16.537 -30.999  97.286  1.00  0.00    -0.311 N 
ATOM     17  H62 UNL     1     -15.846 -31.293  97.977  1.00  0.00     0.170 HD
ATOM     18  H61 UNL     1     -17.189 -30.223  97.400  1.00  0.00     0.170 HD
ENDBRANCH  13  16
ENDBRANCH  11  13
BRANCH   9  19
HETATM   19  N4  UNL     1     -10.329 -31.192  96.758  1.00  0.00     0.022 NA
BRANCH  19  20
HETATM   20  O2  UNL     1      -9.051 -31.630  96.956  1.00  0.00    -0.277 OA
ATOM     21  H2  UNL     1      -8.994 -32.518  96.625  1.00  0.00     0.240 HD
ENDBRANCH  19  20
ENDBRANCH   9  19
TORSDOF 4
ENDMDL
MODEL 4
REMARK VINA RESULT: -5.508690045      2.380      2.914
REMARK  4 active torsions:
REMARK  status: ('A' for Active; 'I' for Inactive)
REMARK       I    between atoms: C1_4  and  N2_5 
REMARK       I    between atoms: C1_4  and  N5_14 
REMARK       I    between atoms: N2_5  and  C2_7 
REMARK       I    between atoms: C2_7  and  N3_9 
REMARK    1  A    between atoms: N3_9  and  N4_11 
REMARK    2  A    between atoms: N4_11  and  O2_12 
REMARK    3  A    between atoms: N5_14  and  S1_16 
REMARK    4  A    between atoms: S1_16  and  N6_17 
ROOT
HETATM    1  N1  UNL     1     -15.728 -35.719  96.242  1.00  0.00    -0.234 N 
ATOM      2  H11 UNL     1     -16.041 -36.474  95.631  1.00  0.00     0.174 HD
ATOM      3  H12 UNL     1     -16.036 -35.540  97.198  1.00  0.00     0.174 HD
HETATM    4  C1  UNL     1     -14.830 -34.864  95.785  1.00  0.00     0.690 C 
HETATM    5  N2  UNL     1     -14.405 -33.836  96.618  1.00  0.00    -0.140 N 
ATOM      6  H2  UNL     1     -14.785 -33.760  97.561  1.00  0.00     0.189 HD
HETATM    7  C2  UNL     1     -13.449 -32.893  96.170  1.00  0.00     0.351 C 
HETATM    8  O1  UNL     1     -12.953 -32.941  95.028  1.00  0.00    -0.245 OA
HETATM    9  N3  UNL     1     -13.028 -31.851  97.036  1.00  0.00    -0.229 N 
ATOM     10  H3  UNL     1     -13.423 -31.800  97.976  1.00  0.00     0.189 HD
HETATM   11  N5  UNL     1     -14.406 -35.111  94.468  1.00  0.00    -0.100 N 
ATOM     12  H5  UNL     1     -13.411 -35.237  94.283  1.00  0.00     0.199 HD
ENDROOT
BRANCH  11  13
HETATM   13  S1  UNL     1     -15.518 -35.206  93.164  1.00  0.00     0.330 S 
HETATM   14  O3  UNL     1     -16.860 -34.765  93.641  1.00  0.00    -0.182 OA
HETATM   15  O4  UNL     1     -15.076 -34.360  92.000  1.00  0.00    -0.182 OA
BRANCH  13  16
HETATM   16  N6  UNL     1     -15.666 -36.832  92.590  1.00  0.00    -0.311 N 
ATOM     17  H62 UNL     1     -15.442 -37.652  93.153  1.00  0.00     0.170 HD
ATOM     18  H61 UNL     1     -16.004 -36.852  91.628  1.00  0.00     0.170 HD
ENDBRANCH  13  16
ENDBRANCH  11  13
BRANCH   9  19
HETATM   19  N4  UNL     1     -12.087 -30.887  96.641  1.00  0.00     0.022 NA
BRANCH  19  20
HETATM   20  O2  UNL     1     -10.849 -31.460  96.711  1.00  0.00    -0.277 OA
ATOM     21  H2  UNL     1     -10.208 -30.761  96.756  1.00  0.00     0.240 HD
ENDBRANCH  19  20
ENDBRANCH   9  19
TORSDOF 4
ENDMDL
MODEL 5
REMARK VINA RESULT: -5.404387505      3.035      3.681
REMARK  4 active torsions:
REMARK  status: ('A' for Active; 'I' for Inactive)
REMARK       I    between atoms: C1_4  and  N2_5 
REMARK       I    between atoms: C1_4  and  N5_14 
REMARK       I    between atoms: N2_5  and  C2_7 
REMARK       I    between atoms: C2_7  and  N3_9 
REMARK    1  A    between atoms: N3_9  and  N4_11 
REMARK    2  A    between atoms: N4_11  and  O2_12 
REMARK    3  A    between atoms: N5_14  and  S1_16 
REMARK    4  A    between atoms: S1_16  and  N6_17 
ROOT
HETATM    1  N1  UNL     1     -15.341 -36.742  96.468  1.00  0.00    -0.234 N 
ATOM      2  H11 UNL     1     -15.828 -37.552  96.085  1.00  0.00     0.174 HD
ATOM      3  H12 UNL     1     -15.184 -36.534  97.454  1.00  0.00     0.174 HD
HETATM    4  C1  UNL     1     -14.846 -35.845  95.632  1.00  0.00     0.690 C 
HETATM    5  N2  UNL     1     -14.184 -34.742  96.155  1.00  0.00    -0.140 N 
ATOM      6  H2  UNL     1     -14.086 -34.643  97.166  1.00  0.00     0.189 HD
HETATM    7  C2  UNL     1     -13.642 -33.753  95.299  1.00  0.00     0.351 C 
HETATM    8  O1  UNL     1     -13.733 -33.826  94.059  1.00  0.00    -0.245 OA
HETATM    9  N3  UNL     1     -12.970 -32.634  95.854  1.00  0.00    -0.229 N 
ATOM     10  H3  UNL     1     -12.884 -32.561  96.868  1.00  0.00     0.189 HD
HETATM   11  N5  UNL     1     -15.062 -36.132  94.274  1.00  0.00    -0.100 N 
ATOM     12  H5  UNL     1     -14.261 -36.189  93.645  1.00  0.00     0.199 HD
ENDROOT
BRANCH  11  13
HETATM   13  S1  UNL     1     -16.639 -36.389  93.644  1.00  0.00     0.330 S 
HETATM   14  O3  UNL     1     -17.354 -37.362  94.519  1.00  0.00    -0.182 OA
HETATM   15  O4  UNL     1     -17.414 -35.101  93.557  1.00  0.00    -0.182 OA
BRANCH  13  16
HETATM   16  N6  UNL     1     -16.571 -37.057  92.050  1.00  0.00    -0.311 N 
ATOM     17  H62 UNL     1     -16.531 -36.492  91.202  1.00  0.00     0.170 HD
ATOM     18  H61 UNL     1     -16.578 -38.077  92.078  1.00  0.00     0.170 HD
ENDBRANCH  13  16
ENDBRANCH  11  13
BRANCH   9  19
HETATM   19  N4  UNL     1     -12.418 -31.622  95.051  1.00  0.00     0.022 NA
BRANCH  19  20
HETATM   20  O2  UNL     1     -11.581 -32.215  94.149  1.00  0.00    -0.277 OA
ATOM     21  H2  UNL     1     -10.810 -31.667  94.066  1.00  0.00     0.240 HD
ENDBRANCH  19  20
ENDBRANCH   9  19
TORSDOF 4
ENDMDL
