MODEL 1
REMARK VINA RESULT: -6.769488055      0.000      0.000
REMARK  4 active torsions:
REMARK  status: ('A' for Active; 'I' for Inactive)
REMARK    1  A    between atoms: O1_2  and  N1_3 
REMARK    2  A    between atoms: N1_3  and  N2_5 
REMARK    3  A    between atoms: C3_12  and  N6_13 
REMARK       I    between atoms: N6_13  and  C4_15 
REMARK       I    between atoms: C4_15  and  N8_19 
REMARK    4  A    between atoms: N8_19  and  N9_21 
ROOT
HETATM    1  N6  UNL     1     -14.534 -33.754  96.447  1.00  0.00    -0.169 N 
ATOM      2  H6  UNL     1     -14.102 -34.185  97.264  1.00  0.00     0.186 HD
HETATM    3  C4  UNL     1     -14.963 -34.586  95.397  1.00  0.00     0.693 C 
HETATM    4  N7  UNL     1     -16.159 -35.043  95.383  1.00  0.00    -0.233 N 
ATOM      5  H71 UNL     1     -16.470 -35.647  94.622  1.00  0.00     0.174 HD
ATOM      6  H72 UNL     1     -16.789 -34.790  96.143  1.00  0.00     0.174 HD
HETATM    7  N8  UNL     1     -14.088 -34.940  94.341  1.00  0.00    -0.118 N 
ATOM      8  H8  UNL     1     -13.426 -34.242  94.002  1.00  0.00     0.207 HD
ENDROOT
BRANCH   1   9
HETATM    9  C3  UNL     1     -14.662 -32.464  96.423  1.00  0.00     0.206 A 
HETATM   10  N2  UNL     1     -13.608 -31.592  96.418  1.00  0.00    -0.141 N 
HETATM   11  N3  UNL     1     -14.151 -30.397  96.391  1.00  0.00    -0.217 N 
HETATM   12  N4  UNL     1     -15.470 -30.457  96.379  1.00  0.00    -0.268 N 
ATOM     13  H3  UNL     1     -13.619 -29.527  96.381  1.00  0.00     0.210 HD
HETATM   14  C2  UNL     1     -15.850 -31.770  96.398  1.00  0.00     0.180 A 
ATOM     15  H4  UNL     1     -16.101 -29.656  96.360  1.00  0.00     0.190 HD
HETATM   16  N5  UNL     1     -17.183 -32.269  96.394  1.00  0.00    -0.077 NA
BRANCH  10  17
HETATM   17  N1  UNL     1     -12.276 -31.978  96.439  1.00  0.00    -0.184 N 
ATOM     18  H1  UNL     1     -12.048 -32.942  96.193  1.00  0.00     0.218 HD
BRANCH  17  19
HETATM   19  O1  UNL     1     -11.264 -31.145  96.767  1.00  0.00    -0.268 OA
HETATM   20  C1  UNL     1     -10.030 -31.748  96.777  1.00  0.00     0.239 C 
ENDBRANCH  17  19
ENDBRANCH  10  17
ENDBRANCH   1   9
BRANCH   7  21
HETATM   21  N9  UNL     1     -14.092 -36.202  93.747  1.00  0.00    -0.235 N 
HETATM   22  N10 UNL     1     -14.753 -36.471  92.689  1.00  0.00    -0.330 N 
ATOM     23 2H10 UNL     1     -15.298 -35.717  92.270  1.00  0.00     0.178 HD
ATOM     24 1H10 UNL     1     -14.757 -37.394  92.254  1.00  0.00     0.178 HD
ATOM     25  H9  UNL     1     -13.541 -36.945  94.179  1.00  0.00     0.208 HD
ENDBRANCH   7  21
TORSDOF 4
ENDMDL
MODEL 2
REMARK VINA RESULT: -6.698227848      2.367      4.661
REMARK  4 active torsions:
REMARK  status: ('A' for Active; 'I' for Inactive)
REMARK    1  A    between atoms: O1_2  and  N1_3 
REMARK    2  A    between atoms: N1_3  and  N2_5 
REMARK    3  A    between atoms: C3_12  and  N6_13 
REMARK       I    between atoms: N6_13  and  C4_15 
REMARK       I    between atoms: C4_15  and  N8_19 
REMARK    4  A    between atoms: N8_19  and  N9_21 
ROOT
HETATM    1  N6  UNL     1     -13.279 -33.321  95.513  1.00  0.00    -0.169 N 
ATOM      2  H6  UNL     1     -12.976 -34.289  95.630  1.00  0.00     0.186 HD
HETATM    3  C4  UNL     1     -12.298 -32.328  95.343  1.00  0.00     0.693 C 
HETATM    4  N7  UNL     1     -11.902 -32.005  94.169  1.00  0.00    -0.233 N 
ATOM      5  H71 UNL     1     -11.191 -31.284  94.045  1.00  0.00     0.174 HD
ATOM      6  H72 UNL     1     -12.314 -32.479  93.365  1.00  0.00     0.174 HD
HETATM    7  N8  UNL     1     -11.725 -31.669  96.458  1.00  0.00    -0.118 N 
ATOM      8  H8  UNL     1     -12.321 -31.456  97.258  1.00  0.00     0.207 HD
ENDROOT
BRANCH   1   9
HETATM    9  C3  UNL     1     -14.549 -33.064  95.528  1.00  0.00     0.206 A 
HETATM   10  N2  UNL     1     -15.419 -33.452  94.546  1.00  0.00    -0.141 N 
HETATM   11  N3  UNL     1     -16.593 -33.005  94.930  1.00  0.00    -0.217 N 
HETATM   12  N4  UNL     1     -16.520 -32.363  96.081  1.00  0.00    -0.268 N 
ATOM     13  H3  UNL     1     -17.455 -33.137  94.402  1.00  0.00     0.210 HD
HETATM   14  C2  UNL     1     -15.223 -32.374  96.510  1.00  0.00     0.180 A 
ATOM     15  H4  UNL     1     -17.304 -31.930  96.570  1.00  0.00     0.190 HD
HETATM   16  N5  UNL     1     -14.718 -31.791  97.706  1.00  0.00    -0.077 NA
BRANCH  10  17
HETATM   17  N1  UNL     1     -15.050 -34.167  93.416  1.00  0.00    -0.184 N 
ATOM     18  H1  UNL     1     -15.530 -33.966  92.539  1.00  0.00     0.218 HD
BRANCH  17  19
HETATM   19  O1  UNL     1     -14.088 -35.117  93.416  1.00  0.00    -0.268 OA
HETATM   20  C1  UNL     1     -14.575 -36.400  93.368  1.00  0.00     0.239 C 
ENDBRANCH  17  19
ENDBRANCH  10  17
ENDBRANCH   1   9
BRANCH   7  21
HETATM   21  N9  UNL     1     -10.380 -31.301  96.509  1.00  0.00    -0.235 N 
HETATM   22  N10 UNL     1      -9.466 -32.068  96.964  1.00  0.00    -0.330 N 
ATOM     23 2H10 UNL     1      -9.748 -32.988  97.302  1.00  0.00     0.178 HD
ATOM     24 1H10 UNL     1      -8.482 -31.799  97.001  1.00  0.00     0.178 HD
ATOM     25  H9  UNL     1     -10.115 -30.378  96.167  1.00  0.00     0.208 HD
ENDBRANCH   7  21
TORSDOF 4
ENDMDL
MODEL 3
REMARK VINA RESULT: -6.650076675      1.960      3.221
REMARK  4 active torsions:
REMARK  status: ('A' for Active; 'I' for Inactive)
REMARK    1  A    between atoms: O1_2  and  N1_3 
REMARK    2  A    between atoms: N1_3  and  N2_5 
REMARK    3  A    between atoms: C3_12  and  N6_13 
REMARK       I    between atoms: N6_13  and  C4_15 
REMARK       I    between atoms: C4_15  and  N8_19 
REMARK    4  A    between atoms: N8_19  and  N9_21 
ROOT
HETATM    1  N6  UNL     1     -14.068 -33.639  95.787  1.00  0.00    -0.169 N 
ATOM      2  H6  UNL     1     -13.943 -34.166  96.652  1.00  0.00     0.186 HD
HETATM    3  C4  UNL     1     -14.644 -34.292  94.682  1.00  0.00     0.693 C 
HETATM    4  N7  UNL     1     -15.912 -34.260  94.503  1.00  0.00    -0.233 N 
ATOM      5  H71 UNL     1     -16.330 -34.733  93.702  1.00  0.00     0.174 HD
ATOM      6  H72 UNL     1     -16.489 -33.752  95.173  1.00  0.00     0.174 HD
HETATM    7  N8  UNL     1     -13.843 -34.997  93.752  1.00  0.00    -0.118 N 
ATOM      8  H8  UNL     1     -12.927 -34.619  93.511  1.00  0.00     0.207 HD
ENDROOT
BRANCH   1   9
HETATM    9  C3  UNL     1     -13.688 -32.400  95.757  1.00  0.00     0.206 A 
HETATM   10  N2  UNL     1     -14.305 -31.395  96.449  1.00  0.00    -0.141 N 
HETATM   11  N3  UNL     1     -13.627 -30.309  96.155  1.00  0.00    -0.217 N 
HETATM   12  N4  UNL     1     -12.630 -30.562  95.328  1.00  0.00    -0.268 N 
ATOM     13  H3  UNL     1     -13.845 -29.382  96.522  1.00  0.00     0.210 HD
HETATM   14  C2  UNL     1     -12.625 -31.898  95.041  1.00  0.00     0.180 A 
ATOM     15  H4  UNL     1     -11.972 -29.873  94.963  1.00  0.00     0.190 HD
HETATM   16  N5  UNL     1     -11.713 -32.581  94.188  1.00  0.00    -0.077 NA
BRANCH  10  17
HETATM   17  N1  UNL     1     -15.411 -31.576  97.267  1.00  0.00    -0.184 N 
ATOM     18  H1  UNL     1     -15.302 -31.418  98.268  1.00  0.00     0.218 HD
BRANCH  17  19
HETATM   19  O1  UNL     1     -16.625 -31.949  96.805  1.00  0.00    -0.268 OA
HETATM   20  C1  UNL     1     -17.086 -31.176  95.768  1.00  0.00     0.239 C 
ENDBRANCH  17  19
ENDBRANCH  10  17
ENDBRANCH   1   9
BRANCH   7  21
HETATM   21  N9  UNL     1     -14.254 -36.188  93.152  1.00  0.00    -0.235 N 
HETATM   22  N10 UNL     1     -13.514 -37.226  93.087  1.00  0.00    -0.330 N 
ATOM     23 2H10 UNL     1     -12.582 -37.166  93.497  1.00  0.00     0.178 HD
ATOM     24 1H10 UNL     1     -13.814 -38.097  92.648  1.00  0.00     0.178 HD
ATOM     25  H9  UNL     1     -15.189 -36.231  92.747  1.00  0.00     0.208 HD
ENDBRANCH   7  21
TORSDOF 4
ENDMDL
MODEL 4
REMARK VINA RESULT: -6.604791556      1.310      1.513
REMARK  4 active torsions:
REMARK  status: ('A' for Active; 'I' for Inactive)
REMARK    1  A    between atoms: O1_2  and  N1_3 
REMARK    2  A    between atoms: N1_3  and  N2_5 
REMARK    3  A    between atoms: C3_12  and  N6_13 
REMARK       I    between atoms: N6_13  and  C4_15 
REMARK       I    between atoms: C4_15  and  N8_19 
REMARK    4  A    between atoms: N8_19  and  N9_21 
ROOT
HETATM    1  N6  UNL     1     -14.503 -33.906  96.244  1.00  0.00    -0.169 N 
ATOM      2  H6  UNL     1     -13.674 -33.873  96.837  1.00  0.00     0.186 HD
HETATM    3  C4  UNL     1     -14.858 -35.135  95.656  1.00  0.00     0.693 C 
HETATM    4  N7  UNL     1     -15.656 -35.933  96.261  1.00  0.00    -0.233 N 
ATOM      5  H71 UNL     1     -15.913 -36.823  95.835  1.00  0.00     0.174 HD
ATOM      6  H72 UNL     1     -16.028 -35.658  97.170  1.00  0.00     0.174 HD
HETATM    7  N8  UNL     1     -14.341 -35.516  94.394  1.00  0.00    -0.118 N 
ATOM      8  H8  UNL     1     -14.214 -34.798  93.682  1.00  0.00     0.207 HD
ENDROOT
BRANCH   1   9
HETATM    9  C3  UNL     1     -15.181 -32.816  96.066  1.00  0.00     0.206 A 
HETATM   10  N2  UNL     1     -14.928 -31.643  96.722  1.00  0.00    -0.141 N 
HETATM   11  N3  UNL     1     -15.822 -30.795  96.267  1.00  0.00    -0.217 N 
HETATM   12  N4  UNL     1     -16.618 -31.353  95.374  1.00  0.00    -0.268 N 
ATOM     13  H3  UNL     1     -15.893 -29.823  96.568  1.00  0.00     0.210 HD
HETATM   14  C2  UNL     1     -16.245 -32.658  95.207  1.00  0.00     0.180 A 
ATOM     15  H4  UNL     1     -17.384 -30.887  94.888  1.00  0.00     0.190 HD
HETATM   16  N5  UNL     1     -16.846 -33.608  94.335  1.00  0.00    -0.077 NA
BRANCH  10  17
HETATM   17  N1  UNL     1     -13.918 -31.475  97.657  1.00  0.00    -0.184 N 
ATOM     18  H1  UNL     1     -14.030 -31.908  98.573  1.00  0.00     0.218 HD
BRANCH  17  19
HETATM   19  O1  UNL     1     -12.791 -30.767  97.417  1.00  0.00    -0.268 OA
HETATM   20  C1  UNL     1     -11.975 -31.330  96.466  1.00  0.00     0.239 C 
ENDBRANCH  17  19
ENDBRANCH  10  17
ENDBRANCH   1   9
BRANCH   7  21
HETATM   21  N9  UNL     1     -13.998 -36.833  94.086  1.00  0.00    -0.235 N 
HETATM   22  N10 UNL     1     -13.271 -37.146  93.084  1.00  0.00    -0.330 N 
ATOM     23 2H10 UNL     1     -12.933 -36.387  92.492  1.00  0.00     0.178 HD
ATOM     24 1H10 UNL     1     -13.020 -38.109  92.858  1.00  0.00     0.178 HD
ATOM     25  H9  UNL     1     -14.344 -37.580  94.688  1.00  0.00     0.208 HD
ENDBRANCH   7  21
TORSDOF 4
ENDMDL
MODEL 5
REMARK VINA RESULT: -6.455197374      1.027      1.280
REMARK  4 active torsions:
REMARK  status: ('A' for Active; 'I' for Inactive)
REMARK    1  A    between atoms: O1_2  and  N1_3 
REMARK    2  A    between atoms: N1_3  and  N2_5 
REMARK    3  A    between atoms: C3_12  and  N6_13 
REMARK       I    between atoms: N6_13  and  C4_15 
REMARK       I    between atoms: C4_15  and  N8_19 
REMARK    4  A    between atoms: N8_19  and  N9_21 
ROOT
HETATM    1  N6  UNL     1     -14.546 -33.049  94.778  1.00  0.00    -0.169 N 
ATOM      2  H6  UNL     1     -14.115 -32.639  93.949  1.00  0.00     0.186 HD
HETATM    3  C4  UNL     1     -14.952 -34.396  94.727  1.00  0.00     0.693 C 
HETATM    4  N7  UNL     1     -14.148 -35.326  95.083  1.00  0.00    -0.233 N 
ATOM      5  H71 UNL     1     -14.442 -36.302  95.046  1.00  0.00     0.174 HD
ATOM      6  H72 UNL     1     -13.214 -35.071  95.405  1.00  0.00     0.174 HD
HETATM    7  N8  UNL     1     -16.248 -34.750  94.280  1.00  0.00    -0.118 N 
ATOM      8  H8  UNL     1     -17.031 -34.146  94.525  1.00  0.00     0.207 HD
ENDROOT
BRANCH   1   9
HETATM    9  C3  UNL     1     -14.695 -32.306  95.830  1.00  0.00     0.206 A 
HETATM   10  N2  UNL     1     -13.656 -31.761  96.532  1.00  0.00    -0.141 N 
HETATM   11  N3  UNL     1     -14.218 -31.088  97.510  1.00  0.00    -0.217 N 
HETATM   12  N4  UNL     1     -15.535 -31.173  97.471  1.00  0.00    -0.268 N 
ATOM     13  H3  UNL     1     -13.700 -30.563  98.215  1.00  0.00     0.210 HD
HETATM   14  C2  UNL     1     -15.893 -31.949  96.404  1.00  0.00     0.180 A 
ATOM     15  H4  UNL     1     -16.178 -30.734  98.129  1.00  0.00     0.190 HD
HETATM   16  N5  UNL     1     -17.217 -32.289  96.007  1.00  0.00    -0.077 NA
BRANCH  10  17
HETATM   17  N1  UNL     1     -12.319 -31.934  96.208  1.00  0.00    -0.184 N 
ATOM     18  H1  UNL     1     -12.067 -32.703  95.586  1.00  0.00     0.218 HD
BRANCH  17  19
HETATM   19  O1  UNL     1     -11.330 -31.138  96.673  1.00  0.00    -0.268 OA
HETATM   20  C1  UNL     1     -10.111 -31.764  96.767  1.00  0.00     0.239 C 
ENDBRANCH  17  19
ENDBRANCH  10  17
ENDBRANCH   1   9
BRANCH   7  21
HETATM   21  N9  UNL     1     -16.497 -35.892  93.517  1.00  0.00    -0.235 N 
HETATM   22  N10 UNL     1     -16.005 -36.072  92.353  1.00  0.00    -0.330 N 
ATOM     23 2H10 UNL     1     -15.404 -35.338  91.977  1.00  0.00     0.178 HD
ATOM     24 1H10 UNL     1     -16.187 -36.906  91.795  1.00  0.00     0.178 HD
ATOM     25  H9  UNL     1     -17.100 -36.616  93.908  1.00  0.00     0.208 HD
ENDBRANCH   7  21
TORSDOF 4
ENDMDL
