MODEL 1
REMARK VINA RESULT: -6.201178712      0.000      0.000
REMARK  4 active torsions:
REMARK  status: ('A' for Active; 'I' for Inactive)
REMARK    1  A    between atoms: N1_1  and  C1_4 
REMARK    2  A    between atoms: N5_14  and  C4_16 
REMARK    3  A    between atoms: C4_16  and  C5_17 
REMARK    4  A    between atoms: C4_16  and  C6_19 
ROOT
HETATM    1  C1  UNL     1     -14.840 -34.268  94.066  1.00  0.00     0.149 A 
HETATM    2  N2  UNL     1     -14.941 -35.366  93.259  1.00  0.00    -0.291 N 
ATOM      3  H2  UNL     1     -15.207 -35.231  92.283  1.00  0.00     0.172 HD
HETATM    4  C2  UNL     1     -14.704 -36.610  93.693  1.00  0.00     0.340 A 
HETATM    5  O1  UNL     1     -14.791 -37.630  92.967  1.00  0.00    -0.245 OA
HETATM    6  N3  UNL     1     -14.356 -36.746  94.986  1.00  0.00    -0.250 N 
ATOM      7  H3  UNL     1     -14.168 -37.677  95.357  1.00  0.00     0.192 HD
HETATM    8  N4  UNL     1     -14.253 -35.711  95.774  1.00  0.00    -0.279 N 
ATOM      9  H4  UNL     1     -13.985 -35.876  96.744  1.00  0.00     0.189 HD
HETATM   10  C3  UNL     1     -14.484 -34.409  95.383  1.00  0.00     0.161 A 
HETATM   11  N5  UNL     1     -14.350 -33.501  96.242  1.00  0.00    -0.354 N 
ATOM     12  H5  UNL     1     -14.079 -33.842  97.165  1.00  0.00     0.162 HD
ENDROOT
BRANCH   1  13
HETATM   13  N1  UNL     1     -15.085 -33.106  93.571  1.00  0.00    -0.382 N 
ATOM     14  H12 UNL     1     -14.479 -32.706  92.854  1.00  0.00     0.157 HD
ATOM     15  H11 UNL     1     -15.896 -32.586  93.906  1.00  0.00     0.157 HD
ENDBRANCH   1  13
BRANCH  11  16
HETATM   16  C4  UNL     1     -14.504 -32.107  96.173  1.00  0.00     0.234 C 
BRANCH  16  17
HETATM   17  C5  UNL     1     -15.399 -31.570  97.259  1.00  0.00     0.265 C 
HETATM   18  O2  UNL     1     -16.588 -31.589  97.055  1.00  0.00    -0.304 OA
ENDBRANCH  16  17
BRANCH  16  19
HETATM   19  C6  UNL     1     -13.200 -31.390  96.362  1.00  0.00     0.260 C 
HETATM   20  N6  UNL     1     -12.263 -31.372  95.311  1.00  0.00    -0.060 NA
HETATM   21  O3  UNL     1     -12.928 -30.811  97.429  1.00  0.00    -0.274 OA
ENDBRANCH  16  19
ENDBRANCH  11  16
TORSDOF 4
ENDMDL
MODEL 2
REMARK VINA RESULT: -5.854276593      1.835      2.823
REMARK  4 active torsions:
REMARK  status: ('A' for Active; 'I' for Inactive)
REMARK    1  A    between atoms: N1_1  and  C1_4 
REMARK    2  A    between atoms: N5_14  and  C4_16 
REMARK    3  A    between atoms: C4_16  and  C5_17 
REMARK    4  A    between atoms: C4_16  and  C6_19 
ROOT
HETATM    1  C1  UNL     1     -14.925 -35.107  95.484  1.00  0.00     0.149 A 
HETATM    2  N2  UNL     1     -15.726 -36.180  95.215  1.00  0.00    -0.291 N 
ATOM      3  H2  UNL     1     -15.590 -37.038  95.751  1.00  0.00     0.172 HD
HETATM    4  C2  UNL     1     -16.684 -36.155  94.279  1.00  0.00     0.340 A 
HETATM    5  O1  UNL     1     -17.430 -37.130  94.018  1.00  0.00    -0.245 OA
HETATM    6  N3  UNL     1     -16.833 -35.006  93.594  1.00  0.00    -0.250 N 
ATOM      7  H3  UNL     1     -17.550 -34.945  92.872  1.00  0.00     0.192 HD
HETATM    8  N4  UNL     1     -16.078 -33.969  93.835  1.00  0.00    -0.279 N 
ATOM      9  H4  UNL     1     -16.238 -33.126  93.284  1.00  0.00     0.189 HD
HETATM   10  C3  UNL     1     -15.079 -33.937  94.784  1.00  0.00     0.161 A 
HETATM   11  N5  UNL     1     -14.423 -32.873  94.918  1.00  0.00    -0.354 N 
ATOM     12  H5  UNL     1     -14.713 -32.127  94.285  1.00  0.00     0.162 HD
ENDROOT
BRANCH   1  13
HETATM   13  N1  UNL     1     -14.028 -35.213  96.400  1.00  0.00    -0.382 N 
ATOM     14  H12 UNL     1     -14.257 -35.607  97.312  1.00  0.00     0.157 HD
ATOM     15  H11 UNL     1     -13.079 -34.897  96.202  1.00  0.00     0.157 HD
ENDBRANCH   1  13
BRANCH  11  16
HETATM   16  C4  UNL     1     -13.367 -32.516  95.773  1.00  0.00     0.234 C 
BRANCH  16  17
HETATM   17  C5  UNL     1     -12.251 -31.810  95.048  1.00  0.00     0.265 C 
HETATM   18  O2  UNL     1     -11.896 -32.276  93.994  1.00  0.00    -0.304 OA
ENDBRANCH  16  17
BRANCH  16  19
HETATM   19  C6  UNL     1     -13.808 -31.549  96.832  1.00  0.00     0.260 C 
HETATM   20  N6  UNL     1     -15.163 -31.513  97.214  1.00  0.00    -0.060 NA
HETATM   21  O3  UNL     1     -13.001 -30.777  97.380  1.00  0.00    -0.274 OA
ENDBRANCH  16  19
ENDBRANCH  11  16
TORSDOF 4
ENDMDL
MODEL 3
REMARK VINA RESULT: -5.790035206      1.447      1.466
REMARK  4 active torsions:
REMARK  status: ('A' for Active; 'I' for Inactive)
REMARK    1  A    between atoms: N1_1  and  C1_4 
REMARK    2  A    between atoms: N5_14  and  C4_16 
REMARK    3  A    between atoms: C4_16  and  C5_17 
REMARK    4  A    between atoms: C4_16  and  C6_19 
ROOT
HETATM    1  C1  UNL     1     -15.727 -34.095  94.111  1.00  0.00     0.149 A 
HETATM    2  N2  UNL     1     -16.459 -35.029  93.434  1.00  0.00    -0.291 N 
ATOM      3  H2  UNL     1     -17.323 -34.736  92.978  1.00  0.00     0.172 HD
HETATM    4  C2  UNL     1     -16.090 -36.313  93.343  1.00  0.00     0.340 A 
HETATM    5  O1  UNL     1     -16.748 -37.186  92.725  1.00  0.00    -0.245 OA
HETATM    6  N3  UNL     1     -14.944 -36.661  93.956  1.00  0.00    -0.250 N 
ATOM      7  H3  UNL     1     -14.628 -37.629  93.912  1.00  0.00     0.192 HD
HETATM    8  N4  UNL     1     -14.230 -35.784  94.608  1.00  0.00    -0.279 N 
ATOM      9  H4  UNL     1     -13.370 -36.106  95.053  1.00  0.00     0.189 HD
HETATM   10  C3  UNL     1     -14.559 -34.452  94.735  1.00  0.00     0.161 A 
HETATM   11  N5  UNL     1     -13.783 -33.710  95.390  1.00  0.00    -0.354 N 
ATOM     12  H5  UNL     1     -12.970 -34.196  95.769  1.00  0.00     0.162 HD
ENDROOT
BRANCH   1  13
HETATM   13  N1  UNL     1     -16.152 -32.881  94.151  1.00  0.00    -0.382 N 
ATOM     14  H12 UNL     1     -16.974 -32.633  94.701  1.00  0.00     0.157 HD
ATOM     15  H11 UNL     1     -15.652 -32.165  93.624  1.00  0.00     0.157 HD
ENDBRANCH   1  13
BRANCH  11  16
HETATM   16  C4  UNL     1     -13.825 -32.341  95.700  1.00  0.00     0.234 C 
BRANCH  16  17
HETATM   17  C5  UNL     1     -14.346 -32.078  97.089  1.00  0.00     0.265 C 
HETATM   18  O2  UNL     1     -15.505 -31.761  97.192  1.00  0.00    -0.304 OA
ENDBRANCH  16  17
BRANCH  16  19
HETATM   19  C6  UNL     1     -12.458 -31.722  95.681  1.00  0.00     0.260 C 
HETATM   20  N6  UNL     1     -11.955 -31.120  96.851  1.00  0.00    -0.060 NA
HETATM   21  O3  UNL     1     -11.759 -31.728  94.652  1.00  0.00    -0.274 OA
ENDBRANCH  16  19
ENDBRANCH  11  16
TORSDOF 4
ENDMDL
MODEL 4
REMARK VINA RESULT: -5.753353326      2.230      4.956
REMARK  4 active torsions:
REMARK  status: ('A' for Active; 'I' for Inactive)
REMARK    1  A    between atoms: N1_1  and  C1_4 
REMARK    2  A    between atoms: N5_14  and  C4_16 
REMARK    3  A    between atoms: C4_16  and  C5_17 
REMARK    4  A    between atoms: C4_16  and  C6_19 
ROOT
HETATM    1  C1  UNL     1     -13.711 -31.784  96.645  1.00  0.00     0.149 A 
HETATM    2  N2  UNL     1     -12.582 -31.128  97.047  1.00  0.00    -0.291 N 
ATOM      3  H2  UNL     1     -12.620 -30.572  97.902  1.00  0.00     0.172 HD
HETATM    4  C2  UNL     1     -11.429 -31.184  96.369  1.00  0.00     0.340 A 
HETATM    5  O1  UNL     1     -10.382 -30.588  96.723  1.00  0.00    -0.245 OA
HETATM    6  N3  UNL     1     -11.419 -31.927  95.248  1.00  0.00    -0.250 N 
ATOM      7  H3  UNL     1     -10.561 -31.995  94.701  1.00  0.00     0.192 HD
HETATM    8  N4  UNL     1     -12.485 -32.562  94.845  1.00  0.00    -0.279 N 
ATOM      9  H4  UNL     1     -12.418 -33.111  93.988  1.00  0.00     0.189 HD
HETATM   10  C3  UNL     1     -13.698 -32.542  95.501  1.00  0.00     0.161 A 
HETATM   11  N5  UNL     1     -14.649 -33.199  95.007  1.00  0.00    -0.354 N 
ATOM     12  H5  UNL     1     -14.409 -33.689  94.145  1.00  0.00     0.162 HD
ENDROOT
BRANCH   1  13
HETATM   13  N1  UNL     1     -14.779 -31.679  97.353  1.00  0.00    -0.382 N 
ATOM     14  H12 UNL     1     -14.914 -32.255  98.183  1.00  0.00     0.157 HD
ATOM     15  H11 UNL     1     -15.495 -31.009  97.072  1.00  0.00     0.157 HD
ENDBRANCH   1  13
BRANCH  11  16
HETATM   16  C4  UNL     1     -15.980 -33.386  95.417  1.00  0.00     0.234 C 
BRANCH  16  17
HETATM   17  C5  UNL     1     -16.929 -32.423  94.753  1.00  0.00     0.265 C 
HETATM   18  O2  UNL     1     -17.212 -31.420  95.360  1.00  0.00    -0.304 OA
ENDBRANCH  16  17
BRANCH  16  19
HETATM   19  C6  UNL     1     -16.493 -34.746  95.046  1.00  0.00     0.260 C 
HETATM   20  N6  UNL     1     -17.102 -34.937  93.791  1.00  0.00    -0.060 NA
HETATM   21  O3  UNL     1     -16.392 -35.711  95.825  1.00  0.00    -0.274 OA
ENDBRANCH  16  19
ENDBRANCH  11  16
TORSDOF 4
ENDMDL
MODEL 5
REMARK VINA RESULT: -5.746091323      1.698      5.259
REMARK  4 active torsions:
REMARK  status: ('A' for Active; 'I' for Inactive)
REMARK    1  A    between atoms: N1_1  and  C1_4 
REMARK    2  A    between atoms: N5_14  and  C4_16 
REMARK    3  A    between atoms: C4_16  and  C5_17 
REMARK    4  A    between atoms: C4_16  and  C6_19 
ROOT
HETATM    1  C1  UNL     1     -14.965 -33.400  95.898  1.00  0.00     0.149 A 
HETATM    2  N2  UNL     1     -14.614 -32.277  96.591  1.00  0.00    -0.291 N 
ATOM      3  H2  UNL     1     -15.301 -31.854  97.216  1.00  0.00     0.172 HD
HETATM    4  C2  UNL     1     -13.406 -31.707  96.487  1.00  0.00     0.340 A 
HETATM    5  O1  UNL     1     -13.065 -30.676  97.117  1.00  0.00    -0.245 OA
HETATM    6  N3  UNL     1     -12.527 -32.294  95.655  1.00  0.00    -0.250 N 
ATOM      7  H3  UNL     1     -11.597 -31.892  95.546  1.00  0.00     0.192 HD
HETATM    8  N4  UNL     1     -12.842 -33.368  94.983  1.00  0.00    -0.279 N 
ATOM      9  H4  UNL     1     -12.135 -33.769  94.367  1.00  0.00     0.189 HD
HETATM   10  C3  UNL     1     -14.067 -33.997  95.049  1.00  0.00     0.161 A 
HETATM   11  N5  UNL     1     -14.243 -35.026  94.350  1.00  0.00    -0.354 N 
ATOM     12  H5  UNL     1     -13.431 -35.289  93.790  1.00  0.00     0.162 HD
ENDROOT
BRANCH   1  13
HETATM   13  N1  UNL     1     -16.147 -33.884  96.054  1.00  0.00    -0.382 N 
ATOM     14  H12 UNL     1     -16.874 -33.346  96.523  1.00  0.00     0.157 HD
ATOM     15  H11 UNL     1     -16.348 -34.820  95.700  1.00  0.00     0.157 HD
ENDBRANCH   1  13
BRANCH  11  16
HETATM   16  C4  UNL     1     -15.345 -35.884  94.192  1.00  0.00     0.234 C 
BRANCH  16  17
HETATM   17  C5  UNL     1     -16.283 -35.424  93.107  1.00  0.00     0.265 C 
HETATM   18  O2  UNL     1     -17.373 -35.035  93.449  1.00  0.00    -0.304 OA
ENDBRANCH  16  17
BRANCH  16  19
HETATM   19  C6  UNL     1     -14.925 -37.263  93.776  1.00  0.00     0.260 C 
HETATM   20  N6  UNL     1     -15.537 -37.864  92.660  1.00  0.00    -0.060 NA
HETATM   21  O3  UNL     1     -14.047 -37.887  94.398  1.00  0.00    -0.274 OA
ENDBRANCH  16  19
ENDBRANCH  11  16
TORSDOF 4
ENDMDL
