MODEL 1
REMARK VINA RESULT: -6.856352944      0.000      0.000
REMARK  2 active torsions:
REMARK  status: ('A' for Active; 'I' for Inactive)
REMARK    1  A    between atoms: N2_3  and  N3_5 
REMARK       I    between atoms: N3_5  and  C2_7 
REMARK       I    between atoms: C2_7  and  N4_8 
REMARK    2  A    between atoms: N5_11  and  N6_13 
ROOT
HETATM    1  N6  UNL     1     -14.930 -35.090  95.021  1.00  0.00    -0.117 N 
ATOM      2  H6  UNL     1     -15.922 -35.327  95.050  1.00  0.00     0.206 HD
HETATM    3  C3  UNL     1     -14.636 -33.981  95.555  1.00  0.00     0.705 A 
HETATM    4  N7  UNL     1     -15.690 -33.273  96.080  1.00  0.00    -0.139 N 
ATOM      5  H7  UNL     1     -16.644 -33.631  96.036  1.00  0.00     0.189 HD
HETATM    6  C4  UNL     1     -15.415 -32.098  96.648  1.00  0.00     0.342 A 
HETATM    7  O1  UNL     1     -16.370 -31.410  97.143  1.00  0.00    -0.246 OA
HETATM    8  N8  UNL     1     -14.192 -31.567  96.741  1.00  0.00    -0.260 N 
ATOM      9  H8  UNL     1     -14.024 -30.664  97.184  1.00  0.00     0.175 HD
HETATM   10  C5  UNL     1     -13.175 -32.317  96.201  1.00  0.00     0.342 A 
HETATM   11  O2  UNL     1     -12.026 -31.853  96.274  1.00  0.00    -0.246 OA
HETATM   12  N9  UNL     1     -13.394 -33.504  95.618  1.00  0.00    -0.139 N 
ATOM     13  H9  UNL     1     -12.617 -34.037  95.226  1.00  0.00     0.189 HD
ENDROOT
BRANCH   1  14
HETATM   14  N5  UNL     1     -14.166 -35.993  94.433  1.00  0.00    -0.117 N 
HETATM   15  C2  UNL     1     -14.427 -36.678  93.402  1.00  0.00     0.705 C 
HETATM   16  N3  UNL     1     -13.336 -37.601  93.008  1.00  0.00    -0.131 N 
HETATM   17  N4  UNL     1     -15.630 -36.793  92.766  1.00  0.00    -0.232 N 
ATOM     18  H3  UNL     1     -12.939 -37.676  92.071  1.00  0.00     0.205 HD
ATOM     19  H42 UNL     1     -15.839 -37.345  91.935  1.00  0.00     0.174 HD
ATOM     20  H41 UNL     1     -16.380 -36.158  93.037  1.00  0.00     0.174 HD
ATOM     21  H5  UNL     1     -13.256 -36.157  94.862  1.00  0.00     0.206 HD
BRANCH  16  22
HETATM   22  N2  UNL     1     -12.938 -38.347  94.107  1.00  0.00    -0.284 N 
HETATM   23  C1  UNL     1     -12.216 -39.327  94.239  1.00  0.00     0.207 C 
HETATM   24  N1  UNL     1     -12.009 -39.858  95.561  1.00  0.00    -0.095 NA
ATOM     25  H2  UNL     1     -13.326 -38.009  94.988  1.00  0.00     0.187 HD
ENDBRANCH  16  22
ENDBRANCH   1  14
TORSDOF 2
ENDMDL
MODEL 2
REMARK VINA RESULT: -6.826989930      2.194      3.210
REMARK  2 active torsions:
REMARK  status: ('A' for Active; 'I' for Inactive)
REMARK    1  A    between atoms: N2_3  and  N3_5 
REMARK       I    between atoms: N3_5  and  C2_7 
REMARK       I    between atoms: C2_7  and  N4_8 
REMARK    2  A    between atoms: N5_11  and  N6_13 
ROOT
HETATM    1  N6  UNL     1     -13.758 -34.510  95.121  1.00  0.00    -0.117 N 
ATOM      2  H6  UNL     1     -12.777 -34.647  94.875  1.00  0.00     0.206 HD
HETATM    3  C3  UNL     1     -14.000 -33.431  95.736  1.00  0.00     0.705 A 
HETATM    4  N7  UNL     1     -12.915 -32.624  95.979  1.00  0.00    -0.139 N 
ATOM      5  H7  UNL     1     -11.978 -32.890  95.676  1.00  0.00     0.189 HD
HETATM    6  C4  UNL     1     -13.136 -31.480  96.628  1.00  0.00     0.342 A 
HETATM    7  O1  UNL     1     -12.150 -30.706  96.875  1.00  0.00    -0.246 OA
HETATM    8  N8  UNL     1     -14.334 -31.068  97.054  1.00  0.00    -0.260 N 
ATOM      9  H8  UNL     1     -14.461 -30.184  97.548  1.00  0.00     0.175 HD
HETATM   10  C5  UNL     1     -15.384 -31.912  96.785  1.00  0.00     0.342 A 
HETATM   11  O2  UNL     1     -16.512 -31.557  97.165  1.00  0.00    -0.246 OA
HETATM   12  N9  UNL     1     -15.220 -33.074  96.137  1.00  0.00    -0.139 N 
ATOM     13  H9  UNL     1     -16.020 -33.679  95.952  1.00  0.00     0.189 HD
ENDROOT
BRANCH   1  14
HETATM   14  N5  UNL     1     -14.561 -35.487  94.745  1.00  0.00    -0.117 N 
HETATM   15  C2  UNL     1     -15.178 -35.607  93.647  1.00  0.00     0.705 C 
HETATM   16  N3  UNL     1     -15.997 -36.839  93.554  1.00  0.00    -0.131 N 
HETATM   17  N4  UNL     1     -15.317 -34.665  92.668  1.00  0.00    -0.232 N 
ATOM     18  H3  UNL     1     -15.973 -37.504  92.782  1.00  0.00     0.205 HD
ATOM     19  H42 UNL     1     -15.813 -34.763  91.783  1.00  0.00     0.174 HD
ATOM     20  H41 UNL     1     -14.753 -33.818  92.731  1.00  0.00     0.174 HD
ATOM     21  H5  UNL     1     -14.702 -36.236  95.423  1.00  0.00     0.206 HD
BRANCH  16  22
HETATM   22  N2  UNL     1     -16.801 -36.948  94.679  1.00  0.00    -0.284 N 
HETATM   23  C1  UNL     1     -17.008 -37.853  95.477  1.00  0.00     0.207 C 
HETATM   24  N1  UNL     1     -17.927 -37.619  96.561  1.00  0.00    -0.095 NA
ATOM     25  H2  UNL     1     -17.330 -36.100  94.883  1.00  0.00     0.187 HD
ENDBRANCH  16  22
ENDBRANCH   1  14
TORSDOF 2
ENDMDL
MODEL 3
REMARK VINA RESULT: -6.646568030      1.798      3.102
REMARK  2 active torsions:
REMARK  status: ('A' for Active; 'I' for Inactive)
REMARK    1  A    between atoms: N2_3  and  N3_5 
REMARK       I    between atoms: N3_5  and  C2_7 
REMARK       I    between atoms: C2_7  and  N4_8 
REMARK    2  A    between atoms: N5_11  and  N6_13 
ROOT
HETATM    1  N6  UNL     1     -13.735 -34.629  95.660  1.00  0.00    -0.117 N 
ATOM      2  H6  UNL     1     -12.774 -34.836  95.384  1.00  0.00     0.206 HD
HETATM    3  C3  UNL     1     -13.918 -33.454  96.091  1.00  0.00     0.705 A 
HETATM    4  N7  UNL     1     -12.805 -32.649  96.125  1.00  0.00    -0.139 N 
ATOM      5  H7  UNL     1     -11.894 -32.990  95.817  1.00  0.00     0.189 HD
HETATM    6  C4  UNL     1     -12.964 -31.404  96.576  1.00  0.00     0.342 A 
HETATM    7  O1  UNL     1     -11.951 -30.628  96.626  1.00  0.00    -0.246 OA
HETATM    8  N8  UNL     1     -14.125 -30.890  96.995  1.00  0.00    -0.260 N 
ATOM      9  H8  UNL     1     -14.204 -29.931  97.334  1.00  0.00     0.175 HD
HETATM   10  C5  UNL     1     -15.205 -31.738  96.939  1.00  0.00     0.342 A 
HETATM   11  O2  UNL     1     -16.300 -31.290  97.317  1.00  0.00    -0.246 OA
HETATM   12  N9  UNL     1     -15.103 -32.998  96.495  1.00  0.00    -0.139 N 
ATOM     13  H9  UNL     1     -15.925 -33.603  96.466  1.00  0.00     0.189 HD
ENDROOT
BRANCH   1  14
HETATM   14  N5  UNL     1     -14.578 -35.633  95.508  1.00  0.00    -0.117 N 
HETATM   15  C2  UNL     1     -14.623 -36.717  96.160  1.00  0.00     0.705 C 
HETATM   16  N3  UNL     1     -15.708 -37.629  95.728  1.00  0.00    -0.131 N 
HETATM   17  N4  UNL     1     -13.693 -37.192  97.040  1.00  0.00    -0.232 N 
ATOM     18  H3  UNL     1     -16.386 -38.071  96.349  1.00  0.00     0.205 HD
ATOM     19  H42 UNL     1     -13.730 -38.065  97.566  1.00  0.00     0.174 HD
ATOM     20  H41 UNL     1     -12.947 -36.565  97.337  1.00  0.00     0.174 HD
ATOM     21  H5  UNL     1     -15.279 -35.522  94.776  1.00  0.00     0.206 HD
BRANCH  16  22
HETATM   22  N2  UNL     1     -15.661 -37.789  94.351  1.00  0.00    -0.284 N 
HETATM   23  C1  UNL     1     -15.207 -38.663  93.624  1.00  0.00     0.207 C 
HETATM   24  N1  UNL     1     -15.337 -38.509  92.198  1.00  0.00    -0.095 NA
ATOM     25  H2  UNL     1     -16.093 -37.021  93.839  1.00  0.00     0.187 HD
ENDBRANCH  16  22
ENDBRANCH   1  14
TORSDOF 2
ENDMDL
MODEL 4
REMARK VINA RESULT: -6.581010763      3.095      6.179
REMARK  2 active torsions:
REMARK  status: ('A' for Active; 'I' for Inactive)
REMARK    1  A    between atoms: N2_3  and  N3_5 
REMARK       I    between atoms: N3_5  and  C2_7 
REMARK       I    between atoms: C2_7  and  N4_8 
REMARK    2  A    between atoms: N5_11  and  N6_13 
ROOT
HETATM    1  N6  UNL     1     -16.361 -33.783  94.872  1.00  0.00    -0.117 N 
ATOM      2  H6  UNL     1     -16.966 -33.388  94.152  1.00  0.00     0.206 HD
HETATM    3  C3  UNL     1     -16.033 -34.990  94.679  1.00  0.00     0.705 A 
HETATM    4  N7  UNL     1     -16.541 -35.574  93.544  1.00  0.00    -0.139 N 
ATOM      5  H7  UNL     1     -17.144 -35.056  92.905  1.00  0.00     0.189 HD
HETATM    6  C4  UNL     1     -16.216 -36.846  93.312  1.00  0.00     0.342 A 
HETATM    7  O1  UNL     1     -16.674 -37.424  92.269  1.00  0.00    -0.246 OA
HETATM    8  N8  UNL     1     -15.433 -37.587  94.104  1.00  0.00    -0.260 N 
ATOM      9  H8  UNL     1     -15.208 -38.558  93.890  1.00  0.00     0.175 HD
HETATM   10  C5  UNL     1     -14.951 -36.954  95.224  1.00  0.00     0.342 A 
HETATM   11  O2  UNL     1     -14.217 -37.612  95.978  1.00  0.00    -0.246 OA
HETATM   12  N9  UNL     1     -15.246 -35.677  95.506  1.00  0.00    -0.139 N 
ATOM     13  H9  UNL     1     -14.872 -35.235  96.347  1.00  0.00     0.189 HD
ENDROOT
BRANCH   1  14
HETATM   14  N5  UNL     1     -16.053 -32.952  95.849  1.00  0.00    -0.117 N 
HETATM   15  C2  UNL     1     -16.445 -31.760  96.009  1.00  0.00     0.705 C 
HETATM   16  N3  UNL     1     -15.904 -31.111  97.226  1.00  0.00    -0.131 N 
HETATM   17  N4  UNL     1     -17.123 -30.984  95.112  1.00  0.00    -0.232 N 
ATOM     18  H3  UNL     1     -16.459 -30.621  97.928  1.00  0.00     0.205 HD
ATOM     19  H42 UNL     1     -17.440 -30.024  95.242  1.00  0.00     0.174 HD
ATOM     20  H41 UNL     1     -17.496 -31.430  94.275  1.00  0.00     0.174 HD
ATOM     21  H5  UNL     1     -15.420 -33.314  96.563  1.00  0.00     0.206 HD
BRANCH  16  22
HETATM   22  N2  UNL     1     -14.527 -31.272  97.266  1.00  0.00    -0.284 N 
HETATM   23  C1  UNL     1     -13.603 -30.730  96.674  1.00  0.00     0.207 C 
HETATM   24  N1  UNL     1     -12.256 -31.148  96.967  1.00  0.00    -0.095 NA
ATOM     25  H2  UNL     1     -14.221 -31.989  97.923  1.00  0.00     0.187 HD
ENDBRANCH  16  22
ENDBRANCH   1  14
TORSDOF 2
ENDMDL
MODEL 5
REMARK VINA RESULT: -6.578191169      3.724      6.579
REMARK  2 active torsions:
REMARK  status: ('A' for Active; 'I' for Inactive)
REMARK    1  A    between atoms: N2_3  and  N3_5 
REMARK       I    between atoms: N3_5  and  C2_7 
REMARK       I    between atoms: C2_7  and  N4_8 
REMARK    2  A    between atoms: N5_11  and  N6_13 
ROOT
HETATM    1  N6  UNL     1     -14.874 -36.666  93.645  1.00  0.00    -0.117 N 
ATOM      2  H6  UNL     1     -15.816 -36.404  93.355  1.00  0.00     0.206 HD
HETATM    3  C3  UNL     1     -14.406 -37.683  93.056  1.00  0.00     0.705 A 
HETATM    4  N7  UNL     1     -15.233 -38.273  92.132  1.00  0.00    -0.139 N 
ATOM      5  H7  UNL     1     -16.164 -37.903  91.941  1.00  0.00     0.189 HD
HETATM    6  C4  UNL     1     -14.770 -39.350  91.495  1.00  0.00     0.342 A 
HETATM    7  O1  UNL     1     -15.513 -39.927  90.632  1.00  0.00    -0.246 OA
HETATM    8  N8  UNL     1     -13.563 -39.889  91.693  1.00  0.00    -0.260 N 
ATOM      9  H8  UNL     1     -13.247 -40.715  91.185  1.00  0.00     0.175 HD
HETATM   10  C5  UNL     1     -12.776 -39.260  92.628  1.00  0.00     0.342 A 
HETATM   11  O2  UNL     1     -11.647 -39.734  92.833  1.00  0.00    -0.246 OA
HETATM   12  N9  UNL     1     -13.191 -38.175  93.298  1.00  0.00    -0.139 N 
ATOM     13  H9  UNL     1     -12.583 -37.730  93.985  1.00  0.00     0.189 HD
ENDROOT
BRANCH   1  14
HETATM   14  N5  UNL     1     -14.347 -35.888  94.572  1.00  0.00    -0.117 N 
HETATM   15  C2  UNL     1     -14.948 -35.247  95.483  1.00  0.00     0.705 C 
HETATM   16  N3  UNL     1     -14.043 -34.470  96.362  1.00  0.00    -0.131 N 
HETATM   17  N4  UNL     1     -16.294 -35.050  95.607  1.00  0.00    -0.232 N 
ATOM     18  H3  UNL     1     -14.047 -34.496  97.381  1.00  0.00     0.205 HD
ATOM     19  H42 UNL     1     -16.777 -34.534  96.341  1.00  0.00     0.174 HD
ATOM     20  H41 UNL     1     -16.916 -35.585  95.002  1.00  0.00     0.174 HD
ATOM     21  H5  UNL     1     -13.332 -35.791  94.551  1.00  0.00     0.206 HD
BRANCH  16  22
HETATM   22  N2  UNL     1     -13.189 -33.699  95.586  1.00  0.00    -0.284 N 
HETATM   23  C1  UNL     1     -13.190 -32.520  95.257  1.00  0.00     0.207 C 
HETATM   24  N1  UNL     1     -12.120 -32.036  94.424  1.00  0.00    -0.095 NA
ATOM     25  H2  UNL     1     -12.399 -34.223  95.212  1.00  0.00     0.187 HD
ENDBRANCH  16  22
ENDBRANCH   1  14
TORSDOF 2
ENDMDL
