MODEL 1
REMARK VINA RESULT: -6.082834807      0.000      0.000
REMARK  5 active torsions:
REMARK  status: ('A' for Active; 'I' for Inactive)
REMARK       I    between atoms: N1_3  and  C3_5 
REMARK       I    between atoms: C3_5  and  N6_20 
REMARK    1  A    between atoms: N2_6  and  N3_8 
REMARK       I    between atoms: N3_8  and  C4_10 
REMARK    2  A    between atoms: C4_10  and  C5_12 
REMARK    3  A    between atoms: C5_12  and  N4_13 
REMARK    4  A    between atoms: C5_12  and  C6_17 
REMARK    5  A    between atoms: N6_20  and  N7_22 
ROOT
HETATM    1  C1  UNL     1     -12.850 -39.873  94.605  1.00  0.00     0.037 C 
HETATM    2  C2  UNL     1     -13.395 -38.810  94.736  1.00  0.00     0.015 C 
HETATM    3  N1  UNL     1     -14.051 -37.577  94.874  1.00  0.00    -0.147 N 
ATOM      4  H1  UNL     1     -14.263 -37.200  95.798  1.00  0.00     0.195 HD
HETATM    5  C3  UNL     1     -14.413 -36.862  93.695  1.00  0.00     0.718 C 
HETATM    6  N2  UNL     1     -14.344 -35.576  93.605  1.00  0.00    -0.128 N 
ATOM      7  H2  UNL     1     -14.623 -35.143  92.723  1.00  0.00     0.205 HD
HETATM    8  N6  UNL     1     -14.867 -37.624  92.587  1.00  0.00    -0.137 N 
ATOM      9  H6  UNL     1     -14.229 -38.290  92.151  1.00  0.00     0.205 HD
ENDROOT
BRANCH   6  10
HETATM   10  N3  UNL     1     -13.917 -34.750  94.622  1.00  0.00    -0.253 N 
HETATM   11  C4  UNL     1     -14.581 -33.508  94.811  1.00  0.00     0.276 C 
HETATM   12  O1  UNL     1     -15.542 -33.145  94.078  1.00  0.00    -0.269 OA
ATOM     13  H3  UNL     1     -13.142 -35.024  95.227  1.00  0.00     0.190 HD
BRANCH  11  14
HETATM   14  C5  UNL     1     -14.193 -32.539  95.890  1.00  0.00     0.364 C 
BRANCH  14  15
HETATM   15  N4  UNL     1     -15.084 -31.423  95.959  1.00  0.00    -0.058 N 
ATOM     16  H43 UNL     1     -15.910 -31.644  96.517  1.00  0.00     0.275 HD
ATOM     17  H42 UNL     1     -14.697 -30.676  96.534  1.00  0.00     0.275 HD
ATOM     18  H41 UNL     1     -15.345 -31.081  95.033  1.00  0.00     0.275 HD
ENDBRANCH  14  15
BRANCH  14  19
HETATM   19  C6  UNL     1     -12.838 -32.044  95.602  1.00  0.00     0.271 C 
HETATM   20  N5  UNL     1     -12.113 -31.346  96.584  1.00  0.00    -0.060 NA
HETATM   21  O2  UNL     1     -12.334 -32.244  94.483  1.00  0.00    -0.274 OA
ENDBRANCH  14  19
ENDBRANCH  11  14
ENDBRANCH   6  10
BRANCH   8  22
HETATM   22  N7  UNL     1     -16.145 -37.492  92.083  1.00  0.00    -0.331 N 
ATOM     23  H72 UNL     1     -16.431 -36.574  91.740  1.00  0.00     0.177 HD
ATOM     24  H71 UNL     1     -16.795 -38.276  92.046  1.00  0.00     0.177 HD
ENDBRANCH   8  22
TORSDOF 5
ENDMDL
MODEL 2
REMARK VINA RESULT: -6.008772730      2.201      5.944
REMARK  5 active torsions:
REMARK  status: ('A' for Active; 'I' for Inactive)
REMARK       I    between atoms: N1_3  and  C3_5 
REMARK       I    between atoms: C3_5  and  N6_20 
REMARK    1  A    between atoms: N2_6  and  N3_8 
REMARK       I    between atoms: N3_8  and  C4_10 
REMARK    2  A    between atoms: C4_10  and  C5_12 
REMARK    3  A    between atoms: C5_12  and  N4_13 
REMARK    4  A    between atoms: C5_12  and  C6_17 
REMARK    5  A    between atoms: N6_20  and  N7_22 
ROOT
HETATM    1  C1  UNL     1     -16.514 -31.135  96.601  1.00  0.00     0.037 C 
HETATM    2  C2  UNL     1     -15.822 -32.106  96.450  1.00  0.00     0.015 C 
HETATM    3  N1  UNL     1     -14.992 -33.226  96.280  1.00  0.00    -0.147 N 
ATOM      4  H1  UNL     1     -15.195 -34.103  96.761  1.00  0.00     0.195 HD
HETATM    5  C3  UNL     1     -13.861 -33.112  95.420  1.00  0.00     0.718 C 
HETATM    6  N2  UNL     1     -13.468 -34.068  94.647  1.00  0.00    -0.128 N 
ATOM      7  H2  UNL     1     -12.647 -33.904  94.062  1.00  0.00     0.205 HD
HETATM    8  N6  UNL     1     -13.155 -31.881  95.436  1.00  0.00    -0.137 N 
ATOM      9  H6  UNL     1     -13.636 -31.031  95.140  1.00  0.00     0.205 HD
ENDROOT
BRANCH   6  10
HETATM   10  N3  UNL     1     -14.085 -35.298  94.560  1.00  0.00    -0.253 N 
HETATM   11  C4  UNL     1     -15.000 -35.523  93.496  1.00  0.00     0.276 C 
HETATM   12  O1  UNL     1     -15.260 -34.636  92.638  1.00  0.00    -0.269 OA
ATOM     13  H3  UNL     1     -13.890 -36.029  95.244  1.00  0.00     0.190 HD
BRANCH  11  14
HETATM   14  C5  UNL     1     -15.723 -36.826  93.314  1.00  0.00     0.364 C 
BRANCH  14  15
HETATM   15  N4  UNL     1     -16.345 -36.923  92.030  1.00  0.00    -0.058 N 
ATOM     16  H43 UNL     1     -15.939 -36.257  91.373  1.00  0.00     0.275 HD
ATOM     17  H42 UNL     1     -16.088 -37.790  91.560  1.00  0.00     0.275 HD
ATOM     18  H41 UNL     1     -17.358 -36.817  92.085  1.00  0.00     0.275 HD
ENDBRANCH  14  15
BRANCH  14  19
HETATM   19  C6  UNL     1     -16.761 -36.929  94.351  1.00  0.00     0.271 C 
HETATM   20  N5  UNL     1     -16.703 -36.117  95.497  1.00  0.00    -0.060 NA
HETATM   21  O2  UNL     1     -17.695 -37.739  94.211  1.00  0.00    -0.274 OA
ENDBRANCH  14  19
ENDBRANCH  11  14
ENDBRANCH   6  10
BRANCH   8  22
HETATM   22  N7  UNL     1     -11.838 -31.799  95.839  1.00  0.00    -0.331 N 
ATOM     23  H72 UNL     1     -11.559 -32.319  96.671  1.00  0.00     0.177 HD
ATOM     24  H71 UNL     1     -11.152 -31.239  95.332  1.00  0.00     0.177 HD
ENDBRANCH   8  22
TORSDOF 5
ENDMDL
MODEL 3
REMARK VINA RESULT: -5.971088502      1.240      1.361
REMARK  5 active torsions:
REMARK  status: ('A' for Active; 'I' for Inactive)
REMARK       I    between atoms: N1_3  and  C3_5 
REMARK       I    between atoms: C3_5  and  N6_20 
REMARK    1  A    between atoms: N2_6  and  N3_8 
REMARK       I    between atoms: N3_8  and  C4_10 
REMARK    2  A    between atoms: C4_10  and  C5_12 
REMARK    3  A    between atoms: C5_12  and  N4_13 
REMARK    4  A    between atoms: C5_12  and  C6_17 
REMARK    5  A    between atoms: N6_20  and  N7_22 
ROOT
HETATM    1  C1  UNL     1     -11.947 -40.337  95.137  1.00  0.00     0.037 C 
HETATM    2  C2  UNL     1     -12.738 -39.445  94.982  1.00  0.00     0.015 C 
HETATM    3  N1  UNL     1     -13.672 -38.417  94.783  1.00  0.00    -0.147 N 
ATOM      4  H1  UNL     1     -14.234 -38.065  95.558  1.00  0.00     0.195 HD
HETATM    5  C3  UNL     1     -13.819 -37.875  93.472  1.00  0.00     0.718 C 
HETATM    6  N2  UNL     1     -14.026 -36.619  93.251  1.00  0.00    -0.128 N 
ATOM      7  H2  UNL     1     -14.120 -36.314  92.282  1.00  0.00     0.205 HD
HETATM    8  N6  UNL     1     -13.728 -38.778  92.382  1.00  0.00    -0.137 N 
ATOM      9  H6  UNL     1     -12.853 -39.277  92.224  1.00  0.00     0.205 HD
ENDROOT
BRANCH   6  10
HETATM   10  N3  UNL     1     -14.129 -35.665  94.241  1.00  0.00    -0.253 N 
HETATM   11  C4  UNL     1     -14.757 -34.429  93.929  1.00  0.00     0.276 C 
HETATM   12  O1  UNL     1     -15.219 -34.185  92.780  1.00  0.00    -0.269 OA
ATOM     13  H3  UNL     1     -13.763 -35.842  95.177  1.00  0.00     0.190 HD
BRANCH  11  14
HETATM   14  C5  UNL     1     -14.919 -33.328  94.935  1.00  0.00     0.364 C 
BRANCH  14  15
HETATM   15  N4  UNL     1     -15.844 -32.329  94.497  1.00  0.00    -0.058 N 
ATOM     16  H43 UNL     1     -16.335 -32.625  93.653  1.00  0.00     0.275 HD
ATOM     17  H42 UNL     1     -16.641 -32.261  95.130  1.00  0.00     0.275 HD
ATOM     18  H41 UNL     1     -15.397 -31.421  94.366  1.00  0.00     0.275 HD
ENDBRANCH  14  15
BRANCH  14  19
HETATM   19  C6  UNL     1     -13.608 -32.696  95.145  1.00  0.00     0.271 C 
HETATM   20  N5  UNL     1     -13.358 -31.947  96.308  1.00  0.00    -0.060 NA
HETATM   21  O2  UNL     1     -12.716 -32.826  94.287  1.00  0.00    -0.274 OA
ENDBRANCH  14  19
ENDBRANCH  11  14
ENDBRANCH   6  10
BRANCH   8  22
HETATM   22  N7  UNL     1     -14.789 -39.002  91.528  1.00  0.00    -0.331 N 
ATOM     23  H72 UNL     1     -15.733 -38.943  91.911  1.00  0.00     0.177 HD
ATOM     24  H71 UNL     1     -14.652 -39.221  90.541  1.00  0.00     0.177 HD
ENDBRANCH   8  22
TORSDOF 5
ENDMDL
MODEL 4
REMARK VINA RESULT: -5.942085185      2.000      5.915
REMARK  5 active torsions:
REMARK  status: ('A' for Active; 'I' for Inactive)
REMARK       I    between atoms: N1_3  and  C3_5 
REMARK       I    between atoms: C3_5  and  N6_20 
REMARK    1  A    between atoms: N2_6  and  N3_8 
REMARK       I    between atoms: N3_8  and  C4_10 
REMARK    2  A    between atoms: C4_10  and  C5_12 
REMARK    3  A    between atoms: C5_12  and  N4_13 
REMARK    4  A    between atoms: C5_12  and  C6_17 
REMARK    5  A    between atoms: N6_20  and  N7_22 
ROOT
HETATM    1  C1  UNL     1     -16.566 -31.110  96.677  1.00  0.00     0.037 C 
HETATM    2  C2  UNL     1     -15.863 -32.069  96.503  1.00  0.00     0.015 C 
HETATM    3  N1  UNL     1     -15.021 -33.175  96.307  1.00  0.00    -0.147 N 
ATOM      4  H1  UNL     1     -15.238 -34.076  96.733  1.00  0.00     0.195 HD
HETATM    5  C3  UNL     1     -13.858 -33.012  95.499  1.00  0.00     0.718 C 
HETATM    6  N2  UNL     1     -13.429 -33.925  94.693  1.00  0.00    -0.128 N 
ATOM      7  H2  UNL     1     -12.587 -33.727  94.151  1.00  0.00     0.205 HD
HETATM    8  N6  UNL     1     -13.160 -31.781  95.607  1.00  0.00    -0.137 N 
ATOM      9  H6  UNL     1     -13.633 -30.919  95.338  1.00  0.00     0.205 HD
ENDROOT
BRANCH   6  10
HETATM   10  N3  UNL     1     -14.036 -35.151  94.518  1.00  0.00    -0.253 N 
HETATM   11  C4  UNL     1     -14.891 -35.330  93.397  1.00  0.00     0.276 C 
HETATM   12  O1  UNL     1     -15.107 -34.405  92.566  1.00  0.00    -0.269 OA
ATOM     13  H3  UNL     1     -13.874 -35.912  95.178  1.00  0.00     0.190 HD
BRANCH  11  14
HETATM   14  C5  UNL     1     -15.597 -36.624  93.117  1.00  0.00     0.364 C 
BRANCH  14  15
HETATM   15  N4  UNL     1     -16.967 -36.590  93.525  1.00  0.00    -0.058 N 
ATOM     16  H43 UNL     1     -17.245 -35.649  93.807  1.00  0.00     0.275 HD
ATOM     17  H42 UNL     1     -17.592 -36.710  92.728  1.00  0.00     0.275 HD
ATOM     18  H41 UNL     1     -17.168 -37.270  94.258  1.00  0.00     0.275 HD
ENDBRANCH  14  15
BRANCH  14  19
HETATM   19  C6  UNL     1     -14.911 -37.695  93.858  1.00  0.00     0.271 C 
HETATM   20  N5  UNL     1     -13.715 -38.246  93.365  1.00  0.00    -0.060 NA
HETATM   21  O2  UNL     1     -15.394 -38.113  94.925  1.00  0.00    -0.274 OA
ENDBRANCH  14  19
ENDBRANCH  11  14
ENDBRANCH   6  10
BRANCH   8  22
HETATM   22  N7  UNL     1     -11.860 -31.716  96.066  1.00  0.00    -0.331 N 
ATOM     23  H72 UNL     1     -11.121 -31.535  95.386  1.00  0.00     0.177 HD
ATOM     24  H71 UNL     1     -11.627 -31.842  97.051  1.00  0.00     0.177 HD
ENDBRANCH   8  22
TORSDOF 5
ENDMDL
MODEL 5
REMARK VINA RESULT: -5.933869097      2.325      6.125
REMARK  5 active torsions:
REMARK  status: ('A' for Active; 'I' for Inactive)
REMARK       I    between atoms: N1_3  and  C3_5 
REMARK       I    between atoms: C3_5  and  N6_20 
REMARK    1  A    between atoms: N2_6  and  N3_8 
REMARK       I    between atoms: N3_8  and  C4_10 
REMARK    2  A    between atoms: C4_10  and  C5_12 
REMARK    3  A    between atoms: C5_12  and  N4_13 
REMARK    4  A    between atoms: C5_12  and  C6_17 
REMARK    5  A    between atoms: N6_20  and  N7_22 
ROOT
HETATM    1  C1  UNL     1     -11.578 -31.186  96.431  1.00  0.00     0.037 C 
HETATM    2  C2  UNL     1     -12.531 -31.658  95.870  1.00  0.00     0.015 C 
HETATM    3  N1  UNL     1     -13.658 -32.192  95.227  1.00  0.00    -0.147 N 
ATOM      4  H1  UNL     1     -13.681 -32.291  94.212  1.00  0.00     0.195 HD
HETATM    5  C3  UNL     1     -14.770 -32.594  96.024  1.00  0.00     0.718 C 
HETATM    6  N2  UNL     1     -15.481 -33.640  95.761  1.00  0.00    -0.128 N 
ATOM      7  H2  UNL     1     -16.260 -33.857  96.383  1.00  0.00     0.205 HD
HETATM    8  N6  UNL     1     -15.087 -31.791  97.149  1.00  0.00    -0.137 N 
ATOM      9  H6  UNL     1     -14.405 -31.704  97.903  1.00  0.00     0.205 HD
ENDROOT
BRANCH   6  10
HETATM   10  N3  UNL     1     -15.253 -34.483  94.694  1.00  0.00    -0.253 N 
HETATM   11  C4  UNL     1     -15.137 -35.877  94.943  1.00  0.00     0.276 C 
HETATM   12  O1  UNL     1     -15.235 -36.359  96.105  1.00  0.00    -0.269 OA
ATOM     13  H3  UNL     1     -15.170 -34.114  93.746  1.00  0.00     0.190 HD
BRANCH  11  14
HETATM   14  C5  UNL     1     -14.890 -36.876  93.850  1.00  0.00     0.364 C 
BRANCH  14  15
HETATM   15  N4  UNL     1     -13.822 -36.478  92.987  1.00  0.00    -0.058 N 
ATOM     16  H43 UNL     1     -13.833 -35.470  92.827  1.00  0.00     0.275 HD
ATOM     17  H42 UNL     1     -12.920 -36.557  93.456  1.00  0.00     0.275 HD
ATOM     18  H41 UNL     1     -13.828 -36.992  92.106  1.00  0.00     0.275 HD
ENDBRANCH  14  15
BRANCH  14  19
HETATM   19  C6  UNL     1     -16.119 -37.003  93.053  1.00  0.00     0.271 C 
HETATM   20  N5  UNL     1     -16.465 -38.235  92.472  1.00  0.00    -0.060 NA
HETATM   21  O2  UNL     1     -16.855 -36.013  92.892  1.00  0.00    -0.274 OA
ENDBRANCH  14  19
ENDBRANCH  11  14
ENDBRANCH   6  10
BRANCH   8  22
HETATM   22  N7  UNL     1     -16.290 -31.122  97.255  1.00  0.00    -0.331 N 
ATOM     23  H72 UNL     1     -16.999 -31.297  96.542  1.00  0.00     0.177 HD
ATOM     24  H71 UNL     1     -16.481 -30.470  98.016  1.00  0.00     0.177 HD
ENDBRANCH   8  22
TORSDOF 5
ENDMDL
