MODEL 1
REMARK VINA RESULT: -7.602648467      0.000      0.000
REMARK  11 active torsions:
REMARK  status: ('A' for Active; 'I' for Inactive)
REMARK    1  A    between atoms: O1_2  and  C2_3 
REMARK    2  A    between atoms: C4_5  and  N1_6 
REMARK    3  A    between atoms: C11_14  and  N2_15 
REMARK    4  A    between atoms: N2_15  and  C12_17 
REMARK    5  A    between atoms: C13_20  and  N4_21 
REMARK    6  A    between atoms: N4_21  and  C14_23 
REMARK    7  A    between atoms: C14_23  and  C15_24 
REMARK    8  A    between atoms: C19_31  and  N6_32 
REMARK    9  A    between atoms: N6_32  and  C20_34 
REMARK   10  A    between atoms: C20_34  and  C21_35 
REMARK   11  A    between atoms: C25_39  and  N7_40 
ROOT
HETATM    1  C12 UNL     1      11.902  52.751  88.045  1.00  0.00     0.712 A 
HETATM    2  N3  UNL     1      11.811  51.419  88.255  1.00  0.00    -0.021 N 
ATOM      3  H3  UNL     1      11.577  50.807  87.473  1.00  0.00     0.203 HD
HETATM    4  C13 UNL     1      12.020  50.880  89.465  1.00  0.00     0.707 A 
HETATM    5  N5  UNL     1      12.331  51.725  90.491  1.00  0.00    -0.022 N 
ATOM      6  H5  UNL     1      12.493  51.326  91.416  1.00  0.00     0.203 HD
HETATM    7  C19 UNL     1      12.433  53.050  90.345  1.00  0.00     0.707 A 
HETATM    8  N8  UNL     1      12.213  53.541  89.102  1.00  0.00    -0.021 N 
ATOM      9  H8  UNL     1      12.283  54.548  88.956  1.00  0.00     0.203 HD
ENDROOT
BRANCH   1  10
HETATM   10  N2  UNL     1      11.684  53.152  86.864  1.00  0.00    -0.188 N 
ATOM     11  H2  UNL     1      10.925  53.815  86.705  1.00  0.00     0.184 HD
BRANCH  10  12
HETATM   12  C11 UNL     1      12.440  52.724  85.774  1.00  0.00     0.082 A 
HETATM   13  C2  UNL     1      12.014  51.635  85.043  1.00  0.00     0.097 A 
HETATM   14  C3  UNL     1      12.760  51.202  83.971  1.00  0.00     0.068 A 
HETATM   15  C4  UNL     1      13.948  51.841  83.599  1.00  0.00     0.040 A 
HETATM   16  C9  UNL     1      14.323  52.920  84.365  1.00  0.00     0.032 A 
HETATM   17  C10 UNL     1      13.607  53.386  85.445  1.00  0.00     0.035 A 
BRANCH  13  18
HETATM   18  O1  UNL     1      10.826  50.959  85.379  1.00  0.00    -0.354 OA
HETATM   19  C1  UNL     1      10.604  49.660  84.906  1.00  0.00     0.210 C 
ENDBRANCH  13  18
BRANCH  15  20
HETATM   20  N1  UNL     1      14.716  51.393  82.504  1.00  0.00    -0.318 N 
HETATM   21  C5  UNL     1      16.082  51.777  82.227  1.00  0.00     0.133 C 
HETATM   22  C6  UNL     1      16.190  51.736  80.740  1.00  0.00     0.029 C 
HETATM   23  C7  UNL     1      15.189  50.727  80.281  1.00  0.00     0.105 C 
HETATM   24  C8  UNL     1      14.329  50.505  81.465  1.00  0.00     0.224 C 
HETATM   25  O2  UNL     1      13.400  49.658  81.536  1.00  0.00    -0.273 OA
ENDBRANCH  15  20
ENDBRANCH  10  12
ENDBRANCH   1  10
BRANCH   4  26
HETATM   26  N4  UNL     1      11.952  49.627  89.735  1.00  0.00    -0.223 N 
ATOM     27  H4  UNL     1      11.051  49.206  89.959  1.00  0.00     0.177 HD
BRANCH  26  28
HETATM   28  C14 UNL     1      13.135  48.813  89.724  1.00  0.00     0.170 C 
BRANCH  28  29
HETATM   29  C15 UNL     1      12.945  47.599  88.827  1.00  0.00     0.139 C 
HETATM   30  C16 UNL     1      12.854  47.963  87.386  1.00  0.00     0.035 C 
HETATM   31  C17 UNL     1      14.173  47.459  86.814  1.00  0.00     0.029 C 
HETATM   32  C18 UNL     1      14.974  47.203  88.092  1.00  0.00     0.168 C 
HETATM   33  O3  UNL     1      13.983  46.702  88.913  1.00  0.00    -0.384 OA
ENDBRANCH  28  29
ENDBRANCH  26  28
ENDBRANCH   4  26
BRANCH   7  34
HETATM   34  N6  UNL     1      12.738  53.838  91.319  1.00  0.00    -0.225 N 
ATOM     35  H6  UNL     1      12.099  54.613  91.500  1.00  0.00     0.177 HD
BRANCH  34  36
HETATM   36  C20 UNL     1      13.879  53.734  92.168  1.00  0.00     0.144 C 
BRANCH  36  37
HETATM   37  C21 UNL     1      13.440  54.214  93.550  1.00  0.00     0.034 C 
HETATM   38  C22 UNL     1      12.021  54.727  93.501  1.00  0.00     0.008 C 
HETATM   39  C23 UNL     1      11.416  54.331  94.833  1.00  0.00     0.002 C 
HETATM   40  C24 UNL     1      12.531  53.706  95.640  1.00  0.00     0.033 C 
HETATM   41  C25 UNL     1      13.505  53.148  94.594  1.00  0.00     0.189 C 
BRANCH  41  42
HETATM   42  N7  UNL     1      13.034  51.861  94.187  1.00  0.00    -0.075 N 
ATOM     43  H73 UNL     1      13.691  51.440  93.529  1.00  0.00     0.274 HD
ATOM     44  H72 UNL     1      13.107  51.201  94.960  1.00  0.00     0.274 HD
ATOM     45  H71 UNL     1      12.091  51.844  93.798  1.00  0.00     0.274 HD
ENDBRANCH  41  42
ENDBRANCH  36  37
ENDBRANCH  34  36
ENDBRANCH   7  34
TORSDOF 11
ENDMDL
MODEL 2
REMARK VINA RESULT: -7.587465594      1.966      5.625
REMARK  11 active torsions:
REMARK  status: ('A' for Active; 'I' for Inactive)
REMARK    1  A    between atoms: O1_2  and  C2_3 
REMARK    2  A    between atoms: C4_5  and  N1_6 
REMARK    3  A    between atoms: C11_14  and  N2_15 
REMARK    4  A    between atoms: N2_15  and  C12_17 
REMARK    5  A    between atoms: C13_20  and  N4_21 
REMARK    6  A    between atoms: N4_21  and  C14_23 
REMARK    7  A    between atoms: C14_23  and  C15_24 
REMARK    8  A    between atoms: C19_31  and  N6_32 
REMARK    9  A    between atoms: N6_32  and  C20_34 
REMARK   10  A    between atoms: C20_34  and  C21_35 
REMARK   11  A    between atoms: C25_39  and  N7_40 
ROOT
HETATM    1  C12 UNL     1      11.632  50.839  87.933  1.00  0.00     0.712 A 
HETATM    2  N3  UNL     1      11.885  51.841  88.805  1.00  0.00    -0.021 N 
ATOM      3  H3  UNL     1      11.753  52.807  88.504  1.00  0.00     0.203 HD
HETATM    4  C13 UNL     1      12.305  51.598  90.055  1.00  0.00     0.707 A 
HETATM    5  N5  UNL     1      12.473  50.295  90.427  1.00  0.00    -0.022 N 
ATOM      6  H5  UNL     1      12.791  50.099  91.376  1.00  0.00     0.203 HD
HETATM    7  C19 UNL     1      12.240  49.264  89.609  1.00  0.00     0.707 A 
HETATM    8  N8  UNL     1      11.817  49.566  88.358  1.00  0.00    -0.021 N 
ATOM      9  H8  UNL     1      11.630  48.801  87.709  1.00  0.00     0.203 HD
ENDROOT
BRANCH   1  10
HETATM   10  N2  UNL     1      11.241  51.182  86.779  1.00  0.00    -0.188 N 
ATOM     11  H2  UNL     1      10.282  51.510  86.665  1.00  0.00     0.184 HD
BRANCH  10  12
HETATM   12  C11 UNL     1      12.069  51.128  85.658  1.00  0.00     0.082 A 
HETATM   13  C2  UNL     1      12.260  49.922  85.017  1.00  0.00     0.097 A 
HETATM   14  C3  UNL     1      13.083  49.860  83.916  1.00  0.00     0.068 A 
HETATM   15  C4  UNL     1      13.735  50.996  83.424  1.00  0.00     0.040 A 
HETATM   16  C9  UNL     1      13.507  52.170  84.105  1.00  0.00     0.032 A 
HETATM   17  C10 UNL     1      12.693  52.276  85.210  1.00  0.00     0.035 A 
BRANCH  13  18
HETATM   18  O1  UNL     1      11.625  48.752  85.475  1.00  0.00    -0.354 OA
HETATM   19  C1  UNL     1      10.797  48.024  84.612  1.00  0.00     0.210 C 
ENDBRANCH  13  18
BRANCH  15  20
HETATM   20  N1  UNL     1      14.583  50.932  82.299  1.00  0.00    -0.318 N 
HETATM   21  C5  UNL     1      15.924  51.467  82.230  1.00  0.00     0.133 C 
HETATM   22  C6  UNL     1      16.099  51.861  80.803  1.00  0.00     0.029 C 
HETATM   23  C7  UNL     1      15.203  50.963  80.013  1.00  0.00     0.105 C 
HETATM   24  C8  UNL     1      14.315  50.355  81.029  1.00  0.00     0.224 C 
HETATM   25  O2  UNL     1      13.454  49.465  80.798  1.00  0.00    -0.273 OA
ENDBRANCH  15  20
ENDBRANCH  10  12
ENDBRANCH   1  10
BRANCH   4  26
HETATM   26  N4  UNL     1      12.563  52.498  90.933  1.00  0.00    -0.223 N 
ATOM     27  H4  UNL     1      13.143  52.267  91.739  1.00  0.00     0.177 HD
BRANCH  26  28
HETATM   28  C14 UNL     1      12.040  53.827  90.791  1.00  0.00     0.170 C 
BRANCH  28  29
HETATM   29  C15 UNL     1      13.116  54.863  91.079  1.00  0.00     0.139 C 
HETATM   30  C16 UNL     1      14.457  54.249  91.285  1.00  0.00     0.035 C 
HETATM   31  C17 UNL     1      15.222  54.650  90.029  1.00  0.00     0.029 C 
HETATM   32  C18 UNL     1      14.083  55.131  89.128  1.00  0.00     0.168 C 
HETATM   33  O3  UNL     1      13.280  55.766  90.055  1.00  0.00    -0.384 OA
ENDBRANCH  28  29
ENDBRANCH  26  28
ENDBRANCH   4  26
BRANCH   7  34
HETATM   34  N6  UNL     1      12.391  48.036  89.973  1.00  0.00    -0.225 N 
ATOM     35  H6  UNL     1      12.217  47.824  90.956  1.00  0.00     0.177 HD
BRANCH  34  36
HETATM   36  C20 UNL     1      12.777  46.946  89.139  1.00  0.00     0.144 C 
BRANCH  36  37
HETATM   37  C21 UNL     1      14.254  47.152  88.807  1.00  0.00     0.034 C 
HETATM   38  C22 UNL     1      15.049  45.920  89.165  1.00  0.00     0.008 C 
HETATM   39  C23 UNL     1      16.120  45.822  88.098  1.00  0.00     0.002 C 
HETATM   40  C24 UNL     1      15.976  47.053  87.232  1.00  0.00     0.033 C 
HETATM   41  C25 UNL     1      14.500  47.453  87.365  1.00  0.00     0.189 C 
BRANCH  41  42
HETATM   42  N7  UNL     1      13.741  46.671  86.438  1.00  0.00    -0.075 N 
ATOM     43  H73 UNL     1      14.002  45.688  86.514  1.00  0.00     0.274 HD
ATOM     44  H72 UNL     1      12.767  46.623  86.737  1.00  0.00     0.274 HD
ATOM     45  H71 UNL     1      13.795  46.973  85.465  1.00  0.00     0.274 HD
ENDBRANCH  41  42
ENDBRANCH  36  37
ENDBRANCH  34  36
ENDBRANCH   7  34
TORSDOF 11
ENDMDL
MODEL 3
REMARK VINA RESULT: -7.531591389      1.499      5.433
REMARK  11 active torsions:
REMARK  status: ('A' for Active; 'I' for Inactive)
REMARK    1  A    between atoms: O1_2  and  C2_3 
REMARK    2  A    between atoms: C4_5  and  N1_6 
REMARK    3  A    between atoms: C11_14  and  N2_15 
REMARK    4  A    between atoms: N2_15  and  C12_17 
REMARK    5  A    between atoms: C13_20  and  N4_21 
REMARK    6  A    between atoms: N4_21  and  C14_23 
REMARK    7  A    between atoms: C14_23  and  C15_24 
REMARK    8  A    between atoms: C19_31  and  N6_32 
REMARK    9  A    between atoms: N6_32  and  C20_34 
REMARK   10  A    between atoms: C20_34  and  C21_35 
REMARK   11  A    between atoms: C25_39  and  N7_40 
ROOT
HETATM    1  C12 UNL     1      11.828  52.539  88.048  1.00  0.00     0.712 A 
HETATM    2  N3  UNL     1      11.995  53.547  88.933  1.00  0.00    -0.021 N 
ATOM      3  H3  UNL     1      11.890  54.510  88.615  1.00  0.00     0.203 HD
HETATM    4  C13 UNL     1      12.297  53.312  90.219  1.00  0.00     0.707 A 
HETATM    5  N5  UNL     1      12.432  52.013  90.613  1.00  0.00    -0.022 N 
ATOM      6  H5  UNL     1      12.660  51.824  91.589  1.00  0.00     0.203 HD
HETATM    7  C19 UNL     1      12.280  50.976  89.783  1.00  0.00     0.707 A 
HETATM    8  N8  UNL     1      11.976  51.268  88.497  1.00  0.00    -0.021 N 
ATOM      9  H8  UNL     1      11.853  50.499  87.838  1.00  0.00     0.203 HD
ENDROOT
BRANCH   1  10
HETATM   10  N2  UNL     1      11.547  52.873  86.860  1.00  0.00    -0.188 N 
ATOM     11  H2  UNL     1      10.716  53.443  86.696  1.00  0.00     0.184 HD
BRANCH  10  12
HETATM   12  C11 UNL     1      12.326  52.493  85.767  1.00  0.00     0.082 A 
HETATM   13  C2  UNL     1      12.022  51.331  85.092  1.00  0.00     0.097 A 
HETATM   14  C3  UNL     1      12.792  50.946  84.019  1.00  0.00     0.068 A 
HETATM   15  C4  UNL     1      13.884  51.708  83.590  1.00  0.00     0.040 A 
HETATM   16  C9  UNL     1      14.140  52.857  84.303  1.00  0.00     0.032 A 
HETATM   17  C10 UNL     1      13.395  53.278  85.382  1.00  0.00     0.035 A 
BRANCH  13  18
HETATM   18  O1  UNL     1      10.933  50.530  85.486  1.00  0.00    -0.354 OA
HETATM   19  C1  UNL     1       9.782  50.475  84.689  1.00  0.00     0.210 C 
ENDBRANCH  13  18
BRANCH  15  20
HETATM   20  N1  UNL     1      14.677  51.311  82.494  1.00  0.00    -0.318 N 
HETATM   21  C5  UNL     1      16.049  51.708  82.266  1.00  0.00     0.133 C 
HETATM   22  C6  UNL     1      16.191  51.735  80.782  1.00  0.00     0.029 C 
HETATM   23  C7  UNL     1      15.202  50.746  80.254  1.00  0.00     0.105 C 
HETATM   24  C8  UNL     1      14.317  50.471  81.408  1.00  0.00     0.224 C 
HETATM   25  O2  UNL     1      13.387  49.621  81.419  1.00  0.00    -0.273 OA
ENDBRANCH  15  20
ENDBRANCH  10  12
ENDBRANCH   1  10
BRANCH   4  26
HETATM   26  N4  UNL     1      12.468  54.219  91.112  1.00  0.00    -0.223 N 
ATOM     27  H4  UNL     1      12.835  55.131  90.842  1.00  0.00     0.177 HD
BRANCH  26  28
HETATM   28  C14 UNL     1      12.146  53.959  92.486  1.00  0.00     0.170 C 
BRANCH  28  29
HETATM   29  C15 UNL     1      13.411  53.806  93.317  1.00  0.00     0.139 C 
HETATM   30  C16 UNL     1      13.205  54.184  94.743  1.00  0.00     0.035 C 
HETATM   31  C17 UNL     1      13.258  52.846  95.470  1.00  0.00     0.029 C 
HETATM   32  C18 UNL     1      13.126  51.867  94.302  1.00  0.00     0.168 C 
HETATM   33  O3  UNL     1      13.881  52.514  93.345  1.00  0.00    -0.384 OA
ENDBRANCH  28  29
ENDBRANCH  26  28
ENDBRANCH   4  26
BRANCH   7  34
HETATM   34  N6  UNL     1      12.399  49.750  90.168  1.00  0.00    -0.225 N 
ATOM     35  H6  UNL     1      12.808  49.596  91.090  1.00  0.00     0.177 HD
BRANCH  34  36
HETATM   36  C20 UNL     1      12.015  48.591  89.433  1.00  0.00     0.144 C 
BRANCH  36  37
HETATM   37  C21 UNL     1      13.264  48.105  88.701  1.00  0.00     0.034 C 
HETATM   38  C22 UNL     1      13.543  46.660  89.040  1.00  0.00     0.008 C 
HETATM   39  C23 UNL     1      14.094  46.057  87.764  1.00  0.00     0.002 C 
HETATM   40  C24 UNL     1      14.217  47.193  86.773  1.00  0.00     0.033 C 
HETATM   41  C25 UNL     1      13.160  48.213  87.215  1.00  0.00     0.189 C 
BRANCH  41  42
HETATM   42  N7  UNL     1      11.902  47.822  86.659  1.00  0.00    -0.075 N 
ATOM     43  H73 UNL     1      11.259  47.551  87.404  1.00  0.00     0.274 HD
ATOM     44  H72 UNL     1      11.414  48.637  86.288  1.00  0.00     0.274 HD
ATOM     45  H71 UNL     1      11.946  47.087  85.952  1.00  0.00     0.274 HD
ENDBRANCH  41  42
ENDBRANCH  36  37
ENDBRANCH  34  36
ENDBRANCH   7  34
TORSDOF 11
ENDMDL
MODEL 4
REMARK VINA RESULT: -7.442921661      1.941      3.119
REMARK  11 active torsions:
REMARK  status: ('A' for Active; 'I' for Inactive)
REMARK    1  A    between atoms: O1_2  and  C2_3 
REMARK    2  A    between atoms: C4_5  and  N1_6 
REMARK    3  A    between atoms: C11_14  and  N2_15 
REMARK    4  A    between atoms: N2_15  and  C12_17 
REMARK    5  A    between atoms: C13_20  and  N4_21 
REMARK    6  A    between atoms: N4_21  and  C14_23 
REMARK    7  A    between atoms: C14_23  and  C15_24 
REMARK    8  A    between atoms: C19_31  and  N6_32 
REMARK    9  A    between atoms: N6_32  and  C20_34 
REMARK   10  A    between atoms: C20_34  and  C21_35 
REMARK   11  A    between atoms: C25_39  and  N7_40 
ROOT
HETATM    1  C12 UNL     1      11.787  49.655  88.099  1.00  0.00     0.712 A 
HETATM    2  N3  UNL     1      12.446  48.532  88.460  1.00  0.00    -0.021 N 
ATOM      3  H3  UNL     1      12.478  47.744  87.813  1.00  0.00     0.203 HD
HETATM    4  C13 UNL     1      13.059  48.426  89.648  1.00  0.00     0.707 A 
HETATM    5  N5  UNL     1      12.998  49.497  90.492  1.00  0.00    -0.022 N 
ATOM      6  H5  UNL     1      13.461  49.427  91.398  1.00  0.00     0.203 HD
HETATM    7  C19 UNL     1      12.360  50.632  90.190  1.00  0.00     0.707 A 
HETATM    8  N8  UNL     1      11.759  50.686  88.978  1.00  0.00    -0.021 N 
ATOM      9  H8  UNL     1      11.264  51.539  88.716  1.00  0.00     0.203 HD
ENDROOT
BRANCH   1  10
HETATM   10  N2  UNL     1      11.244  49.647  86.955  1.00  0.00    -0.188 N 
ATOM     11  H2  UNL     1      10.260  49.388  86.883  1.00  0.00     0.184 HD
BRANCH  10  12
HETATM   12  C11 UNL     1      11.937  49.976  85.791  1.00  0.00     0.082 A 
HETATM   13  C2  UNL     1      12.129  51.304  85.472  1.00  0.00     0.097 A 
HETATM   14  C3  UNL     1      12.804  51.635  84.320  1.00  0.00     0.068 A 
HETATM   15  C4  UNL     1      13.307  50.655  83.457  1.00  0.00     0.040 A 
HETATM   16  C9  UNL     1      13.085  49.349  83.827  1.00  0.00     0.032 A 
HETATM   17  C10 UNL     1      12.415  48.974  84.970  1.00  0.00     0.035 A 
BRANCH  13  18
HETATM   18  O1  UNL     1      11.641  52.325  86.308  1.00  0.00    -0.354 OA
HETATM   19  C1  UNL     1      10.371  52.869  86.078  1.00  0.00     0.210 C 
ENDBRANCH  13  18
BRANCH  15  20
HETATM   20  N1  UNL     1      13.994  50.996  82.274  1.00  0.00    -0.318 N 
HETATM   21  C5  UNL     1      13.498  50.794  80.931  1.00  0.00     0.133 C 
HETATM   22  C6  UNL     1      14.720  50.554  80.111  1.00  0.00     0.029 C 
HETATM   23  C7  UNL     1      15.831  51.273  80.804  1.00  0.00     0.105 C 
HETATM   24  C8  UNL     1      15.280  51.582  82.143  1.00  0.00     0.224 C 
HETATM   25  O2  UNL     1      15.867  52.262  83.027  1.00  0.00    -0.273 OA
ENDBRANCH  15  20
ENDBRANCH  10  12
ENDBRANCH   1  10
BRANCH   4  26
HETATM   26  N4  UNL     1      13.702  47.393  90.056  1.00  0.00    -0.223 N 
ATOM     27  H4  UNL     1      14.061  47.363  91.010  1.00  0.00     0.177 HD
BRANCH  26  28
HETATM   28  C14 UNL     1      13.922  46.277  89.179  1.00  0.00     0.170 C 
BRANCH  28  29
HETATM   29  C15 UNL     1      15.409  46.063  88.941  1.00  0.00     0.139 C 
HETATM   30  C16 UNL     1      15.678  45.013  87.920  1.00  0.00     0.035 C 
HETATM   31  C17 UNL     1      16.189  45.809  86.725  1.00  0.00     0.029 C 
HETATM   32  C18 UNL     1      15.794  47.232  87.124  1.00  0.00     0.168 C 
HETATM   33  O3  UNL     1      16.046  47.192  88.481  1.00  0.00    -0.384 OA
ENDBRANCH  28  29
ENDBRANCH  26  28
ENDBRANCH   4  26
BRANCH   7  34
HETATM   34  N6  UNL     1      12.317  51.643  90.991  1.00  0.00    -0.225 N 
ATOM     35  H6  UNL     1      12.952  51.624  91.789  1.00  0.00     0.177 HD
BRANCH  34  36
HETATM   36  C20 UNL     1      11.470  52.784  90.869  1.00  0.00     0.144 C 
BRANCH  36  37
HETATM   37  C21 UNL     1      12.356  54.010  91.082  1.00  0.00     0.034 C 
HETATM   38  C22 UNL     1      13.623  53.623  91.807  1.00  0.00     0.008 C 
HETATM   39  C23 UNL     1      14.698  54.511  91.215  1.00  0.00     0.002 C 
HETATM   40  C24 UNL     1      14.000  55.449  90.256  1.00  0.00     0.033 C 
HETATM   41  C25 UNL     1      12.745  54.686  89.809  1.00  0.00     0.189 C 
BRANCH  41  42
HETATM   42  N7  UNL     1      13.113  53.812  88.738  1.00  0.00    -0.075 N 
ATOM     43  H73 UNL     1      13.413  52.911  89.110  1.00  0.00     0.274 HD
ATOM     44  H72 UNL     1      12.282  53.525  88.220  1.00  0.00     0.274 HD
ATOM     45  H71 UNL     1      13.817  54.179  88.097  1.00  0.00     0.274 HD
ENDBRANCH  41  42
ENDBRANCH  36  37
ENDBRANCH  34  36
ENDBRANCH   7  34
TORSDOF 11
ENDMDL
MODEL 5
REMARK VINA RESULT: -7.415638578      1.641      2.181
REMARK  11 active torsions:
REMARK  status: ('A' for Active; 'I' for Inactive)
REMARK    1  A    between atoms: O1_2  and  C2_3 
REMARK    2  A    between atoms: C4_5  and  N1_6 
REMARK    3  A    between atoms: C11_14  and  N2_15 
REMARK    4  A    between atoms: N2_15  and  C12_17 
REMARK    5  A    between atoms: C13_20  and  N4_21 
REMARK    6  A    between atoms: N4_21  and  C14_23 
REMARK    7  A    between atoms: C14_23  and  C15_24 
REMARK    8  A    between atoms: C19_31  and  N6_32 
REMARK    9  A    between atoms: N6_32  and  C20_34 
REMARK   10  A    between atoms: C20_34  and  C21_35 
REMARK   11  A    between atoms: C25_39  and  N7_40 
ROOT
HETATM    1  C12 UNL     1      11.796  52.684  88.029  1.00  0.00     0.712 A 
HETATM    2  N3  UNL     1      11.632  51.407  88.440  1.00  0.00    -0.021 N 
ATOM      3  H3  UNL     1      11.274  50.715  87.782  1.00  0.00     0.203 HD
HETATM    4  C13 UNL     1      11.927  51.026  89.692  1.00  0.00     0.707 A 
HETATM    5  N5  UNL     1      12.404  51.976  90.549  1.00  0.00    -0.022 N 
ATOM      6  H5  UNL     1      12.632  51.696  91.503  1.00  0.00     0.203 HD
HETATM    7  C19 UNL     1      12.585  53.253  90.200  1.00  0.00     0.707 A 
HETATM    8  N8  UNL     1      12.272  53.584  88.925  1.00  0.00    -0.021 N 
ATOM      9  H8  UNL     1      12.399  54.551  88.626  1.00  0.00     0.203 HD
ENDROOT
BRANCH   1  10
HETATM   10  N2  UNL     1      11.485  52.934  86.828  1.00  0.00    -0.188 N 
ATOM     11  H2  UNL     1      10.619  53.440  86.641  1.00  0.00     0.184 HD
BRANCH  10  12
HETATM   12  C11 UNL     1      12.280  52.546  85.749  1.00  0.00     0.082 A 
HETATM   13  C2  UNL     1      11.939  51.421  85.029  1.00  0.00     0.097 A 
HETATM   14  C3  UNL     1      12.724  51.028  83.970  1.00  0.00     0.068 A 
HETATM   15  C4  UNL     1      13.867  51.744  83.600  1.00  0.00     0.040 A 
HETATM   16  C9  UNL     1      14.158  52.856  84.355  1.00  0.00     0.032 A 
HETATM   17  C10 UNL     1      13.400  53.284  85.422  1.00  0.00     0.035 A 
BRANCH  13  18
HETATM   18  O1  UNL     1      10.798  50.668  85.364  1.00  0.00    -0.354 OA
HETATM   19  C1  UNL     1       9.780  50.486  84.420  1.00  0.00     0.210 C 
ENDBRANCH  13  18
BRANCH  15  20
HETATM   20  N1  UNL     1      14.675  51.337  82.518  1.00  0.00    -0.318 N 
HETATM   21  C5  UNL     1      16.050  51.732  82.305  1.00  0.00     0.133 C 
HETATM   22  C6  UNL     1      16.212  51.746  80.823  1.00  0.00     0.029 C 
HETATM   23  C7  UNL     1      15.230  50.754  80.290  1.00  0.00     0.105 C 
HETATM   24  C8  UNL     1      14.328  50.488  81.434  1.00  0.00     0.224 C 
HETATM   25  O2  UNL     1      13.398  49.639  81.439  1.00  0.00    -0.273 OA
ENDBRANCH  15  20
ENDBRANCH  10  12
ENDBRANCH   1  10
BRANCH   4  26
HETATM   26  N4  UNL     1      11.798  49.834  90.148  1.00  0.00    -0.223 N 
ATOM     27  H4  UNL     1      10.912  49.341  90.033  1.00  0.00     0.177 HD
BRANCH  26  28
HETATM   28  C14 UNL     1      12.890  49.186  90.819  1.00  0.00     0.170 C 
BRANCH  28  29
HETATM   29  C15 UNL     1      12.682  49.201  92.325  1.00  0.00     0.139 C 
HETATM   30  C16 UNL     1      13.391  48.084  93.009  1.00  0.00     0.035 C 
HETATM   31  C17 UNL     1      14.529  48.787  93.740  1.00  0.00     0.029 C 
HETATM   32  C18 UNL     1      14.510  50.161  93.068  1.00  0.00     0.168 C 
HETATM   33  O3  UNL     1      13.150  50.350  92.919  1.00  0.00    -0.384 OA
ENDBRANCH  28  29
ENDBRANCH  26  28
ENDBRANCH   4  26
BRANCH   7  34
HETATM   34  N6  UNL     1      13.046  54.141  91.015  1.00  0.00    -0.225 N 
ATOM     35  H6  UNL     1      12.953  55.116  90.732  1.00  0.00     0.177 HD
BRANCH  34  36
HETATM   36  C20 UNL     1      13.672  53.892  92.272  1.00  0.00     0.144 C 
BRANCH  36  37
HETATM   37  C21 UNL     1      12.854  54.641  93.322  1.00  0.00     0.034 C 
HETATM   38  C22 UNL     1      11.384  54.339  93.156  1.00  0.00     0.008 C 
HETATM   39  C23 UNL     1      10.828  54.314  94.565  1.00  0.00     0.002 C 
HETATM   40  C24 UNL     1      11.965  54.708  95.481  1.00  0.00     0.033 C 
HETATM   41  C25 UNL     1      13.236  54.297  94.724  1.00  0.00     0.189 C 
BRANCH  41  42
HETATM   42  N7  UNL     1      13.474  52.909  94.972  1.00  0.00    -0.075 N 
ATOM     43  H73 UNL     1      12.928  52.340  94.325  1.00  0.00     0.274 HD
ATOM     44  H72 UNL     1      14.418  52.659  94.679  1.00  0.00     0.274 HD
ATOM     45  H71 UNL     1      13.311  52.602  95.931  1.00  0.00     0.274 HD
ENDBRANCH  41  42
ENDBRANCH  36  37
ENDBRANCH  34  36
ENDBRANCH   7  34
TORSDOF 11
ENDMDL
