MODEL 1
REMARK VINA RESULT: -7.822175965      0.000      0.000
REMARK  9 active torsions:
REMARK  status: ('A' for Active; 'I' for Inactive)
REMARK    1  A    between atoms: C7_8  and  N2_9 
REMARK    2  A    between atoms: N2_9  and  C8_11 
REMARK    3  A    between atoms: C11_16  and  N4_17 
REMARK    4  A    between atoms: N4_17  and  C12_19 
REMARK    5  A    between atoms: C12_19  and  C13_20 
REMARK    6  A    between atoms: C13_20  and  N5_21 
REMARK    7  A    between atoms: C18_31  and  C19_32 
REMARK    8  A    between atoms: C19_32  and  C20_33 
REMARK    9  A    between atoms: C20_33  and  N7_34 
ROOT
HETATM    1  C1  UNL     1       8.183  51.351  87.103  1.00  0.00     0.149 C 
HETATM    2  N1  UNL     1       8.313  52.601  87.796  1.00  0.00    -0.384 N 
HETATM    3  C2  UNL     1       7.245  53.562  87.995  1.00  0.00     0.123 C 
HETATM    4  C3  UNL     1       7.425  54.297  89.300  1.00  0.00     0.024 C 
HETATM    5  C4  UNL     1       8.233  53.524  90.322  1.00  0.00     0.042 C 
HETATM    6  C5  UNL     1       9.579  53.305  89.755  1.00  0.00    -0.028 A 
HETATM    7  C6  UNL     1      10.721  53.482  90.437  1.00  0.00     0.039 A 
HETATM    8  C7  UNL     1      11.929  53.250  89.760  1.00  0.00     0.050 A 
HETATM    9  C14 UNL     1      11.924  52.860  88.442  1.00  0.00     0.046 A 
HETATM   10  C15 UNL     1      10.727  52.674  87.713  1.00  0.00     0.020 A 
HETATM   11  C16 UNL     1      10.832  52.289  86.342  1.00  0.00     0.045 A 
HETATM   12  C17 UNL     1      11.810  51.387  85.966  1.00  0.00     0.038 A 
HETATM   13  C18 UNL     1      11.970  51.012  84.669  1.00  0.00    -0.050 A 
HETATM   14  C25 UNL     1      11.124  51.561  83.733  1.00  0.00     0.024 A 
HETATM   15  C26 UNL     1      10.138  52.468  84.108  1.00  0.00     0.089 A 
HETATM   16  N9  UNL     1      10.051  52.779  85.402  1.00  0.00    -0.365 N 
ATOM     17  H9  UNL     1       9.329  53.444  85.684  1.00  0.00     0.165 HD
HETATM   18  C27 UNL     1       9.595  52.895  88.387  1.00  0.00     0.049 A 
ENDROOT
BRANCH   8  19
HETATM   19  N2  UNL     1      13.133  53.437  90.493  1.00  0.00    -0.192 N 
ATOM     20  H2  UNL     1      14.007  53.562  89.982  1.00  0.00     0.184 HD
BRANCH  19  21
HETATM   21  C8  UNL     1      13.157  53.454  91.777  1.00  0.00     0.684 A 
HETATM   22  N3  UNL     1      13.534  52.341  92.423  1.00  0.00    -0.202 N 
HETATM   23  C9  UNL     1      13.604  52.235  93.756  1.00  0.00     0.110 A 
ATOM     24  H3  UNL     1      13.784  51.525  91.865  1.00  0.00     0.183 HD
HETATM   25  C10 UNL     1      13.253  53.378  94.495  1.00  0.00     0.066 A 
HETATM   26  C11 UNL     1      12.862  54.527  93.857  1.00  0.00     0.118 A 
HETATM   27  N6  UNL     1      12.832  54.515  92.516  1.00  0.00    -0.177 N 
ATOM     28  H6  UNL     1      12.543  55.366  92.034  1.00  0.00     0.186 HD
BRANCH  26  29
HETATM   29  N4  UNL     1      12.543  55.556  94.534  1.00  0.00    -0.374 N 
ATOM     30  H4  UNL     1      13.158  56.361  94.413  1.00  0.00     0.161 HD
BRANCH  29  31
HETATM   31  C12 UNL     1      11.468  55.753  95.430  1.00  0.00     0.148 C 
BRANCH  31  32
HETATM   32  C13 UNL     1      11.024  57.202  95.525  1.00  0.00     0.249 C 
BRANCH  32  33
HETATM   33  N5  UNL     1      12.144  58.041  95.917  1.00  0.00    -0.078 N 
ATOM     34  H53 UNL     1      12.979  57.845  95.366  1.00  0.00     0.274 HD
ATOM     35  H52 UNL     1      12.007  59.014  95.641  1.00  0.00     0.274 HD
ATOM     36  H51 UNL     1      12.316  57.949  96.918  1.00  0.00     0.274 HD
ENDBRANCH  32  33
ENDBRANCH  31  32
ENDBRANCH  29  31
ENDBRANCH  26  29
ENDBRANCH  19  21
ENDBRANCH   8  19
BRANCH  13  37
HETATM   37  C19 UNL     1      12.999  50.055  84.215  1.00  0.00     0.083 C 
BRANCH  37  38
HETATM   38  C20 UNL     1      13.189  49.999  82.751  1.00  0.00     0.062 C 
BRANCH  38  39
HETATM   39  N7  UNL     1      13.775  51.088  82.088  1.00  0.00    -0.390 N 
HETATM   40  C21 UNL     1      14.948  51.668  82.622  1.00  0.00     0.149 C 
HETATM   41  C22 UNL     1      16.234  51.263  81.974  1.00  0.00     0.252 C 
HETATM   42  N8  UNL     1      16.197  51.197  80.545  1.00  0.00    -0.072 N 
HETATM   43  C23 UNL     1      15.100  50.362  80.147  1.00  0.00     0.252 C 
ATOM     44  H82 UNL     1      16.159  52.120  80.113  1.00  0.00     0.277 HD
ATOM     45  H81 UNL     1      17.084  50.891  80.146  1.00  0.00     0.277 HD
HETATM   46  C24 UNL     1      13.815  50.951  80.672  1.00  0.00     0.149 C 
ENDBRANCH  38  39
ENDBRANCH  37  38
ENDBRANCH  13  37
TORSDOF 9
ENDMDL
MODEL 2
REMARK VINA RESULT: -7.736345173      4.667     10.616
REMARK  9 active torsions:
REMARK  status: ('A' for Active; 'I' for Inactive)
REMARK    1  A    between atoms: C7_8  and  N2_9 
REMARK    2  A    between atoms: N2_9  and  C8_11 
REMARK    3  A    between atoms: C11_16  and  N4_17 
REMARK    4  A    between atoms: N4_17  and  C12_19 
REMARK    5  A    between atoms: C12_19  and  C13_20 
REMARK    6  A    between atoms: C13_20  and  N5_21 
REMARK    7  A    between atoms: C18_31  and  C19_32 
REMARK    8  A    between atoms: C19_32  and  C20_33 
REMARK    9  A    between atoms: C20_33  and  N7_34 
ROOT
HETATM    1  C1  UNL     1      11.809  55.061  98.585  1.00  0.00     0.149 C 
HETATM    2  N1  UNL     1      11.244  55.323  97.292  1.00  0.00    -0.384 N 
HETATM    3  C2  UNL     1      10.162  56.252  97.025  1.00  0.00     0.123 C 
HETATM    4  C3  UNL     1      10.312  56.866  95.656  1.00  0.00     0.024 C 
HETATM    5  C4  UNL     1      11.740  56.876  95.152  1.00  0.00     0.042 C 
HETATM    6  C5  UNL     1      12.188  55.472  95.051  1.00  0.00    -0.028 A 
HETATM    7  C6  UNL     1      12.860  54.969  94.003  1.00  0.00     0.039 A 
HETATM    8  C7  UNL     1      13.206  53.608  94.042  1.00  0.00     0.050 A 
HETATM    9  C14 UNL     1      12.858  52.832  95.121  1.00  0.00     0.046 A 
HETATM   10  C15 UNL     1      12.148  53.351  96.228  1.00  0.00     0.020 A 
HETATM   11  C16 UNL     1      11.815  52.454  97.289  1.00  0.00     0.045 A 
HETATM   12  C17 UNL     1      12.727  51.488  97.669  1.00  0.00     0.038 A 
HETATM   13  C18 UNL     1      12.446  50.593  98.652  1.00  0.00    -0.050 A 
HETATM   14  C25 UNL     1      11.216  50.676  99.264  1.00  0.00     0.024 A 
HETATM   15  C26 UNL     1      10.295  51.647  98.884  1.00  0.00     0.089 A 
HETATM   16  N9  UNL     1      10.655  52.486  97.911  1.00  0.00    -0.365 N 
ATOM     17  H9  UNL     1       9.984  53.201  97.629  1.00  0.00     0.165 HD
HETATM   18  C27 UNL     1      11.839  54.649  96.166  1.00  0.00     0.049 A 
ENDROOT
BRANCH   8  19
HETATM   19  N2  UNL     1      13.920  53.087  92.929  1.00  0.00    -0.192 N 
ATOM     20  H2  UNL     1      14.555  52.302  93.074  1.00  0.00     0.184 HD
BRANCH  19  21
HETATM   21  C8  UNL     1      13.793  53.571  91.746  1.00  0.00     0.684 A 
HETATM   22  N3  UNL     1      14.763  54.371  91.276  1.00  0.00    -0.202 N 
HETATM   23  C9  UNL     1      14.748  54.932  90.060  1.00  0.00     0.110 A 
ATOM     24  H3  UNL     1      15.559  54.563  91.882  1.00  0.00     0.183 HD
HETATM   25  C10 UNL     1      13.634  54.645  89.252  1.00  0.00     0.066 A 
HETATM   26  C11 UNL     1      12.630  53.832  89.711  1.00  0.00     0.118 A 
HETATM   27  N6  UNL     1      12.755  53.326  90.946  1.00  0.00    -0.177 N 
ATOM     28  H6  UNL     1      12.013  52.719  91.295  1.00  0.00     0.186 HD
BRANCH  26  29
HETATM   29  N4  UNL     1      11.624  53.581  88.973  1.00  0.00    -0.374 N 
ATOM     30  H4  UNL     1      11.768  53.748  87.976  1.00  0.00     0.161 HD
BRANCH  29  31
HETATM   31  C12 UNL     1      10.339  53.108  89.322  1.00  0.00     0.148 C 
BRANCH  31  32
HETATM   32  C13 UNL     1       9.323  54.219  89.514  1.00  0.00     0.249 C 
BRANCH  32  33
HETATM   33  N5  UNL     1       8.600  54.023  90.760  1.00  0.00    -0.078 N 
ATOM     34  H53 UNL     1       7.688  54.479  90.747  1.00  0.00     0.274 HD
ATOM     35  H52 UNL     1       8.284  53.059  90.870  1.00  0.00     0.274 HD
ATOM     36  H51 UNL     1       9.171  54.331  91.547  1.00  0.00     0.274 HD
ENDBRANCH  32  33
ENDBRANCH  31  32
ENDBRANCH  29  31
ENDBRANCH  26  29
ENDBRANCH  19  21
ENDBRANCH   8  19
BRANCH  13  37
HETATM   37  C19 UNL     1      13.384  49.541  99.094  1.00  0.00     0.083 C 
BRANCH  37  38
HETATM   38  C20 UNL     1      14.812  49.857  98.886  1.00  0.00     0.062 C 
BRANCH  38  39
HETATM   39  N7  UNL     1      15.589  49.030  98.060  1.00  0.00    -0.390 N 
HETATM   40  C21 UNL     1      15.096  48.672  96.784  1.00  0.00     0.149 C 
HETATM   41  C22 UNL     1      15.644  49.446  95.628  1.00  0.00     0.252 C 
HETATM   42  N8  UNL     1      17.054  49.689  95.677  1.00  0.00    -0.072 N 
HETATM   43  C23 UNL     1      17.377  50.292  96.938  1.00  0.00     0.252 C 
ATOM     44  H82 UNL     1      17.601  48.847  95.497  1.00  0.00     0.277 HD
ATOM     45  H81 UNL     1      17.382  50.242  94.886  1.00  0.00     0.277 HD
HETATM   46  C24 UNL     1      16.974  49.358  98.051  1.00  0.00     0.149 C 
ENDBRANCH  38  39
ENDBRANCH  37  38
ENDBRANCH  13  37
TORSDOF 9
ENDMDL
MODEL 3
REMARK VINA RESULT: -7.704181765      3.565     10.824
REMARK  9 active torsions:
REMARK  status: ('A' for Active; 'I' for Inactive)
REMARK    1  A    between atoms: C7_8  and  N2_9 
REMARK    2  A    between atoms: N2_9  and  C8_11 
REMARK    3  A    between atoms: C11_16  and  N4_17 
REMARK    4  A    between atoms: N4_17  and  C12_19 
REMARK    5  A    between atoms: C12_19  and  C13_20 
REMARK    6  A    between atoms: C13_20  and  N5_21 
REMARK    7  A    between atoms: C18_31  and  C19_32 
REMARK    8  A    between atoms: C19_32  and  C20_33 
REMARK    9  A    between atoms: C20_33  and  N7_34 
ROOT
HETATM    1  C1  UNL     1      11.823  55.070  98.572  1.00  0.00     0.149 C 
HETATM    2  N1  UNL     1      11.270  55.351  97.278  1.00  0.00    -0.384 N 
HETATM    3  C2  UNL     1      10.197  56.291  97.013  1.00  0.00     0.123 C 
HETATM    4  C3  UNL     1      10.363  56.918  95.651  1.00  0.00     0.024 C 
HETATM    5  C4  UNL     1      11.794  56.919  95.156  1.00  0.00     0.042 C 
HETATM    6  C5  UNL     1      12.230  55.512  95.045  1.00  0.00    -0.028 A 
HETATM    7  C6  UNL     1      12.904  55.013  93.997  1.00  0.00     0.039 A 
HETATM    8  C7  UNL     1      13.237  53.649  94.024  1.00  0.00     0.050 A 
HETATM    9  C14 UNL     1      12.875  52.866  95.093  1.00  0.00     0.046 A 
HETATM   10  C15 UNL     1      12.162  53.380  96.201  1.00  0.00     0.020 A 
HETATM   11  C16 UNL     1      11.814  52.477  97.251  1.00  0.00     0.045 A 
HETATM   12  C17 UNL     1      12.715  51.498  97.627  1.00  0.00     0.038 A 
HETATM   13  C18 UNL     1      12.419  50.596  98.599  1.00  0.00    -0.050 A 
HETATM   14  C25 UNL     1      11.186  50.684  99.203  1.00  0.00     0.024 A 
HETATM   15  C26 UNL     1      10.276  51.668  98.827  1.00  0.00     0.089 A 
HETATM   16  N9  UNL     1      10.650  52.513  97.865  1.00  0.00    -0.365 N 
ATOM     17  H9  UNL     1       9.988  53.237  97.585  1.00  0.00     0.165 HD
HETATM   18  C27 UNL     1      11.866  54.682  96.149  1.00  0.00     0.049 A 
ENDROOT
BRANCH   8  19
HETATM   19  N2  UNL     1      13.954  53.132  92.911  1.00  0.00    -0.192 N 
ATOM     20  H2  UNL     1      14.607  52.363  93.059  1.00  0.00     0.184 HD
BRANCH  19  21
HETATM   21  C8  UNL     1      13.808  53.602  91.724  1.00  0.00     0.684 A 
HETATM   22  N3  UNL     1      14.761  54.411  91.236  1.00  0.00    -0.202 N 
HETATM   23  C9  UNL     1      14.726  54.958  90.014  1.00  0.00     0.110 A 
ATOM     24  H3  UNL     1      15.561  54.621  91.831  1.00  0.00     0.183 HD
HETATM   25  C10 UNL     1      13.607  54.647  89.221  1.00  0.00     0.066 A 
HETATM   26  C11 UNL     1      12.620  53.824  89.699  1.00  0.00     0.118 A 
HETATM   27  N6  UNL     1      12.765  53.334  90.938  1.00  0.00    -0.177 N 
ATOM     28  H6  UNL     1      12.036  52.720  91.301  1.00  0.00     0.186 HD
BRANCH  26  29
HETATM   29  N4  UNL     1      11.611  53.552  88.974  1.00  0.00    -0.374 N 
ATOM     30  H4  UNL     1      10.941  54.313  88.862  1.00  0.00     0.161 HD
BRANCH  29  31
HETATM   31  C12 UNL     1      11.276  52.355  88.300  1.00  0.00     0.148 C 
BRANCH  31  32
HETATM   32  C13 UNL     1      11.739  52.331  86.854  1.00  0.00     0.249 C 
BRANCH  32  33
HETATM   33  N5  UNL     1      10.903  53.204  86.049  1.00  0.00    -0.078 N 
ATOM     34  H53 UNL     1      10.208  52.681  85.515  1.00  0.00     0.274 HD
ATOM     35  H52 UNL     1      10.266  53.758  86.621  1.00  0.00     0.274 HD
ATOM     36  H51 UNL     1      11.484  53.789  85.448  1.00  0.00     0.274 HD
ENDBRANCH  32  33
ENDBRANCH  31  32
ENDBRANCH  29  31
ENDBRANCH  26  29
ENDBRANCH  19  21
ENDBRANCH   8  19
BRANCH  13  37
HETATM   37  C19 UNL     1      13.344  49.531  99.037  1.00  0.00     0.083 C 
BRANCH  37  38
HETATM   38  C20 UNL     1      14.777  49.883  98.956  1.00  0.00     0.062 C 
BRANCH  38  39
HETATM   39  N7  UNL     1      15.648  49.068  98.217  1.00  0.00    -0.390 N 
HETATM   40  C21 UNL     1      15.233  48.583  96.956  1.00  0.00     0.149 C 
HETATM   41  C22 UNL     1      15.761  49.317  95.765  1.00  0.00     0.252 C 
HETATM   42  N8  UNL     1      17.144  49.679  95.841  1.00  0.00    -0.072 N 
HETATM   43  C23 UNL     1      17.370  50.392  97.065  1.00  0.00     0.252 C 
ATOM     44  H82 UNL     1      17.763  48.875  95.740  1.00  0.00     0.277 HD
ATOM     45  H81 UNL     1      17.456  50.201  95.023  1.00  0.00     0.277 HD
HETATM   46  C24 UNL     1      17.001  49.508  98.229  1.00  0.00     0.149 C 
ENDBRANCH  38  39
ENDBRANCH  37  38
ENDBRANCH  13  37
TORSDOF 9
ENDMDL
MODEL 4
REMARK VINA RESULT: -7.651724603      4.691     11.392
REMARK  9 active torsions:
REMARK  status: ('A' for Active; 'I' for Inactive)
REMARK    1  A    between atoms: C7_8  and  N2_9 
REMARK    2  A    between atoms: N2_9  and  C8_11 
REMARK    3  A    between atoms: C11_16  and  N4_17 
REMARK    4  A    between atoms: N4_17  and  C12_19 
REMARK    5  A    between atoms: C12_19  and  C13_20 
REMARK    6  A    between atoms: C13_20  and  N5_21 
REMARK    7  A    between atoms: C18_31  and  C19_32 
REMARK    8  A    between atoms: C19_32  and  C20_33 
REMARK    9  A    between atoms: C20_33  and  N7_34 
ROOT
HETATM    1  C1  UNL     1      11.901  55.103  98.620  1.00  0.00     0.149 C 
HETATM    2  N1  UNL     1      11.247  55.237  97.349  1.00  0.00    -0.384 N 
HETATM    3  C2  UNL     1      10.026  55.984  97.112  1.00  0.00     0.123 C 
HETATM    4  C3  UNL     1      10.022  56.570  95.722  1.00  0.00     0.024 C 
HETATM    5  C4  UNL     1      11.409  56.777  95.150  1.00  0.00     0.042 C 
HETATM    6  C5  UNL     1      12.059  55.453  95.063  1.00  0.00    -0.028 A 
HETATM    7  C6  UNL     1      12.752  55.023  93.997  1.00  0.00     0.039 A 
HETATM    8  C7  UNL     1      13.301  53.731  94.052  1.00  0.00     0.050 A 
HETATM    9  C14 UNL     1      13.121  52.946  95.166  1.00  0.00     0.046 A 
HETATM   10  C15 UNL     1      12.390  53.388  96.293  1.00  0.00     0.020 A 
HETATM   11  C16 UNL     1      12.243  52.486  97.391  1.00  0.00     0.045 A 
HETATM   12  C17 UNL     1      13.307  51.680  97.750  1.00  0.00     0.038 A 
HETATM   13  C18 UNL     1      13.207  50.785  98.767  1.00  0.00    -0.050 A 
HETATM   14  C25 UNL     1      12.007  50.702  99.435  1.00  0.00     0.024 A 
HETATM   15  C26 UNL     1      10.934  51.512  99.076  1.00  0.00     0.089 A 
HETATM   16  N9  UNL     1      11.120  52.364  98.066  1.00  0.00    -0.365 N 
ATOM     17  H9  UNL     1      10.338  52.962  97.799  1.00  0.00     0.165 HD
HETATM   18  C27 UNL     1      11.887  54.623  96.213  1.00  0.00     0.049 A 
ENDROOT
BRANCH   8  19
HETATM   19  N2  UNL     1      14.036  53.288  92.920  1.00  0.00    -0.192 N 
ATOM     20  H2  UNL     1      14.732  52.552  93.041  1.00  0.00     0.184 HD
BRANCH  19  21
HETATM   21  C8  UNL     1      13.854  53.782  91.748  1.00  0.00     0.684 A 
HETATM   22  N3  UNL     1      14.747  54.670  91.284  1.00  0.00    -0.202 N 
HETATM   23  C9  UNL     1      14.670  55.251  90.081  1.00  0.00     0.110 A 
ATOM     24  H3  UNL     1      15.532  54.917  91.886  1.00  0.00     0.183 HD
HETATM   25  C10 UNL     1      13.574  54.888  89.278  1.00  0.00     0.066 A 
HETATM   26  C11 UNL     1      12.648  53.984  89.732  1.00  0.00     0.118 A 
HETATM   27  N6  UNL     1      12.830  53.466  90.955  1.00  0.00    -0.177 N 
ATOM     28  H6  UNL     1      12.147  52.792  91.299  1.00  0.00     0.186 HD
BRANCH  26  29
HETATM   29  N4  UNL     1      11.658  53.664  88.999  1.00  0.00    -0.374 N 
ATOM     30  H4  UNL     1      11.749  53.916  88.015  1.00  0.00     0.161 HD
BRANCH  29  31
HETATM   31  C12 UNL     1      10.451  53.012  89.341  1.00  0.00     0.148 C 
BRANCH  31  32
HETATM   32  C13 UNL     1       9.253  53.945  89.368  1.00  0.00     0.249 C 
BRANCH  32  33
HETATM   33  N5  UNL     1       8.712  54.022  90.714  1.00  0.00    -0.078 N 
ATOM     34  H53 UNL     1       7.935  53.376  90.850  1.00  0.00     0.274 HD
ATOM     35  H52 UNL     1       9.353  53.634  91.406  1.00  0.00     0.274 HD
ATOM     36  H51 UNL     1       8.452  54.985  90.932  1.00  0.00     0.274 HD
ENDBRANCH  32  33
ENDBRANCH  31  32
ENDBRANCH  29  31
ENDBRANCH  26  29
ENDBRANCH  19  21
ENDBRANCH   8  19
BRANCH  13  37
HETATM   37  C19 UNL     1      14.311  49.899  99.190  1.00  0.00     0.083 C 
BRANCH  37  38
HETATM   38  C20 UNL     1      15.537  50.602  99.624  1.00  0.00     0.062 C 
BRANCH  38  39
HETATM   39  N7  UNL     1      16.744  50.365  98.949  1.00  0.00    -0.390 N 
HETATM   40  C21 UNL     1      17.517  51.466  98.515  1.00  0.00     0.149 C 
HETATM   41  C22 UNL     1      18.684  51.829  99.377  1.00  0.00     0.252 C 
HETATM   42  N8  UNL     1      19.445  50.719  99.863  1.00  0.00    -0.072 N 
HETATM   43  C23 UNL     1      18.558  49.795 100.509  1.00  0.00     0.252 C 
ATOM     44  H82 UNL     1      20.001  50.277  99.131  1.00  0.00     0.277 HD
ATOM     45  H81 UNL     1      20.213  51.009 100.468  1.00  0.00     0.277 HD
HETATM   46  C24 UNL     1      17.528  49.321  99.515  1.00  0.00     0.149 C 
ENDBRANCH  38  39
ENDBRANCH  37  38
ENDBRANCH  13  37
TORSDOF 9
ENDMDL
MODEL 5
REMARK VINA RESULT: -7.632913463      4.268     11.539
REMARK  9 active torsions:
REMARK  status: ('A' for Active; 'I' for Inactive)
REMARK    1  A    between atoms: C7_8  and  N2_9 
REMARK    2  A    between atoms: N2_9  and  C8_11 
REMARK    3  A    between atoms: C11_16  and  N4_17 
REMARK    4  A    between atoms: N4_17  and  C12_19 
REMARK    5  A    between atoms: C12_19  and  C13_20 
REMARK    6  A    between atoms: C13_20  and  N5_21 
REMARK    7  A    between atoms: C18_31  and  C19_32 
REMARK    8  A    between atoms: C19_32  and  C20_33 
REMARK    9  A    between atoms: C20_33  and  N7_34 
ROOT
HETATM    1  C1  UNL     1      11.887  55.106  98.656  1.00  0.00     0.149 C 
HETATM    2  N1  UNL     1      11.232  55.241  97.387  1.00  0.00    -0.384 N 
HETATM    3  C2  UNL     1      10.012  55.990  97.150  1.00  0.00     0.123 C 
HETATM    4  C3  UNL     1      10.008  56.575  95.760  1.00  0.00     0.024 C 
HETATM    5  C4  UNL     1      11.395  56.779  95.186  1.00  0.00     0.042 C 
HETATM    6  C5  UNL     1      12.042  55.454  95.099  1.00  0.00    -0.028 A 
HETATM    7  C6  UNL     1      12.732  55.022  94.032  1.00  0.00     0.039 A 
HETATM    8  C7  UNL     1      13.279  53.729  94.088  1.00  0.00     0.050 A 
HETATM    9  C14 UNL     1      13.099  52.945  95.202  1.00  0.00     0.046 A 
HETATM   10  C15 UNL     1      12.370  53.389  96.330  1.00  0.00     0.020 A 
HETATM   11  C16 UNL     1      12.222  52.488  97.428  1.00  0.00     0.045 A 
HETATM   12  C17 UNL     1      13.285  51.680  97.786  1.00  0.00     0.038 A 
HETATM   13  C18 UNL     1      13.184  50.785  98.804  1.00  0.00    -0.050 A 
HETATM   14  C25 UNL     1      11.985  50.705  99.474  1.00  0.00     0.024 A 
HETATM   15  C26 UNL     1      10.913  51.518  99.116  1.00  0.00     0.089 A 
HETATM   16  N9  UNL     1      11.100  52.368  98.105  1.00  0.00    -0.365 N 
ATOM     17  H9  UNL     1      10.318  52.968  97.838  1.00  0.00     0.165 HD
HETATM   18  C27 UNL     1      11.869  54.625  96.250  1.00  0.00     0.049 A 
ENDROOT
BRANCH   8  19
HETATM   19  N2  UNL     1      14.012  53.284  92.955  1.00  0.00    -0.192 N 
ATOM     20  H2  UNL     1      14.738  52.579  93.083  1.00  0.00     0.184 HD
BRANCH  19  21
HETATM   21  C8  UNL     1      13.790  53.738  91.774  1.00  0.00     0.684 A 
HETATM   22  N3  UNL     1      14.750  54.462  91.178  1.00  0.00    -0.202 N 
HETATM   23  C9  UNL     1      14.641  54.985  89.950  1.00  0.00     0.110 A 
ATOM     24  H3  UNL     1      15.615  54.624  91.692  1.00  0.00     0.183 HD
HETATM   25  C10 UNL     1      13.434  54.743  89.271  1.00  0.00     0.066 A 
HETATM   26  C11 UNL     1      12.438  54.007  89.860  1.00  0.00     0.118 A 
HETATM   27  N6  UNL     1      12.662  53.533  91.094  1.00  0.00    -0.177 N 
ATOM     28  H6  UNL     1      11.927  52.983  91.538  1.00  0.00     0.186 HD
BRANCH  26  29
HETATM   29  N4  UNL     1      11.349  53.795  89.238  1.00  0.00    -0.374 N 
ATOM     30  H4  UNL     1      10.789  54.628  89.052  1.00  0.00     0.161 HD
BRANCH  29  31
HETATM   31  C12 UNL     1      10.795  52.583  88.765  1.00  0.00     0.148 C 
BRANCH  31  32
HETATM   32  C13 UNL     1      11.352  52.155  87.419  1.00  0.00     0.249 C 
BRANCH  32  33
HETATM   33  N5  UNL     1      11.094  53.181  86.424  1.00  0.00    -0.078 N 
ATOM     34  H53 UNL     1      10.219  53.020  85.926  1.00  0.00     0.274 HD
ATOM     35  H52 UNL     1      10.860  54.077  86.851  1.00  0.00     0.274 HD
ATOM     36  H51 UNL     1      11.887  53.257  85.786  1.00  0.00     0.274 HD
ENDBRANCH  32  33
ENDBRANCH  31  32
ENDBRANCH  29  31
ENDBRANCH  26  29
ENDBRANCH  19  21
ENDBRANCH   8  19
BRANCH  13  37
HETATM   37  C19 UNL     1      14.288  49.898  99.226  1.00  0.00     0.083 C 
BRANCH  37  38
HETATM   38  C20 UNL     1      15.514  50.598  99.659  1.00  0.00     0.062 C 
BRANCH  38  39
HETATM   39  N7  UNL     1      16.720  50.364  98.979  1.00  0.00    -0.390 N 
HETATM   40  C21 UNL     1      17.492  51.466  98.548  1.00  0.00     0.149 C 
HETATM   41  C22 UNL     1      18.662  51.824  99.408  1.00  0.00     0.252 C 
HETATM   42  N8  UNL     1      19.424  50.711  99.887  1.00  0.00    -0.072 N 
HETATM   43  C23 UNL     1      18.538  49.786 100.531  1.00  0.00     0.252 C 
ATOM     44  H82 UNL     1      19.977  50.272  99.151  1.00  0.00     0.277 HD
ATOM     45  H81 UNL     1      20.194  50.998 100.490  1.00  0.00     0.277 HD
HETATM   46  C24 UNL     1      17.504  49.317  99.538  1.00  0.00     0.149 C 
ENDBRANCH  38  39
ENDBRANCH  37  38
ENDBRANCH  13  37
TORSDOF 9
ENDMDL
