MODEL 1
REMARK VINA RESULT: -7.539632968      0.000      0.000
REMARK  9 active torsions:
REMARK  status: ('A' for Active; 'I' for Inactive)
REMARK    1  A    between atoms: C2_5  and  C3_6 
REMARK    2  A    between atoms: C3_6  and  C4_7 
REMARK    3  A    between atoms: C4_7  and  N2_8 
REMARK    4  A    between atoms: N2_8  and  C5_10 
REMARK    5  A    between atoms: C7_14  and  C8_15 
REMARK       I    between atoms: C8_15  and  N4_17 
REMARK    6  A    between atoms: N4_17  and  C9_19 
REMARK    7  A    between atoms: C9_19  and  C10_20 
REMARK    8  A    between atoms: C14_25  and  N5_26 
REMARK    9  A    between atoms: N5_26  and  C15_28 
ROOT
HETATM    1  C5  UNL     1      12.585  53.602  88.518  1.00  0.00     0.679 A 
HETATM    2  N3  UNL     1      13.447  54.002  87.546  1.00  0.00    -0.201 N 
ATOM      3  H3  UNL     1      14.194  54.657  87.780  1.00  0.00     0.183 HD
HETATM    4  C6  UNL     1      13.338  53.559  86.292  1.00  0.00     0.127 A 
HETATM    5  C7  UNL     1      12.347  52.688  85.969  1.00  0.00     0.092 A 
HETATM    6  C14 UNL     1      11.438  52.247  86.933  1.00  0.00     0.134 A 
HETATM    7  N6  UNL     1      11.605  52.733  88.176  1.00  0.00    -0.176 N 
ATOM      8  H6  UNL     1      10.955  52.429  88.902  1.00  0.00     0.186 HD
ENDROOT
BRANCH   1   9
HETATM    9  N2  UNL     1      12.734  54.054  89.684  1.00  0.00    -0.226 N 
ATOM     10  H2  UNL     1      12.247  53.541  90.419  1.00  0.00     0.177 HD
BRANCH   9  11
HETATM   11  C4  UNL     1      13.489  55.186  90.121  1.00  0.00     0.140 C 
BRANCH  11  12
HETATM   12  C3  UNL     1      14.341  54.754  91.318  1.00  0.00     0.045 C 
BRANCH  12  13
HETATM   13  C2  UNL     1      13.652  53.763  92.206  1.00  0.00     0.088 C 
HETATM   14  N1  UNL     1      14.347  52.502  92.220  1.00  0.00    -0.332 N 
HETATM   15  C1  UNL     1      13.944  51.338  92.918  1.00  0.00     0.360 C 
ATOM     16  H1  UNL     1      15.208  52.442  91.676  1.00  0.00     0.165 HD
HETATM   17  O1  UNL     1      14.417  50.251  92.420  1.00  0.00    -0.239 OA
HETATM   18  O5  UNL     1      13.147  51.357  93.995  1.00  0.00    -0.304 OA
HETATM   19  C24 UNL     1      11.810  51.542  94.235  1.00  0.00     0.180 C 
HETATM   20  C23 UNL     1      11.446  52.846  94.891  1.00  0.00     0.027 C 
HETATM   21  C22 UNL     1      11.022  53.823  93.817  1.00  0.00     0.002 C 
HETATM   22  C21 UNL     1      12.034  54.911  93.704  1.00  0.00     0.002 C 
HETATM   23  C20 UNL     1      13.459  54.376  93.554  1.00  0.00     0.025 C 
ENDBRANCH  12  13
ENDBRANCH  11  12
ENDBRANCH   9  11
ENDBRANCH   1   9
BRANCH   6  24
HETATM   24  N5  UNL     1      10.536  51.410  86.609  1.00  0.00    -0.370 N 
ATOM     25  H5  UNL     1       9.723  51.765  86.107  1.00  0.00     0.161 HD
BRANCH  24  26
HETATM   26  C15 UNL     1      10.575  50.016  86.893  1.00  0.00     0.087 C 
HETATM   27  C16 UNL     1      10.240  49.290  85.606  1.00  0.00     0.051 C 
HETATM   28  C17 UNL     1      11.184  48.217  85.210  1.00  0.00     0.169 C 
HETATM   29  O4  UNL     1      12.514  48.518  85.535  1.00  0.00    -0.391 OA
HETATM   30  C18 UNL     1      12.551  48.435  86.945  1.00  0.00     0.169 C 
HETATM   31  C19 UNL     1      11.900  49.664  87.476  1.00  0.00     0.051 C 
ENDBRANCH  24  26
ENDBRANCH   6  24
BRANCH   5  32
HETATM   32  C8  UNL     1      12.097  52.192  84.589  1.00  0.00     0.260 C 
HETATM   33  O2  UNL     1      11.082  52.672  84.061  1.00  0.00    -0.267 OA
HETATM   34  N4  UNL     1      12.984  51.270  84.039  1.00  0.00    -0.334 N 
ATOM     35  H4  UNL     1      13.742  51.018  84.674  1.00  0.00     0.168 HD
BRANCH  34  36
HETATM   36  C9  UNL     1      13.064  50.611  82.798  1.00  0.00     0.096 C 
BRANCH  36  37
HETATM   37  C10 UNL     1      14.348  50.659  82.067  1.00  0.00     0.159 C 
HETATM   38  C11 UNL     1      14.266  51.080  80.601  1.00  0.00     0.039 C 
HETATM   39  C12 UNL     1      15.743  51.490  80.346  1.00  0.00     0.029 C 
HETATM   40  C13 UNL     1      16.223  51.739  81.755  1.00  0.00     0.168 C 
HETATM   41  O3  UNL     1      15.067  51.832  82.527  1.00  0.00    -0.381 OA
ENDBRANCH  36  37
ENDBRANCH  34  36
ENDBRANCH   5  32
TORSDOF 9
ENDMDL
MODEL 2
REMARK VINA RESULT: -7.476732014      1.203      1.678
REMARK  9 active torsions:
REMARK  status: ('A' for Active; 'I' for Inactive)
REMARK    1  A    between atoms: C2_5  and  C3_6 
REMARK    2  A    between atoms: C3_6  and  C4_7 
REMARK    3  A    between atoms: C4_7  and  N2_8 
REMARK    4  A    between atoms: N2_8  and  C5_10 
REMARK    5  A    between atoms: C7_14  and  C8_15 
REMARK       I    between atoms: C8_15  and  N4_17 
REMARK    6  A    between atoms: N4_17  and  C9_19 
REMARK    7  A    between atoms: C9_19  and  C10_20 
REMARK    8  A    between atoms: C14_25  and  N5_26 
REMARK    9  A    between atoms: N5_26  and  C15_28 
ROOT
HETATM    1  C5  UNL     1      12.975  53.873  88.218  1.00  0.00     0.679 A 
HETATM    2  N3  UNL     1      13.758  54.214  87.160  1.00  0.00    -0.201 N 
ATOM      3  H3  UNL     1      14.486  54.918  87.283  1.00  0.00     0.183 HD
HETATM    4  C6  UNL     1      13.595  53.648  85.963  1.00  0.00     0.127 A 
HETATM    5  C7  UNL     1      12.630  52.709  85.787  1.00  0.00     0.092 A 
HETATM    6  C14 UNL     1      11.802  52.325  86.843  1.00  0.00     0.134 A 
HETATM    7  N6  UNL     1      12.019  52.935  88.022  1.00  0.00    -0.176 N 
ATOM      8  H6  UNL     1      11.429  52.676  88.813  1.00  0.00     0.186 HD
ENDROOT
BRANCH   1   9
HETATM    9  N2  UNL     1      13.171  54.441  89.325  1.00  0.00    -0.226 N 
ATOM     10  H2  UNL     1      12.362  54.918  89.722  1.00  0.00     0.177 HD
BRANCH   9  11
HETATM   11  C4  UNL     1      14.370  54.512  90.101  1.00  0.00     0.140 C 
BRANCH  11  12
HETATM   12  C3  UNL     1      13.997  54.997  91.505  1.00  0.00     0.045 C 
BRANCH  12  13
HETATM   13  C2  UNL     1      13.475  53.904  92.388  1.00  0.00     0.088 C 
HETATM   14  N1  UNL     1      14.232  52.691  92.220  1.00  0.00    -0.332 N 
HETATM   15  C1  UNL     1      13.980  51.457  92.868  1.00  0.00     0.360 C 
ATOM     16  H1  UNL     1      15.022  52.723  91.575  1.00  0.00     0.165 HD
HETATM   17  O1  UNL     1      14.444  50.440  92.234  1.00  0.00    -0.239 OA
HETATM   18  O5  UNL     1      13.322  51.350  94.030  1.00  0.00    -0.304 OA
HETATM   19  C24 UNL     1      12.016  51.434  94.440  1.00  0.00     0.180 C 
HETATM   20  C23 UNL     1      11.667  52.664  95.235  1.00  0.00     0.027 C 
HETATM   21  C22 UNL     1      11.064  53.687  94.299  1.00  0.00     0.002 C 
HETATM   22  C21 UNL     1      11.996  54.840  94.153  1.00  0.00     0.002 C 
HETATM   23  C20 UNL     1      13.417  54.406  93.793  1.00  0.00     0.025 C 
ENDBRANCH  12  13
ENDBRANCH  11  12
ENDBRANCH   9  11
ENDBRANCH   1   9
BRANCH   6  24
HETATM   24  N5  UNL     1      10.923  51.424  86.657  1.00  0.00    -0.370 N 
ATOM     25  H5  UNL     1      10.349  51.493  85.817  1.00  0.00     0.161 HD
BRANCH  24  26
HETATM   26  C15 UNL     1      10.679  50.328  87.531  1.00  0.00     0.087 C 
HETATM   27  C16 UNL     1      12.020  49.686  87.824  1.00  0.00     0.051 C 
HETATM   28  C17 UNL     1      12.327  49.466  89.259  1.00  0.00     0.169 C 
HETATM   29  O4  UNL     1      11.828  50.485  90.082  1.00  0.00    -0.391 OA
HETATM   30  C18 UNL     1      10.428  50.298  90.050  1.00  0.00     0.169 C 
HETATM   31  C19 UNL     1       9.945  50.807  88.736  1.00  0.00     0.051 C 
ENDBRANCH  24  26
ENDBRANCH   6  24
BRANCH   5  32
HETATM   32  C8  UNL     1      12.322  52.073  84.477  1.00  0.00     0.260 C 
HETATM   33  O2  UNL     1      11.213  52.385  84.017  1.00  0.00    -0.267 OA
HETATM   34  N4  UNL     1      13.264  51.217  83.911  1.00  0.00    -0.334 N 
ATOM     35  H4  UNL     1      14.101  51.110  84.486  1.00  0.00     0.168 HD
BRANCH  34  36
HETATM   36  C9  UNL     1      13.315  50.469  82.720  1.00  0.00     0.096 C 
BRANCH  36  37
HETATM   37  C10 UNL     1      14.078  51.025  81.583  1.00  0.00     0.159 C 
HETATM   38  C11 UNL     1      15.397  51.711  81.934  1.00  0.00     0.039 C 
HETATM   39  C12 UNL     1      16.099  51.692  80.548  1.00  0.00     0.029 C 
HETATM   40  C13 UNL     1      15.343  50.585  79.854  1.00  0.00     0.168 C 
HETATM   41  O3  UNL     1      14.668  49.909  80.868  1.00  0.00    -0.381 OA
ENDBRANCH  36  37
ENDBRANCH  34  36
ENDBRANCH   5  32
TORSDOF 9
ENDMDL
MODEL 3
REMARK VINA RESULT: -7.424796129      1.464      2.145
REMARK  9 active torsions:
REMARK  status: ('A' for Active; 'I' for Inactive)
REMARK    1  A    between atoms: C2_5  and  C3_6 
REMARK    2  A    between atoms: C3_6  and  C4_7 
REMARK    3  A    between atoms: C4_7  and  N2_8 
REMARK    4  A    between atoms: N2_8  and  C5_10 
REMARK    5  A    between atoms: C7_14  and  C8_15 
REMARK       I    between atoms: C8_15  and  N4_17 
REMARK    6  A    between atoms: N4_17  and  C9_19 
REMARK    7  A    between atoms: C9_19  and  C10_20 
REMARK    8  A    between atoms: C14_25  and  N5_26 
REMARK    9  A    between atoms: N5_26  and  C15_28 
ROOT
HETATM    1  C5  UNL     1      12.691  53.538  88.551  1.00  0.00     0.679 A 
HETATM    2  N3  UNL     1      13.471  54.016  87.545  1.00  0.00    -0.201 N 
ATOM      3  H3  UNL     1      14.177  54.723  87.754  1.00  0.00     0.183 HD
HETATM    4  C6  UNL     1      13.334  53.583  86.291  1.00  0.00     0.127 A 
HETATM    5  C7  UNL     1      12.397  52.642  86.002  1.00  0.00     0.092 A 
HETATM    6  C14 UNL     1      11.574  52.120  87.001  1.00  0.00     0.134 A 
HETATM    7  N6  UNL     1      11.764  52.601  88.242  1.00  0.00    -0.176 N 
ATOM      8  H6  UNL     1      11.177  52.238  88.993  1.00  0.00     0.186 HD
ENDROOT
BRANCH   1   9
HETATM    9  N2  UNL     1      12.863  53.985  89.716  1.00  0.00    -0.226 N 
ATOM     10  H2  UNL     1      12.406  53.457  90.460  1.00  0.00     0.177 HD
BRANCH   9  11
HETATM   11  C4  UNL     1      13.608  55.128  90.141  1.00  0.00     0.140 C 
BRANCH  11  12
HETATM   12  C3  UNL     1      14.364  54.753  91.419  1.00  0.00     0.045 C 
BRANCH  12  13
HETATM   13  C2  UNL     1      13.649  53.730  92.249  1.00  0.00     0.088 C 
HETATM   14  N1  UNL     1      14.343  52.469  92.236  1.00  0.00    -0.332 N 
HETATM   15  C1  UNL     1      13.920  51.280  92.879  1.00  0.00     0.360 C 
ATOM     16  H1  UNL     1      15.220  52.428  91.715  1.00  0.00     0.165 HD
HETATM   17  O1  UNL     1      14.406  50.212  92.354  1.00  0.00    -0.239 OA
HETATM   18  O5  UNL     1      13.093  51.260  93.932  1.00  0.00    -0.304 OA
HETATM   19  C24 UNL     1      11.750  51.438  94.140  1.00  0.00     0.180 C 
HETATM   20  C23 UNL     1      11.368  52.718  94.834  1.00  0.00     0.027 C 
HETATM   21  C22 UNL     1      10.975  53.734  93.786  1.00  0.00     0.002 C 
HETATM   22  C21 UNL     1      11.990  54.824  93.742  1.00  0.00     0.002 C 
HETATM   23  C20 UNL     1      13.418  54.294  93.613  1.00  0.00     0.025 C 
ENDBRANCH  12  13
ENDBRANCH  11  12
ENDBRANCH   9  11
ENDBRANCH   1   9
BRANCH   6  24
HETATM   24  N5  UNL     1      10.723  51.221  86.706  1.00  0.00    -0.370 N 
ATOM     25  H5  UNL     1      11.053  50.416  86.176  1.00  0.00     0.161 HD
BRANCH  24  26
HETATM   26  C15 UNL     1       9.345  51.254  87.061  1.00  0.00     0.087 C 
HETATM   27  C16 UNL     1       9.231  50.677  88.458  1.00  0.00     0.051 C 
HETATM   28  C17 UNL     1       8.470  51.498  89.431  1.00  0.00     0.169 C 
HETATM   29  O4  UNL     1       8.653  52.875  89.238  1.00  0.00    -0.391 OA
HETATM   30  C18 UNL     1       7.973  53.146  88.031  1.00  0.00     0.169 C 
HETATM   31  C19 UNL     1       8.828  52.643  86.920  1.00  0.00     0.051 C 
ENDBRANCH  24  26
ENDBRANCH   6  24
BRANCH   5  32
HETATM   32  C8  UNL     1      12.117  52.148  84.627  1.00  0.00     0.260 C 
HETATM   33  O2  UNL     1      11.060  52.581  84.144  1.00  0.00    -0.267 OA
HETATM   34  N4  UNL     1      13.026  51.276  84.032  1.00  0.00    -0.334 N 
ATOM     35  H4  UNL     1      13.821  51.057  84.634  1.00  0.00     0.168 HD
BRANCH  34  36
HETATM   36  C9  UNL     1      13.090  50.633  82.781  1.00  0.00     0.096 C 
BRANCH  36  37
HETATM   37  C10 UNL     1      14.370  50.673  82.043  1.00  0.00     0.159 C 
HETATM   38  C11 UNL     1      14.281  51.086  80.575  1.00  0.00     0.039 C 
HETATM   39  C12 UNL     1      15.757  51.492  80.309  1.00  0.00     0.029 C 
HETATM   40  C13 UNL     1      16.245  51.747  81.715  1.00  0.00     0.168 C 
HETATM   41  O3  UNL     1      15.095  51.847  82.492  1.00  0.00    -0.381 OA
ENDBRANCH  36  37
ENDBRANCH  34  36
ENDBRANCH   5  32
TORSDOF 9
ENDMDL
MODEL 4
REMARK VINA RESULT: -7.374469979      2.425      9.697
REMARK  9 active torsions:
REMARK  status: ('A' for Active; 'I' for Inactive)
REMARK    1  A    between atoms: C2_5  and  C3_6 
REMARK    2  A    between atoms: C3_6  and  C4_7 
REMARK    3  A    between atoms: C4_7  and  N2_8 
REMARK    4  A    between atoms: N2_8  and  C5_10 
REMARK    5  A    between atoms: C7_14  and  C8_15 
REMARK       I    between atoms: C8_15  and  N4_17 
REMARK    6  A    between atoms: N4_17  and  C9_19 
REMARK    7  A    between atoms: C9_19  and  C10_20 
REMARK    8  A    between atoms: C14_25  and  N5_26 
REMARK    9  A    between atoms: N5_26  and  C15_28 
ROOT
HETATM    1  C5  UNL     1      13.495  54.173  87.772  1.00  0.00     0.679 A 
HETATM    2  N3  UNL     1      14.255  55.039  88.495  1.00  0.00    -0.201 N 
ATOM      3  H3  UNL     1      14.797  55.753  88.009  1.00  0.00     0.183 HD
HETATM    4  C6  UNL     1      14.307  54.975  89.827  1.00  0.00     0.127 A 
HETATM    5  C7  UNL     1      13.589  54.027  90.485  1.00  0.00     0.092 A 
HETATM    6  C14 UNL     1      12.794  53.117  89.786  1.00  0.00     0.134 A 
HETATM    7  N6  UNL     1      12.787  53.237  88.447  1.00  0.00    -0.176 N 
ATOM      8  H6  UNL     1      12.216  52.585  87.908  1.00  0.00     0.186 HD
ENDROOT
BRANCH   1   9
HETATM    9  N2  UNL     1      13.486  54.278  86.517  1.00  0.00    -0.226 N 
ATOM     10  H2  UNL     1      13.722  55.201  86.153  1.00  0.00     0.177 HD
BRANCH   9  11
HETATM   11  C4  UNL     1      13.190  53.285  85.533  1.00  0.00     0.140 C 
BRANCH  11  12
HETATM   12  C3  UNL     1      14.447  53.069  84.685  1.00  0.00     0.045 C 
BRANCH  12  13
HETATM   13  C2  UNL     1      14.207  52.206  83.483  1.00  0.00     0.088 C 
HETATM   14  N1  UNL     1      15.394  52.095  82.675  1.00  0.00    -0.332 N 
HETATM   15  C1  UNL     1      15.503  51.392  81.450  1.00  0.00     0.360 C 
ATOM     16  H1  UNL     1      16.232  52.565  83.016  1.00  0.00     0.165 HD
HETATM   17  O1  UNL     1      16.458  51.814  80.700  1.00  0.00    -0.239 OA
HETATM   18  O5  UNL     1      14.695  50.384  81.099  1.00  0.00    -0.304 OA
HETATM   19  C24 UNL     1      13.404  50.257  80.655  1.00  0.00     0.180 C 
HETATM   20  C23 UNL     1      12.434  49.677  81.648  1.00  0.00     0.027 C 
HETATM   21  C22 UNL     1      11.708  50.813  82.333  1.00  0.00     0.002 C 
HETATM   22  C21 UNL     1      12.123  50.881  83.762  1.00  0.00     0.002 C 
HETATM   23  C20 UNL     1      13.642  50.899  83.933  1.00  0.00     0.025 C 
ENDBRANCH  12  13
ENDBRANCH  11  12
ENDBRANCH   9  11
ENDBRANCH   1   9
BRANCH   6  24
HETATM   24  N5  UNL     1      12.111  52.257  90.429  1.00  0.00    -0.370 N 
ATOM     25  H5  UNL     1      12.619  51.604  91.026  1.00  0.00     0.161 HD
BRANCH  24  26
HETATM   26  C15 UNL     1      10.694  52.136  90.379  1.00  0.00     0.087 C 
HETATM   27  C16 UNL     1      10.123  53.530  90.547  1.00  0.00     0.051 C 
HETATM   28  C17 UNL     1       9.121  53.940  89.533  1.00  0.00     0.169 C 
HETATM   29  O4  UNL     1       9.404  53.433  88.257  1.00  0.00    -0.391 OA
HETATM   30  C18 UNL     1       9.152  52.048  88.374  1.00  0.00     0.169 C 
HETATM   31  C19 UNL     1      10.297  51.452  89.117  1.00  0.00     0.051 C 
ENDBRANCH  24  26
ENDBRANCH   6  24
BRANCH   5  32
HETATM   32  C8  UNL     1      13.636  53.827  91.958  1.00  0.00     0.260 C 
HETATM   33  O2  UNL     1      14.190  52.773  92.303  1.00  0.00    -0.267 OA
HETATM   34  N4  UNL     1      13.073  54.798  92.783  1.00  0.00    -0.334 N 
ATOM     35  H4  UNL     1      12.665  55.576  92.262  1.00  0.00     0.168 HD
BRANCH  34  36
HETATM   36  C9  UNL     1      12.944  54.942  94.177  1.00  0.00     0.096 C 
BRANCH  36  37
HETATM   37  C10 UNL     1      11.825  55.760  94.691  1.00  0.00     0.159 C 
HETATM   38  C11 UNL     1      11.284  55.366  96.063  1.00  0.00     0.039 C 
HETATM   39  C12 UNL     1      10.541  56.673  96.457  1.00  0.00     0.029 C 
HETATM   40  C13 UNL     1      11.220  57.675  95.555  1.00  0.00     0.168 C 
HETATM   41  O3  UNL     1      12.373  57.040  95.100  1.00  0.00    -0.381 OA
ENDBRANCH  36  37
ENDBRANCH  34  36
ENDBRANCH   5  32
TORSDOF 9
ENDMDL
MODEL 5
REMARK VINA RESULT: -7.371199633      1.727      2.458
REMARK  9 active torsions:
REMARK  status: ('A' for Active; 'I' for Inactive)
REMARK    1  A    between atoms: C2_5  and  C3_6 
REMARK    2  A    between atoms: C3_6  and  C4_7 
REMARK    3  A    between atoms: C4_7  and  N2_8 
REMARK    4  A    between atoms: N2_8  and  C5_10 
REMARK    5  A    between atoms: C7_14  and  C8_15 
REMARK       I    between atoms: C8_15  and  N4_17 
REMARK    6  A    between atoms: N4_17  and  C9_19 
REMARK    7  A    between atoms: C9_19  and  C10_20 
REMARK    8  A    between atoms: C14_25  and  N5_26 
REMARK    9  A    between atoms: N5_26  and  C15_28 
ROOT
HETATM    1  C5  UNL     1      13.262  53.747  88.004  1.00  0.00     0.679 A 
HETATM    2  N3  UNL     1      13.796  54.118  86.809  1.00  0.00    -0.201 N 
ATOM      3  H3  UNL     1      14.562  54.791  86.793  1.00  0.00     0.183 HD
HETATM    4  C6  UNL     1      13.340  53.622  85.658  1.00  0.00     0.127 A 
HETATM    5  C7  UNL     1      12.320  52.725  85.668  1.00  0.00     0.092 A 
HETATM    6  C14 UNL     1      11.739  52.313  86.869  1.00  0.00     0.134 A 
HETATM    7  N6  UNL     1      12.246  52.852  87.992  1.00  0.00    -0.176 N 
ATOM      8  H6  UNL     1      11.842  52.570  88.885  1.00  0.00     0.186 HD
ENDROOT
BRANCH   1   9
HETATM    9  N2  UNL     1      13.730  54.249  89.059  1.00  0.00    -0.226 N 
ATOM     10  H2  UNL     1      14.737  54.149  89.183  1.00  0.00     0.177 HD
BRANCH   9  11
HETATM   11  C4  UNL     1      13.047  54.940  90.108  1.00  0.00     0.140 C 
BRANCH  11  12
HETATM   12  C3  UNL     1      13.913  54.864  91.368  1.00  0.00     0.045 C 
BRANCH  12  13
HETATM   13  C2  UNL     1      13.448  53.824  92.342  1.00  0.00     0.088 C 
HETATM   14  N1  UNL     1      14.212  52.611  92.215  1.00  0.00    -0.332 N 
HETATM   15  C1  UNL     1      14.007  51.418  92.950  1.00  0.00     0.360 C 
ATOM     16  H1  UNL     1      14.970  52.610  91.532  1.00  0.00     0.165 HD
HETATM   17  O1  UNL     1      14.455  50.367  92.360  1.00  0.00    -0.239 OA
HETATM   18  O5  UNL     1      13.406  51.377  94.146  1.00  0.00    -0.304 OA
HETATM   19  C24 UNL     1      12.120  51.474  94.613  1.00  0.00     0.180 C 
HETATM   20  C23 UNL     1      11.792  52.748  95.344  1.00  0.00     0.027 C 
HETATM   21  C22 UNL     1      11.132  53.703  94.376  1.00  0.00     0.002 C 
HETATM   22  C21 UNL     1      12.041  54.855  94.113  1.00  0.00     0.002 C 
HETATM   23  C20 UNL     1      13.449  54.414  93.714  1.00  0.00     0.025 C 
ENDBRANCH  12  13
ENDBRANCH  11  12
ENDBRANCH   9  11
ENDBRANCH   1   9
BRANCH   6  24
HETATM   24  N5  UNL     1      10.803  51.452  86.851  1.00  0.00    -0.370 N 
ATOM     25  H5  UNL     1      10.950  50.607  86.300  1.00  0.00     0.161 HD
BRANCH  24  26
HETATM   26  C15 UNL     1       9.564  51.578  87.540  1.00  0.00     0.087 C 
HETATM   27  C16 UNL     1       9.794  51.099  88.959  1.00  0.00     0.051 C 
HETATM   28  C17 UNL     1       9.337  52.019  90.030  1.00  0.00     0.169 C 
HETATM   29  O4  UNL     1       9.510  53.369  89.693  1.00  0.00    -0.391 OA
HETATM   30  C18 UNL     1       8.551  53.597  88.681  1.00  0.00     0.169 C 
HETATM   31  C19 UNL     1       9.074  52.980  87.431  1.00  0.00     0.051 C 
ENDBRANCH  24  26
ENDBRANCH   6  24
BRANCH   5  32
HETATM   32  C8  UNL     1      11.693  52.169  84.438  1.00  0.00     0.260 C 
HETATM   33  O2  UNL     1      10.576  52.645  84.186  1.00  0.00    -0.267 OA
HETATM   34  N4  UNL     1      12.386  51.202  83.714  1.00  0.00    -0.334 N 
ATOM     35  H4  UNL     1      13.288  50.964  84.127  1.00  0.00     0.168 HD
BRANCH  34  36
HETATM   36  C9  UNL     1      12.114  50.481  82.535  1.00  0.00     0.096 C 
BRANCH  36  37
HETATM   37  C10 UNL     1      13.040  50.641  81.394  1.00  0.00     0.159 C 
HETATM   38  C11 UNL     1      14.493  50.945  81.750  1.00  0.00     0.039 C 
HETATM   39  C12 UNL     1      15.195  50.547  80.422  1.00  0.00     0.029 C 
HETATM   40  C13 UNL     1      14.160  49.636  79.808  1.00  0.00     0.168 C 
HETATM   41  O3  UNL     1      13.285  49.321  80.845  1.00  0.00    -0.381 OA
ENDBRANCH  36  37
ENDBRANCH  34  36
ENDBRANCH   5  32
TORSDOF 9
ENDMDL
