MODEL 1
REMARK VINA RESULT: -7.676208410      0.000      0.000
REMARK  8 active torsions:
REMARK  status: ('A' for Active; 'I' for Inactive)
REMARK    1  A    between atoms: N1_1  and  C1_5 
REMARK    2  A    between atoms: C1_5  and  C2_6 
REMARK    3  A    between atoms: C2_6  and  S1_7 
REMARK    4  A    between atoms: S1_7  and  N2_10 
REMARK    5  A    between atoms: N2_10  and  C3_12 
REMARK    6  A    between atoms: C3_12  and  C4_13 
REMARK    7  A    between atoms: C4_13  and  C5_14 
REMARK    8  A    between atoms: C5_14  and  N3_15 
ROOT
HETATM    1  N3  UNL     1      12.208  50.277  89.411  1.00  0.00    -0.280 N 
HETATM    2  C6  UNL     1      12.259  49.151  88.706  1.00  0.00     0.261 A 
HETATM    3  O3  UNL     1      12.650  48.052  89.189  1.00  0.00    -0.267 OA
HETATM    4  C7  UNL     1      11.812  49.416  87.384  1.00  0.00     0.051 A 
HETATM    5  C8  UNL     1      11.667  48.423  86.444  1.00  0.00     0.022 C 
HETATM    6  C9  UNL     1      11.632  48.626  85.080  1.00  0.00    -0.061 A 
HETATM    7  C10 UNL     1      12.374  49.427  84.389  1.00  0.00     0.060 A 
HETATM    8  C11 UNL     1      11.461  48.718  83.636  1.00  0.00     0.051 A 
HETATM    9  C12 UNL     1      11.910  49.348  82.491  1.00  0.00    -0.008 A 
HETATM   10  C13 UNL     1      12.797  50.022  83.311  1.00  0.00    -0.040 A 
HETATM   11  C14 UNL     1      13.830  50.997  83.294  1.00  0.00    -0.003 A 
HETATM   12  C15 UNL     1      14.868  50.734  82.400  1.00  0.00     0.014 A 
HETATM   13  C16 UNL     1      15.962  51.564  82.287  1.00  0.00     0.001 A 
HETATM   14  C17 UNL     1      15.985  52.662  83.093  1.00  0.00     0.002 A 
HETATM   15  C18 UNL     1      14.970  52.921  83.965  1.00  0.00     0.030 A 
HETATM   16  C19 UNL     1      13.823  52.104  84.121  1.00  0.00     0.043 A 
HETATM   17  N4  UNL     1      12.888  52.532  84.960  1.00  0.00    -0.349 N 
ATOM     18  H4  UNL     1      13.235  53.299  85.536  1.00  0.00     0.166 HD
HETATM   19  C20 UNL     1      11.630  52.244  85.260  1.00  0.00     0.129 A 
HETATM   20  C21 UNL     1      10.337  52.619  84.837  1.00  0.00     0.275 A 
HETATM   21  O4  UNL     1       9.790  53.335  83.935  1.00  0.00    -0.266 OA
HETATM   22  N5  UNL     1       9.775  51.903  85.806  1.00  0.00    -0.319 N 
ATOM     23  H5  UNL     1       8.815  51.718  86.100  1.00  0.00     0.169 HD
HETATM   24  C22 UNL     1      11.014  51.514  86.249  1.00  0.00     0.084 A 
HETATM   25  C23 UNL     1      11.492  50.750  87.310  1.00  0.00     0.077 A 
HETATM   26  C24 UNL     1      11.755  51.257  88.623  1.00  0.00     0.264 A 
HETATM   27  O5  UNL     1      11.615  52.430  89.081  1.00  0.00    -0.267 OA
ENDROOT
BRANCH   1  28
HETATM   28  C5  UNL     1      12.592  50.397  90.823  1.00  0.00     0.137 C 
BRANCH  28  29
HETATM   29  C4  UNL     1      11.380  50.870  91.595  1.00  0.00     0.041 C 
BRANCH  29  30
HETATM   30  C3  UNL     1      11.727  52.021  92.518  1.00  0.00     0.133 C 
BRANCH  30  31
HETATM   31  N2  UNL     1      11.857  53.266  91.766  1.00  0.00    -0.319 N 
ATOM     32  H2  UNL     1      11.138  53.635  91.145  1.00  0.00     0.172 HD
BRANCH  31  33
HETATM   33  S1  UNL     1      13.357  54.030  92.052  1.00  0.00     0.228 S 
HETATM   34  O1  UNL     1      14.447  52.993  91.914  1.00  0.00    -0.206 OA
HETATM   35  O2  UNL     1      13.328  54.630  93.421  1.00  0.00    -0.206 OA
BRANCH  33  36
HETATM   36  C2  UNL     1      13.639  55.374  90.905  1.00  0.00     0.190 C 
BRANCH  36  37
HETATM   37  C1  UNL     1      14.705  54.947  89.920  1.00  0.00     0.246 C 
BRANCH  37  38
HETATM   38  N1  UNL     1      14.107  54.076  88.930  1.00  0.00    -0.078 N 
ATOM     39  H13 UNL     1      13.248  53.640  89.264  1.00  0.00     0.274 HD
ATOM     40  H12 UNL     1      13.708  54.594  88.147  1.00  0.00     0.274 HD
ATOM     41  H11 UNL     1      14.800  53.390  88.630  1.00  0.00     0.274 HD
ENDBRANCH  37  38
ENDBRANCH  36  37
ENDBRANCH  33  36
ENDBRANCH  31  33
ENDBRANCH  30  31
ENDBRANCH  29  30
ENDBRANCH  28  29
ENDBRANCH   1  28
TORSDOF 8
ENDMDL
MODEL 2
REMARK VINA RESULT: -7.411141360      1.257      1.474
REMARK  8 active torsions:
REMARK  status: ('A' for Active; 'I' for Inactive)
REMARK    1  A    between atoms: N1_1  and  C1_5 
REMARK    2  A    between atoms: C1_5  and  C2_6 
REMARK    3  A    between atoms: C2_6  and  S1_7 
REMARK    4  A    between atoms: S1_7  and  N2_10 
REMARK    5  A    between atoms: N2_10  and  C3_12 
REMARK    6  A    between atoms: C3_12  and  C4_13 
REMARK    7  A    between atoms: C4_13  and  C5_14 
REMARK    8  A    between atoms: C5_14  and  N3_15 
ROOT
HETATM    1  N3  UNL     1      11.034  49.018  88.317  1.00  0.00    -0.280 N 
HETATM    2  C6  UNL     1      11.387  48.053  87.473  1.00  0.00     0.261 A 
HETATM    3  O3  UNL     1      11.802  46.922  87.853  1.00  0.00    -0.267 OA
HETATM    4  C7  UNL     1      11.215  48.521  86.143  1.00  0.00     0.051 A 
HETATM    5  C8  UNL     1      11.415  47.712  85.048  1.00  0.00     0.022 C 
HETATM    6  C9  UNL     1      11.658  48.163  83.768  1.00  0.00    -0.061 A 
HETATM    7  C10 UNL     1      12.424  49.144  83.415  1.00  0.00     0.060 A 
HETATM    8  C11 UNL     1      11.802  48.509  82.359  1.00  0.00     0.051 A 
HETATM    9  C12 UNL     1      12.408  49.380  81.475  1.00  0.00    -0.008 A 
HETATM   10  C13 UNL     1      12.994  49.966  82.583  1.00  0.00    -0.040 A 
HETATM   11  C14 UNL     1      13.867  51.015  82.973  1.00  0.00    -0.003 A 
HETATM   12  C15 UNL     1      15.104  51.018  82.328  1.00  0.00     0.014 A 
HETATM   13  C16 UNL     1      16.077  51.949  82.619  1.00  0.00     0.001 A 
HETATM   14  C17 UNL     1      15.776  52.874  83.573  1.00  0.00     0.002 A 
HETATM   15  C18 UNL     1      14.567  52.873  84.202  1.00  0.00     0.030 A 
HETATM   16  C19 UNL     1      13.531  51.942  83.942  1.00  0.00     0.043 A 
HETATM   17  N4  UNL     1      12.385  52.119  84.587  1.00  0.00    -0.349 N 
ATOM     18  H4  UNL     1      12.492  52.793  85.345  1.00  0.00     0.166 HD
HETATM   19  C20 UNL     1      11.141  51.669  84.523  1.00  0.00     0.129 A 
HETATM   20  C21 UNL     1       9.937  51.999  83.865  1.00  0.00     0.275 A 
HETATM   21  O4  UNL     1       9.515  52.820  82.985  1.00  0.00    -0.266 OA
HETATM   22  N5  UNL     1       9.272  51.067  84.540  1.00  0.00    -0.319 N 
ATOM     23  H5  UNL     1       8.304  50.745  84.559  1.00  0.00     0.169 HD
HETATM   24  C22 UNL     1      10.422  50.714  85.202  1.00  0.00     0.084 A 
HETATM   25  C23 UNL     1      10.748  49.811  86.209  1.00  0.00     0.077 A 
HETATM   26  C24 UNL     1      10.643  50.084  87.611  1.00  0.00     0.264 A 
HETATM   27  O5  UNL     1      10.252  51.133  88.204  1.00  0.00    -0.267 OA
ENDROOT
BRANCH   1  28
HETATM   28  C5  UNL     1      11.075  48.906  89.780  1.00  0.00     0.137 C 
BRANCH  28  29
HETATM   29  C4  UNL     1      12.418  49.421  90.247  1.00  0.00     0.041 C 
BRANCH  29  30
HETATM   30  C3  UNL     1      12.266  50.655  91.114  1.00  0.00     0.133 C 
BRANCH  30  31
HETATM   31  N2  UNL     1      12.308  51.867  90.300  1.00  0.00    -0.319 N 
ATOM     32  H2  UNL     1      12.145  51.884  89.294  1.00  0.00     0.172 HD
BRANCH  31  33
HETATM   33  S1  UNL     1      12.663  53.251  91.234  1.00  0.00     0.228 S 
HETATM   34  O1  UNL     1      13.912  52.969  92.037  1.00  0.00    -0.206 OA
HETATM   35  O2  UNL     1      11.489  53.542  92.113  1.00  0.00    -0.206 OA
BRANCH  33  36
HETATM   36  C2  UNL     1      12.908  54.694  90.205  1.00  0.00     0.190 C 
BRANCH  36  37
HETATM   37  C1  UNL     1      14.265  55.282  90.520  1.00  0.00     0.246 C 
BRANCH  37  38
HETATM   38  N1  UNL     1      15.285  54.482  89.873  1.00  0.00    -0.078 N 
ATOM     39  H13 UNL     1      15.944  54.080  90.540  1.00  0.00     0.274 HD
ATOM     40  H12 UNL     1      14.914  53.610  89.497  1.00  0.00     0.274 HD
ATOM     41  H11 UNL     1      15.748  55.048  89.162  1.00  0.00     0.274 HD
ENDBRANCH  37  38
ENDBRANCH  36  37
ENDBRANCH  33  36
ENDBRANCH  31  33
ENDBRANCH  30  31
ENDBRANCH  29  30
ENDBRANCH  28  29
ENDBRANCH   1  28
TORSDOF 8
ENDMDL
MODEL 3
REMARK VINA RESULT: -7.131497925      1.962      2.423
REMARK  8 active torsions:
REMARK  status: ('A' for Active; 'I' for Inactive)
REMARK    1  A    between atoms: N1_1  and  C1_5 
REMARK    2  A    between atoms: C1_5  and  C2_6 
REMARK    3  A    between atoms: C2_6  and  S1_7 
REMARK    4  A    between atoms: S1_7  and  N2_10 
REMARK    5  A    between atoms: N2_10  and  C3_12 
REMARK    6  A    between atoms: C3_12  and  C4_13 
REMARK    7  A    between atoms: C4_13  and  C5_14 
REMARK    8  A    between atoms: C5_14  and  N3_15 
ROOT
HETATM    1  N3  UNL     1      11.913  51.293  90.122  1.00  0.00    -0.280 N 
HETATM    2  C6  UNL     1      12.008  50.085  89.574  1.00  0.00     0.261 A 
HETATM    3  O3  UNL     1      12.448  49.078  90.198  1.00  0.00    -0.267 OA
HETATM    4  C7  UNL     1      11.546  50.151  88.233  1.00  0.00     0.051 A 
HETATM    5  C8  UNL     1      11.439  49.035  87.436  1.00  0.00     0.022 C 
HETATM    6  C9  UNL     1      11.390  49.050  86.058  1.00  0.00    -0.061 A 
HETATM    7  C10 UNL     1      12.096  49.781  85.258  1.00  0.00     0.060 A 
HETATM    8  C11 UNL     1      11.210  48.940  84.616  1.00  0.00     0.051 A 
HETATM    9  C12 UNL     1      11.628  49.427  83.393  1.00  0.00    -0.008 A 
HETATM   10  C13 UNL     1      12.489  50.242  84.107  1.00  0.00    -0.040 A 
HETATM   11  C14 UNL     1      13.480  51.247  83.948  1.00  0.00    -0.003 A 
HETATM   12  C15 UNL     1      14.525  50.908  83.088  1.00  0.00     0.014 A 
HETATM   13  C16 UNL     1      15.583  51.759  82.854  1.00  0.00     0.001 A 
HETATM   14  C17 UNL     1      15.563  52.956  83.505  1.00  0.00     0.002 A 
HETATM   15  C18 UNL     1      14.541  53.288  84.343  1.00  0.00     0.030 A 
HETATM   16  C19 UNL     1      13.430  52.453  84.619  1.00  0.00     0.043 A 
HETATM   17  N4  UNL     1      12.481  52.952  85.401  1.00  0.00    -0.349 N 
ATOM     18  H4  UNL     1      12.798  53.803  85.865  1.00  0.00     0.166 HD
HETATM   19  C20 UNL     1      11.238  52.656  85.749  1.00  0.00     0.129 A 
HETATM   20  C21 UNL     1       9.929  52.918  85.292  1.00  0.00     0.275 A 
HETATM   21  O4  UNL     1       9.348  53.482  84.306  1.00  0.00    -0.266 OA
HETATM   22  N5  UNL     1       9.400  52.316  86.354  1.00  0.00    -0.319 N 
ATOM     23  H5  UNL     1       8.451  52.134  86.679  1.00  0.00     0.169 HD
HETATM   24  C22 UNL     1      10.657  52.041  86.833  1.00  0.00     0.084 A 
HETATM   25  C23 UNL     1      11.170  51.448  87.983  1.00  0.00     0.077 A 
HETATM   26  C24 UNL     1      11.417  52.139  89.213  1.00  0.00     0.264 A 
HETATM   27  O5  UNL     1      11.229  53.355  89.510  1.00  0.00    -0.267 OA
ENDROOT
BRANCH   1  28
HETATM   28  C5  UNL     1      12.297  51.618  91.501  1.00  0.00     0.137 C 
BRANCH  28  29
HETATM   29  C4  UNL     1      11.149  51.232  92.406  1.00  0.00     0.041 C 
BRANCH  29  30
HETATM   30  C3  UNL     1      10.264  52.422  92.717  1.00  0.00     0.133 C 
BRANCH  30  31
HETATM   31  N2  UNL     1      11.050  53.652  92.763  1.00  0.00    -0.319 N 
ATOM     32  H2  UNL     1      11.563  54.032  91.967  1.00  0.00     0.172 HD
BRANCH  31  33
HETATM   33  S1  UNL     1      11.008  54.378  94.308  1.00  0.00     0.228 S 
HETATM   34  O1  UNL     1      11.205  53.295  95.342  1.00  0.00    -0.206 OA
HETATM   35  O2  UNL     1       9.693  55.072  94.468  1.00  0.00    -0.206 OA
BRANCH  33  36
HETATM   36  C2  UNL     1      12.276  55.629  94.480  1.00  0.00     0.190 C 
BRANCH  36  37
HETATM   37  C1  UNL     1      11.740  56.736  95.361  1.00  0.00     0.246 C 
BRANCH  37  38
HETATM   38  N1  UNL     1      11.560  56.222  96.703  1.00  0.00    -0.078 N 
ATOM     39  H13 UNL     1      10.592  55.959  96.892  1.00  0.00     0.274 HD
ATOM     40  H12 UNL     1      11.983  55.303  96.827  1.00  0.00     0.274 HD
ATOM     41  H11 UNL     1      11.914  56.907  97.370  1.00  0.00     0.274 HD
ENDBRANCH  37  38
ENDBRANCH  36  37
ENDBRANCH  33  36
ENDBRANCH  31  33
ENDBRANCH  30  31
ENDBRANCH  29  30
ENDBRANCH  28  29
ENDBRANCH   1  28
TORSDOF 8
ENDMDL
MODEL 4
REMARK VINA RESULT: -7.041461156      1.235      1.694
REMARK  8 active torsions:
REMARK  status: ('A' for Active; 'I' for Inactive)
REMARK    1  A    between atoms: N1_1  and  C1_5 
REMARK    2  A    between atoms: C1_5  and  C2_6 
REMARK    3  A    between atoms: C2_6  and  S1_7 
REMARK    4  A    between atoms: S1_7  and  N2_10 
REMARK    5  A    between atoms: N2_10  and  C3_12 
REMARK    6  A    between atoms: C3_12  and  C4_13 
REMARK    7  A    between atoms: C4_13  and  C5_14 
REMARK    8  A    between atoms: C5_14  and  N3_15 
ROOT
HETATM    1  N3  UNL     1      12.227  49.989  89.373  1.00  0.00    -0.280 N 
HETATM    2  C6  UNL     1      12.279  48.904  88.605  1.00  0.00     0.261 A 
HETATM    3  O3  UNL     1      12.682  47.783  89.023  1.00  0.00    -0.267 OA
HETATM    4  C7  UNL     1      11.820  49.240  87.304  1.00  0.00     0.051 A 
HETATM    5  C8  UNL     1      11.674  48.300  86.311  1.00  0.00     0.022 C 
HETATM    6  C9  UNL     1      11.626  48.579  84.961  1.00  0.00    -0.061 A 
HETATM    7  C10 UNL     1      12.357  49.423  84.310  1.00  0.00     0.060 A 
HETATM    8  C11 UNL     1      11.442  48.751  83.525  1.00  0.00     0.051 A 
HETATM    9  C12 UNL     1      11.878  49.447  82.414  1.00  0.00    -0.008 A 
HETATM   10  C13 UNL     1      12.767  50.080  83.264  1.00  0.00    -0.040 A 
HETATM   11  C14 UNL     1      13.793  51.062  83.292  1.00  0.00    -0.003 A 
HETATM   12  C15 UNL     1      14.825  50.856  82.378  1.00  0.00     0.014 A 
HETATM   13  C16 UNL     1      15.914  51.698  82.302  1.00  0.00     0.001 A 
HETATM   14  C17 UNL     1      15.936  52.750  83.169  1.00  0.00     0.002 A 
HETATM   15  C18 UNL     1      14.926  52.953  84.062  1.00  0.00     0.030 A 
HETATM   16  C19 UNL     1      13.786  52.120  84.181  1.00  0.00     0.043 A 
HETATM   17  N4  UNL     1      12.855  52.494  85.050  1.00  0.00    -0.349 N 
ATOM     18  H4  UNL     1      13.203  53.230  85.665  1.00  0.00     0.166 HD
HETATM   19  C20 UNL     1      11.602  52.181  85.343  1.00  0.00     0.129 A 
HETATM   20  C21 UNL     1      10.303  52.571  84.952  1.00  0.00     0.275 A 
HETATM   21  O4  UNL     1       9.743  53.332  84.096  1.00  0.00    -0.266 OA
HETATM   22  N5  UNL     1       9.753  51.797  85.884  1.00  0.00    -0.319 N 
ATOM     23  H5  UNL     1       8.798  51.590  86.174  1.00  0.00     0.169 HD
HETATM   24  C22 UNL     1      10.999  51.392  86.294  1.00  0.00     0.084 A 
HETATM   25  C23 UNL     1      11.491  50.574  87.307  1.00  0.00     0.077 A 
HETATM   26  C24 UNL     1      11.762  51.009  88.644  1.00  0.00     0.264 A 
HETATM   27  O5  UNL     1      11.617  52.153  89.168  1.00  0.00    -0.267 OA
ENDROOT
BRANCH   1  28
HETATM   28  C5  UNL     1      12.622  50.033  90.786  1.00  0.00     0.137 C 
BRANCH  28  29
HETATM   29  C4  UNL     1      11.361  50.098  91.618  1.00  0.00     0.041 C 
BRANCH  29  30
HETATM   30  C3  UNL     1      11.426  51.221  92.634  1.00  0.00     0.133 C 
BRANCH  30  31
HETATM   31  N2  UNL     1      11.924  52.448  92.017  1.00  0.00    -0.319 N 
ATOM     32  H2  UNL     1      11.505  52.885  91.197  1.00  0.00     0.172 HD
BRANCH  31  33
HETATM   33  S1  UNL     1      13.294  53.060  92.832  1.00  0.00     0.228 S 
HETATM   34  O1  UNL     1      14.387  53.284  91.813  1.00  0.00    -0.206 OA
HETATM   35  O2  UNL     1      13.701  52.074  93.879  1.00  0.00    -0.206 OA
BRANCH  33  36
HETATM   36  C2  UNL     1      12.923  54.591  93.680  1.00  0.00     0.190 C 
BRANCH  36  37
HETATM   37  C1  UNL     1      12.742  54.291  95.152  1.00  0.00     0.246 C 
BRANCH  37  38
HETATM   38  N1  UNL     1      11.451  53.663  95.347  1.00  0.00    -0.078 N 
ATOM     39  H13 UNL     1      11.113  53.758  96.304  1.00  0.00     0.274 HD
ATOM     40  H12 UNL     1      10.698  54.169  94.880  1.00  0.00     0.274 HD
ATOM     41  H11 UNL     1      11.509  52.689  95.049  1.00  0.00     0.274 HD
ENDBRANCH  37  38
ENDBRANCH  36  37
ENDBRANCH  33  36
ENDBRANCH  31  33
ENDBRANCH  30  31
ENDBRANCH  29  30
ENDBRANCH  28  29
ENDBRANCH   1  28
TORSDOF 8
ENDMDL
MODEL 5
REMARK VINA RESULT: -7.033852822      2.863      4.520
REMARK  8 active torsions:
REMARK  status: ('A' for Active; 'I' for Inactive)
REMARK    1  A    between atoms: N1_1  and  C1_5 
REMARK    2  A    between atoms: C1_5  and  C2_6 
REMARK    3  A    between atoms: C2_6  and  S1_7 
REMARK    4  A    between atoms: S1_7  and  N2_10 
REMARK    5  A    between atoms: N2_10  and  C3_12 
REMARK    6  A    between atoms: C3_12  and  C4_13 
REMARK    7  A    between atoms: C4_13  and  C5_14 
REMARK    8  A    between atoms: C5_14  and  N3_15 
ROOT
HETATM    1  N3  UNL     1      11.294  51.821  86.527  1.00  0.00    -0.280 N 
HETATM    2  C6  UNL     1      12.280  52.325  85.791  1.00  0.00     0.261 A 
HETATM    3  O3  UNL     1      12.813  53.446  86.026  1.00  0.00    -0.267 OA
HETATM    4  C7  UNL     1      12.594  51.407  84.753  1.00  0.00     0.051 A 
HETATM    5  C8  UNL     1      13.637  51.613  83.881  1.00  0.00     0.022 C 
HETATM    6  C9  UNL     1      13.763  51.013  82.646  1.00  0.00    -0.061 A 
HETATM    7  C10 UNL     1      12.830  50.814  81.773  1.00  0.00     0.060 A 
HETATM    8  C11 UNL     1      14.072  50.358  81.381  1.00  0.00     0.051 A 
HETATM    9  C12 UNL     1      13.535  49.909  80.190  1.00  0.00    -0.008 A 
HETATM   10  C13 UNL     1      12.323  50.390  80.652  1.00  0.00    -0.040 A 
HETATM   11  C14 UNL     1      10.952  50.512  80.303  1.00  0.00    -0.003 A 
HETATM   12  C15 UNL     1      10.714  51.120  79.070  1.00  0.00     0.014 A 
HETATM   13  C16 UNL     1       9.438  51.345  78.600  1.00  0.00     0.001 A 
HETATM   14  C17 UNL     1       8.411  50.944  79.401  1.00  0.00     0.002 A 
HETATM   15  C18 UNL     1       8.642  50.348  80.604  1.00  0.00     0.030 A 
HETATM   16  C19 UNL     1       9.932  50.092  81.134  1.00  0.00     0.043 A 
HETATM   17  N4  UNL     1       9.990  49.437  82.287  1.00  0.00    -0.349 N 
ATOM     18  H4  UNL     1       9.073  49.397  82.733  1.00  0.00     0.166 HD
HETATM   19  C20 UNL     1      10.903  48.821  83.022  1.00  0.00     0.129 A 
HETATM   20  C21 UNL     1      11.459  47.530  83.141  1.00  0.00     0.275 A 
HETATM   21  O4  UNL     1      11.400  46.398  82.555  1.00  0.00    -0.266 OA
HETATM   22  N5  UNL     1      12.166  47.894  84.207  1.00  0.00    -0.319 N 
ATOM     23  H5  UNL     1      12.823  47.424  84.830  1.00  0.00     0.169 HD
HETATM   24  C22 UNL     1      11.648  49.163  84.126  1.00  0.00     0.084 A 
HETATM   25  C23 UNL     1      11.756  50.326  84.882  1.00  0.00     0.077 A 
HETATM   26  C24 UNL     1      10.949  50.630  86.026  1.00  0.00     0.264 A 
HETATM   27  O5  UNL     1      10.028  49.952  86.570  1.00  0.00    -0.267 OA
ENDROOT
BRANCH   1  28
HETATM   28  C5  UNL     1      10.699  52.484  87.694  1.00  0.00     0.137 C 
BRANCH  28  29
HETATM   29  C4  UNL     1      11.678  52.370  88.841  1.00  0.00     0.041 C 
BRANCH  29  30
HETATM   30  C3  UNL     1      11.839  53.692  89.564  1.00  0.00     0.133 C 
BRANCH  30  31
HETATM   31  N2  UNL     1      13.006  54.414  89.065  1.00  0.00    -0.319 N 
ATOM     32  H2  UNL     1      13.198  54.575  88.077  1.00  0.00     0.172 HD
BRANCH  31  33
HETATM   33  S1  UNL     1      14.012  54.957  90.334  1.00  0.00     0.228 S 
HETATM   34  O1  UNL     1      14.289  56.426  90.119  1.00  0.00    -0.206 OA
HETATM   35  O2  UNL     1      15.267  54.145  90.322  1.00  0.00    -0.206 OA
BRANCH  33  36
HETATM   36  C2  UNL     1      13.248  54.703  91.932  1.00  0.00     0.190 C 
BRANCH  36  37
HETATM   37  C1  UNL     1      13.994  53.600  92.650  1.00  0.00     0.246 C 
BRANCH  37  38
HETATM   38  N1  UNL     1      13.521  52.320  92.163  1.00  0.00    -0.078 N 
ATOM     39  H13 UNL     1      14.235  51.594  92.223  1.00  0.00     0.274 HD
ATOM     40  H12 UNL     1      12.835  51.897  92.788  1.00  0.00     0.274 HD
ATOM     41  H11 UNL     1      13.164  52.438  91.215  1.00  0.00     0.274 HD
ENDBRANCH  37  38
ENDBRANCH  36  37
ENDBRANCH  33  36
ENDBRANCH  31  33
ENDBRANCH  30  31
ENDBRANCH  29  30
ENDBRANCH  28  29
ENDBRANCH   1  28
TORSDOF 8
ENDMDL
