MODEL 1
REMARK VINA RESULT: -9.283866754      0.000      0.000
REMARK  9 active torsions:
REMARK  status: ('A' for Active; 'I' for Inactive)
REMARK    1  A    between atoms: N1_2  and  S1_4 
REMARK    2  A    between atoms: S1_4  and  C2_7 
REMARK    3  A    between atoms: C5_10  and  O3_11 
REMARK    4  A    between atoms: O3_11  and  C6_12 
REMARK    5  A    between atoms: C9_15  and  S2_16 
REMARK    6  A    between atoms: S2_16  and  N2_19 
REMARK    7  A    between atoms: N2_19  and  C10_21 
REMARK    8  A    between atoms: C20_33  and  C21_34 
REMARK    9  A    between atoms: C21_34  and  O6_35 
ROOT
HETATM    1  C6  UNL     1      12.847  53.552  91.540  1.00  0.00     0.084 A 
HETATM    2  C7  UNL     1      12.172  52.323  91.531  1.00  0.00     0.039 A 
HETATM    3  C8  UNL     1      11.623  51.804  90.389  1.00  0.00     0.028 A 
HETATM    4  C9  UNL     1      11.748  52.522  89.236  1.00  0.00     0.080 A 
HETATM    5  C19 UNL     1      12.398  53.723  89.201  1.00  0.00     0.037 A 
HETATM    6  C20 UNL     1      12.957  54.255  90.364  1.00  0.00     0.001 A 
ENDROOT
BRANCH   4   7
HETATM    7  S2  UNL     1      11.057  51.895  87.751  1.00  0.00     0.264 S 
HETATM    8  O4  UNL     1       9.574  51.648  87.938  1.00  0.00    -0.200 OA
HETATM    9  O5  UNL     1      11.698  50.532  87.474  1.00  0.00    -0.200 OA
BRANCH   7  10
HETATM   10  N2  UNL     1      11.420  52.871  86.407  1.00  0.00    -0.266 N 
ATOM     11  H2  UNL     1      10.781  53.648  86.236  1.00  0.00     0.180 HD
BRANCH  10  12
HETATM   12  C10 UNL     1      12.385  52.758  85.590  1.00  0.00     0.115 A 
HETATM   13  C11 UNL     1      13.512  53.539  85.607  1.00  0.00     0.050 A 
HETATM   14  C12 UNL     1      14.512  53.328  84.660  1.00  0.00     0.017 A 
HETATM   15  C13 UNL     1      14.392  52.349  83.706  1.00  0.00    -0.009 A 
HETATM   16  C14 UNL     1      15.381  52.141  82.771  1.00  0.00     0.013 A 
HETATM   17  C18 UNL     1      13.243  51.585  83.724  1.00  0.00     0.043 A 
HETATM   18  C15 UNL     1      15.233  51.150  81.827  1.00  0.00     0.001 A 
HETATM   19  C16 UNL     1      14.109  50.379  81.818  1.00  0.00     0.002 A 
HETATM   20  C17 UNL     1      13.131  50.598  82.757  1.00  0.00     0.030 A 
HETATM   21  N3  UNL     1      12.296  51.792  84.628  1.00  0.00    -0.341 N 
ATOM     22  H3  UNL     1      11.463  51.204  84.604  1.00  0.00     0.167 HD
ENDBRANCH  10  12
ENDBRANCH   7  10
ENDBRANCH   4   7
BRANCH   6  23
HETATM   23  C21 UNL     1      13.607  55.586  90.246  1.00  0.00     0.205 C 
BRANCH  23  24
HETATM   24  O6  UNL     1      14.955  55.494  90.620  1.00  0.00    -0.396 OA
ATOM     25  H6  UNL     1      15.348  54.723  90.227  1.00  0.00     0.209 HD
ENDBRANCH  23  24
ENDBRANCH   6  23
BRANCH   1  26
HETATM   26  O3  UNL     1      13.351  53.986  92.709  1.00  0.00    -0.310 OA
BRANCH  26  27
HETATM   27  C5  UNL     1      12.811  54.212  93.936  1.00  0.00     0.076 A 
HETATM   28  C4  UNL     1      12.106  55.347  94.253  1.00  0.00     0.039 A 
HETATM   29  C3  UNL     1      11.547  55.598  95.489  1.00  0.00     0.028 A 
HETATM   30  C2  UNL     1      11.689  54.665  96.493  1.00  0.00     0.079 A 
HETATM   31  C23 UNL     1      12.390  53.512  96.214  1.00  0.00     0.028 A 
HETATM   32  C22 UNL     1      12.942  53.276  94.973  1.00  0.00     0.039 A 
BRANCH  30  33
HETATM   33  S1  UNL     1      10.992  54.956  98.072  1.00  0.00     0.258 S 
HETATM   34  O1  UNL     1       9.961  53.880  98.340  1.00  0.00    -0.201 OA
HETATM   35  O2  UNL     1      12.008  54.899  99.153  1.00  0.00    -0.201 OA
BRANCH  33  36
HETATM   36  N1  UNL     1      10.136  56.457  98.034  1.00  0.00    -0.320 N 
HETATM   37  C1  UNL     1       8.690  56.223  98.037  1.00  0.00     0.159 C 
ATOM     38  H1  UNL     1      10.577  57.377  98.013  1.00  0.00     0.171 HD
ENDBRANCH  33  36
ENDBRANCH  30  33
ENDBRANCH  26  27
ENDBRANCH   1  26
TORSDOF 9
ENDMDL
MODEL 2
REMARK VINA RESULT: -9.038167550      1.590      1.824
REMARK  9 active torsions:
REMARK  status: ('A' for Active; 'I' for Inactive)
REMARK    1  A    between atoms: N1_2  and  S1_4 
REMARK    2  A    between atoms: S1_4  and  C2_7 
REMARK    3  A    between atoms: C5_10  and  O3_11 
REMARK    4  A    between atoms: O3_11  and  C6_12 
REMARK    5  A    between atoms: C9_15  and  S2_16 
REMARK    6  A    between atoms: S2_16  and  N2_19 
REMARK    7  A    between atoms: N2_19  and  C10_21 
REMARK    8  A    between atoms: C20_33  and  C21_34 
REMARK    9  A    between atoms: C21_34  and  O6_35 
ROOT
HETATM    1  C6  UNL     1      11.934  52.517  91.145  1.00  0.00     0.084 A 
HETATM    2  C7  UNL     1      11.083  51.441  90.858  1.00  0.00     0.039 A 
HETATM    3  C8  UNL     1      10.773  51.083  89.573  1.00  0.00     0.028 A 
HETATM    4  C9  UNL     1      11.319  51.810  88.557  1.00  0.00     0.080 A 
HETATM    5  C19 UNL     1      12.153  52.866  88.794  1.00  0.00     0.037 A 
HETATM    6  C20 UNL     1      12.470  53.234  90.102  1.00  0.00     0.001 A 
ENDROOT
BRANCH   4   7
HETATM    7  S2  UNL     1      10.946  51.387  86.896  1.00  0.00     0.264 S 
HETATM    8  O4  UNL     1       9.467  51.090  86.761  1.00  0.00    -0.200 OA
HETATM    9  O5  UNL     1      11.687  50.088  86.565  1.00  0.00    -0.200 OA
BRANCH   7  10
HETATM   10  N2  UNL     1      11.511  52.549  85.791  1.00  0.00    -0.266 N 
ATOM     11  H2  UNL     1      10.955  53.402  85.720  1.00  0.00     0.180 HD
BRANCH  10  12
HETATM   12  C10 UNL     1      12.535  52.491  85.044  1.00  0.00     0.115 A 
HETATM   13  C11 UNL     1      13.650  53.277  85.193  1.00  0.00     0.050 A 
HETATM   14  C12 UNL     1      14.720  53.130  84.314  1.00  0.00     0.017 A 
HETATM   15  C13 UNL     1      14.682  52.211  83.295  1.00  0.00    -0.009 A 
HETATM   16  C14 UNL     1      15.739  52.066  82.426  1.00  0.00     0.013 A 
HETATM   17  C18 UNL     1      13.542  51.441  83.179  1.00  0.00     0.043 A 
HETATM   18  C15 UNL     1      15.673  51.136  81.414  1.00  0.00     0.001 A 
HETATM   19  C16 UNL     1      14.560  50.360  81.273  1.00  0.00     0.002 A 
HETATM   20  C17 UNL     1      13.512  50.516  82.148  1.00  0.00     0.030 A 
HETATM   21  N3  UNL     1      12.528  51.586  84.020  1.00  0.00    -0.341 N 
ATOM     22  H3  UNL     1      11.705  50.997  83.897  1.00  0.00     0.167 HD
ENDBRANCH  10  12
ENDBRANCH   7  10
ENDBRANCH   4   7
BRANCH   6  23
HETATM   23  C21 UNL     1      13.348  54.421  90.269  1.00  0.00     0.205 C 
BRANCH  23  24
HETATM   24  O6  UNL     1      14.508  54.061  90.970  1.00  0.00    -0.396 OA
ATOM     25  H6  UNL     1      14.782  54.778  91.530  1.00  0.00     0.209 HD
ENDBRANCH  23  24
ENDBRANCH   6  23
BRANCH   1  26
HETATM   26  O3  UNL     1      12.180  52.799  92.437  1.00  0.00    -0.310 OA
BRANCH  26  27
HETATM   27  C5  UNL     1      11.726  53.756  93.289  1.00  0.00     0.076 A 
HETATM   28  C4  UNL     1      12.535  54.712  93.852  1.00  0.00     0.039 A 
HETATM   29  C3  UNL     1      12.098  55.693  94.718  1.00  0.00     0.028 A 
HETATM   30  C2  UNL     1      10.764  55.743  95.060  1.00  0.00     0.079 A 
HETATM   31  C23 UNL     1       9.919  54.800  94.515  1.00  0.00     0.028 A 
HETATM   32  C22 UNL     1      10.373  53.826  93.651  1.00  0.00     0.039 A 
BRANCH  30  33
HETATM   33  S1  UNL     1      10.180  56.975  96.156  1.00  0.00     0.258 S 
HETATM   34  O1  UNL     1      10.970  58.242  95.908  1.00  0.00    -0.201 OA
HETATM   35  O2  UNL     1       8.742  57.280  95.943  1.00  0.00    -0.201 OA
BRANCH  33  36
HETATM   36  N1  UNL     1      10.529  56.488  97.777  1.00  0.00    -0.320 N 
HETATM   37  C1  UNL     1       9.330  55.944  98.419  1.00  0.00     0.159 C 
ATOM     38  H1  UNL     1      11.443  56.569  98.224  1.00  0.00     0.171 HD
ENDBRANCH  33  36
ENDBRANCH  30  33
ENDBRANCH  26  27
ENDBRANCH   1  26
TORSDOF 9
ENDMDL
MODEL 3
REMARK VINA RESULT: -8.979114581      1.073      1.136
REMARK  9 active torsions:
REMARK  status: ('A' for Active; 'I' for Inactive)
REMARK    1  A    between atoms: N1_2  and  S1_4 
REMARK    2  A    between atoms: S1_4  and  C2_7 
REMARK    3  A    between atoms: C5_10  and  O3_11 
REMARK    4  A    between atoms: O3_11  and  C6_12 
REMARK    5  A    between atoms: C9_15  and  S2_16 
REMARK    6  A    between atoms: S2_16  and  N2_19 
REMARK    7  A    between atoms: N2_19  and  C10_21 
REMARK    8  A    between atoms: C20_33  and  C21_34 
REMARK    9  A    between atoms: C21_34  and  O6_35 
ROOT
HETATM    1  C6  UNL     1      12.711  53.985  91.272  1.00  0.00     0.084 A 
HETATM    2  C7  UNL     1      11.533  53.225  91.303  1.00  0.00     0.039 A 
HETATM    3  C8  UNL     1      11.006  52.656  90.175  1.00  0.00     0.028 A 
HETATM    4  C9  UNL     1      11.663  52.847  88.995  1.00  0.00     0.080 A 
HETATM    5  C19 UNL     1      12.813  53.580  88.921  1.00  0.00     0.037 A 
HETATM    6  C20 UNL     1      13.351  54.163  90.069  1.00  0.00     0.001 A 
ENDROOT
BRANCH   4   7
HETATM    7  S2  UNL     1      11.020  52.137  87.525  1.00  0.00     0.264 S 
HETATM    8  O4  UNL     1       9.528  51.921  87.669  1.00  0.00    -0.200 OA
HETATM    9  O5  UNL     1      11.651  50.751  87.360  1.00  0.00    -0.200 OA
BRANCH   7  10
HETATM   10  N2  UNL     1      11.450  53.022  86.139  1.00  0.00    -0.266 N 
ATOM     11  H2  UNL     1      10.836  53.800  85.900  1.00  0.00     0.180 HD
BRANCH  10  12
HETATM   12  C10 UNL     1      12.438  52.838  85.364  1.00  0.00     0.115 A 
HETATM   13  C11 UNL     1      13.613  53.542  85.424  1.00  0.00     0.050 A 
HETATM   14  C12 UNL     1      14.636  53.258  84.521  1.00  0.00     0.017 A 
HETATM   15  C13 UNL     1      14.489  52.283  83.567  1.00  0.00    -0.009 A 
HETATM   16  C14 UNL     1      15.499  52.002  82.675  1.00  0.00     0.013 A 
HETATM   17  C18 UNL     1      13.291  51.597  83.540  1.00  0.00     0.043 A 
HETATM   18  C15 UNL     1      15.324  51.017  81.729  1.00  0.00     0.001 A 
HETATM   19  C16 UNL     1      14.152  50.322  81.677  1.00  0.00     0.002 A 
HETATM   20  C17 UNL     1      13.153  50.614  82.574  1.00  0.00     0.030 A 
HETATM   21  N3  UNL     1      12.324  51.873  84.402  1.00  0.00    -0.341 N 
ATOM     22  H3  UNL     1      11.455  51.342  84.347  1.00  0.00     0.167 HD
ENDBRANCH  10  12
ENDBRANCH   7  10
ENDBRANCH   4   7
BRANCH   6  23
HETATM   23  C21 UNL     1      14.580  54.981  89.891  1.00  0.00     0.205 C 
BRANCH  23  24
HETATM   24  O6  UNL     1      14.314  56.318  90.219  1.00  0.00    -0.396 OA
ATOM     25  H6  UNL     1      13.405  56.412  90.479  1.00  0.00     0.209 HD
ENDBRANCH  23  24
ENDBRANCH   6  23
BRANCH   1  26
HETATM   26  O3  UNL     1      13.153  54.510  92.428  1.00  0.00    -0.310 OA
BRANCH  26  27
HETATM   27  C5  UNL     1      12.763  54.383  93.724  1.00  0.00     0.076 A 
HETATM   28  C4  UNL     1      12.021  55.331  94.385  1.00  0.00     0.039 A 
HETATM   29  C3  UNL     1      11.612  55.225  95.699  1.00  0.00     0.028 A 
HETATM   30  C2  UNL     1      11.955  54.103  96.422  1.00  0.00     0.079 A 
HETATM   31  C23 UNL     1      12.700  53.128  95.793  1.00  0.00     0.028 A 
HETATM   32  C22 UNL     1      13.101  53.251  94.479  1.00  0.00     0.039 A 
BRANCH  30  33
HETATM   33  S1  UNL     1      11.452  53.940  98.089  1.00  0.00     0.258 S 
HETATM   34  O1  UNL     1      12.222  52.792  98.706  1.00  0.00    -0.201 OA
HETATM   35  O2  UNL     1      11.734  55.163  98.883  1.00  0.00    -0.201 OA
BRANCH  33  36
HETATM   36  N1  UNL     1       9.784  53.487  98.125  1.00  0.00    -0.320 N 
HETATM   37  C1  UNL     1       9.638  52.047  97.895  1.00  0.00     0.159 C 
ATOM     38  H1  UNL     1       9.010  54.132  98.283  1.00  0.00     0.171 HD
ENDBRANCH  33  36
ENDBRANCH  30  33
ENDBRANCH  26  27
ENDBRANCH   1  26
TORSDOF 9
ENDMDL
MODEL 4
REMARK VINA RESULT: -8.745303086      1.839      2.414
REMARK  9 active torsions:
REMARK  status: ('A' for Active; 'I' for Inactive)
REMARK    1  A    between atoms: N1_2  and  S1_4 
REMARK    2  A    between atoms: S1_4  and  C2_7 
REMARK    3  A    between atoms: C5_10  and  O3_11 
REMARK    4  A    between atoms: O3_11  and  C6_12 
REMARK    5  A    between atoms: C9_15  and  S2_16 
REMARK    6  A    between atoms: S2_16  and  N2_19 
REMARK    7  A    between atoms: N2_19  and  C10_21 
REMARK    8  A    between atoms: C20_33  and  C21_34 
REMARK    9  A    between atoms: C21_34  and  O6_35 
ROOT
HETATM    1  C6  UNL     1      11.935  52.266  91.291  1.00  0.00     0.084 A 
HETATM    2  C7  UNL     1      11.509  53.251  90.390  1.00  0.00     0.039 A 
HETATM    3  C8  UNL     1      11.195  52.960  89.089  1.00  0.00     0.028 A 
HETATM    4  C9  UNL     1      11.309  51.664  88.679  1.00  0.00     0.080 A 
HETATM    5  C19 UNL     1      11.720  50.674  89.525  1.00  0.00     0.037 A 
HETATM    6  C20 UNL     1      12.042  50.968  90.850  1.00  0.00     0.001 A 
ENDROOT
BRANCH   4   7
HETATM    7  S2  UNL     1      10.919  51.247  87.020  1.00  0.00     0.264 S 
HETATM    8  O4  UNL     1       9.448  50.904  86.908  1.00  0.00    -0.200 OA
HETATM    9  O5  UNL     1      11.695  49.975  86.662  1.00  0.00    -0.200 OA
BRANCH   7  10
HETATM   10  N2  UNL     1      11.427  52.438  85.919  1.00  0.00    -0.266 N 
ATOM     11  H2  UNL     1      10.826  53.259  85.844  1.00  0.00     0.180 HD
BRANCH  10  12
HETATM   12  C10 UNL     1      12.457  52.436  85.178  1.00  0.00     0.115 A 
HETATM   13  C11 UNL     1      13.525  53.284  85.331  1.00  0.00     0.050 A 
HETATM   14  C12 UNL     1      14.607  53.195  84.458  1.00  0.00     0.017 A 
HETATM   15  C13 UNL     1      14.627  52.273  83.442  1.00  0.00    -0.009 A 
HETATM   16  C14 UNL     1      15.696  52.186  82.580  1.00  0.00     0.013 A 
HETATM   17  C18 UNL     1      13.533  51.440  83.322  1.00  0.00     0.043 A 
HETATM   18  C15 UNL     1      15.688  51.250  81.570  1.00  0.00     0.001 A 
HETATM   19  C16 UNL     1      14.622  50.413  81.425  1.00  0.00     0.002 A 
HETATM   20  C17 UNL     1      13.562  50.512  82.293  1.00  0.00     0.030 A 
HETATM   21  N3  UNL     1      12.507  51.530  84.156  1.00  0.00    -0.341 N 
ATOM     22  H3  UNL     1      11.719  50.894  84.031  1.00  0.00     0.167 HD
ENDBRANCH  10  12
ENDBRANCH   7  10
ENDBRANCH   4   7
BRANCH   6  23
HETATM   23  C21 UNL     1      12.523  49.839  91.689  1.00  0.00     0.205 C 
BRANCH  23  24
HETATM   24  O6  UNL     1      13.859  50.054  92.056  1.00  0.00    -0.396 OA
ATOM     25  H6  UNL     1      13.931  50.855  92.562  1.00  0.00     0.209 HD
ENDBRANCH  23  24
ENDBRANCH   6  23
BRANCH   1  26
HETATM   26  O3  UNL     1      12.226  52.645  92.548  1.00  0.00    -0.310 OA
BRANCH  26  27
HETATM   27  C5  UNL     1      11.765  53.635  93.358  1.00  0.00     0.076 A 
HETATM   28  C4  UNL     1      10.453  53.743  93.747  1.00  0.00     0.039 A 
HETATM   29  C3  UNL     1       9.961  54.737  94.568  1.00  0.00     0.028 A 
HETATM   30  C2  UNL     1      10.823  55.700  95.047  1.00  0.00     0.079 A 
HETATM   31  C23 UNL     1      12.149  55.626  94.679  1.00  0.00     0.028 A 
HETATM   32  C22 UNL     1      12.623  54.626  93.857  1.00  0.00     0.039 A 
BRANCH  30  33
HETATM   33  S1  UNL     1      10.230  56.973  96.090  1.00  0.00     0.258 S 
HETATM   34  O1  UNL     1      11.038  58.224  95.817  1.00  0.00    -0.201 OA
HETATM   35  O2  UNL     1       8.799  57.285  95.838  1.00  0.00    -0.201 OA
BRANCH  33  36
HETATM   36  N1  UNL     1      10.541  56.537  97.733  1.00  0.00    -0.320 N 
HETATM   37  C1  UNL     1       9.322  56.026  98.367  1.00  0.00     0.159 C 
ATOM     38  H1  UNL     1      11.445  56.624  98.196  1.00  0.00     0.171 HD
ENDBRANCH  33  36
ENDBRANCH  30  33
ENDBRANCH  26  27
ENDBRANCH   1  26
TORSDOF 9
ENDMDL
MODEL 5
REMARK VINA RESULT: -8.690310411      1.737      2.215
REMARK  9 active torsions:
REMARK  status: ('A' for Active; 'I' for Inactive)
REMARK    1  A    between atoms: N1_2  and  S1_4 
REMARK    2  A    between atoms: S1_4  and  C2_7 
REMARK    3  A    between atoms: C5_10  and  O3_11 
REMARK    4  A    between atoms: O3_11  and  C6_12 
REMARK    5  A    between atoms: C9_15  and  S2_16 
REMARK    6  A    between atoms: S2_16  and  N2_19 
REMARK    7  A    between atoms: N2_19  and  C10_21 
REMARK    8  A    between atoms: C20_33  and  C21_34 
REMARK    9  A    between atoms: C21_34  and  O6_35 
ROOT
HETATM    1  C6  UNL     1      12.484  52.637  89.965  1.00  0.00     0.084 A 
HETATM    2  C7  UNL     1      11.624  51.577  89.646  1.00  0.00     0.039 A 
HETATM    3  C8  UNL     1      11.163  51.373  88.373  1.00  0.00     0.028 A 
HETATM    4  C9  UNL     1      11.567  52.239  87.400  1.00  0.00     0.080 A 
HETATM    5  C19 UNL     1      12.404  53.285  87.668  1.00  0.00     0.037 A 
HETATM    6  C20 UNL     1      12.874  53.496  88.965  1.00  0.00     0.001 A 
ENDROOT
BRANCH   4   7
HETATM    7  S2  UNL     1      10.999  52.015  85.756  1.00  0.00     0.264 S 
HETATM    8  O4  UNL     1      10.810  53.362  85.090  1.00  0.00    -0.200 OA
HETATM    9  O5  UNL     1       9.615  51.360  85.823  1.00  0.00    -0.200 OA
BRANCH   7  10
HETATM   10  N2  UNL     1      11.985  50.950  84.872  1.00  0.00    -0.266 N 
ATOM     11  H2  UNL     1      11.811  49.956  85.020  1.00  0.00     0.180 HD
BRANCH  10  12
HETATM   12  C10 UNL     1      12.910  51.233  84.050  1.00  0.00     0.115 A 
HETATM   13  C11 UNL     1      13.857  52.205  84.252  1.00  0.00     0.050 A 
HETATM   14  C12 UNL     1      14.830  52.433  83.281  1.00  0.00     0.017 A 
HETATM   15  C13 UNL     1      14.860  51.702  82.120  1.00  0.00    -0.009 A 
HETATM   16  C14 UNL     1      15.821  51.927  81.161  1.00  0.00     0.013 A 
HETATM   17  C18 UNL     1      13.889  50.734  81.955  1.00  0.00     0.043 A 
HETATM   18  C15 UNL     1      15.826  51.178  80.006  1.00  0.00     0.001 A 
HETATM   19  C16 UNL     1      14.880  50.215  79.814  1.00  0.00     0.002 A 
HETATM   20  C17 UNL     1      13.927  50.001  80.780  1.00  0.00     0.030 A 
HETATM   21  N3  UNL     1      12.967  50.523  82.884  1.00  0.00    -0.341 N 
ATOM     22  H3  UNL     1      12.269  49.798  82.721  1.00  0.00     0.167 HD
ENDBRANCH  10  12
ENDBRANCH   7  10
ENDBRANCH   4   7
BRANCH   6  23
HETATM   23  C21 UNL     1      13.744  54.682  89.177  1.00  0.00     0.205 C 
BRANCH  23  24
HETATM   24  O6  UNL     1      14.876  54.316  89.919  1.00  0.00    -0.396 OA
ATOM     25  H6  UNL     1      15.147  55.040  90.473  1.00  0.00     0.209 HD
ENDBRANCH  23  24
ENDBRANCH   6  23
BRANCH   1  26
HETATM   26  O3  UNL     1      12.883  52.763  91.243  1.00  0.00    -0.310 OA
BRANCH  26  27
HETATM   27  C5  UNL     1      12.356  53.387  92.331  1.00  0.00     0.076 A 
HETATM   28  C4  UNL     1      11.010  53.432  92.597  1.00  0.00     0.039 A 
HETATM   29  C3  UNL     1      10.453  54.057  93.694  1.00  0.00     0.028 A 
HETATM   30  C2  UNL     1      11.278  54.686  94.601  1.00  0.00     0.079 A 
HETATM   31  C23 UNL     1      12.636  54.663  94.369  1.00  0.00     0.028 A 
HETATM   32  C22 UNL     1      13.176  54.034  93.267  1.00  0.00     0.039 A 
BRANCH  30  33
HETATM   33  S1  UNL     1      10.600  55.487  96.001  1.00  0.00     0.258 S 
HETATM   34  O1  UNL     1       9.296  54.805  96.352  1.00  0.00    -0.201 OA
HETATM   35  O2  UNL     1      11.496  55.405  97.183  1.00  0.00    -0.201 OA
BRANCH  33  36
HETATM   36  N1  UNL     1      10.203  57.114  95.573  1.00  0.00    -0.320 N 
HETATM   37  C1  UNL     1      11.411  57.943  95.534  1.00  0.00     0.159 C 
ATOM     38  H1  UNL     1       9.260  57.450  95.376  1.00  0.00     0.171 HD
ENDBRANCH  33  36
ENDBRANCH  30  33
ENDBRANCH  26  27
ENDBRANCH   1  26
TORSDOF 9
ENDMDL
