MODEL 1
REMARK VINA RESULT: -9.630753190      0.000      0.000
REMARK  8 active torsions:
REMARK  status: ('A' for Active; 'I' for Inactive)
REMARK    1  A    between atoms: N1_1  and  C1_4 
REMARK    2  A    between atoms: C5_10  and  S1_11 
REMARK    3  A    between atoms: S1_11  and  C6_14 
REMARK    4  A    between atoms: C9_17  and  S2_18 
REMARK    5  A    between atoms: S2_18  and  N3_21 
REMARK       I    between atoms: N3_21  and  C10_23 
REMARK    6  A    between atoms: C10_23  and  C11_25 
REMARK    7  A    between atoms: C11_25  and  C12_26 
REMARK    8  A    between atoms: C11_25  and  C18_32 
ROOT
HETATM    1  S2  UNL     1      13.264  54.278  90.727  1.00  0.00     0.265 S 
HETATM    2  O3  UNL     1      13.282  55.798  90.637  1.00  0.00    -0.200 OA
HETATM    3  O4  UNL     1      14.648  53.882  91.155  1.00  0.00    -0.200 OA
ENDROOT
BRANCH   1   4
HETATM    4  C9  UNL     1      12.856  53.651  89.159  1.00  0.00     0.080 A 
HETATM    5  C8  UNL     1      11.854  52.732  88.939  1.00  0.00     0.027 A 
HETATM    6  C7  UNL     1      11.550  52.253  87.685  1.00  0.00     0.025 A 
HETATM    7  C6  UNL     1      12.253  52.677  86.544  1.00  0.00     0.064 A 
HETATM    8  C25 UNL     1      13.248  53.593  86.778  1.00  0.00     0.025 A 
HETATM    9  C24 UNL     1      13.549  54.071  88.036  1.00  0.00     0.027 A 
BRANCH   7  10
HETATM   10  S1  UNL     1      11.846  52.000  84.989  1.00  0.00     0.210 S 
HETATM   11  O1  UNL     1      11.151  50.676  85.233  1.00  0.00    -0.217 OA
HETATM   12  O2  UNL     1      10.799  52.863  84.300  1.00  0.00    -0.217 OA
BRANCH  10  13
HETATM   13  C5  UNL     1      13.192  51.803  83.926  1.00  0.00     0.107 A 
HETATM   14  C1  UNL     1      13.231  50.841  82.970  1.00  0.00     0.120 A 
HETATM   15  N2  UNL     1      14.344  50.707  82.201  1.00  0.00    -0.351 N 
HETATM   16  C2  UNL     1      15.426  51.482  82.328  1.00  0.00     0.090 A 
ATOM     17  H2  UNL     1      14.354  49.976  81.490  1.00  0.00     0.166 HD
HETATM   18  C3  UNL     1      15.406  52.465  83.290  1.00  0.00     0.019 A 
HETATM   19  C4  UNL     1      14.316  52.630  84.078  1.00  0.00     0.029 A 
BRANCH  14  20
HETATM   20  N1  UNL     1      12.272  50.036  82.695  1.00  0.00    -0.384 N 
ATOM     21  H12 UNL     1      12.319  49.279  82.014  1.00  0.00     0.157 HD
ATOM     22  H11 UNL     1      11.416  50.175  83.232  1.00  0.00     0.157 HD
ENDBRANCH  14  20
ENDBRANCH  10  13
ENDBRANCH   7  10
ENDBRANCH   1   4
BRANCH   1  23
HETATM   23  N3  UNL     1      12.125  53.867  91.932  1.00  0.00    -0.249 N 
HETATM   24  C10 UNL     1      12.409  54.155  93.283  1.00  0.00     0.244 C 
HETATM   25  O5  UNL     1      13.511  54.720  93.618  1.00  0.00    -0.271 OA
ATOM     26  H3  UNL     1      11.246  53.418  91.676  1.00  0.00     0.182 HD
BRANCH  24  27
HETATM   27  C11 UNL     1      11.485  53.837  94.391  1.00  0.00     0.144 C 
BRANCH  27  28
HETATM   28  C12 UNL     1      10.963  55.147  94.912  1.00  0.00    -0.041 A 
HETATM   29  C13 UNL     1      11.770  56.250  95.094  1.00  0.00     0.008 A 
HETATM   30  C14 UNL     1      11.284  57.451  95.573  1.00  0.00     0.001 A 
HETATM   31  C15 UNL     1       9.941  57.526  95.871  1.00  0.00     0.000 A 
HETATM   32  C16 UNL     1       9.141  56.419  95.686  1.00  0.00     0.001 A 
HETATM   33  C17 UNL     1       9.617  55.216  95.209  1.00  0.00     0.008 A 
ENDBRANCH  27  28
BRANCH  27  34
HETATM   34  C18 UNL     1      12.248  53.120  95.445  1.00  0.00    -0.041 A 
HETATM   35  C19 UNL     1      13.315  52.286  95.098  1.00  0.00     0.008 A 
HETATM   36  C20 UNL     1      14.051  51.586  96.023  1.00  0.00     0.001 A 
HETATM   37  C21 UNL     1      13.703  51.730  97.346  1.00  0.00     0.000 A 
HETATM   38  C22 UNL     1      12.660  52.543  97.707  1.00  0.00     0.001 A 
HETATM   39  C23 UNL     1      11.916  53.248  96.774  1.00  0.00     0.008 A 
ENDBRANCH  27  34
ENDBRANCH  24  27
ENDBRANCH   1  23
TORSDOF 8
ENDMDL
MODEL 2
REMARK VINA RESULT: -9.188487708      2.287     10.692
REMARK  8 active torsions:
REMARK  status: ('A' for Active; 'I' for Inactive)
REMARK    1  A    between atoms: N1_1  and  C1_4 
REMARK    2  A    between atoms: C5_10  and  S1_11 
REMARK    3  A    between atoms: S1_11  and  C6_14 
REMARK    4  A    between atoms: C9_17  and  S2_18 
REMARK    5  A    between atoms: S2_18  and  N3_21 
REMARK       I    between atoms: N3_21  and  C10_23 
REMARK    6  A    between atoms: C10_23  and  C11_25 
REMARK    7  A    between atoms: C11_25  and  C12_26 
REMARK    8  A    between atoms: C11_25  and  C18_32 
ROOT
HETATM    1  S2  UNL     1       9.498  51.632  86.928  1.00  0.00     0.265 S 
HETATM    2  O3  UNL     1       8.304  52.555  86.730  1.00  0.00    -0.200 OA
HETATM    3  O4  UNL     1       8.936  50.357  87.490  1.00  0.00    -0.200 OA
ENDROOT
BRANCH   1   4
HETATM    4  C9  UNL     1      10.601  52.405  88.025  1.00  0.00     0.080 A 
HETATM    5  C8  UNL     1      11.915  52.684  87.721  1.00  0.00     0.027 A 
HETATM    6  C7  UNL     1      12.766  53.300  88.610  1.00  0.00     0.025 A 
HETATM    7  C6  UNL     1      12.341  53.682  89.893  1.00  0.00     0.064 A 
HETATM    8  C25 UNL     1      11.030  53.399  90.183  1.00  0.00     0.025 A 
HETATM    9  C24 UNL     1      10.179  52.782  89.290  1.00  0.00     0.027 A 
BRANCH   7  10
HETATM   10  S1  UNL     1      13.482  54.421  90.986  1.00  0.00     0.210 S 
HETATM   11  O1  UNL     1      14.874  54.048  90.518  1.00  0.00    -0.217 OA
HETATM   12  O2  UNL     1      13.426  55.936  90.856  1.00  0.00    -0.217 OA
BRANCH  10  13
HETATM   13  C5  UNL     1      13.254  53.996  92.644  1.00  0.00     0.107 A 
HETATM   14  C1  UNL     1      13.479  52.743  93.113  1.00  0.00     0.120 A 
HETATM   15  N2  UNL     1      13.229  52.463  94.420  1.00  0.00    -0.351 N 
HETATM   16  C2  UNL     1      12.769  53.365  95.293  1.00  0.00     0.090 A 
ATOM     17  H2  UNL     1      13.403  51.515  94.752  1.00  0.00     0.166 HD
HETATM   18  C3  UNL     1      12.537  54.642  94.838  1.00  0.00     0.019 A 
HETATM   19  C4  UNL     1      12.771  54.961  93.542  1.00  0.00     0.029 A 
BRANCH  14  20
HETATM   20  N1  UNL     1      13.948  51.771  92.422  1.00  0.00    -0.384 N 
ATOM     21  H12 UNL     1      14.248  50.873  92.800  1.00  0.00     0.157 HD
ATOM     22  H11 UNL     1      13.990  51.930  91.415  1.00  0.00     0.157 HD
ENDBRANCH  14  20
ENDBRANCH  10  13
ENDBRANCH   7  10
ENDBRANCH   1   4
BRANCH   1  23
HETATM   23  N3  UNL     1      10.172  51.356  85.382  1.00  0.00    -0.249 N 
HETATM   24  C10 UNL     1      11.160  50.363  85.223  1.00  0.00     0.244 C 
HETATM   25  O5  UNL     1      11.560  49.665  86.222  1.00  0.00    -0.271 OA
ATOM     26  H3  UNL     1       9.862  51.906  84.581  1.00  0.00     0.182 HD
BRANCH  24  27
HETATM   27  C11 UNL     1      11.798  50.055  83.926  1.00  0.00     0.144 C 
BRANCH  27  28
HETATM   28  C12 UNL     1      12.967  50.988  83.782  1.00  0.00    -0.041 A 
HETATM   29  C13 UNL     1      13.099  52.135  84.536  1.00  0.00     0.008 A 
HETATM   30  C14 UNL     1      14.177  52.989  84.399  1.00  0.00     0.001 A 
HETATM   31  C15 UNL     1      15.141  52.661  83.472  1.00  0.00     0.000 A 
HETATM   32  C16 UNL     1      15.002  51.513  82.723  1.00  0.00     0.001 A 
HETATM   33  C17 UNL     1      13.929  50.655  82.852  1.00  0.00     0.008 A 
ENDBRANCH  27  28
BRANCH  27  34
HETATM   34  C18 UNL     1      10.802  50.290  82.848  1.00  0.00    -0.041 A 
HETATM   35  C19 UNL     1       9.959  49.256  82.429  1.00  0.00     0.008 A 
HETATM   36  C20 UNL     1       9.028  49.407  81.431  1.00  0.00     0.001 A 
HETATM   37  C21 UNL     1       8.939  50.642  80.832  1.00  0.00     0.000 A 
HETATM   38  C22 UNL     1       9.756  51.669  81.228  1.00  0.00     0.001 A 
HETATM   39  C23 UNL     1      10.697  51.517  82.234  1.00  0.00     0.008 A 
ENDBRANCH  27  34
ENDBRANCH  24  27
ENDBRANCH   1  23
TORSDOF 8
ENDMDL
MODEL 3
REMARK VINA RESULT: -9.057463687      2.198     10.516
REMARK  8 active torsions:
REMARK  status: ('A' for Active; 'I' for Inactive)
REMARK    1  A    between atoms: N1_1  and  C1_4 
REMARK    2  A    between atoms: C5_10  and  S1_11 
REMARK    3  A    between atoms: S1_11  and  C6_14 
REMARK    4  A    between atoms: C9_17  and  S2_18 
REMARK    5  A    between atoms: S2_18  and  N3_21 
REMARK       I    between atoms: N3_21  and  C10_23 
REMARK    6  A    between atoms: C10_23  and  C11_25 
REMARK    7  A    between atoms: C11_25  and  C12_26 
REMARK    8  A    between atoms: C11_25  and  C18_32 
ROOT
HETATM    1  S2  UNL     1       9.678  51.729  86.743  1.00  0.00     0.265 S 
HETATM    2  O3  UNL     1       8.993  52.824  85.937  1.00  0.00    -0.200 OA
HETATM    3  O4  UNL     1       8.571  50.973  87.421  1.00  0.00    -0.200 OA
ENDROOT
BRANCH   1   4
HETATM    4  C9  UNL     1      10.750  52.487  87.880  1.00  0.00     0.080 A 
HETATM    5  C8  UNL     1      12.045  52.851  87.586  1.00  0.00     0.027 A 
HETATM    6  C7  UNL     1      12.872  53.452  88.507  1.00  0.00     0.025 A 
HETATM    7  C6  UNL     1      12.440  53.732  89.814  1.00  0.00     0.064 A 
HETATM    8  C25 UNL     1      11.147  53.365  90.093  1.00  0.00     0.025 A 
HETATM    9  C24 UNL     1      10.321  52.762  89.168  1.00  0.00     0.027 A 
BRANCH   7  10
HETATM   10  S1  UNL     1      13.551  54.459  90.945  1.00  0.00     0.210 S 
HETATM   11  O1  UNL     1      14.954  54.083  90.515  1.00  0.00    -0.217 OA
HETATM   12  O2  UNL     1      13.505  55.975  90.825  1.00  0.00    -0.217 OA
BRANCH  10  13
HETATM   13  C5  UNL     1      13.274  54.023  92.593  1.00  0.00     0.107 A 
HETATM   14  C1  UNL     1      13.491  52.768  93.062  1.00  0.00     0.120 A 
HETATM   15  N2  UNL     1      13.202  52.480  94.359  1.00  0.00    -0.351 N 
HETATM   16  C2  UNL     1      12.710  53.374  95.222  1.00  0.00     0.090 A 
ATOM     17  H2  UNL     1      13.370  51.530  94.690  1.00  0.00     0.166 HD
HETATM   18  C3  UNL     1      12.484  54.652  94.767  1.00  0.00     0.019 A 
HETATM   19  C4  UNL     1      12.757  54.980  93.481  1.00  0.00     0.029 A 
BRANCH  14  20
HETATM   20  N1  UNL     1      13.987  51.802  92.380  1.00  0.00    -0.384 N 
ATOM     21  H12 UNL     1      13.498  51.292  91.645  1.00  0.00     0.157 HD
ATOM     22  H11 UNL     1      14.954  51.565  92.598  1.00  0.00     0.157 HD
ENDBRANCH  14  20
ENDBRANCH  10  13
ENDBRANCH   7  10
ENDBRANCH   1   4
BRANCH   1  23
HETATM   23  N3  UNL     1      10.488  50.724  85.624  1.00  0.00    -0.249 N 
HETATM   24  C10 UNL     1      11.060  51.294  84.467  1.00  0.00     0.244 C 
HETATM   25  O5  UNL     1      10.979  52.554  84.244  1.00  0.00    -0.271 OA
ATOM     26  H3  UNL     1      10.559  49.720  85.791  1.00  0.00     0.182 HD
BRANCH  24  27
HETATM   27  C11 UNL     1      11.780  50.504  83.446  1.00  0.00     0.144 C 
BRANCH  27  28
HETATM   28  C12 UNL     1      11.890  49.103  83.977  1.00  0.00    -0.041 A 
HETATM   29  C13 UNL     1      12.653  48.783  85.079  1.00  0.00     0.008 A 
HETATM   30  C14 UNL     1      12.750  47.492  85.562  1.00  0.00     0.001 A 
HETATM   31  C15 UNL     1      12.048  46.506  84.904  1.00  0.00     0.000 A 
HETATM   32  C16 UNL     1      11.287  46.834  83.803  1.00  0.00     0.001 A 
HETATM   33  C17 UNL     1      11.185  48.119  83.313  1.00  0.00     0.008 A 
ENDBRANCH  27  28
BRANCH  27  34
HETATM   34  C18 UNL     1      13.127  51.101  83.257  1.00  0.00    -0.041 A 
HETATM   35  C19 UNL     1      13.961  50.650  82.230  1.00  0.00     0.008 A 
HETATM   36  C20 UNL     1      15.221  51.152  82.012  1.00  0.00     0.001 A 
HETATM   37  C21 UNL     1      15.659  52.146  82.856  1.00  0.00     0.000 A 
HETATM   38  C22 UNL     1      14.858  52.603  83.870  1.00  0.00     0.001 A 
HETATM   39  C23 UNL     1      13.587  52.095  84.092  1.00  0.00     0.008 A 
ENDBRANCH  27  34
ENDBRANCH  24  27
ENDBRANCH   1  23
TORSDOF 8
ENDMDL
MODEL 4
REMARK VINA RESULT: -8.757123459      1.783      3.101
REMARK  8 active torsions:
REMARK  status: ('A' for Active; 'I' for Inactive)
REMARK    1  A    between atoms: N1_1  and  C1_4 
REMARK    2  A    between atoms: C5_10  and  S1_11 
REMARK    3  A    between atoms: S1_11  and  C6_14 
REMARK    4  A    between atoms: C9_17  and  S2_18 
REMARK    5  A    between atoms: S2_18  and  N3_21 
REMARK       I    between atoms: N3_21  and  C10_23 
REMARK    6  A    between atoms: C10_23  and  C11_25 
REMARK    7  A    between atoms: C11_25  and  C12_26 
REMARK    8  A    between atoms: C11_25  and  C18_32 
ROOT
HETATM    1  S2  UNL     1      13.415  54.567  90.480  1.00  0.00     0.265 S 
HETATM    2  O3  UNL     1      13.651  56.049  90.222  1.00  0.00    -0.200 OA
HETATM    3  O4  UNL     1      14.714  54.039  91.020  1.00  0.00    -0.200 OA
ENDROOT
BRANCH   1   4
HETATM    4  C9  UNL     1      12.978  53.821  88.974  1.00  0.00     0.080 A 
HETATM    5  C8  UNL     1      12.038  52.822  88.858  1.00  0.00     0.027 A 
HETATM    6  C7  UNL     1      11.709  52.249  87.650  1.00  0.00     0.025 A 
HETATM    7  C6  UNL     1      12.322  52.654  86.452  1.00  0.00     0.064 A 
HETATM    8  C25 UNL     1      13.256  53.650  86.581  1.00  0.00     0.025 A 
HETATM    9  C24 UNL     1      13.583  54.222  87.793  1.00  0.00     0.027 A 
BRANCH   7  10
HETATM   10  S1  UNL     1      11.890  51.860  84.961  1.00  0.00     0.210 S 
HETATM   11  O1  UNL     1      11.295  50.512  85.315  1.00  0.00    -0.217 OA
HETATM   12  O2  UNL     1      10.759  52.611  84.275  1.00  0.00    -0.217 OA
BRANCH  10  13
HETATM   13  C5  UNL     1      13.197  51.683  83.846  1.00  0.00     0.107 A 
HETATM   14  C1  UNL     1      13.179  50.771  82.841  1.00  0.00     0.120 A 
HETATM   15  N2  UNL     1      14.264  50.649  82.031  1.00  0.00    -0.351 N 
HETATM   16  C2  UNL     1      15.371  51.386  82.162  1.00  0.00     0.090 A 
ATOM     17  H2  UNL     1      14.231  49.956  81.283  1.00  0.00     0.166 HD
HETATM   18  C3  UNL     1      15.408  52.318  83.174  1.00  0.00     0.019 A 
HETATM   19  C4  UNL     1      14.348  52.470  84.004  1.00  0.00     0.029 A 
BRANCH  14  20
HETATM   20  N1  UNL     1      12.190  50.008  82.555  1.00  0.00    -0.384 N 
ATOM     21  H12 UNL     1      11.883  49.774  81.612  1.00  0.00     0.157 HD
ATOM     22  H11 UNL     1      11.707  49.600  83.356  1.00  0.00     0.157 HD
ENDBRANCH  14  20
ENDBRANCH  10  13
ENDBRANCH   7  10
ENDBRANCH   1   4
BRANCH   1  23
HETATM   23  N3  UNL     1      12.188  54.459  91.663  1.00  0.00    -0.249 N 
HETATM   24  C10 UNL     1      12.105  53.309  92.475  1.00  0.00     0.244 C 
HETATM   25  O5  UNL     1      12.938  52.343  92.336  1.00  0.00    -0.271 OA
ATOM     26  H3  UNL     1      11.521  55.221  91.782  1.00  0.00     0.182 HD
BRANCH  24  27
HETATM   27  C11 UNL     1      11.079  53.128  93.523  1.00  0.00     0.144 C 
BRANCH  27  28
HETATM   28  C12 UNL     1       9.796  52.783  92.822  1.00  0.00    -0.041 A 
HETATM   29  C13 UNL     1       9.369  53.438  91.686  1.00  0.00     0.008 A 
HETATM   30  C14 UNL     1       8.188  53.116  91.046  1.00  0.00     0.001 A 
HETATM   31  C15 UNL     1       7.427  52.098  91.579  1.00  0.00     0.000 A 
HETATM   32  C16 UNL     1       7.861  51.448  92.713  1.00  0.00     0.001 A 
HETATM   33  C17 UNL     1       9.038  51.763  93.360  1.00  0.00     0.008 A 
ENDBRANCH  27  28
BRANCH  27  34
HETATM   34  C18 UNL     1      10.943  54.407  94.268  1.00  0.00    -0.041 A 
HETATM   35  C19 UNL     1       9.692  54.821  94.735  1.00  0.00     0.008 A 
HETATM   36  C20 UNL     1       9.498  55.996  95.418  1.00  0.00     0.001 A 
HETATM   37  C21 UNL     1      10.603  56.785  95.642  1.00  0.00     0.000 A 
HETATM   38  C22 UNL     1      11.838  56.399  95.192  1.00  0.00     0.001 A 
HETATM   39  C23 UNL     1      12.034  55.213  94.501  1.00  0.00     0.008 A 
ENDBRANCH  27  34
ENDBRANCH  24  27
ENDBRANCH   1  23
TORSDOF 8
ENDMDL
MODEL 5
REMARK VINA RESULT: -8.746435486      3.738     10.814
REMARK  8 active torsions:
REMARK  status: ('A' for Active; 'I' for Inactive)
REMARK    1  A    between atoms: N1_1  and  C1_4 
REMARK    2  A    between atoms: C5_10  and  S1_11 
REMARK    3  A    between atoms: S1_11  and  C6_14 
REMARK    4  A    between atoms: C9_17  and  S2_18 
REMARK    5  A    between atoms: S2_18  and  N3_21 
REMARK       I    between atoms: N3_21  and  C10_23 
REMARK    6  A    between atoms: C10_23  and  C11_25 
REMARK    7  A    between atoms: C11_25  and  C12_26 
REMARK    8  A    between atoms: C11_25  and  C18_32 
ROOT
HETATM    1  S2  UNL     1       9.367  49.567  85.264  1.00  0.00     0.265 S 
HETATM    2  O3  UNL     1       7.986  50.040  84.828  1.00  0.00    -0.200 OA
HETATM    3  O4  UNL     1       9.234  48.089  85.495  1.00  0.00    -0.200 OA
ENDROOT
BRANCH   1   4
HETATM    4  C9  UNL     1       9.796  50.424  86.712  1.00  0.00     0.080 A 
HETATM    5  C8  UNL     1      10.406  49.836  87.798  1.00  0.00     0.027 A 
HETATM    6  C7  UNL     1      10.737  50.540  88.934  1.00  0.00     0.025 A 
HETATM    7  C6  UNL     1      10.469  51.913  89.053  1.00  0.00     0.064 A 
HETATM    8  C25 UNL     1       9.861  52.487  87.965  1.00  0.00     0.025 A 
HETATM    9  C24 UNL     1       9.531  51.779  86.828  1.00  0.00     0.027 A 
BRANCH   7  10
HETATM   10  S1  UNL     1      10.877  52.738  90.535  1.00  0.00     0.210 S 
HETATM   11  O1  UNL     1       9.715  53.643  90.891  1.00  0.00    -0.217 OA
HETATM   12  O2  UNL     1      10.955  51.744  91.684  1.00  0.00    -0.217 OA
BRANCH  10  13
HETATM   13  C5  UNL     1      12.354  53.629  90.468  1.00  0.00     0.107 A 
HETATM   14  C1  UNL     1      12.909  54.204  91.565  1.00  0.00     0.120 A 
HETATM   15  N2  UNL     1      14.047  54.936  91.432  1.00  0.00    -0.351 N 
HETATM   16  C2  UNL     1      14.669  55.129  90.265  1.00  0.00     0.090 A 
ATOM     17  H2  UNL     1      14.447  55.362  92.269  1.00  0.00     0.166 HD
HETATM   18  C3  UNL     1      14.124  54.553  89.141  1.00  0.00     0.019 A 
HETATM   19  C4  UNL     1      12.990  53.817  89.230  1.00  0.00     0.029 A 
BRANCH  14  20
HETATM   20  N1  UNL     1      12.462  54.093  92.761  1.00  0.00    -0.384 N 
ATOM     21  H12 UNL     1      12.695  54.715  93.534  1.00  0.00     0.157 HD
ATOM     22  H11 UNL     1      11.805  53.328  92.914  1.00  0.00     0.157 HD
ENDBRANCH  14  20
ENDBRANCH  10  13
ENDBRANCH   7  10
ENDBRANCH   1   4
BRANCH   1  23
HETATM   23  N3  UNL     1      10.429  49.875  83.962  1.00  0.00    -0.249 N 
HETATM   24  C10 UNL     1      11.758  49.407  84.026  1.00  0.00     0.244 C 
HETATM   25  O5  UNL     1      12.179  48.756  85.047  1.00  0.00    -0.271 OA
ATOM     26  H3  UNL     1      10.105  50.392  83.145  1.00  0.00     0.182 HD
BRANCH  24  27
HETATM   27  C11 UNL     1      12.746  49.625  82.949  1.00  0.00     0.144 C 
BRANCH  27  28
HETATM   28  C12 UNL     1      13.517  50.864  83.308  1.00  0.00    -0.041 A 
HETATM   29  C13 UNL     1      13.076  51.765  84.254  1.00  0.00     0.008 A 
HETATM   30  C14 UNL     1      13.789  52.903  84.580  1.00  0.00     0.001 A 
HETATM   31  C15 UNL     1      14.981  53.122  83.925  1.00  0.00     0.000 A 
HETATM   32  C16 UNL     1      15.415  52.217  82.982  1.00  0.00     0.001 A 
HETATM   33  C17 UNL     1      14.710  51.079  82.649  1.00  0.00     0.008 A 
ENDBRANCH  27  28
BRANCH  27  34
HETATM   34  C18 UNL     1      12.011  49.816  81.672  1.00  0.00    -0.041 A 
HETATM   35  C19 UNL     1      11.533  51.081  81.316  1.00  0.00     0.008 A 
HETATM   36  C20 UNL     1      10.835  51.320  80.157  1.00  0.00     0.001 A 
HETATM   37  C21 UNL     1      10.612  50.249  79.323  1.00  0.00     0.000 A 
HETATM   38  C22 UNL     1      11.072  49.000  79.653  1.00  0.00     0.001 A 
HETATM   39  C23 UNL     1      11.774  48.758  80.824  1.00  0.00     0.008 A 
ENDBRANCH  27  34
ENDBRANCH  24  27
ENDBRANCH   1  23
TORSDOF 8
ENDMDL
