MODEL 1
REMARK VINA RESULT: -8.832561008      0.000      0.000
REMARK  10 active torsions:
REMARK  status: ('A' for Active; 'I' for Inactive)
REMARK    1  A    between atoms: N1_1  and  S1_4 
REMARK    2  A    between atoms: S1_4  and  C1_7 
REMARK    3  A    between atoms: C4_10  and  N2_11 
REMARK    4  A    between atoms: N2_11  and  C5_13 
REMARK    5  A    between atoms: C6_16  and  N4_17 
REMARK    6  A    between atoms: N4_17  and  C7_19 
REMARK    7  A    between atoms: C7_19  and  C8_20 
REMARK    8  A    between atoms: C8_20  and  C9_21 
REMARK    9  A    between atoms: C9_21  and  C10_22 
REMARK   10  A    between atoms: C10_22  and  N5_23 
ROOT
HETATM    1  C5  UNL     1      13.640  54.447  91.621  1.00  0.00     0.262 A 
HETATM    2  N3  UNL     1      13.074  53.703  90.646  1.00  0.00    -0.152 N 
ATOM      3  H3  UNL     1      12.455  52.907  90.800  1.00  0.00     0.188 HD
HETATM    4  C6  UNL     1      13.450  54.168  89.444  1.00  0.00     0.701 A 
HETATM    5  N6  UNL     1      14.263  55.221  89.720  1.00  0.00    -0.088 N 
ATOM      6  H6  UNL     1      14.730  55.812  89.032  1.00  0.00     0.214 HD
HETATM    7  O3  UNL     1      14.344  55.346  91.020  1.00  0.00    -0.185 OA
ENDROOT
BRANCH   4   8
HETATM    8  N4  UNL     1      13.105  53.703  88.270  1.00  0.00    -0.224 N 
ATOM      9  H4  UNL     1      13.580  54.030  87.428  1.00  0.00     0.177 HD
BRANCH   8  10
HETATM   10  C7  UNL     1      12.061  52.735  88.176  1.00  0.00     0.138 C 
BRANCH  10  11
HETATM   11  C8  UNL     1      11.716  52.458  86.753  1.00  0.00     0.022 C 
BRANCH  11  12
HETATM   12  C9  UNL     1      10.305  52.106  86.528  1.00  0.00     0.021 C 
BRANCH  12  13
HETATM   13  C10 UNL     1       9.932  50.688  86.259  1.00  0.00     0.122 C 
BRANCH  13  14
HETATM   14  N5  UNL     1      10.665  50.277  85.086  1.00  0.00    -0.393 N 
HETATM   15  C11 UNL     1      10.291  50.793  83.847  1.00  0.00     0.059 C 
HETATM   16  C12 UNL     1      11.516  51.354  83.144  1.00  0.00     0.058 C 
HETATM   17  C13 UNL     1      12.552  50.248  83.106  1.00  0.00    -0.007 C 
HETATM   18  C14 UNL     1      12.083  49.084  82.279  1.00  0.00     0.019 C 
HETATM   19  C21 UNL     1      13.737  50.723  82.387  1.00  0.00    -0.043 A 
HETATM   20  C22 UNL     1      12.921  49.808  84.500  1.00  0.00     0.034 C 
HETATM   21  C15 UNL     1      12.251  49.677  80.871  1.00  0.00     0.040 C 
HETATM   22  C16 UNL     1      13.554  50.394  81.047  1.00  0.00    -0.051 A 
HETATM   23  C17 UNL     1      14.546  50.754  80.167  1.00  0.00     0.007 A 
HETATM   24  C18 UNL     1      15.702  51.415  80.539  1.00  0.00     0.001 A 
HETATM   25  C19 UNL     1      15.886  51.742  81.867  1.00  0.00     0.001 A 
HETATM   26  C20 UNL     1      14.900  51.388  82.765  1.00  0.00     0.008 A 
HETATM   27  C23 UNL     1      11.658  49.313  85.220  1.00  0.00     0.123 C 
ENDBRANCH  13  14
ENDBRANCH  12  13
ENDBRANCH  11  12
ENDBRANCH  10  11
ENDBRANCH   8  10
ENDBRANCH   4   8
BRANCH   1  28
HETATM   28  N2  UNL     1      13.480  54.264  92.865  1.00  0.00    -0.320 N 
ATOM     29  H2  UNL     1      14.233  53.762  93.337  1.00  0.00     0.169 HD
BRANCH  28  30
HETATM   30  C4  UNL     1      12.413  54.656  93.680  1.00  0.00     0.035 A 
HETATM   31  C3  UNL     1      12.631  55.742  94.548  1.00  0.00     0.031 A 
HETATM   32  C2  UNL     1      11.612  56.145  95.361  1.00  0.00     0.027 A 
HETATM   33  C1  UNL     1      10.374  55.552  95.387  1.00  0.00     0.079 A 
HETATM   34  C25 UNL     1      10.170  54.487  94.533  1.00  0.00     0.027 A 
HETATM   35  C24 UNL     1      11.173  54.049  93.695  1.00  0.00     0.031 A 
BRANCH  33  36
HETATM   36  S1  UNL     1       9.152  56.166  96.470  1.00  0.00     0.256 S 
HETATM   37  O1  UNL     1       8.074  55.153  96.621  1.00  0.00    -0.201 OA
HETATM   38  O2  UNL     1       8.588  57.431  95.885  1.00  0.00    -0.201 OA
BRANCH  36  39
HETATM   39  N1  UNL     1       9.861  56.485  98.031  1.00  0.00    -0.324 N 
ATOM     40  H12 UNL     1       9.360  56.884  98.825  1.00  0.00     0.169 HD
ATOM     41  H11 UNL     1      10.843  56.209  98.015  1.00  0.00     0.169 HD
ENDBRANCH  36  39
ENDBRANCH  33  36
ENDBRANCH  28  30
ENDBRANCH   1  28
TORSDOF 10
ENDMDL
MODEL 2
REMARK VINA RESULT: -8.783348765      1.310      1.564
REMARK  10 active torsions:
REMARK  status: ('A' for Active; 'I' for Inactive)
REMARK    1  A    between atoms: N1_1  and  S1_4 
REMARK    2  A    between atoms: S1_4  and  C1_7 
REMARK    3  A    between atoms: C4_10  and  N2_11 
REMARK    4  A    between atoms: N2_11  and  C5_13 
REMARK    5  A    between atoms: C6_16  and  N4_17 
REMARK    6  A    between atoms: N4_17  and  C7_19 
REMARK    7  A    between atoms: C7_19  and  C8_20 
REMARK    8  A    between atoms: C8_20  and  C9_21 
REMARK    9  A    between atoms: C9_21  and  C10_22 
REMARK   10  A    between atoms: C10_22  and  N5_23 
ROOT
HETATM    1  C5  UNL     1      12.387  52.452  91.363  1.00  0.00     0.262 A 
HETATM    2  N3  UNL     1      12.262  53.355  90.367  1.00  0.00    -0.152 N 
ATOM      3  H3  UNL     1      12.333  54.367  90.479  1.00  0.00     0.188 HD
HETATM    4  C6  UNL     1      12.033  52.720  89.206  1.00  0.00     0.701 A 
HETATM    5  N6  UNL     1      12.023  51.401  89.530  1.00  0.00    -0.088 N 
ATOM      6  H6  UNL     1      11.873  50.627  88.882  1.00  0.00     0.214 HD
HETATM    7  O3  UNL     1      12.236  51.294  90.816  1.00  0.00    -0.185 OA
ENDROOT
BRANCH   4   8
HETATM    8  N4  UNL     1      11.857  53.262  88.027  1.00  0.00    -0.224 N 
ATOM      9  H4  UNL     1      11.647  54.257  87.945  1.00  0.00     0.177 HD
BRANCH   8  10
HETATM   10  C7  UNL     1      11.962  52.450  86.858  1.00  0.00     0.138 C 
BRANCH  10  11
HETATM   11  C8  UNL     1      10.628  52.256  86.222  1.00  0.00     0.022 C 
BRANCH  11  12
HETATM   12  C9  UNL     1      10.027  50.935  86.466  1.00  0.00     0.021 C 
BRANCH  12  13
HETATM   13  C10 UNL     1       9.282  50.250  85.371  1.00  0.00     0.122 C 
BRANCH  13  14
HETATM   14  N5  UNL     1      10.244  49.933  84.344  1.00  0.00    -0.393 N 
HETATM   15  C11 UNL     1      10.064  50.467  83.070  1.00  0.00     0.059 C 
HETATM   16  C12 UNL     1      11.351  51.135  82.617  1.00  0.00     0.058 C 
HETATM   17  C13 UNL     1      12.456  50.105  82.743  1.00  0.00    -0.007 C 
HETATM   18  C14 UNL     1      12.231  48.942  81.818  1.00  0.00     0.019 C 
HETATM   19  C21 UNL     1      13.714  50.685  82.265  1.00  0.00    -0.043 A 
HETATM   20  C22 UNL     1      12.597  49.640  84.171  1.00  0.00     0.034 C 
HETATM   21  C15 UNL     1      12.608  49.597  80.478  1.00  0.00     0.040 C 
HETATM   22  C16 UNL     1      13.801  50.394  80.907  1.00  0.00    -0.051 A 
HETATM   23  C17 UNL     1      14.907  50.852  80.233  1.00  0.00     0.007 A 
HETATM   24  C18 UNL     1      15.924  51.577  80.826  1.00  0.00     0.001 A 
HETATM   25  C19 UNL     1      15.840  51.866  82.174  1.00  0.00     0.001 A 
HETATM   26  C20 UNL     1      14.736  51.413  82.866  1.00  0.00     0.008 A 
HETATM   27  C23 UNL     1      11.264  49.034  84.635  1.00  0.00     0.123 C 
ENDBRANCH  13  14
ENDBRANCH  12  13
ENDBRANCH  11  12
ENDBRANCH  10  11
ENDBRANCH   8  10
ENDBRANCH   4   8
BRANCH   1  28
HETATM   28  N2  UNL     1      12.610  52.733  92.580  1.00  0.00    -0.320 N 
ATOM     29  H2  UNL     1      13.341  52.184  93.032  1.00  0.00     0.169 HD
BRANCH  28  30
HETATM   30  C4  UNL     1      11.992  53.695  93.386  1.00  0.00     0.035 A 
HETATM   31  C3  UNL     1      12.813  54.694  93.941  1.00  0.00     0.031 A 
HETATM   32  C2  UNL     1      12.242  55.643  94.738  1.00  0.00     0.027 A 
HETATM   33  C1  UNL     1      10.902  55.685  95.037  1.00  0.00     0.079 A 
HETATM   34  C25 UNL     1      10.106  54.700  94.489  1.00  0.00     0.027 A 
HETATM   35  C24 UNL     1      10.643  53.723  93.678  1.00  0.00     0.031 A 
BRANCH  33  36
HETATM   36  S1  UNL     1      10.295  56.956  96.066  1.00  0.00     0.256 S 
HETATM   37  O1  UNL     1       8.847  57.162  95.789  1.00  0.00    -0.201 OA
HETATM   38  O2  UNL     1      11.057  58.217  95.768  1.00  0.00    -0.201 OA
BRANCH  36  39
HETATM   39  N1  UNL     1      10.500  56.504  97.737  1.00  0.00    -0.324 N 
ATOM     40  H12 UNL     1      11.400  56.435  98.213  1.00  0.00     0.169 HD
ATOM     41  H11 UNL     1       9.585  56.323  98.150  1.00  0.00     0.169 HD
ENDBRANCH  36  39
ENDBRANCH  33  36
ENDBRANCH  28  30
ENDBRANCH   1  28
TORSDOF 10
ENDMDL
MODEL 3
REMARK VINA RESULT: -8.775100398      1.187      1.424
REMARK  10 active torsions:
REMARK  status: ('A' for Active; 'I' for Inactive)
REMARK    1  A    between atoms: N1_1  and  S1_4 
REMARK    2  A    between atoms: S1_4  and  C1_7 
REMARK    3  A    between atoms: C4_10  and  N2_11 
REMARK    4  A    between atoms: N2_11  and  C5_13 
REMARK    5  A    between atoms: C6_16  and  N4_17 
REMARK    6  A    between atoms: N4_17  and  C7_19 
REMARK    7  A    between atoms: C7_19  and  C8_20 
REMARK    8  A    between atoms: C8_20  and  C9_21 
REMARK    9  A    between atoms: C9_21  and  C10_22 
REMARK   10  A    between atoms: C10_22  and  N5_23 
ROOT
HETATM    1  C5  UNL     1      13.757  54.139  91.606  1.00  0.00     0.262 A 
HETATM    2  N3  UNL     1      13.098  53.401  90.687  1.00  0.00    -0.152 N 
ATOM      3  H3  UNL     1      12.659  52.496  90.865  1.00  0.00     0.188 HD
HETATM    4  C6  UNL     1      13.106  54.036  89.505  1.00  0.00     0.701 A 
HETATM    5  N6  UNL     1      13.791  55.186  89.735  1.00  0.00    -0.088 N 
ATOM      6  H6  UNL     1      13.988  55.913  89.047  1.00  0.00     0.214 HD
HETATM    7  O3  UNL     1      14.155  55.201  90.992  1.00  0.00    -0.185 OA
ENDROOT
BRANCH   4   8
HETATM    8  N4  UNL     1      12.570  53.629  88.382  1.00  0.00    -0.224 N 
ATOM      9  H4  UNL     1      12.819  54.079  87.501  1.00  0.00     0.177 HD
BRANCH   8  10
HETATM   10  C7  UNL     1      11.634  52.552  88.399  1.00  0.00     0.138 C 
BRANCH  10  11
HETATM   11  C8  UNL     1      11.236  52.168  87.015  1.00  0.00     0.022 C 
BRANCH  11  12
HETATM   12  C9  UNL     1      10.588  50.851  86.913  1.00  0.00     0.021 C 
BRANCH  12  13
HETATM   13  C10 UNL     1       9.672  50.565  85.772  1.00  0.00     0.122 C 
BRANCH  13  14
HETATM   14  N5  UNL     1      10.503  50.216  84.645  1.00  0.00    -0.393 N 
HETATM   15  C11 UNL     1      10.244  50.811  83.412  1.00  0.00     0.059 C 
HETATM   16  C12 UNL     1      11.531  51.396  82.856  1.00  0.00     0.058 C 
HETATM   17  C13 UNL     1      12.558  50.281  82.840  1.00  0.00    -0.007 C 
HETATM   18  C14 UNL     1      12.153  49.175  81.906  1.00  0.00     0.019 C 
HETATM   19  C21 UNL     1      13.806  50.781  82.259  1.00  0.00    -0.043 A 
HETATM   20  C22 UNL     1      12.798  49.752  84.232  1.00  0.00     0.034 C 
HETATM   21  C15 UNL     1      12.451  49.850  80.557  1.00  0.00     0.040 C 
HETATM   22  C16 UNL     1      13.739  50.537  80.890  1.00  0.00    -0.051 A 
HETATM   23  C17 UNL     1      14.808  50.935  80.125  1.00  0.00     0.007 A 
HETATM   24  C18 UNL     1      15.932  51.557  80.637  1.00  0.00     0.001 A 
HETATM   25  C19 UNL     1      16.001  51.800  81.994  1.00  0.00     0.001 A 
HETATM   26  C20 UNL     1      14.936  51.406  82.778  1.00  0.00     0.008 A 
HETATM   27  C23 UNL     1      11.471  49.232  84.806  1.00  0.00     0.123 C 
ENDBRANCH  13  14
ENDBRANCH  12  13
ENDBRANCH  11  12
ENDBRANCH  10  11
ENDBRANCH   8  10
ENDBRANCH   4   8
BRANCH   1  28
HETATM   28  N2  UNL     1      13.923  53.814  92.821  1.00  0.00    -0.320 N 
ATOM     29  H2  UNL     1      14.722  53.209  93.009  1.00  0.00     0.169 HD
BRANCH  28  30
HETATM   30  C4  UNL     1      13.161  54.173  93.938  1.00  0.00     0.035 A 
HETATM   31  C3  UNL     1      13.161  53.284  95.030  1.00  0.00     0.031 A 
HETATM   32  C2  UNL     1      12.423  53.602  96.132  1.00  0.00     0.027 A 
HETATM   33  C1  UNL     1      11.671  54.745  96.246  1.00  0.00     0.079 A 
HETATM   34  C25 UNL     1      11.677  55.610  95.170  1.00  0.00     0.027 A 
HETATM   35  C24 UNL     1      12.410  55.327  94.037  1.00  0.00     0.031 A 
BRANCH  33  36
HETATM   36  S1  UNL     1      10.775  55.038  97.713  1.00  0.00     0.256 S 
HETATM   37  O1  UNL     1      11.673  54.847  98.884  1.00  0.00    -0.201 OA
HETATM   38  O2  UNL     1       9.634  54.061  97.779  1.00  0.00    -0.201 OA
BRANCH  36  39
HETATM   39  N1  UNL     1      10.173  56.675  97.715  1.00  0.00    -0.324 N 
ATOM     40  H12 UNL     1      10.476  57.404  98.360  1.00  0.00     0.169 HD
ATOM     41  H11 UNL     1       9.479  56.776  96.974  1.00  0.00     0.169 HD
ENDBRANCH  36  39
ENDBRANCH  33  36
ENDBRANCH  28  30
ENDBRANCH   1  28
TORSDOF 10
ENDMDL
MODEL 4
REMARK VINA RESULT: -8.671469963      0.708      1.188
REMARK  10 active torsions:
REMARK  status: ('A' for Active; 'I' for Inactive)
REMARK    1  A    between atoms: N1_1  and  S1_4 
REMARK    2  A    between atoms: S1_4  and  C1_7 
REMARK    3  A    between atoms: C4_10  and  N2_11 
REMARK    4  A    between atoms: N2_11  and  C5_13 
REMARK    5  A    between atoms: C6_16  and  N4_17 
REMARK    6  A    between atoms: N4_17  and  C7_19 
REMARK    7  A    between atoms: C7_19  and  C8_20 
REMARK    8  A    between atoms: C8_20  and  C9_21 
REMARK    9  A    between atoms: C9_21  and  C10_22 
REMARK   10  A    between atoms: C10_22  and  N5_23 
ROOT
HETATM    1  C5  UNL     1      13.430  54.505  91.599  1.00  0.00     0.262 A 
HETATM    2  N3  UNL     1      13.059  53.653  90.619  1.00  0.00    -0.152 N 
ATOM      3  H3  UNL     1      12.648  52.731  90.767  1.00  0.00     0.188 HD
HETATM    4  C6  UNL     1      13.313  54.202  89.421  1.00  0.00     0.701 A 
HETATM    5  N6  UNL     1      13.849  55.417  89.704  1.00  0.00    -0.088 N 
ATOM      6  H6  UNL     1      14.162  56.107  89.021  1.00  0.00     0.214 HD
HETATM    7  O3  UNL     1      13.898  55.550  91.005  1.00  0.00    -0.185 OA
ENDROOT
BRANCH   4   8
HETATM    8  N4  UNL     1      13.090  53.675  88.243  1.00  0.00    -0.224 N 
ATOM      9  H4  UNL     1      13.657  53.950  87.441  1.00  0.00     0.177 HD
BRANCH   8  10
HETATM   10  C7  UNL     1      12.048  52.712  88.090  1.00  0.00     0.138 C 
BRANCH  10  11
HETATM   11  C8  UNL     1      11.693  52.534  86.653  1.00  0.00     0.022 C 
BRANCH  11  12
HETATM   12  C9  UNL     1      10.283  52.191  86.414  1.00  0.00     0.021 C 
BRANCH  12  13
HETATM   13  C10 UNL     1       9.903  50.776  86.139  1.00  0.00     0.122 C 
BRANCH  13  14
HETATM   14  N5  UNL     1      10.656  50.357  84.982  1.00  0.00    -0.393 N 
HETATM   15  C11 UNL     1      10.313  50.877  83.735  1.00  0.00     0.059 C 
HETATM   16  C12 UNL     1      11.558  51.425  83.058  1.00  0.00     0.058 C 
HETATM   17  C13 UNL     1      12.584  50.309  83.041  1.00  0.00    -0.007 C 
HETATM   18  C14 UNL     1      12.120  49.149  82.205  1.00  0.00     0.019 C 
HETATM   19  C21 UNL     1      13.788  50.771  82.347  1.00  0.00    -0.043 A 
HETATM   20  C22 UNL     1      12.919  49.865  84.442  1.00  0.00     0.034 C 
HETATM   21  C15 UNL     1      12.324  49.741  80.800  1.00  0.00     0.040 C 
HETATM   22  C16 UNL     1      13.629  50.444  81.003  1.00  0.00    -0.051 A 
HETATM   23  C17 UNL     1      14.644  50.793  80.144  1.00  0.00     0.007 A 
HETATM   24  C18 UNL     1      15.798  51.443  80.540  1.00  0.00     0.001 A 
HETATM   25  C19 UNL     1      15.958  51.768  81.873  1.00  0.00     0.001 A 
HETATM   26  C20 UNL     1      14.950  51.425  82.749  1.00  0.00     0.008 A 
HETATM   27  C23 UNL     1      11.636  49.383  85.136  1.00  0.00     0.123 C 
ENDBRANCH  13  14
ENDBRANCH  12  13
ENDBRANCH  11  12
ENDBRANCH  10  11
ENDBRANCH   8  10
ENDBRANCH   4   8
BRANCH   1  28
HETATM   28  N2  UNL     1      13.318  54.281  92.842  1.00  0.00    -0.320 N 
ATOM     29  H2  UNL     1      14.073  53.739  93.262  1.00  0.00     0.169 HD
BRANCH  28  30
HETATM   30  C4  UNL     1      12.300  54.675  93.718  1.00  0.00     0.035 A 
HETATM   31  C3  UNL     1      11.064  54.010  93.609  1.00  0.00     0.031 A 
HETATM   32  C2  UNL     1      10.049  54.375  94.444  1.00  0.00     0.027 A 
HETATM   33  C1  UNL     1      10.156  55.362  95.393  1.00  0.00     0.079 A 
HETATM   34  C25 UNL     1      11.371  56.008  95.491  1.00  0.00     0.027 A 
HETATM   35  C24 UNL     1      12.423  55.670  94.667  1.00  0.00     0.031 A 
BRANCH  33  36
HETATM   36  S1  UNL     1       8.783  55.731  96.403  1.00  0.00     0.256 S 
HETATM   37  O1  UNL     1       9.238  56.514  97.584  1.00  0.00    -0.201 OA
HETATM   38  O2  UNL     1       8.162  54.438  96.856  1.00  0.00    -0.201 OA
BRANCH  36  39
HETATM   39  N1  UNL     1       7.628  56.674  95.500  1.00  0.00    -0.324 N 
ATOM     40  H12 UNL     1       6.841  57.177  95.911  1.00  0.00     0.169 HD
ATOM     41  H11 UNL     1       7.869  56.639  94.509  1.00  0.00     0.169 HD
ENDBRANCH  36  39
ENDBRANCH  33  36
ENDBRANCH  28  30
ENDBRANCH   1  28
TORSDOF 10
ENDMDL
MODEL 5
REMARK VINA RESULT: -8.617406270      1.322      1.592
REMARK  10 active torsions:
REMARK  status: ('A' for Active; 'I' for Inactive)
REMARK    1  A    between atoms: N1_1  and  S1_4 
REMARK    2  A    between atoms: S1_4  and  C1_7 
REMARK    3  A    between atoms: C4_10  and  N2_11 
REMARK    4  A    between atoms: N2_11  and  C5_13 
REMARK    5  A    between atoms: C6_16  and  N4_17 
REMARK    6  A    between atoms: N4_17  and  C7_19 
REMARK    7  A    between atoms: C7_19  and  C8_20 
REMARK    8  A    between atoms: C8_20  and  C9_21 
REMARK    9  A    between atoms: C9_21  and  C10_22 
REMARK   10  A    between atoms: C10_22  and  N5_23 
ROOT
HETATM    1  C5  UNL     1      12.803  53.047  90.331  1.00  0.00     0.262 A 
HETATM    2  N3  UNL     1      12.037  52.393  89.432  1.00  0.00    -0.152 N 
ATOM      3  H3  UNL     1      11.391  51.634  89.652  1.00  0.00     0.188 HD
HETATM    4  C6  UNL     1      12.254  52.891  88.204  1.00  0.00     0.701 A 
HETATM    5  N6  UNL     1      13.177  53.870  88.387  1.00  0.00    -0.088 N 
ATOM      6  H6  UNL     1      13.574  54.462  87.656  1.00  0.00     0.214 HD
HETATM    7  O3  UNL     1      13.470  53.924  89.661  1.00  0.00    -0.185 OA
ENDROOT
BRANCH   4   8
HETATM    8  N4  UNL     1      11.696  52.509  87.083  1.00  0.00    -0.224 N 
ATOM      9  H4  UNL     1      12.265  52.365  86.249  1.00  0.00     0.177 HD
BRANCH   8  10
HETATM   10  C7  UNL     1      10.286  52.296  87.037  1.00  0.00     0.138 C 
BRANCH  10  11
HETATM   11  C8  UNL     1       9.707  52.826  85.770  1.00  0.00     0.022 C 
BRANCH  11  12
HETATM   12  C9  UNL     1       8.874  51.863  85.033  1.00  0.00     0.021 C 
BRANCH  12  13
HETATM   13  C10 UNL     1       9.113  50.401  85.200  1.00  0.00     0.122 C 
BRANCH  13  14
HETATM   14  N5  UNL     1      10.115  50.026  84.231  1.00  0.00    -0.393 N 
HETATM   15  C11 UNL     1       9.979  50.477  82.919  1.00  0.00     0.059 C 
HETATM   16  C12 UNL     1      11.280  51.124  82.473  1.00  0.00     0.058 C 
HETATM   17  C13 UNL     1      12.384  50.112  82.706  1.00  0.00    -0.007 C 
HETATM   18  C14 UNL     1      12.200  48.891  81.848  1.00  0.00     0.019 C 
HETATM   19  C21 UNL     1      13.656  50.670  82.238  1.00  0.00    -0.043 A 
HETATM   20  C22 UNL     1      12.475  49.740  84.164  1.00  0.00     0.034 C 
HETATM   21  C15 UNL     1      12.623  49.463  80.485  1.00  0.00     0.040 C 
HETATM   22  C16 UNL     1      13.795  50.294  80.906  1.00  0.00    -0.051 A 
HETATM   23  C17 UNL     1      14.924  50.716  80.245  1.00  0.00     0.007 A 
HETATM   24  C18 UNL     1      15.914  51.485  80.828  1.00  0.00     0.001 A 
HETATM   25  C19 UNL     1      15.778  51.859  82.150  1.00  0.00     0.001 A 
HETATM   26  C20 UNL     1      14.651  51.443  82.829  1.00  0.00     0.008 A 
HETATM   27  C23 UNL     1      11.128  49.155  84.616  1.00  0.00     0.123 C 
ENDBRANCH  13  14
ENDBRANCH  12  13
ENDBRANCH  11  12
ENDBRANCH  10  11
ENDBRANCH   8  10
ENDBRANCH   4   8
BRANCH   1  28
HETATM   28  N2  UNL     1      12.827  52.813  91.578  1.00  0.00    -0.320 N 
ATOM     29  H2  UNL     1      13.313  51.961  91.857  1.00  0.00     0.169 HD
BRANCH  28  30
HETATM   30  C4  UNL     1      12.277  53.564  92.622  1.00  0.00     0.035 A 
HETATM   31  C3  UNL     1      13.154  54.387  93.354  1.00  0.00     0.031 A 
HETATM   32  C2  UNL     1      12.650  55.127  94.384  1.00  0.00     0.027 A 
HETATM   33  C1  UNL     1      11.329  55.121  94.756  1.00  0.00     0.079 A 
HETATM   34  C25 UNL     1      10.478  54.311  94.033  1.00  0.00     0.027 A 
HETATM   35  C24 UNL     1      10.945  53.547  92.985  1.00  0.00     0.031 A 
BRANCH  33  36
HETATM   36  S1  UNL     1      10.810  56.119  96.089  1.00  0.00     0.256 S 
HETATM   37  O1  UNL     1      11.259  55.504  97.367  1.00  0.00    -0.201 OA
HETATM   38  O2  UNL     1       9.309  56.207  96.063  1.00  0.00    -0.201 OA
BRANCH  36  39
HETATM   39  N1  UNL     1      11.514  57.707  95.939  1.00  0.00    -0.324 N 
ATOM     40  H12 UNL     1      12.474  57.942  96.190  1.00  0.00     0.169 HD
ATOM     41  H11 UNL     1      10.815  58.349  95.565  1.00  0.00     0.169 HD
ENDBRANCH  36  39
ENDBRANCH  33  36
ENDBRANCH  28  30
ENDBRANCH   1  28
TORSDOF 10
ENDMDL
