MODEL 1
REMARK VINA RESULT: -9.577083163      0.000      0.000
REMARK  7 active torsions:
REMARK  status: ('A' for Active; 'I' for Inactive)
REMARK    1  A    between atoms: C1_2  and  C2_4 
REMARK    2  A    between atoms: C5_7  and  N2_8 
REMARK    3  A    between atoms: N2_8  and  S1_10 
REMARK    4  A    between atoms: S1_10  and  C6_13 
REMARK    5  A    between atoms: C12_20  and  N3_21 
REMARK    6  A    between atoms: N3_21  and  S2_23 
REMARK    7  A    between atoms: S2_23  and  C13_26 
ROOT
HETATM    1  C6  UNL     1      12.429  53.285  88.968  1.00  0.00     0.091 A 
HETATM    2  C7  UNL     1      13.437  54.204  88.754  1.00  0.00     0.026 A 
HETATM    3  C8  UNL     1      14.174  54.813  89.744  1.00  0.00     0.003 A 
HETATM    4  C9  UNL     1      13.923  54.515  91.043  1.00  0.00     0.016 A 
HETATM    5  C10 UNL     1      12.946  53.617  91.337  1.00  0.00     0.028 A 
HETATM    6  C11 UNL     1      12.855  53.454  92.714  1.00  0.00     0.210 C 
HETATM    7  O4  UNL     1      13.548  54.197  93.439  1.00  0.00    -0.285 OA
HETATM    8  C12 UNL     1      12.070  52.546  93.423  1.00  0.00     0.093 C 
HETATM    9  C19 UNL     1      11.461  51.455  92.882  1.00  0.00     0.034 C 
HETATM   10  C20 UNL     1      10.927  51.329  91.609  1.00  0.00     0.003 C 
HETATM   11  C21 UNL     1      11.232  52.114  90.504  1.00  0.00     0.014 C 
HETATM   12  C22 UNL     1      12.225  53.023  90.334  1.00  0.00     0.001 A 
ENDROOT
BRANCH   1  13
HETATM   13  S1  UNL     1      11.500  52.550  87.728  1.00  0.00     0.264 S 
HETATM   14  O2  UNL     1       9.999  52.799  87.895  1.00  0.00    -0.200 OA
HETATM   15  O3  UNL     1      11.764  51.085  87.500  1.00  0.00    -0.200 OA
BRANCH  13  16
HETATM   16  N2  UNL     1      11.850  53.297  86.216  1.00  0.00    -0.281 N 
ATOM     17  H2  UNL     1      11.420  54.206  86.047  1.00  0.00     0.179 HD
BRANCH  16  18
HETATM   18  C5  UNL     1      12.669  52.784  85.186  1.00  0.00     0.042 A 
HETATM   19  C4  UNL     1      12.291  51.715  84.367  1.00  0.00     0.031 A 
HETATM   20  C3  UNL     1      13.070  51.180  83.395  1.00  0.00     0.019 A 
HETATM   21  C2  UNL     1      14.328  51.722  83.191  1.00  0.00     0.029 A 
HETATM   22  C24 UNL     1      14.759  52.775  83.965  1.00  0.00     0.019 A 
HETATM   23  C23 UNL     1      13.920  53.299  84.961  1.00  0.00     0.031 A 
BRANCH  21  24
HETATM   24  C1  UNL     1      15.184  51.162  82.150  1.00  0.00     0.264 C 
HETATM   25  N1  UNL     1      14.650  50.300  81.159  1.00  0.00    -0.057 NA
HETATM   26  O1  UNL     1      16.409  51.426  82.103  1.00  0.00    -0.271 OA
ENDBRANCH  21  24
ENDBRANCH  16  18
ENDBRANCH  13  16
ENDBRANCH   1  13
BRANCH   8  27
HETATM   27  N3  UNL     1      11.912  52.769  94.793  1.00  0.00    -0.277 N 
ATOM     28  H3  UNL     1      12.700  52.604  95.419  1.00  0.00     0.179 HD
BRANCH  27  29
HETATM   29  S2  UNL     1      10.425  53.311  95.445  1.00  0.00     0.263 S 
HETATM   30  O5  UNL     1      10.286  52.741  96.824  1.00  0.00    -0.200 OA
HETATM   31  O6  UNL     1       9.230  52.888  94.659  1.00  0.00    -0.200 OA
BRANCH  29  32
HETATM   32  C13 UNL     1      10.481  55.065  95.551  1.00  0.00     0.079 A 
HETATM   33  C14 UNL     1       9.297  55.728  95.783  1.00  0.00     0.025 A 
HETATM   34  C15 UNL     1       9.294  57.119  95.875  1.00  0.00     0.002 A 
HETATM   35  C16 UNL     1      10.486  57.800  95.731  1.00  0.00     0.000 A 
HETATM   36  C17 UNL     1      11.673  57.136  95.500  1.00  0.00     0.002 A 
HETATM   37  C18 UNL     1      11.656  55.763  95.412  1.00  0.00     0.025 A 
ENDBRANCH  29  32
ENDBRANCH  27  29
ENDBRANCH   8  27
TORSDOF 7
ENDMDL
MODEL 2
REMARK VINA RESULT: -9.567668953      0.109      1.145
REMARK  7 active torsions:
REMARK  status: ('A' for Active; 'I' for Inactive)
REMARK    1  A    between atoms: C1_2  and  C2_4 
REMARK    2  A    between atoms: C5_7  and  N2_8 
REMARK    3  A    between atoms: N2_8  and  S1_10 
REMARK    4  A    between atoms: S1_10  and  C6_13 
REMARK    5  A    between atoms: C12_20  and  N3_21 
REMARK    6  A    between atoms: N3_21  and  S2_23 
REMARK    7  A    between atoms: S2_23  and  C13_26 
ROOT
HETATM    1  C6  UNL     1      12.403  53.264  89.042  1.00  0.00     0.091 A 
HETATM    2  C7  UNL     1      13.412  54.176  88.805  1.00  0.00     0.026 A 
HETATM    3  C8  UNL     1      14.158  54.800  89.778  1.00  0.00     0.003 A 
HETATM    4  C9  UNL     1      13.915  54.526  91.084  1.00  0.00     0.016 A 
HETATM    5  C10 UNL     1      12.937  53.637  91.400  1.00  0.00     0.028 A 
HETATM    6  C11 UNL     1      12.855  53.499  92.781  1.00  0.00     0.210 C 
HETATM    7  O4  UNL     1      13.556  54.252  93.488  1.00  0.00    -0.285 OA
HETATM    8  C12 UNL     1      12.072  52.607  93.512  1.00  0.00     0.093 C 
HETATM    9  C19 UNL     1      11.455  51.508  92.994  1.00  0.00     0.034 C 
HETATM   10  C20 UNL     1      10.912  51.361  91.727  1.00  0.00     0.003 C 
HETATM   11  C21 UNL     1      11.212  52.126  90.606  1.00  0.00     0.014 C 
HETATM   12  C22 UNL     1      12.207  53.028  90.413  1.00  0.00     0.001 A 
ENDROOT
BRANCH   1  13
HETATM   13  S1  UNL     1      11.463  52.511  87.821  1.00  0.00     0.264 S 
HETATM   14  O2  UNL     1       9.963  52.763  87.998  1.00  0.00    -0.200 OA
HETATM   15  O3  UNL     1      11.724  51.043  87.613  1.00  0.00    -0.200 OA
BRANCH  13  16
HETATM   16  N2  UNL     1      11.799  53.236  86.295  1.00  0.00    -0.281 N 
ATOM     17  H2  UNL     1      11.327  54.118  86.096  1.00  0.00     0.179 HD
BRANCH  16  18
HETATM   18  C5  UNL     1      12.658  52.737  85.290  1.00  0.00     0.042 A 
HETATM   19  C4  UNL     1      13.911  53.293  85.009  1.00  0.00     0.031 A 
HETATM   20  C3  UNL     1      14.740  52.858  84.028  1.00  0.00     0.019 A 
HETATM   21  C2  UNL     1      14.328  51.791  83.247  1.00  0.00     0.029 A 
HETATM   22  C24 UNL     1      13.106  51.201  83.475  1.00  0.00     0.019 A 
HETATM   23  C23 UNL     1      12.277  51.684  84.501  1.00  0.00     0.031 A 
BRANCH  21  24
HETATM   24  C1  UNL     1      15.205  51.306  82.186  1.00  0.00     0.264 C 
HETATM   25  N1  UNL     1      14.730  50.380  81.221  1.00  0.00    -0.057 NA
HETATM   26  O1  UNL     1      16.394  51.691  82.097  1.00  0.00    -0.271 OA
ENDBRANCH  21  24
ENDBRANCH  16  18
ENDBRANCH  13  16
ENDBRANCH   1  13
BRANCH   8  27
HETATM   27  N3  UNL     1      11.923  52.854  94.879  1.00  0.00    -0.277 N 
ATOM     28  H3  UNL     1      12.728  52.744  95.495  1.00  0.00     0.179 HD
BRANCH  27  29
HETATM   29  S2  UNL     1      10.422  53.338  95.542  1.00  0.00     0.263 S 
HETATM   30  O5  UNL     1      10.324  52.779  96.929  1.00  0.00    -0.200 OA
HETATM   31  O6  UNL     1       9.238  52.854  94.775  1.00  0.00    -0.200 OA
BRANCH  29  32
HETATM   32  C13 UNL     1      10.402  55.095  95.627  1.00  0.00     0.079 A 
HETATM   33  C14 UNL     1      11.604  55.753  95.500  1.00  0.00     0.025 A 
HETATM   34  C15 UNL     1      11.635  57.145  95.561  1.00  0.00     0.002 A 
HETATM   35  C16 UNL     1      10.453  57.831  95.749  1.00  0.00     0.000 A 
HETATM   36  C17 UNL     1       9.248  57.172  95.876  1.00  0.00     0.002 A 
HETATM   37  C18 UNL     1       9.237  55.798  95.813  1.00  0.00     0.025 A 
ENDBRANCH  29  32
ENDBRANCH  27  29
ENDBRANCH   8  27
TORSDOF 7
ENDMDL
MODEL 3
REMARK VINA RESULT: -8.954962403      2.481     10.557
REMARK  7 active torsions:
REMARK  status: ('A' for Active; 'I' for Inactive)
REMARK    1  A    between atoms: C1_2  and  C2_4 
REMARK    2  A    between atoms: C5_7  and  N2_8 
REMARK    3  A    between atoms: N2_8  and  S1_10 
REMARK    4  A    between atoms: S1_10  and  C6_13 
REMARK    5  A    between atoms: C12_20  and  N3_21 
REMARK    6  A    between atoms: N3_21  and  S2_23 
REMARK    7  A    between atoms: S2_23  and  C13_26 
ROOT
HETATM    1  C6  UNL     1      12.049  52.829  90.153  1.00  0.00     0.091 A 
HETATM    2  C7  UNL     1      13.055  53.745  90.386  1.00  0.00     0.026 A 
HETATM    3  C8  UNL     1      13.788  54.379  89.408  1.00  0.00     0.003 A 
HETATM    4  C9  UNL     1      13.534  54.111  88.103  1.00  0.00     0.016 A 
HETATM    5  C10 UNL     1      12.556  53.221  87.792  1.00  0.00     0.028 A 
HETATM    6  C11 UNL     1      12.456  53.095  86.411  1.00  0.00     0.210 C 
HETATM    7  O4  UNL     1      13.304  53.682  85.707  1.00  0.00    -0.285 OA
HETATM    8  C12 UNL     1      11.510  52.381  85.677  1.00  0.00     0.093 C 
HETATM    9  C19 UNL     1      10.335  51.907  86.176  1.00  0.00     0.034 C 
HETATM   10  C20 UNL     1      10.088  51.436  87.457  1.00  0.00     0.003 C 
HETATM   11  C21 UNL     1      10.843  51.701  88.594  1.00  0.00     0.014 C 
HETATM   12  C22 UNL     1      11.840  52.601  88.782  1.00  0.00     0.001 A 
ENDROOT
BRANCH   1  13
HETATM   13  S1  UNL     1      11.159  52.027  91.380  1.00  0.00     0.264 S 
HETATM   14  O2  UNL     1      11.322  50.505  91.321  1.00  0.00    -0.200 OA
HETATM   15  O3  UNL     1       9.701  52.392  91.469  1.00  0.00    -0.200 OA
BRANCH  13  16
HETATM   16  N2  UNL     1      11.806  52.425  92.926  1.00  0.00    -0.281 N 
ATOM     17  H2  UNL     1      12.421  51.734  93.354  1.00  0.00     0.179 HD
BRANCH  16  18
HETATM   18  C5  UNL     1      11.573  53.607  93.663  1.00  0.00     0.042 A 
HETATM   19  C4  UNL     1      10.309  53.983  94.130  1.00  0.00     0.031 A 
HETATM   20  C3  UNL     1      10.051  55.128  94.809  1.00  0.00     0.019 A 
HETATM   21  C2  UNL     1      11.105  55.991  95.063  1.00  0.00     0.029 A 
HETATM   22  C24 UNL     1      12.372  55.677  94.629  1.00  0.00     0.019 A 
HETATM   23  C23 UNL     1      12.596  54.481  93.928  1.00  0.00     0.031 A 
BRANCH  21  24
HETATM   24  C1  UNL     1      10.850  57.229  95.792  1.00  0.00     0.264 C 
HETATM   25  N1  UNL     1      11.618  58.393  95.533  1.00  0.00    -0.057 NA
HETATM   26  O1  UNL     1       9.951  57.299  96.662  1.00  0.00    -0.271 OA
ENDBRANCH  21  24
ENDBRANCH  16  18
ENDBRANCH  13  16
ENDBRANCH   1  13
BRANCH   8  27
HETATM   27  N3  UNL     1      11.785  52.149  84.328  1.00  0.00    -0.277 N 
ATOM     28  H3  UNL     1      11.631  52.898  83.652  1.00  0.00     0.179 HD
BRANCH  27  29
HETATM   29  S2  UNL     1      12.376  50.639  83.782  1.00  0.00     0.263 S 
HETATM   30  O5  UNL     1      11.276  49.953  83.030  1.00  0.00    -0.200 OA
HETATM   31  O6  UNL     1      12.810  49.727  84.879  1.00  0.00    -0.200 OA
BRANCH  29  32
HETATM   32  C13 UNL     1      13.720  50.939  82.688  1.00  0.00     0.079 A 
HETATM   33  C14 UNL     1      13.602  50.484  81.393  1.00  0.00     0.025 A 
HETATM   34  C15 UNL     1      14.642  50.700  80.492  1.00  0.00     0.002 A 
HETATM   35  C16 UNL     1      15.770  51.369  80.922  1.00  0.00     0.000 A 
HETATM   36  C17 UNL     1      15.888  51.826  82.218  1.00  0.00     0.002 A 
HETATM   37  C18 UNL     1      14.851  51.603  83.094  1.00  0.00     0.025 A 
ENDBRANCH  29  32
ENDBRANCH  27  29
ENDBRANCH   8  27
TORSDOF 7
ENDMDL
MODEL 4
REMARK VINA RESULT: -8.933448765      1.513      2.083
REMARK  7 active torsions:
REMARK  status: ('A' for Active; 'I' for Inactive)
REMARK    1  A    between atoms: C1_2  and  C2_4 
REMARK    2  A    between atoms: C5_7  and  N2_8 
REMARK    3  A    between atoms: N2_8  and  S1_10 
REMARK    4  A    between atoms: S1_10  and  C6_13 
REMARK    5  A    between atoms: C12_20  and  N3_21 
REMARK    6  A    between atoms: N3_21  and  S2_23 
REMARK    7  A    between atoms: S2_23  and  C13_26 
ROOT
HETATM    1  C6  UNL     1      12.401  53.356  89.121  1.00  0.00     0.091 A 
HETATM    2  C7  UNL     1      13.523  54.093  88.798  1.00  0.00     0.026 A 
HETATM    3  C8  UNL     1      14.320  54.757  89.703  1.00  0.00     0.003 A 
HETATM    4  C9  UNL     1      14.013  54.709  91.024  1.00  0.00     0.016 A 
HETATM    5  C10 UNL     1      12.924  54.002  91.422  1.00  0.00     0.028 A 
HETATM    6  C11 UNL     1      12.792  54.079  92.804  1.00  0.00     0.210 C 
HETATM    7  O4  UNL     1      13.566  54.836  93.424  1.00  0.00    -0.285 OA
HETATM    8  C12 UNL     1      11.885  53.405  93.621  1.00  0.00     0.093 C 
HETATM    9  C19 UNL     1      11.146  52.326  93.240  1.00  0.00     0.034 C 
HETATM   10  C20 UNL     1      10.618  52.063  91.985  1.00  0.00     0.003 C 
HETATM   11  C21 UNL     1      11.039  52.613  90.780  1.00  0.00     0.014 C 
HETATM   12  C22 UNL     1      12.145  53.349  90.503  1.00  0.00     0.001 A 
ENDROOT
BRANCH   1  13
HETATM   13  S1  UNL     1      11.402  52.553  87.981  1.00  0.00     0.264 S 
HETATM   14  O2  UNL     1       9.913  52.813  88.223  1.00  0.00    -0.200 OA
HETATM   15  O3  UNL     1      11.655  51.077  87.823  1.00  0.00    -0.200 OA
BRANCH  13  16
HETATM   16  N2  UNL     1      11.659  53.212  86.412  1.00  0.00    -0.281 N 
ATOM     17  H2  UNL     1      11.121  54.045  86.173  1.00  0.00     0.179 HD
BRANCH  16  18
HETATM   18  C5  UNL     1      12.537  52.722  85.419  1.00  0.00     0.042 A 
HETATM   19  C4  UNL     1      13.762  53.324  85.114  1.00  0.00     0.031 A 
HETATM   20  C3  UNL     1      14.607  52.895  84.144  1.00  0.00     0.019 A 
HETATM   21  C2  UNL     1      14.241  51.787  83.399  1.00  0.00     0.029 A 
HETATM   22  C24 UNL     1      13.047  51.150  83.651  1.00  0.00     0.019 A 
HETATM   23  C23 UNL     1      12.201  51.627  84.665  1.00  0.00     0.031 A 
BRANCH  21  24
HETATM   24  C1  UNL     1      15.135  51.308  82.349  1.00  0.00     0.264 C 
HETATM   25  N1  UNL     1      14.642  50.504  81.289  1.00  0.00    -0.057 NA
HETATM   26  O1  UNL     1      16.355  51.592  82.355  1.00  0.00    -0.271 OA
ENDBRANCH  21  24
ENDBRANCH  16  18
ENDBRANCH  13  16
ENDBRANCH   1  13
BRANCH   8  27
HETATM   27  N3  UNL     1      11.738  53.866  94.931  1.00  0.00    -0.277 N 
ATOM     28  H3  UNL     1      12.277  53.428  95.678  1.00  0.00     0.179 HD
BRANCH  27  29
HETATM   29  S2  UNL     1      10.672  55.149  95.313  1.00  0.00     0.263 S 
HETATM   30  O5  UNL     1       9.402  54.944  94.544  1.00  0.00    -0.200 OA
HETATM   31  O6  UNL     1      11.200  56.499  94.961  1.00  0.00    -0.200 OA
BRANCH  29  32
HETATM   32  C13 UNL     1      10.320  55.075  97.034  1.00  0.00     0.079 A 
HETATM   33  C14 UNL     1      11.378  54.887  97.895  1.00  0.00     0.025 A 
HETATM   34  C15 UNL     1      11.146  54.822  99.267  1.00  0.00     0.002 A 
HETATM   35  C16 UNL     1       9.852  54.949  99.731  1.00  0.00     0.000 A 
HETATM   36  C17 UNL     1       8.792  55.138  98.870  1.00  0.00     0.002 A 
HETATM   37  C18 UNL     1       9.041  55.200  97.519  1.00  0.00     0.025 A 
ENDBRANCH  29  32
ENDBRANCH  27  29
ENDBRANCH   8  27
TORSDOF 7
ENDMDL
MODEL 5
REMARK VINA RESULT: -8.516100441      2.560     10.869
REMARK  7 active torsions:
REMARK  status: ('A' for Active; 'I' for Inactive)
REMARK    1  A    between atoms: C1_2  and  C2_4 
REMARK    2  A    between atoms: C5_7  and  N2_8 
REMARK    3  A    between atoms: N2_8  and  S1_10 
REMARK    4  A    between atoms: S1_10  and  C6_13 
REMARK    5  A    between atoms: C12_20  and  N3_21 
REMARK    6  A    between atoms: N3_21  and  S2_23 
REMARK    7  A    between atoms: S2_23  and  C13_26 
ROOT
HETATM    1  C6  UNL     1      12.349  52.845  89.416  1.00  0.00     0.091 A 
HETATM    2  C7  UNL     1      11.601  51.902  90.091  1.00  0.00     0.026 A 
HETATM    3  C8  UNL     1      10.876  50.895  89.497  1.00  0.00     0.003 A 
HETATM    4  C9  UNL     1      10.868  50.785  88.145  1.00  0.00     0.016 A 
HETATM    5  C10 UNL     1      11.582  51.676  87.408  1.00  0.00     0.028 A 
HETATM    6  C11 UNL     1      11.443  51.386  86.056  1.00  0.00     0.210 C 
HETATM    7  O4  UNL     1      10.638  50.489  85.729  1.00  0.00    -0.285 OA
HETATM    8  C12 UNL     1      12.098  51.977  84.976  1.00  0.00     0.093 C 
HETATM    9  C19 UNL     1      13.212  52.755  85.074  1.00  0.00     0.034 C 
HETATM   10  C20 UNL     1      13.547  53.627  86.097  1.00  0.00     0.003 C 
HETATM   11  C21 UNL     1      13.045  53.612  87.393  1.00  0.00     0.014 C 
HETATM   12  C22 UNL     1      12.297  52.671  88.022  1.00  0.00     0.001 A 
ENDROOT
BRANCH   1  13
HETATM   13  S1  UNL     1      13.230  54.111  90.166  1.00  0.00     0.264 S 
HETATM   14  O2  UNL     1      12.495  55.453  90.102  1.00  0.00    -0.200 OA
HETATM   15  O3  UNL     1      14.654  54.273  89.704  1.00  0.00    -0.200 OA
BRANCH  13  16
HETATM   16  N2  UNL     1      13.349  53.816  91.858  1.00  0.00    -0.281 N 
ATOM     17  H2  UNL     1      14.184  53.325  92.178  1.00  0.00     0.179 HD
BRANCH  16  18
HETATM   18  C5  UNL     1      12.412  54.182  92.851  1.00  0.00     0.042 A 
HETATM   19  C4  UNL     1      11.107  53.682  92.894  1.00  0.00     0.031 A 
HETATM   20  C3  UNL     1      10.177  54.041  93.812  1.00  0.00     0.019 A 
HETATM   21  C2  UNL     1      10.535  54.967  94.779  1.00  0.00     0.029 A 
HETATM   22  C24 UNL     1      11.805  55.496  94.790  1.00  0.00     0.019 A 
HETATM   23  C23 UNL     1      12.737  55.097  93.819  1.00  0.00     0.031 A 
BRANCH  21  24
HETATM   24  C1  UNL     1       9.550  55.369  95.778  1.00  0.00     0.264 C 
HETATM   25  N1  UNL     1       8.336  55.992  95.389  1.00  0.00    -0.057 NA
HETATM   26  O1  UNL     1       9.747  55.176  97.000  1.00  0.00    -0.271 OA
ENDBRANCH  21  24
ENDBRANCH  16  18
ENDBRANCH  13  16
ENDBRANCH   1  13
BRANCH   8  27
HETATM   27  N3  UNL     1      11.579  51.738  83.702  1.00  0.00    -0.277 N 
ATOM     28  H3  UNL     1      10.867  52.365  83.328  1.00  0.00     0.179 HD
BRANCH  27  29
HETATM   29  S2  UNL     1      12.111  50.417  82.753  1.00  0.00     0.263 S 
HETATM   30  O5  UNL     1      11.094  50.177  81.678  1.00  0.00    -0.200 OA
HETATM   31  O6  UNL     1      12.267  49.147  83.518  1.00  0.00    -0.200 OA
BRANCH  29  32
HETATM   32  C13 UNL     1      13.642  50.859  82.008  1.00  0.00     0.079 A 
HETATM   33  C14 UNL     1      13.758  50.697  80.645  1.00  0.00     0.025 A 
HETATM   34  C15 UNL     1      14.953  51.035  80.013  1.00  0.00     0.002 A 
HETATM   35  C16 UNL     1      15.995  51.526  80.773  1.00  0.00     0.000 A 
HETATM   36  C17 UNL     1      15.879  51.688  82.138  1.00  0.00     0.002 A 
HETATM   37  C18 UNL     1      14.692  51.350  82.745  1.00  0.00     0.025 A 
ENDBRANCH  29  32
ENDBRANCH  27  29
ENDBRANCH   8  27
TORSDOF 7
ENDMDL
