MODEL 1
REMARK VINA RESULT: -8.004940298      0.000      0.000
REMARK  8 active torsions:
REMARK  status: ('A' for Active; 'I' for Inactive)
REMARK       I    between atoms: C1_2  and  N1_3 
REMARK    1  A    between atoms: C1_2  and  C11_22 
REMARK    2  A    between atoms: N1_3  and  C2_5 
REMARK    3  A    between atoms: C5_8  and  S1_9 
REMARK    4  A    between atoms: S1_9  and  N2_12 
REMARK    5  A    between atoms: N2_12  and  C6_14 
REMARK    6  A    between atoms: C15_26  and  S2_27 
REMARK    7  A    between atoms: S2_27  and  N4_30 
REMARK    8  A    between atoms: N4_30  and  C16_32 
ROOT
HETATM    1  O1  UNL     1       9.590  53.282  85.309  1.00  0.00    -0.267 OA
HETATM    2  C1  UNL     1      10.126  52.144  85.143  1.00  0.00     0.256 C 
HETATM    3  N1  UNL     1      11.156  51.738  86.001  1.00  0.00    -0.323 N 
ATOM      4  H1  UNL     1      11.543  50.811  85.823  1.00  0.00     0.169 HD
ENDROOT
BRANCH   2   5
HETATM    5  C11 UNL     1       9.632  51.307  84.047  1.00  0.00     0.033 A 
HETATM    6  C12 UNL     1       8.423  50.695  84.087  1.00  0.00     0.017 A 
HETATM    7  C13 UNL     1       7.987  49.909  83.011  1.00  0.00     0.003 A 
HETATM    8  C14 UNL     1       8.808  49.772  81.917  1.00  0.00     0.025 A 
HETATM    9  C15 UNL     1      10.042  50.385  81.854  1.00  0.00     0.080 A 
HETATM   10  C22 UNL     1      10.452  51.154  82.923  1.00  0.00     0.042 A 
BRANCH   9  11
HETATM   11  S2  UNL     1      11.014  50.155  80.420  1.00  0.00     0.263 S 
HETATM   12  O5  UNL     1      11.184  51.501  79.772  1.00  0.00    -0.200 OA
HETATM   13  O6  UNL     1      10.281  49.219  79.470  1.00  0.00    -0.200 OA
BRANCH  11  14
HETATM   14  N4  UNL     1      12.501  49.442  80.880  1.00  0.00    -0.281 N 
ATOM     15  H4  UNL     1      12.573  48.427  80.953  1.00  0.00     0.179 HD
BRANCH  14  16
HETATM   16  C16 UNL     1      13.635  50.247  81.159  1.00  0.00     0.042 A 
HETATM   17  C17 UNL     1      14.543  50.615  80.192  1.00  0.00     0.030 A 
HETATM   18  C18 UNL     1      15.636  51.392  80.501  1.00  0.00     0.002 A 
HETATM   19  C19 UNL     1      15.829  51.813  81.805  1.00  0.00     0.000 A 
HETATM   20  C20 UNL     1      14.927  51.451  82.779  1.00  0.00     0.002 A 
HETATM   21  C21 UNL     1      13.852  50.685  82.475  1.00  0.00     0.030 A 
ENDBRANCH  14  16
ENDBRANCH  11  14
ENDBRANCH   9  11
ENDBRANCH   2   5
BRANCH   3  22
HETATM   22  C2  UNL     1      11.724  52.445  87.077  1.00  0.00     0.035 A 
HETATM   23  C3  UNL     1      11.255  52.420  88.360  1.00  0.00     0.031 A 
HETATM   24  C4  UNL     1      11.900  53.144  89.381  1.00  0.00     0.027 A 
HETATM   25  C5  UNL     1      13.019  53.902  89.137  1.00  0.00     0.080 A 
HETATM   26  C9  UNL     1      13.500  53.936  87.855  1.00  0.00     0.027 A 
HETATM   27  C10 UNL     1      12.873  53.231  86.858  1.00  0.00     0.031 A 
BRANCH  25  28
HETATM   28  S1  UNL     1      13.802  54.790  90.417  1.00  0.00     0.265 S 
HETATM   29  O2  UNL     1      15.150  54.189  90.652  1.00  0.00    -0.200 OA
HETATM   30  O3  UNL     1      14.026  56.225  89.996  1.00  0.00    -0.200 OA
BRANCH  28  31
HETATM   31  N2  UNL     1      12.867  54.781  91.846  1.00  0.00    -0.245 N 
ATOM     32  H2  UNL     1      12.139  55.489  91.943  1.00  0.00     0.182 HD
BRANCH  31  33
HETATM   33  C6  UNL     1      13.018  53.944  92.804  1.00  0.00     0.237 A 
HETATM   34  N3  UNL     1      13.385  52.655  92.777  1.00  0.00    -0.330 N 
HETATM   35  C7  UNL     1      13.400  52.204  94.036  1.00  0.00     0.116 A 
ATOM     36  H3  UNL     1      13.613  52.113  91.944  1.00  0.00     0.168 HD
HETATM   37  C8  UNL     1      13.032  53.252  94.836  1.00  0.00     0.162 A 
HETATM   38  O4  UNL     1      12.812  54.274  94.070  1.00  0.00    -0.290 OA
ENDBRANCH  31  33
ENDBRANCH  28  31
ENDBRANCH  25  28
ENDBRANCH   3  22
TORSDOF 8
ENDMDL
MODEL 2
REMARK VINA RESULT: -7.942127327      2.436     11.575
REMARK  8 active torsions:
REMARK  status: ('A' for Active; 'I' for Inactive)
REMARK       I    between atoms: C1_2  and  N1_3 
REMARK    1  A    between atoms: C1_2  and  C11_22 
REMARK    2  A    between atoms: N1_3  and  C2_5 
REMARK    3  A    between atoms: C5_8  and  S1_9 
REMARK    4  A    between atoms: S1_9  and  N2_12 
REMARK    5  A    between atoms: N2_12  and  C6_14 
REMARK    6  A    between atoms: C15_26  and  S2_27 
REMARK    7  A    between atoms: S2_27  and  N4_30 
REMARK    8  A    between atoms: N4_30  and  C16_32 
ROOT
HETATM    1  O1  UNL     1      11.353  51.942  88.429  1.00  0.00    -0.267 OA
HETATM    2  C1  UNL     1      12.158  52.892  88.186  1.00  0.00     0.256 C 
HETATM    3  N1  UNL     1      12.385  53.277  86.859  1.00  0.00    -0.323 N 
ATOM      4  H1  UNL     1      13.036  54.050  86.726  1.00  0.00     0.169 HD
ENDROOT
BRANCH   2   5
HETATM    5  C11 UNL     1      12.814  53.542  89.323  1.00  0.00     0.033 A 
HETATM    6  C12 UNL     1      13.868  54.381  89.173  1.00  0.00     0.017 A 
HETATM    7  C13 UNL     1      14.460  54.987  90.290  1.00  0.00     0.003 A 
HETATM    8  C14 UNL     1      13.951  54.716  91.537  1.00  0.00     0.025 A 
HETATM    9  C15 UNL     1      12.879  53.865  91.714  1.00  0.00     0.080 A 
HETATM   10  C22 UNL     1      12.311  53.279  90.603  1.00  0.00     0.042 A 
BRANCH   9  11
HETATM   11  S2  UNL     1      12.300  53.584  93.338  1.00  0.00     0.263 S 
HETATM   12  O5  UNL     1      12.864  52.268  93.795  1.00  0.00    -0.200 OA
HETATM   13  O6  UNL     1      10.780  53.508  93.317  1.00  0.00    -0.200 OA
BRANCH  11  14
HETATM   14  N4  UNL     1      12.785  54.898  94.324  1.00  0.00    -0.281 N 
ATOM     15  H4  UNL     1      13.719  55.293  94.215  1.00  0.00     0.179 HD
BRANCH  14  16
HETATM   16  C16 UNL     1      11.902  55.442  95.291  1.00  0.00     0.042 A 
HETATM   17  C17 UNL     1      11.534  54.762  96.431  1.00  0.00     0.030 A 
HETATM   18  C18 UNL     1      10.670  55.320  97.344  1.00  0.00     0.002 A 
HETATM   19  C19 UNL     1      10.157  56.585  97.117  1.00  0.00     0.000 A 
HETATM   20  C20 UNL     1      10.518  57.273  95.982  1.00  0.00     0.002 A 
HETATM   21  C21 UNL     1      11.369  56.724  95.082  1.00  0.00     0.030 A 
ENDBRANCH  14  16
ENDBRANCH  11  14
ENDBRANCH   9  11
ENDBRANCH   2   5
BRANCH   3  22
HETATM   22  C2  UNL     1      11.830  52.732  85.686  1.00  0.00     0.035 A 
HETATM   23  C3  UNL     1      10.574  53.002  85.221  1.00  0.00     0.031 A 
HETATM   24  C4  UNL     1      10.106  52.427  84.023  1.00  0.00     0.027 A 
HETATM   25  C5  UNL     1      10.883  51.577  83.275  1.00  0.00     0.080 A 
HETATM   26  C9  UNL     1      12.145  51.298  83.730  1.00  0.00     0.027 A 
HETATM   27  C10 UNL     1      12.602  51.857  84.897  1.00  0.00     0.031 A 
BRANCH  25  28
HETATM   28  S1  UNL     1      10.284  50.877  81.795  1.00  0.00     0.265 S 
HETATM   29  O2  UNL     1      10.112  49.408  82.003  1.00  0.00    -0.200 OA
HETATM   30  O3  UNL     1       8.918  51.439  81.467  1.00  0.00    -0.200 OA
BRANCH  28  31
HETATM   31  N2  UNL     1      11.333  51.195  80.485  1.00  0.00    -0.245 N 
ATOM     32  H2  UNL     1      11.075  51.940  79.838  1.00  0.00     0.182 HD
BRANCH  31  33
HETATM   33  C6  UNL     1      12.422  50.559  80.260  1.00  0.00     0.237 A 
HETATM   34  N3  UNL     1      12.619  49.303  79.833  1.00  0.00    -0.330 N 
HETATM   35  C7  UNL     1      13.937  49.097  79.752  1.00  0.00     0.116 A 
ATOM     36  H3  UNL     1      11.891  48.625  79.609  1.00  0.00     0.168 HD
HETATM   37  C8  UNL     1      14.544  50.261  80.141  1.00  0.00     0.162 A 
HETATM   38  O4  UNL     1      13.613  51.111  80.437  1.00  0.00    -0.290 OA
ENDBRANCH  31  33
ENDBRANCH  28  31
ENDBRANCH  25  28
ENDBRANCH   3  22
TORSDOF 8
ENDMDL
MODEL 3
REMARK VINA RESULT: -7.926213514      2.500     11.591
REMARK  8 active torsions:
REMARK  status: ('A' for Active; 'I' for Inactive)
REMARK       I    between atoms: C1_2  and  N1_3 
REMARK    1  A    between atoms: C1_2  and  C11_22 
REMARK    2  A    between atoms: N1_3  and  C2_5 
REMARK    3  A    between atoms: C5_8  and  S1_9 
REMARK    4  A    between atoms: S1_9  and  N2_12 
REMARK    5  A    between atoms: N2_12  and  C6_14 
REMARK    6  A    between atoms: C15_26  and  S2_27 
REMARK    7  A    between atoms: S2_27  and  N4_30 
REMARK    8  A    between atoms: N4_30  and  C16_32 
ROOT
HETATM    1  O1  UNL     1      11.399  51.955  88.423  1.00  0.00    -0.267 OA
HETATM    2  C1  UNL     1      12.198  52.914  88.196  1.00  0.00     0.256 C 
HETATM    3  N1  UNL     1      12.444  53.306  86.874  1.00  0.00    -0.323 N 
ATOM      4  H1  UNL     1      13.089  54.086  86.754  1.00  0.00     0.169 HD
ENDROOT
BRANCH   2   5
HETATM    5  C11 UNL     1      12.829  53.567  89.346  1.00  0.00     0.033 A 
HETATM    6  C12 UNL     1      13.882  54.410  89.217  1.00  0.00     0.017 A 
HETATM    7  C13 UNL     1      14.449  55.019  90.345  1.00  0.00     0.003 A 
HETATM    8  C14 UNL     1      13.917  54.745  91.582  1.00  0.00     0.025 A 
HETATM    9  C15 UNL     1      12.845  53.890  91.738  1.00  0.00     0.080 A 
HETATM   10  C22 UNL     1      12.302  53.301  90.616  1.00  0.00     0.042 A 
BRANCH   9  11
HETATM   11  S2  UNL     1      12.236  53.605  93.350  1.00  0.00     0.263 S 
HETATM   12  O5  UNL     1      12.758  52.269  93.799  1.00  0.00    -0.200 OA
HETATM   13  O6  UNL     1      10.715  53.571  93.307  1.00  0.00    -0.200 OA
BRANCH  11  14
HETATM   14  N4  UNL     1      12.742  54.893  94.359  1.00  0.00    -0.281 N 
ATOM     15  H4  UNL     1      13.703  55.233  94.300  1.00  0.00     0.179 HD
BRANCH  14  16
HETATM   16  C16 UNL     1      11.841  55.494  95.274  1.00  0.00     0.042 A 
HETATM   17  C17 UNL     1      11.305  56.747  95.078  1.00  0.00     0.030 A 
HETATM   18  C18 UNL     1      10.438  57.300  95.992  1.00  0.00     0.002 A 
HETATM   19  C19 UNL     1      10.097  56.590  97.130  1.00  0.00     0.000 A 
HETATM   20  C20 UNL     1      10.628  55.337  97.335  1.00  0.00     0.002 A 
HETATM   21  C21 UNL     1      11.482  54.792  96.435  1.00  0.00     0.030 A 
ENDBRANCH  14  16
ENDBRANCH  11  14
ENDBRANCH   9  11
ENDBRANCH   2   5
BRANCH   3  22
HETATM   22  C2  UNL     1      11.913  52.760  85.690  1.00  0.00     0.035 A 
HETATM   23  C3  UNL     1      12.608  51.974  84.816  1.00  0.00     0.031 A 
HETATM   24  C4  UNL     1      11.990  51.451  83.663  1.00  0.00     0.027 A 
HETATM   25  C5  UNL     1      10.673  51.705  83.368  1.00  0.00     0.080 A 
HETATM   26  C9  UNL     1       9.964  52.492  84.237  1.00  0.00     0.027 A 
HETATM   27  C10 UNL     1      10.565  53.002  85.361  1.00  0.00     0.031 A 
BRANCH  25  28
HETATM   28  S1  UNL     1       9.928  51.047  81.936  1.00  0.00     0.265 S 
HETATM   29  O2  UNL     1       9.612  49.608  82.187  1.00  0.00    -0.200 OA
HETATM   30  O3  UNL     1       8.614  51.745  81.662  1.00  0.00    -0.200 OA
BRANCH  28  31
HETATM   31  N2  UNL     1      10.936  51.226  80.569  1.00  0.00    -0.245 N 
ATOM     32  H2  UNL     1      10.736  51.993  79.927  1.00  0.00     0.182 HD
BRANCH  31  33
HETATM   33  C6  UNL     1      11.927  50.462  80.296  1.00  0.00     0.237 A 
HETATM   34  N3  UNL     1      11.948  49.193  79.865  1.00  0.00    -0.330 N 
HETATM   35  C7  UNL     1      13.226  48.826  79.723  1.00  0.00     0.116 A 
ATOM     36  H3  UNL     1      11.133  48.609  79.678  1.00  0.00     0.168 HD
HETATM   37  C8  UNL     1      13.989  49.906  80.080  1.00  0.00     0.162 A 
HETATM   38  O4  UNL     1      13.184  50.864  80.416  1.00  0.00    -0.290 OA
ENDBRANCH  31  33
ENDBRANCH  28  31
ENDBRANCH  25  28
ENDBRANCH   3  22
TORSDOF 8
ENDMDL
MODEL 4
REMARK VINA RESULT: -7.835154030      2.571     11.408
REMARK  8 active torsions:
REMARK  status: ('A' for Active; 'I' for Inactive)
REMARK       I    between atoms: C1_2  and  N1_3 
REMARK    1  A    between atoms: C1_2  and  C11_22 
REMARK    2  A    between atoms: N1_3  and  C2_5 
REMARK    3  A    between atoms: C5_8  and  S1_9 
REMARK    4  A    between atoms: S1_9  and  N2_12 
REMARK    5  A    between atoms: N2_12  and  C6_14 
REMARK    6  A    between atoms: C15_26  and  S2_27 
REMARK    7  A    between atoms: S2_27  and  N4_30 
REMARK    8  A    between atoms: N4_30  and  C16_32 
ROOT
HETATM    1  O1  UNL     1      11.198  51.952  88.581  1.00  0.00    -0.267 OA
HETATM    2  C1  UNL     1      12.062  52.861  88.388  1.00  0.00     0.256 C 
HETATM    3  N1  UNL     1      12.379  53.240  87.078  1.00  0.00    -0.323 N 
ATOM      4  H1  UNL     1      13.075  53.980  86.985  1.00  0.00     0.169 HD
ENDROOT
BRANCH   2   5
HETATM    5  C11 UNL     1      12.688  53.471  89.563  1.00  0.00     0.033 A 
HETATM    6  C12 UNL     1      13.632  54.440  89.465  1.00  0.00     0.017 A 
HETATM    7  C13 UNL     1      14.198  55.002  90.618  1.00  0.00     0.003 A 
HETATM    8  C14 UNL     1      13.779  54.552  91.846  1.00  0.00     0.025 A 
HETATM    9  C15 UNL     1      12.821  53.567  91.972  1.00  0.00     0.080 A 
HETATM   10  C22 UNL     1      12.276  53.028  90.826  1.00  0.00     0.042 A 
BRANCH   9  11
HETATM   11  S2  UNL     1      12.350  53.063  93.576  1.00  0.00     0.263 S 
HETATM   12  O5  UNL     1      13.410  53.545  94.528  1.00  0.00    -0.200 OA
HETATM   13  O6  UNL     1      12.279  51.543  93.618  1.00  0.00    -0.200 OA
BRANCH  11  14
HETATM   14  N4  UNL     1      10.802  53.709  93.918  1.00  0.00    -0.281 N 
ATOM     15  H4  UNL     1       9.967  53.198  93.631  1.00  0.00     0.179 HD
BRANCH  14  16
HETATM   16  C16 UNL     1      10.667  54.949  94.594  1.00  0.00     0.042 A 
HETATM   17  C17 UNL     1      11.709  55.840  94.730  1.00  0.00     0.030 A 
HETATM   18  C18 UNL     1      11.543  57.030  95.399  1.00  0.00     0.002 A 
HETATM   19  C19 UNL     1      10.311  57.343  95.946  1.00  0.00     0.000 A 
HETATM   20  C20 UNL     1       9.264  56.460  95.815  1.00  0.00     0.002 A 
HETATM   21  C21 UNL     1       9.427  55.286  95.157  1.00  0.00     0.030 A 
ENDBRANCH  14  16
ENDBRANCH  11  14
ENDBRANCH   9  11
ENDBRANCH   2   5
BRANCH   3  22
HETATM   22  C2  UNL     1      11.861  52.730  85.873  1.00  0.00     0.035 A 
HETATM   23  C3  UNL     1      12.562  51.963  84.987  1.00  0.00     0.031 A 
HETATM   24  C4  UNL     1      11.956  51.475  83.812  1.00  0.00     0.027 A 
HETATM   25  C5  UNL     1      10.644  51.747  83.507  1.00  0.00     0.080 A 
HETATM   26  C9  UNL     1       9.930  52.516  84.387  1.00  0.00     0.027 A 
HETATM   27  C10 UNL     1      10.519  52.991  85.532  1.00  0.00     0.031 A 
BRANCH  25  28
HETATM   28  S1  UNL     1       9.914  51.133  82.048  1.00  0.00     0.265 S 
HETATM   29  O2  UNL     1       9.569  49.695  82.262  1.00  0.00    -0.200 OA
HETATM   30  O3  UNL     1       8.618  51.861  81.767  1.00  0.00    -0.200 OA
BRANCH  28  31
HETATM   31  N2  UNL     1      10.949  51.324  80.703  1.00  0.00    -0.245 N 
ATOM     32  H2  UNL     1      10.812  52.142  80.109  1.00  0.00     0.182 HD
BRANCH  31  33
HETATM   33  C6  UNL     1      11.887  50.509  80.390  1.00  0.00     0.237 A 
HETATM   34  N3  UNL     1      11.822  49.250  79.935  1.00  0.00    -0.330 N 
HETATM   35  C7  UNL     1      13.073  48.812  79.754  1.00  0.00     0.116 A 
ATOM     36  H3  UNL     1      10.970  48.719  79.758  1.00  0.00     0.168 HD
HETATM   37  C8  UNL     1      13.906  49.838  80.111  1.00  0.00     0.162 A 
HETATM   38  O4  UNL     1      13.168  50.834  80.485  1.00  0.00    -0.290 OA
ENDBRANCH  31  33
ENDBRANCH  28  31
ENDBRANCH  25  28
ENDBRANCH   3  22
TORSDOF 8
ENDMDL
MODEL 5
REMARK VINA RESULT: -7.784443773      2.795     11.935
REMARK  8 active torsions:
REMARK  status: ('A' for Active; 'I' for Inactive)
REMARK       I    between atoms: C1_2  and  N1_3 
REMARK    1  A    between atoms: C1_2  and  C11_22 
REMARK    2  A    between atoms: N1_3  and  C2_5 
REMARK    3  A    between atoms: C5_8  and  S1_9 
REMARK    4  A    between atoms: S1_9  and  N2_12 
REMARK    5  A    between atoms: N2_12  and  C6_14 
REMARK    6  A    between atoms: C15_26  and  S2_27 
REMARK    7  A    between atoms: S2_27  and  N4_30 
REMARK    8  A    between atoms: N4_30  and  C16_32 
ROOT
HETATM    1  O1  UNL     1      11.385  51.910  88.242  1.00  0.00    -0.267 OA
HETATM    2  C1  UNL     1      12.172  52.875  87.998  1.00  0.00     0.256 C 
HETATM    3  N1  UNL     1      12.408  53.250  86.670  1.00  0.00    -0.323 N 
ATOM      4  H1  UNL     1      13.044  54.036  86.536  1.00  0.00     0.169 HD
ENDROOT
BRANCH   2   5
HETATM    5  C11 UNL     1      12.799  53.551  89.136  1.00  0.00     0.033 A 
HETATM    6  C12 UNL     1      13.860  54.383  88.994  1.00  0.00     0.017 A 
HETATM    7  C13 UNL     1      14.424  55.016  90.111  1.00  0.00     0.003 A 
HETATM    8  C14 UNL     1      13.879  54.777  91.350  1.00  0.00     0.025 A 
HETATM    9  C15 UNL     1      12.800  53.934  91.520  1.00  0.00     0.080 A 
HETATM   10  C22 UNL     1      12.261  53.322  90.409  1.00  0.00     0.042 A 
BRANCH   9  11
HETATM   11  S2  UNL     1      12.176  53.695  93.134  1.00  0.00     0.263 S 
HETATM   12  O5  UNL     1      12.694  52.371  93.624  1.00  0.00    -0.200 OA
HETATM   13  O6  UNL     1      10.656  53.661  93.078  1.00  0.00    -0.200 OA
BRANCH  11  14
HETATM   14  N4  UNL     1      12.675  55.010  94.110  1.00  0.00    -0.281 N 
ATOM     15  H4  UNL     1      13.589  55.437  93.954  1.00  0.00     0.179 HD
BRANCH  14  16
HETATM   16  C16 UNL     1      11.832  55.513  95.134  1.00  0.00     0.042 A 
HETATM   17  C17 UNL     1      11.269  56.769  95.085  1.00  0.00     0.030 A 
HETATM   18  C18 UNL     1      10.461  57.225  96.100  1.00  0.00     0.002 A 
HETATM   19  C19 UNL     1      10.208  56.413  97.192  1.00  0.00     0.000 A 
HETATM   20  C20 UNL     1      10.765  55.157  97.250  1.00  0.00     0.002 A 
HETATM   21  C21 UNL     1      11.562  54.707  96.251  1.00  0.00     0.030 A 
ENDBRANCH  14  16
ENDBRANCH  11  14
ENDBRANCH   9  11
ENDBRANCH   2   5
BRANCH   3  22
HETATM   22  C2  UNL     1      11.879  52.681  85.496  1.00  0.00     0.035 A 
HETATM   23  C3  UNL     1      10.616  52.900  85.026  1.00  0.00     0.031 A 
HETATM   24  C4  UNL     1      10.176  52.303  83.827  1.00  0.00     0.027 A 
HETATM   25  C5  UNL     1      10.989  51.483  83.085  1.00  0.00     0.080 A 
HETATM   26  C9  UNL     1      12.259  51.255  83.546  1.00  0.00     0.027 A 
HETATM   27  C10 UNL     1      12.689  51.835  84.713  1.00  0.00     0.031 A 
BRANCH  25  28
HETATM   28  S1  UNL     1      10.424  50.756  81.604  1.00  0.00     0.265 S 
HETATM   29  O2  UNL     1      11.376  49.670  81.219  1.00  0.00    -0.200 OA
HETATM   30  O3  UNL     1       9.077  50.105  81.823  1.00  0.00    -0.200 OA
BRANCH  28  31
HETATM   31  N2  UNL     1      10.275  51.914  80.358  1.00  0.00    -0.245 N 
ATOM     32  H2  UNL     1      10.528  52.879  80.572  1.00  0.00     0.182 HD
BRANCH  31  33
HETATM   33  C6  UNL     1       9.867  51.652  79.172  1.00  0.00     0.237 A 
HETATM   34  N3  UNL     1       9.404  50.507  78.649  1.00  0.00    -0.330 N 
HETATM   35  C7  UNL     1       9.104  50.732  77.366  1.00  0.00     0.116 A 
ATOM     36  H3  UNL     1       9.300  49.622  79.143  1.00  0.00     0.168 HD
HETATM   37  C8  UNL     1       9.395  52.046  77.116  1.00  0.00     0.162 A 
HETATM   38  O4  UNL     1       9.848  52.565  78.212  1.00  0.00    -0.290 OA
ENDBRANCH  31  33
ENDBRANCH  28  31
ENDBRANCH  25  28
ENDBRANCH   3  22
TORSDOF 8
ENDMDL
