MODEL 1
REMARK VINA RESULT: -6.567818459      0.000      0.000
REMARK  9 active torsions:
REMARK  status: ('A' for Active; 'I' for Inactive)
REMARK    1  A    between atoms: C2_2  and  C3_3 
REMARK    2  A    between atoms: C3_3  and  C4_4 
REMARK    3  A    between atoms: C4_4  and  C5_5 
REMARK    4  A    between atoms: C7_10  and  C8_11 
REMARK    5  A    between atoms: C8_11  and  C9_12 
REMARK    6  A    between atoms: C13_19  and  C14_20 
REMARK    7  A    between atoms: C21_34  and  C22_35 
REMARK    8  A    between atoms: C22_35  and  C23_36 
REMARK    9  A    between atoms: C29_42  and  O7_43 
ROOT
HETATM    1  C5  UNL     1      13.865  52.989  95.629  1.00  0.00     0.115 C 
HETATM    2  N1  UNL     1      13.823  54.381  96.012  1.00  0.00    -0.352 N 
ATOM      3  H1  UNL     1      14.718  54.789  96.283  1.00  0.00     0.163 HD
HETATM    4  C6  UNL     1      12.734  55.242  96.064  1.00  0.00     0.240 C 
HETATM    5  O1  UNL     1      12.815  56.343  95.409  1.00  0.00    -0.271 OA
HETATM    6  C7  UNL     1      11.449  55.068  96.790  1.00  0.00     0.177 C 
HETATM    7  N2  UNL     1      10.380  55.589  95.925  1.00  0.00    -0.346 N 
ATOM      8  H2  UNL     1      10.631  56.315  95.254  1.00  0.00     0.163 HD
HETATM    9  C12 UNL     1       9.047  55.168  95.951  1.00  0.00     0.259 C 
HETATM   10  O2  UNL     1       8.177  56.069  95.681  1.00  0.00    -0.271 OA
HETATM   11  C13 UNL     1       8.531  53.839  96.246  1.00  0.00     0.374 C 
HETATM   12  N3  UNL     1       8.166  53.032  95.130  1.00  0.00     0.106 N 
HETATM   13  C15 UNL     1       7.736  51.740  95.630  1.00  0.00     0.311 C 
HETATM   14  C16 UNL     1       7.142  53.563  94.288  1.00  0.00     0.299 C 
HETATM   15  C17 UNL     1       7.716  53.891  92.903  1.00  0.00     0.198 C 
HETATM   16  O4  UNL     1       7.832  52.699  92.157  1.00  0.00    -0.387 OA
HETATM   17  C18 UNL     1       8.993  52.683  91.406  1.00  0.00     0.194 C 
HETATM   18  C19 UNL     1      10.025  51.727  92.022  1.00  0.00     0.207 C 
HETATM   19  O5  UNL     1      11.147  51.776  91.211  1.00  0.00    -0.302 OA
HETATM   20  C20 UNL     1      12.386  51.244  91.383  1.00  0.00     0.361 C 
HETATM   21  O6  UNL     1      12.934  50.410  90.595  1.00  0.00    -0.239 OA
HETATM   22  N4  UNL     1      13.173  51.610  92.509  1.00  0.00    -0.330 N 
ATOM     23  H4  UNL     1      13.870  50.937  92.826  1.00  0.00     0.165 HD
HETATM   24  C21 UNL     1      13.075  52.841  93.241  1.00  0.00     0.117 C 
HETATM   25  C29 UNL     1      12.800  52.566  94.683  1.00  0.00     0.163 C 
ENDROOT
BRANCH  24  26
HETATM   26  C22 UNL     1      14.342  53.612  92.990  1.00  0.00     0.032 C 
BRANCH  26  27
HETATM   27  C23 UNL     1      13.940  54.992  92.480  1.00  0.00    -0.013 C 
HETATM   28  C24 UNL     1      12.839  54.730  91.454  1.00  0.00     0.005 C 
HETATM   29  C25 UNL     1      13.411  54.555  90.063  1.00  0.00     0.000 C 
HETATM   30  C26 UNL     1      13.974  55.851  89.524  1.00  0.00     0.000 C 
HETATM   31  C27 UNL     1      14.668  56.564  90.658  1.00  0.00     0.000 C 
HETATM   32  C28 UNL     1      15.113  55.520  91.667  1.00  0.00     0.005 C 
ENDBRANCH  26  27
ENDBRANCH  24  26
BRANCH  25  33
HETATM   33  O7  UNL     1      12.542  51.211  94.881  1.00  0.00    -0.391 OA
ATOM     34  H7  UNL     1      12.500  50.783  94.035  1.00  0.00     0.210 HD
ENDBRANCH  25  33
BRANCH   1  35
HETATM   35  C4  UNL     1      13.743  52.167  96.895  1.00  0.00     0.031 C 
BRANCH  35  36
HETATM   36  C3  UNL     1      14.849  52.664  97.825  1.00  0.00     0.028 C 
BRANCH  36  37
HETATM   37  C2  UNL     1      16.124  51.921  97.598  1.00  0.00    -0.037 C 
HETATM   38  C1  UNL     1      17.270  52.303  98.143  1.00  0.00     0.007 C 
ENDBRANCH  36  37
ENDBRANCH  35  36
ENDBRANCH   1  35
BRANCH   6  39
HETATM   39  C8  UNL     1      11.531  56.069  97.952  1.00  0.00     0.038 C 
BRANCH  39  40
HETATM   40  C9  UNL     1      11.656  55.419  99.285  1.00  0.00    -0.020 C 
HETATM   41  C10 UNL     1      11.301  53.940  99.078  1.00  0.00     0.009 C 
HETATM   42  C11 UNL     1      10.530  55.943 100.186  1.00  0.00     0.009 C 
ENDBRANCH  39  40
ENDBRANCH   6  39
BRANCH  11  43
HETATM   43  C14 UNL     1       7.350  53.985  97.166  1.00  0.00     0.276 C 
HETATM   44  O3  UNL     1       7.476  54.182  98.366  1.00  0.00    -0.304 OA
ENDBRANCH  11  43
TORSDOF 9
ENDMDL
MODEL 2
REMARK VINA RESULT: -6.257920917      2.414      6.448
REMARK  9 active torsions:
REMARK  status: ('A' for Active; 'I' for Inactive)
REMARK    1  A    between atoms: C2_2  and  C3_3 
REMARK    2  A    between atoms: C3_3  and  C4_4 
REMARK    3  A    between atoms: C4_4  and  C5_5 
REMARK    4  A    between atoms: C7_10  and  C8_11 
REMARK    5  A    between atoms: C8_11  and  C9_12 
REMARK    6  A    between atoms: C13_19  and  C14_20 
REMARK    7  A    between atoms: C21_34  and  C22_35 
REMARK    8  A    between atoms: C22_35  and  C23_36 
REMARK    9  A    between atoms: C29_42  and  O7_43 
ROOT
HETATM    1  C5  UNL     1      12.620  55.072  95.645  1.00  0.00     0.115 C 
HETATM    2  N1  UNL     1      13.617  55.268  94.619  1.00  0.00    -0.352 N 
ATOM      3  H1  UNL     1      14.376  55.906  94.860  1.00  0.00     0.163 HD
HETATM    4  C6  UNL     1      13.687  54.709  93.349  1.00  0.00     0.240 C 
HETATM    5  O1  UNL     1      14.765  54.087  93.032  1.00  0.00    -0.271 OA
HETATM    6  C7  UNL     1      12.665  54.728  92.271  1.00  0.00     0.177 C 
HETATM    7  N2  UNL     1      12.689  53.411  91.617  1.00  0.00    -0.346 N 
ATOM      8  H2  UNL     1      13.565  52.889  91.645  1.00  0.00     0.163 HD
HETATM    9  C12 UNL     1      11.608  52.818  90.960  1.00  0.00     0.259 C 
HETATM   10  O2  UNL     1      11.906  52.083  89.954  1.00  0.00    -0.271 OA
HETATM   11  C13 UNL     1      10.191  52.935  91.276  1.00  0.00     0.374 C 
HETATM   12  N3  UNL     1       9.607  51.855  91.999  1.00  0.00     0.106 N 
HETATM   13  C15 UNL     1       8.220  52.187  92.263  1.00  0.00     0.311 C 
HETATM   14  C16 UNL     1       9.659  50.579  91.359  1.00  0.00     0.299 C 
HETATM   15  C17 UNL     1      10.565  49.628  92.154  1.00  0.00     0.198 C 
HETATM   16  O4  UNL     1       9.853  49.137  93.269  1.00  0.00    -0.387 OA
HETATM   17  C18 UNL     1      10.661  49.052  94.388  1.00  0.00     0.194 C 
HETATM   18  C19 UNL     1      10.327  50.171  95.385  1.00  0.00     0.207 C 
HETATM   19  O5  UNL     1      11.180  50.010  96.465  1.00  0.00    -0.302 OA
HETATM   20  C20 UNL     1      11.403  50.808  97.542  1.00  0.00     0.361 C 
HETATM   21  O6  UNL     1      11.227  50.461  98.752  1.00  0.00    -0.239 OA
HETATM   22  N4  UNL     1      11.868  52.140  97.362  1.00  0.00    -0.330 N 
ATOM     23  H4  UNL     1      11.644  52.813  98.095  1.00  0.00     0.165 HD
HETATM   24  C21 UNL     1      12.624  52.625  96.243  1.00  0.00     0.117 C 
HETATM   25  C29 UNL     1      11.913  53.767  95.593  1.00  0.00     0.163 C 
ENDROOT
BRANCH  24  26
HETATM   26  C22 UNL     1      14.001  52.960  96.745  1.00  0.00     0.032 C 
BRANCH  26  27
HETATM   27  C23 UNL     1      14.612  51.673  97.289  1.00  0.00    -0.013 C 
HETATM   28  C24 UNL     1      15.504  52.116  98.447  1.00  0.00     0.005 C 
HETATM   29  C25 UNL     1      16.915  52.403  97.979  1.00  0.00     0.000 C 
HETATM   30  C26 UNL     1      17.632  51.138  97.560  1.00  0.00     0.000 C 
HETATM   31  C27 UNL     1      16.642  50.263  96.832  1.00  0.00     0.000 C 
HETATM   32  C28 UNL     1      15.575  51.159  96.229  1.00  0.00     0.005 C 
ENDBRANCH  26  27
ENDBRANCH  24  26
BRANCH  25  33
HETATM   33  O7  UNL     1      10.642  53.927  96.141  1.00  0.00    -0.391 OA
ATOM     34  H7  UNL     1      10.012  53.989  95.434  1.00  0.00     0.210 HD
ENDBRANCH  25  33
BRANCH   1  35
HETATM   35  C4  UNL     1      11.599  56.182  95.502  1.00  0.00     0.031 C 
BRANCH  35  36
HETATM   36  C3  UNL     1      12.219  57.410  96.168  1.00  0.00     0.028 C 
BRANCH  36  37
HETATM   37  C2  UNL     1      11.176  58.411  96.537  1.00  0.00    -0.037 C 
HETATM   38  C1  UNL     1       9.917  58.066  96.768  1.00  0.00     0.007 C 
ENDBRANCH  36  37
ENDBRANCH  35  36
ENDBRANCH   1  35
BRANCH   6  39
HETATM   39  C8  UNL     1      13.236  55.693  91.221  1.00  0.00     0.038 C 
BRANCH  39  40
HETATM   40  C9  UNL     1      14.438  55.162  90.522  1.00  0.00    -0.020 C 
HETATM   41  C10 UNL     1      15.492  56.277  90.569  1.00  0.00     0.009 C 
HETATM   42  C11 UNL     1      14.109  55.032  89.029  1.00  0.00     0.009 C 
ENDBRANCH  39  40
ENDBRANCH   6  39
BRANCH  11  43
HETATM   43  C14 UNL     1       9.436  53.145  89.993  1.00  0.00     0.276 C 
HETATM   44  O3  UNL     1       9.330  54.245  89.469  1.00  0.00    -0.304 OA
ENDBRANCH  11  43
TORSDOF 9
ENDMDL
MODEL 3
REMARK VINA RESULT: -6.180928875      2.455      5.035
REMARK  9 active torsions:
REMARK  status: ('A' for Active; 'I' for Inactive)
REMARK    1  A    between atoms: C2_2  and  C3_3 
REMARK    2  A    between atoms: C3_3  and  C4_4 
REMARK    3  A    between atoms: C4_4  and  C5_5 
REMARK    4  A    between atoms: C7_10  and  C8_11 
REMARK    5  A    between atoms: C8_11  and  C9_12 
REMARK    6  A    between atoms: C13_19  and  C14_20 
REMARK    7  A    between atoms: C21_34  and  C22_35 
REMARK    8  A    between atoms: C22_35  and  C23_36 
REMARK    9  A    between atoms: C29_42  and  O7_43 
ROOT
HETATM    1  C5  UNL     1      12.572  54.153  92.448  1.00  0.00     0.115 C 
HETATM    2  N1  UNL     1      11.269  54.644  92.830  1.00  0.00    -0.352 N 
ATOM      3  H1  UNL     1      10.799  55.227  92.137  1.00  0.00     0.163 HD
HETATM    4  C6  UNL     1      10.567  54.435  94.010  1.00  0.00     0.240 C 
HETATM    5  O1  UNL     1       9.378  53.957  93.918  1.00  0.00    -0.271 OA
HETATM    6  C7  UNL     1      11.004  54.693  95.407  1.00  0.00     0.177 C 
HETATM    7  N2  UNL     1      10.496  53.590  96.238  1.00  0.00    -0.346 N 
ATOM      8  H2  UNL     1       9.652  53.113  95.920  1.00  0.00     0.163 HD
HETATM    9  C12 UNL     1      11.076  53.146  97.429  1.00  0.00     0.259 C 
HETATM   10  O2  UNL     1      10.260  52.708  98.313  1.00  0.00    -0.271 OA
HETATM   11  C13 UNL     1      12.489  53.123  97.786  1.00  0.00     0.374 C 
HETATM   12  N3  UNL     1      13.158  51.872  97.661  1.00  0.00     0.106 N 
HETATM   13  C15 UNL     1      14.554  52.072  98.005  1.00  0.00     0.311 C 
HETATM   14  C16 UNL     1      12.638  50.807  98.459  1.00  0.00     0.299 C 
HETATM   15  C17 UNL     1      12.039  49.719  97.557  1.00  0.00     0.198 C 
HETATM   16  O4  UNL     1      13.083  48.930  97.030  1.00  0.00    -0.387 OA
HETATM   17  C18 UNL     1      12.843  48.590  95.711  1.00  0.00     0.194 C 
HETATM   18  C19 UNL     1      13.746  49.401  94.769  1.00  0.00     0.207 C 
HETATM   19  O5  UNL     1      13.439  48.999  93.479  1.00  0.00    -0.302 OA
HETATM   20  C20 UNL     1      13.834  49.501  92.280  1.00  0.00     0.361 C 
HETATM   21  O6  UNL     1      14.466  48.847  91.392  1.00  0.00    -0.239 OA
HETATM   22  N4  UNL     1      13.545  50.851  91.938  1.00  0.00    -0.330 N 
ATOM     23  H4  UNL     1      14.167  51.302  91.267  1.00  0.00     0.165 HD
HETATM   24  C21 UNL     1      12.459  51.636  92.450  1.00  0.00     0.117 C 
HETATM   25  C29 UNL     1      12.978  52.879  93.096  1.00  0.00     0.163 C 
ENDROOT
BRANCH  24  26
HETATM   26  C22 UNL     1      11.509  51.883  91.310  1.00  0.00     0.032 C 
BRANCH  26  27
HETATM   27  C23 UNL     1      12.267  51.598  90.018  1.00  0.00    -0.013 C 
HETATM   28  C24 UNL     1      12.252  52.918  89.251  1.00  0.00     0.005 C 
HETATM   29  C25 UNL     1      11.047  53.015  88.339  1.00  0.00     0.000 C 
HETATM   30  C26 UNL     1      11.140  52.038  87.187  1.00  0.00     0.000 C 
HETATM   31  C27 UNL     1      11.722  50.751  87.715  1.00  0.00     0.000 C 
HETATM   32  C28 UNL     1      11.396  50.659  89.195  1.00  0.00     0.005 C 
ENDBRANCH  26  27
ENDBRANCH  24  26
BRANCH  25  33
HETATM   33  O7  UNL     1      14.369  52.844  93.176  1.00  0.00    -0.391 OA
ATOM     34  H7  UNL     1      14.617  52.251  93.876  1.00  0.00     0.210 HD
ENDBRANCH  25  33
BRANCH   1  35
HETATM   35  C4  UNL     1      13.583  55.222  92.807  1.00  0.00     0.031 C 
BRANCH  35  36
HETATM   36  C3  UNL     1      13.547  56.234  91.663  1.00  0.00     0.028 C 
BRANCH  36  37
HETATM   37  C2  UNL     1      14.345  55.760  90.494  1.00  0.00    -0.037 C 
HETATM   38  C1  UNL     1      15.606  55.371  90.612  1.00  0.00     0.007 C 
ENDBRANCH  36  37
ENDBRANCH  35  36
ENDBRANCH   1  35
BRANCH   6  39
HETATM   39  C8  UNL     1      10.185  55.917  95.842  1.00  0.00     0.038 C 
BRANCH  39  40
HETATM   40  C9  UNL     1      10.934  56.841  96.738  1.00  0.00    -0.020 C 
HETATM   41  C10 UNL     1      10.157  58.165  96.737  1.00  0.00     0.009 C 
HETATM   42  C11 UNL     1      12.264  57.196  96.060  1.00  0.00     0.009 C 
ENDBRANCH  39  40
ENDBRANCH   6  39
BRANCH  11  43
HETATM   43  C14 UNL     1      12.627  53.629  99.195  1.00  0.00     0.276 C 
HETATM   44  O3  UNL     1      12.456  54.803  99.489  1.00  0.00    -0.304 OA
ENDBRANCH  11  43
TORSDOF 9
ENDMDL
MODEL 4
REMARK VINA RESULT: -5.983505063      2.192      6.411
REMARK  9 active torsions:
REMARK  status: ('A' for Active; 'I' for Inactive)
REMARK    1  A    between atoms: C2_2  and  C3_3 
REMARK    2  A    between atoms: C3_3  and  C4_4 
REMARK    3  A    between atoms: C4_4  and  C5_5 
REMARK    4  A    between atoms: C7_10  and  C8_11 
REMARK    5  A    between atoms: C8_11  and  C9_12 
REMARK    6  A    between atoms: C13_19  and  C14_20 
REMARK    7  A    between atoms: C21_34  and  C22_35 
REMARK    8  A    between atoms: C22_35  and  C23_36 
REMARK    9  A    between atoms: C29_42  and  O7_43 
ROOT
HETATM    1  C5  UNL     1      12.816  55.065  95.750  1.00  0.00     0.115 C 
HETATM    2  N1  UNL     1      13.763  54.825  94.687  1.00  0.00    -0.352 N 
ATOM      3  H1  UNL     1      14.627  55.364  94.738  1.00  0.00     0.163 HD
HETATM    4  C6  UNL     1      13.662  53.961  93.603  1.00  0.00     0.240 C 
HETATM    5  O1  UNL     1      14.605  53.106  93.434  1.00  0.00    -0.271 OA
HETATM    6  C7  UNL     1      12.588  53.881  92.579  1.00  0.00     0.177 C 
HETATM    7  N2  UNL     1      12.362  52.457  92.288  1.00  0.00    -0.346 N 
ATOM      8  H2  UNL     1      13.145  51.818  92.431  1.00  0.00     0.163 HD
HETATM    9  C12 UNL     1      11.160  51.910  91.829  1.00  0.00     0.259 C 
HETATM   10  O2  UNL     1      11.274  50.906  91.041  1.00  0.00    -0.271 OA
HETATM   11  C13 UNL     1       9.803  52.341  92.136  1.00  0.00     0.374 C 
HETATM   12  N3  UNL     1       9.104  51.592  93.126  1.00  0.00     0.106 N 
HETATM   13  C15 UNL     1       7.806  52.210  93.324  1.00  0.00     0.311 C 
HETATM   14  C16 UNL     1       8.912  50.206  92.836  1.00  0.00     0.299 C 
HETATM   15  C17 UNL     1       9.705  49.347  93.831  1.00  0.00     0.198 C 
HETATM   16  O4  UNL     1       8.999  49.280  95.050  1.00  0.00    -0.387 OA
HETATM   17  C18 UNL     1       9.853  49.343  96.134  1.00  0.00     0.194 C 
HETATM   18  C19 UNL     1       9.765  50.717  96.816  1.00  0.00     0.207 C 
HETATM   19  O5  UNL     1      10.649  50.691  97.882  1.00  0.00    -0.302 OA
HETATM   20  C20 UNL     1      11.065  51.685  98.710  1.00  0.00     0.361 C 
HETATM   21  O6  UNL     1      10.914  51.688  99.973  1.00  0.00    -0.239 OA
HETATM   22  N4  UNL     1      11.721  52.830  98.182  1.00  0.00    -0.330 N 
ATOM     23  H4  UNL     1      11.654  53.693  98.721  1.00  0.00     0.165 HD
HETATM   24  C21 UNL     1      12.471  52.882  96.959  1.00  0.00     0.117 C 
HETATM   25  C29 UNL     1      11.909  53.927  96.052  1.00  0.00     0.163 C 
ENDROOT
BRANCH  24  26
HETATM   26  C22 UNL     1      13.914  53.095  97.328  1.00  0.00     0.032 C 
BRANCH  26  27
HETATM   27  C23 UNL     1      14.524  51.721  97.584  1.00  0.00    -0.013 C 
HETATM   28  C24 UNL     1      15.584  51.952  98.660  1.00  0.00     0.005 C 
HETATM   29  C25 UNL     1      16.933  52.264  98.047  1.00  0.00     0.000 C 
HETATM   30  C26 UNL     1      17.521  51.058  97.349  1.00  0.00     0.000 C 
HETATM   31  C27 UNL     1      16.400  50.336  96.644  1.00  0.00     0.000 C 
HETATM   32  C28 UNL     1      15.310  51.348  96.336  1.00  0.00     0.005 C 
ENDBRANCH  26  27
ENDBRANCH  24  26
BRANCH  25  33
HETATM   33  O7  UNL     1      10.718  54.433  96.568  1.00  0.00    -0.391 OA
ATOM     34  H7  UNL     1       9.999  53.901  96.248  1.00  0.00     0.210 HD
ENDBRANCH  25  33
BRANCH   1  35
HETATM   35  C4  UNL     1      11.976  56.259  95.347  1.00  0.00     0.031 C 
BRANCH  35  36
HETATM   36  C3  UNL     1      12.381  57.393  96.288  1.00  0.00     0.028 C 
BRANCH  36  37
HETATM   37  C2  UNL     1      11.295  58.410  96.409  1.00  0.00    -0.037 C 
HETATM   38  C1  UNL     1      10.059  58.086  96.760  1.00  0.00     0.007 C 
ENDBRANCH  36  37
ENDBRANCH  35  36
ENDBRANCH   1  35
BRANCH   6  39
HETATM   39  C8  UNL     1      13.236  54.440  91.304  1.00  0.00     0.038 C 
BRANCH  39  40
HETATM   40  C9  UNL     1      14.132  55.602  91.556  1.00  0.00    -0.020 C 
HETATM   41  C10 UNL     1      13.507  56.796  90.820  1.00  0.00     0.009 C 
HETATM   42  C11 UNL     1      15.453  55.364  90.813  1.00  0.00     0.009 C 
ENDBRANCH  39  40
ENDBRANCH   6  39
BRANCH  11  43
HETATM   43  C14 UNL     1       9.010  52.346  90.858  1.00  0.00     0.276 C 
HETATM   44  O3  UNL     1       9.009  53.300  90.093  1.00  0.00    -0.304 OA
ENDBRANCH  11  43
TORSDOF 9
ENDMDL
MODEL 5
REMARK VINA RESULT: -5.909772469      1.710      6.674
REMARK  9 active torsions:
REMARK  status: ('A' for Active; 'I' for Inactive)
REMARK    1  A    between atoms: C2_2  and  C3_3 
REMARK    2  A    between atoms: C3_3  and  C4_4 
REMARK    3  A    between atoms: C4_4  and  C5_5 
REMARK    4  A    between atoms: C7_10  and  C8_11 
REMARK    5  A    between atoms: C8_11  and  C9_12 
REMARK    6  A    between atoms: C13_19  and  C14_20 
REMARK    7  A    between atoms: C21_34  and  C22_35 
REMARK    8  A    between atoms: C22_35  and  C23_36 
REMARK    9  A    between atoms: C29_42  and  O7_43 
ROOT
HETATM    1  C5  UNL     1      13.709  54.448  93.954  1.00  0.00     0.115 C 
HETATM    2  N1  UNL     1      14.042  53.198  93.312  1.00  0.00    -0.352 N 
ATOM      3  H1  UNL     1      15.014  53.102  93.015  1.00  0.00     0.163 HD
HETATM    4  C6  UNL     1      13.225  52.108  93.041  1.00  0.00     0.240 C 
HETATM    5  O1  UNL     1      13.600  50.960  93.479  1.00  0.00    -0.271 OA
HETATM    6  C7  UNL     1      11.940  52.076  92.295  1.00  0.00     0.177 C 
HETATM    7  N2  UNL     1      11.051  51.132  92.989  1.00  0.00    -0.346 N 
ATOM      8  H2  UNL     1      11.488  50.380  93.523  1.00  0.00     0.163 HD
HETATM    9  C12 UNL     1       9.654  51.182  92.975  1.00  0.00     0.259 C 
HETATM   10  O2  UNL     1       9.059  50.049  93.024  1.00  0.00    -0.271 OA
HETATM   11  C13 UNL     1       8.799  52.360  92.910  1.00  0.00     0.374 C 
HETATM   12  N3  UNL     1       8.232  52.806  94.139  1.00  0.00     0.106 N 
HETATM   13  C15 UNL     1       7.469  54.010  93.872  1.00  0.00     0.311 C 
HETATM   14  C16 UNL     1       7.389  51.868  94.810  1.00  0.00     0.299 C 
HETATM   15  C17 UNL     1       8.032  51.438  96.136  1.00  0.00     0.198 C 
HETATM   16  O4  UNL     1       7.824  52.447  97.099  1.00  0.00    -0.387 OA
HETATM   17  C18 UNL     1       8.939  52.621  97.899  1.00  0.00     0.194 C 
HETATM   18  C19 UNL     1       9.675  53.918  97.530  1.00  0.00     0.207 C 
HETATM   19  O5  UNL     1      10.770  54.008  98.374  1.00  0.00    -0.302 OA
HETATM   20  C20 UNL     1      11.820  54.871  98.371  1.00  0.00     0.361 C 
HETATM   21  O6  UNL     1      12.124  55.648  99.330  1.00  0.00    -0.239 OA
HETATM   22  N4  UNL     1      12.675  54.954  97.238  1.00  0.00    -0.330 N 
ATOM     23  H4  UNL     1      13.165  55.836  97.091  1.00  0.00     0.165 HD
HETATM   24  C21 UNL     1      12.911  53.910  96.282  1.00  0.00     0.117 C 
HETATM   25  C29 UNL     1      12.571  54.381  94.906  1.00  0.00     0.163 C 
ENDROOT
BRANCH  24  26
HETATM   26  C22 UNL     1      14.339  53.467  96.447  1.00  0.00     0.032 C 
BRANCH  26  27
HETATM   27  C23 UNL     1      14.316  52.118  97.159  1.00  0.00    -0.013 C 
HETATM   28  C24 UNL     1      14.971  52.373  98.515  1.00  0.00     0.005 C 
HETATM   29  C25 UNL     1      16.466  52.142  98.458  1.00  0.00     0.000 C 
HETATM   30  C26 UNL     1      16.798  50.678  98.275  1.00  0.00     0.000 C 
HETATM   31  C27 UNL     1      15.797  50.092  97.310  1.00  0.00     0.000 C 
HETATM   32  C28 UNL     1      15.291  51.213  96.419  1.00  0.00     0.005 C 
ENDBRANCH  26  27
ENDBRANCH  24  26
BRANCH  25  33
HETATM   33  O7  UNL     1      11.957  55.631  94.955  1.00  0.00    -0.391 OA
ATOM     34  H7  UNL     1      12.558  56.248  95.355  1.00  0.00     0.210 HD
ENDBRANCH  25  33
BRANCH   1  35
HETATM   35  C4  UNL     1      13.369  55.441  92.862  1.00  0.00     0.031 C 
BRANCH  35  36
HETATM   36  C3  UNL     1      14.601  55.509  91.959  1.00  0.00     0.028 C 
BRANCH  36  37
HETATM   37  C2  UNL     1      14.250  56.022  90.602  1.00  0.00    -0.037 C 
HETATM   38  C1  UNL     1      14.330  55.263  89.518  1.00  0.00     0.007 C 
ENDBRANCH  36  37
ENDBRANCH  35  36
ENDBRANCH   1  35
BRANCH   6  39
HETATM   39  C8  UNL     1      12.287  51.380  90.970  1.00  0.00     0.038 C 
BRANCH  39  40
HETATM   40  C9  UNL     1      12.113  52.257  89.779  1.00  0.00    -0.020 C 
HETATM   41  C10 UNL     1      11.252  53.442  90.238  1.00  0.00     0.009 C 
HETATM   42  C11 UNL     1      11.220  51.526  88.768  1.00  0.00     0.009 C 
ENDBRANCH  39  40
ENDBRANCH   6  39
BRANCH  11  43
HETATM   43  C14 UNL     1       7.700  52.090  91.920  1.00  0.00     0.276 C 
HETATM   44  O3  UNL     1       7.864  52.207  90.713  1.00  0.00    -0.304 OA
ENDBRANCH  11  43
TORSDOF 9
ENDMDL
