MODEL 1
REMARK VINA RESULT: -7.174629294      0.000      0.000
REMARK  9 active torsions:
REMARK  status: ('A' for Active; 'I' for Inactive)
REMARK    1  A    between atoms: C2_2  and  C3_3 
REMARK    2  A    between atoms: C3_3  and  C4_4 
REMARK    3  A    between atoms: C4_4  and  N1_5 
REMARK    4  A    between atoms: C5_6  and  C6_7 
REMARK    5  A    between atoms: C12_13  and  N2_14 
REMARK    6  A    between atoms: C15_19  and  N4_20 
REMARK    7  A    between atoms: N4_20  and  C16_22 
REMARK    8  A    between atoms: C16_22  and  C18_24 
REMARK    9  A    between atoms: C18_24  and  O1_25 
ROOT
HETATM    1  N1  UNL     1      11.956  51.506  83.085  1.00  0.00    -0.307 N 
HETATM    2  C5  UNL     1      11.525  51.952  84.424  1.00  0.00     0.095 A 
HETATM    3  C12 UNL     1      12.551  52.421  85.091  1.00  0.00     0.144 A 
HETATM    4  N5  UNL     1      13.751  52.343  84.301  1.00  0.00    -0.316 N 
HETATM    5  C21 UNL     1      15.034  52.710  84.808  1.00  0.00     0.136 C 
HETATM    6  C22 UNL     1      16.028  53.267  83.874  1.00  0.00     0.049 C 
HETATM    7  C23 UNL     1      16.288  52.464  82.685  1.00  0.00     0.005 C 
HETATM    8  C24 UNL     1      15.515  51.689  81.955  1.00  0.00     0.042 A 
HETATM    9  N6  UNL     1      15.972  51.025  80.858  1.00  0.00    -0.359 N 
ATOM     10  H6  UNL     1      16.940  51.018  80.537  1.00  0.00     0.166 HD
HETATM   11  C25 UNL     1      14.967  50.385  80.266  1.00  0.00     0.006 A 
HETATM   12  C26 UNL     1      15.069  49.550  79.037  1.00  0.00     0.068 C 
HETATM   13  C27 UNL     1      13.793  50.621  80.986  1.00  0.00     0.042 A 
HETATM   14  C28 UNL     1      14.159  51.428  82.029  1.00  0.00     0.037 A 
HETATM   15  C29 UNL     1      13.344  51.766  83.046  1.00  0.00     0.128 A 
ENDROOT
BRANCH   3  16
HETATM   16  N2  UNL     1      12.555  52.940  86.406  1.00  0.00    -0.313 N 
HETATM   17  C13 UNL     1      13.043  54.113  86.823  1.00  0.00     0.129 A 
HETATM   18  C14 UNL     1      12.853  54.244  88.216  1.00  0.00     0.069 A 
HETATM   19  N3  UNL     1      13.100  55.113  89.159  1.00  0.00    -0.335 N 
HETATM   20  C19 UNL     1      12.232  53.078  88.561  1.00  0.00     0.052 A 
HETATM   21  C15 UNL     1      12.735  54.825  90.411  1.00  0.00     0.146 A 
ATOM     22  H3  UNL     1      13.563  55.996  88.943  1.00  0.00     0.168 HD
HETATM   23  S1  UNL     1      12.023  53.278  90.245  1.00  0.00    -0.051 SA
HETATM   24  C20 UNL     1      12.040  52.254  87.439  1.00  0.00     0.119 A 
BRANCH  21  25
HETATM   25  N4  UNL     1      12.880  55.550  91.498  1.00  0.00    -0.364 N 
ATOM     26  H4  UNL     1      12.087  56.041  91.909  1.00  0.00     0.162 HD
BRANCH  25  27
HETATM   27  C16 UNL     1      14.183  55.630  92.088  1.00  0.00     0.103 C 
HETATM   28  C17 UNL     1      14.415  54.358  92.884  1.00  0.00     0.034 C 
BRANCH  27  29
HETATM   29  C18 UNL     1      15.258  55.750  91.005  1.00  0.00     0.188 C 
BRANCH  29  30
HETATM   30  O1  UNL     1      15.687  57.062  90.924  1.00  0.00    -0.399 OA
ATOM     31  H1  UNL     1      16.431  57.188  91.500  1.00  0.00     0.209 HD
ENDBRANCH  29  30
ENDBRANCH  27  29
ENDBRANCH  25  27
ENDBRANCH  21  25
ENDBRANCH   3  16
BRANCH   2  32
HETATM   32  C6  UNL     1      10.143  51.906  84.879  1.00  0.00    -0.005 A 
HETATM   33  C7  UNL     1       9.651  50.643  85.237  1.00  0.00     0.014 A 
HETATM   34  C8  UNL     1       8.374  50.395  85.626  1.00  0.00     0.001 A 
HETATM   35  C9  UNL     1       7.496  51.455  85.674  1.00  0.00     0.000 A 
HETATM   36  C10 UNL     1       7.926  52.717  85.333  1.00  0.00     0.001 A 
HETATM   37  C11 UNL     1       9.255  52.924  84.937  1.00  0.00     0.014 A 
ENDBRANCH   2  32
BRANCH   1  38
HETATM   38  C4  UNL     1      11.064  50.996  82.132  1.00  0.00     0.072 C 
BRANCH  38  39
HETATM   39  C3  UNL     1      10.389  51.960  81.204  1.00  0.00     0.045 C 
BRANCH  39  40
HETATM   40  C2  UNL     1       8.931  52.201  81.339  1.00  0.00     0.001 C 
HETATM   41  C1  UNL     1       8.054  51.115  81.832  1.00  0.00     0.005 C 
ENDBRANCH  39  40
ENDBRANCH  38  39
ENDBRANCH   1  38
TORSDOF 9
ENDMDL
MODEL 2
REMARK VINA RESULT: -6.991045688      3.695      9.559
REMARK  9 active torsions:
REMARK  status: ('A' for Active; 'I' for Inactive)
REMARK    1  A    between atoms: C2_2  and  C3_3 
REMARK    2  A    between atoms: C3_3  and  C4_4 
REMARK    3  A    between atoms: C4_4  and  N1_5 
REMARK    4  A    between atoms: C5_6  and  C6_7 
REMARK    5  A    between atoms: C12_13  and  N2_14 
REMARK    6  A    between atoms: C15_19  and  N4_20 
REMARK    7  A    between atoms: N4_20  and  C16_22 
REMARK    8  A    between atoms: C16_22  and  C18_24 
REMARK    9  A    between atoms: C18_24  and  O1_25 
ROOT
HETATM    1  N1  UNL     1      12.017  53.678  88.261  1.00  0.00    -0.307 N 
HETATM    2  C5  UNL     1      11.846  53.302  86.845  1.00  0.00     0.095 A 
HETATM    3  C12 UNL     1      10.571  53.245  86.547  1.00  0.00     0.144 A 
HETATM    4  N5  UNL     1       9.765  53.563  87.695  1.00  0.00    -0.316 N 
HETATM    5  C21 UNL     1       8.339  53.500  87.679  1.00  0.00     0.136 C 
HETATM    6  C22 UNL     1       7.582  54.432  88.532  1.00  0.00     0.049 C 
HETATM    7  C23 UNL     1       7.961  54.440  89.940  1.00  0.00     0.005 C 
HETATM    8  C24 UNL     1       9.116  54.268  90.546  1.00  0.00     0.042 A 
HETATM    9  N6  UNL     1       9.248  54.325  91.900  1.00  0.00    -0.359 N 
ATOM     10  H6  UNL     1       8.480  54.447  92.559  1.00  0.00     0.166 HD
HETATM   11  C25 UNL     1      10.529  54.198  92.234  1.00  0.00     0.006 A 
HETATM   12  C26 UNL     1      11.072  54.212  93.621  1.00  0.00     0.068 C 
HETATM   13  C27 UNL     1      11.288  54.048  91.072  1.00  0.00     0.042 A 
HETATM   14  C28 UNL     1      10.391  54.090  90.039  1.00  0.00     0.037 A 
HETATM   15  C29 UNL     1      10.702  53.833  88.755  1.00  0.00     0.128 A 
ENDROOT
BRANCH   3  16
HETATM   16  N2  UNL     1       9.996  52.918  85.298  1.00  0.00    -0.313 N 
HETATM   17  C13 UNL     1       9.787  53.727  84.254  1.00  0.00     0.129 A 
HETATM   18  C14 UNL     1       9.181  53.006  83.202  1.00  0.00     0.069 A 
HETATM   19  N3  UNL     1       8.752  53.224  81.987  1.00  0.00    -0.335 N 
HETATM   20  C19 UNL     1       9.059  51.745  83.712  1.00  0.00     0.052 A 
HETATM   21  C15 UNL     1       8.217  52.210  81.303  1.00  0.00     0.146 A 
ATOM     22  H3  UNL     1       8.824  54.152  81.570  1.00  0.00     0.168 HD
HETATM   23  S1  UNL     1       8.325  50.912  82.412  1.00  0.00    -0.051 SA
HETATM   24  C20 UNL     1       9.565  51.676  85.021  1.00  0.00     0.119 A 
BRANCH  21  25
HETATM   25  N4  UNL     1       7.734  52.207  80.080  1.00  0.00    -0.364 N 
ATOM     26  H4  UNL     1       6.751  52.417  79.906  1.00  0.00     0.162 HD
BRANCH  25  27
HETATM   27  C16 UNL     1       8.625  51.901  79.001  1.00  0.00     0.103 C 
HETATM   28  C17 UNL     1       7.847  51.116  77.960  1.00  0.00     0.034 C 
BRANCH  27  29
HETATM   29  C18 UNL     1       9.162  53.186  78.366  1.00  0.00     0.188 C 
BRANCH  29  30
HETATM   30  O1  UNL     1      10.295  53.597  79.043  1.00  0.00    -0.399 OA
ATOM     31  H1  UNL     1      10.782  54.208  78.503  1.00  0.00     0.209 HD
ENDBRANCH  29  30
ENDBRANCH  27  29
ENDBRANCH  25  27
ENDBRANCH  21  25
ENDBRANCH   3  16
BRANCH   2  32
HETATM   32  C6  UNL     1      12.960  53.085  85.932  1.00  0.00    -0.005 A 
HETATM   33  C7  UNL     1      13.889  54.130  85.831  1.00  0.00     0.014 A 
HETATM   34  C8  UNL     1      14.955  54.134  84.991  1.00  0.00     0.001 A 
HETATM   35  C9  UNL     1      15.143  53.037  84.179  1.00  0.00     0.000 A 
HETATM   36  C10 UNL     1      14.261  51.983  84.238  1.00  0.00     0.001 A 
HETATM   37  C11 UNL     1      13.174  52.024  85.122  1.00  0.00     0.014 A 
ENDBRANCH   2  32
BRANCH   1  38
HETATM   38  C4  UNL     1      13.274  53.857  88.853  1.00  0.00     0.072 C 
BRANCH  38  39
HETATM   39  C3  UNL     1      13.888  55.224  88.815  1.00  0.00     0.045 C 
BRANCH  39  40
HETATM   40  C2  UNL     1      14.110  55.958  90.085  1.00  0.00     0.001 C 
HETATM   41  C1  UNL     1      15.279  55.621  90.928  1.00  0.00     0.005 C 
ENDBRANCH  39  40
ENDBRANCH  38  39
ENDBRANCH   1  38
TORSDOF 9
ENDMDL
MODEL 3
REMARK VINA RESULT: -6.867475518      5.801     13.391
REMARK  9 active torsions:
REMARK  status: ('A' for Active; 'I' for Inactive)
REMARK    1  A    between atoms: C2_2  and  C3_3 
REMARK    2  A    between atoms: C3_3  and  C4_4 
REMARK    3  A    between atoms: C4_4  and  N1_5 
REMARK    4  A    between atoms: C5_6  and  C6_7 
REMARK    5  A    between atoms: C12_13  and  N2_14 
REMARK    6  A    between atoms: C15_19  and  N4_20 
REMARK    7  A    between atoms: N4_20  and  C16_22 
REMARK    8  A    between atoms: C16_22  and  C18_24 
REMARK    9  A    between atoms: C18_24  and  O1_25 
ROOT
HETATM    1  N1  UNL     1      12.668  54.414  98.447  1.00  0.00    -0.307 N 
HETATM    2  C5  UNL     1      12.255  54.880  97.109  1.00  0.00     0.095 A 
HETATM    3  C12 UNL     1      12.794  54.122  96.185  1.00  0.00     0.144 A 
HETATM    4  N5  UNL     1      13.608  53.095  96.779  1.00  0.00    -0.316 N 
HETATM    5  C21 UNL     1      14.379  52.176  96.004  1.00  0.00     0.136 C 
HETATM    6  C22 UNL     1      14.598  50.820  96.533  1.00  0.00     0.049 C 
HETATM    7  C23 UNL     1      15.146  50.755  97.882  1.00  0.00     0.005 C 
HETATM    8  C24 UNL     1      14.987  51.522  98.939  1.00  0.00     0.042 A 
HETATM    9  N6  UNL     1      15.601  51.268 100.128  1.00  0.00    -0.359 N 
ATOM     10  H6  UNL     1      16.267  50.514 100.294  1.00  0.00     0.166 HD
HETATM   11  C25 UNL     1      15.202  52.150 101.040  1.00  0.00     0.006 A 
HETATM   12  C26 UNL     1      15.650  52.197 102.459  1.00  0.00     0.068 C 
HETATM   13  C27 UNL     1      14.292  53.031 100.451  1.00  0.00     0.042 A 
HETATM   14  C28 UNL     1      14.178  52.625  99.149  1.00  0.00     0.037 A 
HETATM   15  C29 UNL     1      13.507  53.304  98.201  1.00  0.00     0.128 A 
ENDROOT
BRANCH   3  16
HETATM   16  N2  UNL     1      12.646  54.241  94.784  1.00  0.00    -0.313 N 
HETATM   17  C13 UNL     1      11.769  53.612  93.995  1.00  0.00     0.129 A 
HETATM   18  C14 UNL     1      11.961  54.007  92.654  1.00  0.00     0.069 A 
HETATM   19  N3  UNL     1      11.447  53.760  91.478  1.00  0.00    -0.335 N 
HETATM   20  C19 UNL     1      12.996  54.894  92.730  1.00  0.00     0.052 A 
HETATM   21  C15 UNL     1      11.953  54.382  90.411  1.00  0.00     0.146 A 
ATOM     22  H3  UNL     1      10.672  53.103  91.378  1.00  0.00     0.168 HD
HETATM   23  S1  UNL     1      13.192  55.344  91.093  1.00  0.00    -0.051 SA
HETATM   24  C20 UNL     1      13.434  55.050  94.057  1.00  0.00     0.119 A 
BRANCH  21  25
HETATM   25  N4  UNL     1      11.587  54.285  89.152  1.00  0.00    -0.364 N 
ATOM     26  H4  UNL     1      10.918  54.941  88.750  1.00  0.00     0.162 HD
BRANCH  25  27
HETATM   27  C16 UNL     1      12.155  53.234  88.362  1.00  0.00     0.103 C 
HETATM   28  C17 UNL     1      11.114  52.137  88.225  1.00  0.00     0.034 C 
BRANCH  27  29
HETATM   29  C18 UNL     1      12.531  53.749  86.971  1.00  0.00     0.188 C 
BRANCH  29  30
HETATM   30  O1  UNL     1      11.487  54.499  86.460  1.00  0.00    -0.399 OA
ATOM     31  H1  UNL     1      11.698  54.773  85.575  1.00  0.00     0.209 HD
ENDBRANCH  29  30
ENDBRANCH  27  29
ENDBRANCH  25  27
ENDBRANCH  21  25
ENDBRANCH   3  16
BRANCH   2  32
HETATM   32  C6  UNL     1      11.340  55.992  96.894  1.00  0.00    -0.005 A 
HETATM   33  C7  UNL     1      11.913  57.271  96.887  1.00  0.00     0.014 A 
HETATM   34  C8  UNL     1      11.213  58.428  96.762  1.00  0.00     0.001 A 
HETATM   35  C9  UNL     1       9.845  58.344  96.631  1.00  0.00     0.000 A 
HETATM   36  C10 UNL     1       9.230  57.113  96.631  1.00  0.00     0.001 A 
HETATM   37  C11 UNL     1       9.995  55.946  96.765  1.00  0.00     0.014 A 
ENDBRANCH   2  32
BRANCH   1  38
HETATM   38  C4  UNL     1      12.213  55.008  99.631  1.00  0.00     0.072 C 
BRANCH  38  39
HETATM   39  C3  UNL     1      10.852  54.636 100.134  1.00  0.00     0.045 C 
BRANCH  39  40
HETATM   40  C2  UNL     1       9.869  55.706 100.437  1.00  0.00     0.001 C 
HETATM   41  C1  UNL     1      10.281  57.125 100.335  1.00  0.00     0.005 C 
ENDBRANCH  39  40
ENDBRANCH  38  39
ENDBRANCH   1  38
TORSDOF 9
ENDMDL
MODEL 4
REMARK VINA RESULT: -6.850301214      2.834      3.282
REMARK  9 active torsions:
REMARK  status: ('A' for Active; 'I' for Inactive)
REMARK    1  A    between atoms: C2_2  and  C3_3 
REMARK    2  A    between atoms: C3_3  and  C4_4 
REMARK    3  A    between atoms: C4_4  and  N1_5 
REMARK    4  A    between atoms: C5_6  and  C6_7 
REMARK    5  A    between atoms: C12_13  and  N2_14 
REMARK    6  A    between atoms: C15_19  and  N4_20 
REMARK    7  A    between atoms: N4_20  and  C16_22 
REMARK    8  A    between atoms: C16_22  and  C18_24 
REMARK    9  A    between atoms: C18_24  and  O1_25 
ROOT
HETATM    1  N1  UNL     1      11.413  51.627  82.367  1.00  0.00    -0.307 N 
HETATM    2  C5  UNL     1      10.520  51.862  83.518  1.00  0.00     0.095 A 
HETATM    3  C12 UNL     1      11.220  52.258  84.553  1.00  0.00     0.144 A 
HETATM    4  N5  UNL     1      12.619  52.330  84.226  1.00  0.00    -0.316 N 
HETATM    5  C21 UNL     1      13.622  52.656  85.188  1.00  0.00     0.136 C 
HETATM    6  C22 UNL     1      14.827  53.369  84.735  1.00  0.00     0.049 C 
HETATM    7  C23 UNL     1      15.536  52.755  83.619  1.00  0.00     0.005 C 
HETATM    8  C24 UNL     1      15.120  52.072  82.575  1.00  0.00     0.042 A 
HETATM    9  N6  UNL     1      15.971  51.586  81.630  1.00  0.00    -0.359 N 
ATOM     10  H6  UNL     1      16.988  51.653  81.667  1.00  0.00     0.166 HD
HETATM   11  C25 UNL     1      15.279  51.010  80.651  1.00  0.00     0.006 A 
HETATM   12  C26 UNL     1      15.856  50.365  79.440  1.00  0.00     0.068 C 
HETATM   13  C27 UNL     1      13.916  51.107  80.942  1.00  0.00     0.042 A 
HETATM   14  C28 UNL     1      13.843  51.764  82.141  1.00  0.00     0.037 A 
HETATM   15  C29 UNL     1      12.708  51.929  82.845  1.00  0.00     0.128 A 
ENDROOT
BRANCH   3  16
HETATM   16  N2  UNL     1      10.737  52.583  85.841  1.00  0.00    -0.313 N 
HETATM   17  C13 UNL     1      10.391  53.786  86.309  1.00  0.00     0.129 A 
HETATM   18  C14 UNL     1       9.967  53.676  87.651  1.00  0.00     0.069 A 
HETATM   19  N3  UNL     1       9.529  54.454  88.606  1.00  0.00    -0.335 N 
HETATM   20  C19 UNL     1      10.095  52.342  87.915  1.00  0.00     0.052 A 
HETATM   21  C15 UNL     1       9.227  53.912  89.788  1.00  0.00     0.146 A 
ATOM     22  H3  UNL     1       9.420  55.456  88.450  1.00  0.00     0.168 HD
HETATM   23  S1  UNL     1       9.575  52.255  89.540  1.00  0.00    -0.051 SA
HETATM   24  C20 UNL     1      10.575  51.647  86.792  1.00  0.00     0.119 A 
BRANCH  21  25
HETATM   25  N4  UNL     1       8.772  54.503  90.871  1.00  0.00    -0.364 N 
ATOM     26  H4  UNL     1       9.408  54.951  91.530  1.00  0.00     0.162 HD
BRANCH  25  27
HETATM   27  C16 UNL     1       7.357  54.499  91.099  1.00  0.00     0.103 C 
HETATM   28  C17 UNL     1       7.125  54.419  92.597  1.00  0.00     0.034 C 
BRANCH  27  29
HETATM   29  C18 UNL     1       6.721  55.781  90.558  1.00  0.00     0.188 C 
BRANCH  29  30
HETATM   30  O1  UNL     1       7.632  56.819  90.643  1.00  0.00    -0.399 OA
ATOM     31  H1  UNL     1       7.443  57.343  91.412  1.00  0.00     0.209 HD
ENDBRANCH  29  30
ENDBRANCH  27  29
ENDBRANCH  25  27
ENDBRANCH  21  25
ENDBRANCH   3  16
BRANCH   2  32
HETATM   32  C6  UNL     1       9.073  51.712  83.455  1.00  0.00    -0.005 A 
HETATM   33  C7  UNL     1       8.339  52.887  83.238  1.00  0.00     0.014 A 
HETATM   34  C8  UNL     1       6.984  52.954  83.210  1.00  0.00     0.001 A 
HETATM   35  C9  UNL     1       6.275  51.789  83.408  1.00  0.00     0.000 A 
HETATM   36  C10 UNL     1       6.946  50.608  83.625  1.00  0.00     0.001 A 
HETATM   37  C11 UNL     1       8.347  50.589  83.646  1.00  0.00     0.014 A 
ENDBRANCH   2  32
BRANCH   1  38
HETATM   38  C4  UNL     1      10.940  51.235  81.108  1.00  0.00     0.072 C 
BRANCH  38  39
HETATM   39  C3  UNL     1      10.523  52.302  80.142  1.00  0.00     0.045 C 
BRANCH  39  40
HETATM   40  C2  UNL     1       9.116  52.351  79.673  1.00  0.00     0.001 C 
HETATM   41  C1  UNL     1       8.235  51.181  79.886  1.00  0.00     0.005 C 
ENDBRANCH  39  40
ENDBRANCH  38  39
ENDBRANCH   1  38
TORSDOF 9
ENDMDL
MODEL 5
REMARK VINA RESULT: -6.844039868      2.352      2.698
REMARK  9 active torsions:
REMARK  status: ('A' for Active; 'I' for Inactive)
REMARK    1  A    between atoms: C2_2  and  C3_3 
REMARK    2  A    between atoms: C3_3  and  C4_4 
REMARK    3  A    between atoms: C4_4  and  N1_5 
REMARK    4  A    between atoms: C5_6  and  C6_7 
REMARK    5  A    between atoms: C12_13  and  N2_14 
REMARK    6  A    between atoms: C15_19  and  N4_20 
REMARK    7  A    between atoms: N4_20  and  C16_22 
REMARK    8  A    between atoms: C16_22  and  C18_24 
REMARK    9  A    between atoms: C18_24  and  O1_25 
ROOT
HETATM    1  N1  UNL     1      11.657  51.564  82.643  1.00  0.00    -0.307 N 
HETATM    2  C5  UNL     1      10.854  51.792  83.859  1.00  0.00     0.095 A 
HETATM    3  C12 UNL     1      11.612  52.275  84.813  1.00  0.00     0.144 A 
HETATM    4  N5  UNL     1      12.970  52.420  84.360  1.00  0.00    -0.316 N 
HETATM    5  C21 UNL     1      14.028  52.850  85.217  1.00  0.00     0.136 C 
HETATM    6  C22 UNL     1      15.140  53.617  84.633  1.00  0.00     0.049 C 
HETATM    7  C23 UNL     1      15.790  53.001  83.482  1.00  0.00     0.005 C 
HETATM    8  C24 UNL     1      15.331  52.250  82.505  1.00  0.00     0.042 A 
HETATM    9  N6  UNL     1      16.128  51.779  81.506  1.00  0.00    -0.359 N 
ATOM     10  H6  UNL     1      17.138  51.911  81.450  1.00  0.00     0.166 HD
HETATM   11  C25 UNL     1      15.393  51.120  80.615  1.00  0.00     0.006 A 
HETATM   12  C26 UNL     1      15.905  50.461  79.381  1.00  0.00     0.068 C 
HETATM   13  C27 UNL     1      14.058  51.143  81.022  1.00  0.00     0.042 A 
HETATM   14  C28 UNL     1      14.044  51.844  82.197  1.00  0.00     0.037 A 
HETATM   15  C29 UNL     1      12.966  51.967  82.993  1.00  0.00     0.128 A 
ENDROOT
BRANCH   3  16
HETATM   16  N2  UNL     1      11.222  52.623  86.127  1.00  0.00    -0.313 N 
HETATM   17  C13 UNL     1      10.735  53.792  86.556  1.00  0.00     0.129 A 
HETATM   18  C14 UNL     1      10.480  53.725  87.943  1.00  0.00     0.069 A 
HETATM   19  N3  UNL     1      10.024  54.499  88.891  1.00  0.00    -0.335 N 
HETATM   20  C19 UNL     1      10.851  52.453  88.272  1.00  0.00     0.052 A 
HETATM   21  C15 UNL     1       9.941  54.014  90.132  1.00  0.00     0.146 A 
ATOM     22  H3  UNL     1       9.736  55.456  88.687  1.00  0.00     0.168 HD
HETATM   23  S1  UNL     1      10.527  52.417  89.949  1.00  0.00    -0.051 SA
HETATM   24  C20 UNL     1      11.317  51.753  87.146  1.00  0.00     0.119 A 
BRANCH  21  25
HETATM   25  N4  UNL     1       9.512  54.612  91.222  1.00  0.00    -0.364 N 
ATOM     26  H4  UNL     1       9.093  55.540  91.179  1.00  0.00     0.162 HD
BRANCH  25  27
HETATM   27  C16 UNL     1       9.650  53.922  92.470  1.00  0.00     0.103 C 
HETATM   28  C17 UNL     1      10.858  54.496  93.190  1.00  0.00     0.034 C 
BRANCH  27  29
HETATM   29  C18 UNL     1       8.404  54.123  93.336  1.00  0.00     0.188 C 
BRANCH  29  30
HETATM   30  O1  UNL     1       7.475  54.874  92.640  1.00  0.00    -0.399 OA
ATOM     31  H1  UNL     1       6.983  55.411  93.249  1.00  0.00     0.209 HD
ENDBRANCH  29  30
ENDBRANCH  27  29
ENDBRANCH  25  27
ENDBRANCH  21  25
ENDBRANCH   3  16
BRANCH   2  32
HETATM   32  C6  UNL     1       9.420  51.549  83.931  1.00  0.00    -0.005 A 
HETATM   33  C7  UNL     1       8.593  52.657  83.699  1.00  0.00     0.014 A 
HETATM   34  C8  UNL     1       7.238  52.638  83.782  1.00  0.00     0.001 A 
HETATM   35  C9  UNL     1       6.629  51.449  84.118  1.00  0.00     0.000 A 
HETATM   36  C10 UNL     1       7.393  50.331  84.357  1.00  0.00     0.001 A 
HETATM   37  C11 UNL     1       8.789  50.399  84.260  1.00  0.00     0.014 A 
ENDBRANCH   2  32
BRANCH   1  38
HETATM   38  C4  UNL     1      11.104  51.090  81.446  1.00  0.00     0.072 C 
BRANCH  38  39
HETATM   39  C3  UNL     1      10.550  52.089  80.476  1.00  0.00     0.045 C 
BRANCH  39  40
HETATM   40  C2  UNL     1       9.120  52.011  80.089  1.00  0.00     0.001 C 
HETATM   41  C1  UNL     1       8.329  50.813  80.452  1.00  0.00     0.005 C 
ENDBRANCH  39  40
ENDBRANCH  38  39
ENDBRANCH   1  38
TORSDOF 9
ENDMDL
