MODEL 1
REMARK VINA RESULT: -8.400051068      0.000      0.000
REMARK  7 active torsions:
REMARK  status: ('A' for Active; 'I' for Inactive)
REMARK       I    between atoms: C1_2  and  N1_3 
REMARK    1  A    between atoms: C1_2  and  C12_24 
REMARK    2  A    between atoms: N1_3  and  C2_5 
REMARK    3  A    between atoms: C5_8  and  S1_9 
REMARK    4  A    between atoms: S1_9  and  N2_12 
REMARK    5  A    between atoms: C17_29  and  N5_30 
REMARK    6  A    between atoms: N5_30  and  S2_32 
REMARK    7  A    between atoms: S2_32  and  C18_35 
ROOT
HETATM    1  O1  UNL     1      10.204  54.414  86.121  1.00  0.00    -0.267 OA
HETATM    2  C1  UNL     1       9.745  53.378  86.649  1.00  0.00     0.258 C 
HETATM    3  N1  UNL     1      10.140  52.960  87.925  1.00  0.00    -0.323 N 
ATOM      4  H1  UNL     1       9.708  52.105  88.277  1.00  0.00     0.169 HD
ENDROOT
BRANCH   3   5
HETATM    5  C2  UNL     1      11.074  53.593  88.784  1.00  0.00     0.035 A 
HETATM    6  C3  UNL     1      12.417  53.679  88.407  1.00  0.00     0.031 A 
HETATM    7  C4  UNL     1      13.373  54.292  89.177  1.00  0.00     0.027 A 
HETATM    8  C5  UNL     1      13.034  54.859  90.381  1.00  0.00     0.080 A 
HETATM    9  C10 UNL     1      11.724  54.799  90.792  1.00  0.00     0.027 A 
HETATM   10  C11 UNL     1      10.756  54.165  89.987  1.00  0.00     0.031 A 
BRANCH   8  11
HETATM   11  S1  UNL     1      14.249  55.646  91.372  1.00  0.00     0.276 S 
HETATM   12  O2  UNL     1      15.616  55.191  91.003  1.00  0.00    -0.200 OA
HETATM   13  O3  UNL     1      14.199  57.126  90.995  1.00  0.00    -0.200 OA
BRANCH  11  14
HETATM   14  N2  UNL     1      13.863  55.527  93.017  1.00  0.00    -0.112 N 
HETATM   15  C6  UNL     1      13.875  54.521  93.779  1.00  0.00     0.691 A 
HETATM   16  N3  UNL     1      13.507  54.734  95.082  1.00  0.00    -0.201 N 
HETATM   17  N4  UNL     1      14.226  53.312  93.345  1.00  0.00    -0.201 N 
HETATM   18  C7  UNL     1      13.496  53.722  95.944  1.00  0.00     0.107 A 
ATOM     19  H3  UNL     1      13.242  55.669  95.390  1.00  0.00     0.183 HD
HETATM   20  C8  UNL     1      13.851  52.452  95.540  1.00  0.00     0.035 A 
HETATM   21  C9  UNL     1      14.218  52.281  94.205  1.00  0.00     0.107 A 
ATOM     22  H4  UNL     1      14.497  53.171  92.373  1.00  0.00     0.183 HD
ATOM     23  H2  UNL     1      13.577  56.401  93.459  1.00  0.00     0.197 HD
ENDBRANCH  11  14
ENDBRANCH   8  11
ENDBRANCH   3   5
BRANCH   2  24
HETATM   24  C12 UNL     1       8.758  52.574  85.902  1.00  0.00     0.059 A 
HETATM   25  C13 UNL     1       7.452  52.427  86.314  1.00  0.00     0.019 A 
HETATM   26  C14 UNL     1       6.573  51.651  85.598  1.00  0.00     0.001 A 
HETATM   27  C15 UNL     1       7.013  51.019  84.460  1.00  0.00     0.002 A 
HETATM   28  C16 UNL     1       8.321  51.171  84.053  1.00  0.00     0.031 A 
HETATM   29  C17 UNL     1       9.215  51.942  84.753  1.00  0.00     0.058 A 
BRANCH  29  30
HETATM   30  N5  UNL     1      10.515  52.087  84.272  1.00  0.00    -0.280 N 
ATOM     31  H5  UNL     1      10.660  52.817  83.575  1.00  0.00     0.179 HD
BRANCH  30  32
HETATM   32  S2  UNL     1      11.894  51.182  84.717  1.00  0.00     0.263 S 
HETATM   33  O4  UNL     1      11.978  49.875  83.969  1.00  0.00    -0.200 OA
HETATM   34  O5  UNL     1      11.759  50.781  86.178  1.00  0.00    -0.200 OA
BRANCH  32  35
HETATM   35  C18 UNL     1      13.363  52.101  84.548  1.00  0.00     0.079 A 
HETATM   36  C19 UNL     1      14.334  51.659  83.647  1.00  0.00     0.025 A 
HETATM   37  C20 UNL     1      15.518  52.346  83.470  1.00  0.00     0.002 A 
HETATM   38  C21 UNL     1      15.756  53.504  84.200  1.00  0.00     0.000 A 
HETATM   39  C22 UNL     1      14.823  53.961  85.090  1.00  0.00     0.002 A 
HETATM   40  C23 UNL     1      13.645  53.250  85.245  1.00  0.00     0.025 A 
ENDBRANCH  32  35
ENDBRANCH  30  32
ENDBRANCH  29  30
ENDBRANCH   2  24
TORSDOF 7
ENDMDL
MODEL 2
REMARK VINA RESULT: -8.268038199      0.957      1.592
REMARK  7 active torsions:
REMARK  status: ('A' for Active; 'I' for Inactive)
REMARK       I    between atoms: C1_2  and  N1_3 
REMARK    1  A    between atoms: C1_2  and  C12_24 
REMARK    2  A    between atoms: N1_3  and  C2_5 
REMARK    3  A    between atoms: C5_8  and  S1_9 
REMARK    4  A    between atoms: S1_9  and  N2_12 
REMARK    5  A    between atoms: C17_29  and  N5_30 
REMARK    6  A    between atoms: N5_30  and  S2_32 
REMARK    7  A    between atoms: S2_32  and  C18_35 
ROOT
HETATM    1  O1  UNL     1      10.384  54.352  85.664  1.00  0.00    -0.267 OA
HETATM    2  C1  UNL     1      10.242  53.172  86.050  1.00  0.00     0.258 C 
HETATM    3  N1  UNL     1      10.878  52.687  87.198  1.00  0.00    -0.323 N 
ATOM      4  H1  UNL     1      10.699  51.711  87.439  1.00  0.00     0.169 HD
ENDROOT
BRANCH   3   5
HETATM    5  C2  UNL     1      11.744  53.401  88.066  1.00  0.00     0.035 A 
HETATM    6  C3  UNL     1      11.396  53.571  89.409  1.00  0.00     0.031 A 
HETATM    7  C4  UNL     1      12.191  54.232  90.310  1.00  0.00     0.027 A 
HETATM    8  C5  UNL     1      13.392  54.768  89.913  1.00  0.00     0.080 A 
HETATM    9  C10 UNL     1      13.774  54.625  88.601  1.00  0.00     0.027 A 
HETATM   10  C11 UNL     1      12.945  53.942  87.690  1.00  0.00     0.031 A 
BRANCH   8  11
HETATM   11  S1  UNL     1      14.415  55.616  91.057  1.00  0.00     0.276 S 
HETATM   12  O2  UNL     1      15.837  55.204  90.909  1.00  0.00    -0.200 OA
HETATM   13  O3  UNL     1      14.374  57.086  90.643  1.00  0.00    -0.200 OA
BRANCH  11  14
HETATM   14  N2  UNL     1      13.789  55.512  92.628  1.00  0.00    -0.112 N 
HETATM   15  C6  UNL     1      13.796  54.544  93.438  1.00  0.00     0.691 A 
HETATM   16  N3  UNL     1      13.204  54.760  94.655  1.00  0.00    -0.201 N 
HETATM   17  N4  UNL     1      14.349  53.373  93.133  1.00  0.00    -0.201 N 
HETATM   18  C7  UNL     1      13.173  53.787  95.562  1.00  0.00     0.107 A 
ATOM     19  H3  UNL     1      12.786  55.666  94.866  1.00  0.00     0.183 HD
HETATM   20  C8  UNL     1      13.733  52.556  95.290  1.00  0.00     0.035 A 
HETATM   21  C9  UNL     1      14.325  52.382  94.039  1.00  0.00     0.107 A 
ATOM     22  H4  UNL     1      14.786  53.230  92.223  1.00  0.00     0.183 HD
ATOM     23  H2  UNL     1      13.337  56.360  92.971  1.00  0.00     0.197 HD
ENDBRANCH  11  14
ENDBRANCH   8  11
ENDBRANCH   3   5
BRANCH   2  24
HETATM   24  C12 UNL     1       9.378  52.265  85.268  1.00  0.00     0.059 A 
HETATM   25  C13 UNL     1       8.077  51.988  85.623  1.00  0.00     0.019 A 
HETATM   26  C14 UNL     1       7.317  51.120  84.877  1.00  0.00     0.001 A 
HETATM   27  C15 UNL     1       7.871  50.529  83.768  1.00  0.00     0.002 A 
HETATM   28  C16 UNL     1       9.173  50.812  83.418  1.00  0.00     0.031 A 
HETATM   29  C17 UNL     1       9.951  51.676  84.149  1.00  0.00     0.058 A 
BRANCH  29  30
HETATM   30  N5  UNL     1      11.250  51.950  83.726  1.00  0.00    -0.280 N 
ATOM     31  H5  UNL     1      11.378  52.809  83.190  1.00  0.00     0.179 HD
BRANCH  30  32
HETATM   32  S2  UNL     1      12.652  51.014  84.002  1.00  0.00     0.263 S 
HETATM   33  O4  UNL     1      12.409  49.545  83.756  1.00  0.00    -0.200 OA
HETATM   34  O5  UNL     1      13.011  51.103  85.478  1.00  0.00    -0.200 OA
BRANCH  32  35
HETATM   35  C18 UNL     1      14.015  51.590  83.085  1.00  0.00     0.079 A 
HETATM   36  C19 UNL     1      15.051  52.244  83.755  1.00  0.00     0.025 A 
HETATM   37  C20 UNL     1      16.156  52.722  83.081  1.00  0.00     0.002 A 
HETATM   38  C21 UNL     1      16.248  52.552  81.705  1.00  0.00     0.000 A 
HETATM   39  C22 UNL     1      15.249  51.916  81.021  1.00  0.00     0.002 A 
HETATM   40  C23 UNL     1      14.152  51.448  81.726  1.00  0.00     0.025 A 
ENDBRANCH  32  35
ENDBRANCH  30  32
ENDBRANCH  29  30
ENDBRANCH   2  24
TORSDOF 7
ENDMDL
MODEL 3
REMARK VINA RESULT: -8.196214198      2.787      9.519
REMARK  7 active torsions:
REMARK  status: ('A' for Active; 'I' for Inactive)
REMARK       I    between atoms: C1_2  and  N1_3 
REMARK    1  A    between atoms: C1_2  and  C12_24 
REMARK    2  A    between atoms: N1_3  and  C2_5 
REMARK    3  A    between atoms: C5_8  and  S1_9 
REMARK    4  A    between atoms: S1_9  and  N2_12 
REMARK    5  A    between atoms: C17_29  and  N5_30 
REMARK    6  A    between atoms: N5_30  and  S2_32 
REMARK    7  A    between atoms: S2_32  and  C18_35 
ROOT
HETATM    1  O1  UNL     1      12.155  51.926  88.300  1.00  0.00    -0.267 OA
HETATM    2  C1  UNL     1      11.853  53.137  88.240  1.00  0.00     0.258 C 
HETATM    3  N1  UNL     1      12.269  53.952  87.181  1.00  0.00    -0.323 N 
ATOM      4  H1  UNL     1      11.970  54.927  87.214  1.00  0.00     0.169 HD
ENDROOT
BRANCH   3   5
HETATM    5  C2  UNL     1      13.061  53.574  86.067  1.00  0.00     0.035 A 
HETATM    6  C3  UNL     1      12.599  52.589  85.189  1.00  0.00     0.031 A 
HETATM    7  C4  UNL     1      13.300  52.185  84.082  1.00  0.00     0.027 A 
HETATM    8  C5  UNL     1      14.517  52.749  83.787  1.00  0.00     0.080 A 
HETATM    9  C10 UNL     1      15.010  53.722  84.623  1.00  0.00     0.027 A 
HETATM   10  C11 UNL     1      14.276  54.125  85.756  1.00  0.00     0.031 A 
BRANCH   8  11
HETATM   11  S1  UNL     1      15.421  52.240  82.374  1.00  0.00     0.276 S 
HETATM   12  O2  UNL     1      15.628  53.374  81.435  1.00  0.00    -0.200 OA
HETATM   13  O3  UNL     1      16.815  51.875  82.881  1.00  0.00    -0.200 OA
BRANCH  11  14
HETATM   14  N2  UNL     1      14.747  50.844  81.690  1.00  0.00    -0.112 N 
HETATM   15  C6  UNL     1      13.643  50.686  81.099  1.00  0.00     0.691 A 
HETATM   16  N3  UNL     1      13.365  49.423  80.646  1.00  0.00    -0.201 N 
HETATM   17  N4  UNL     1      12.788  51.691  80.922  1.00  0.00    -0.201 N 
HETATM   18  C7  UNL     1      12.221  49.179  80.014  1.00  0.00     0.107 A 
ATOM     19  H3  UNL     1      14.036  48.669  80.794  1.00  0.00     0.183 HD
HETATM   20  C8  UNL     1      11.304  50.190  79.808  1.00  0.00     0.035 A 
HETATM   21  C9  UNL     1      11.628  51.459  80.286  1.00  0.00     0.107 A 
ATOM     22  H4  UNL     1      13.010  52.625  81.265  1.00  0.00     0.183 HD
ATOM     23  H2  UNL     1      15.320  50.004  81.766  1.00  0.00     0.197 HD
ENDBRANCH  11  14
ENDBRANCH   8  11
ENDBRANCH   3   5
BRANCH   2  24
HETATM   24  C12 UNL     1      11.033  53.722  89.319  1.00  0.00     0.059 A 
HETATM   25  C13 UNL     1       9.657  53.738  89.283  1.00  0.00     0.019 A 
HETATM   26  C14 UNL     1       8.935  54.313  90.301  1.00  0.00     0.001 A 
HETATM   27  C15 UNL     1       9.605  54.875  91.361  1.00  0.00     0.002 A 
HETATM   28  C16 UNL     1      10.982  54.854  91.391  1.00  0.00     0.031 A 
HETATM   29  C17 UNL     1      11.722  54.285  90.386  1.00  0.00     0.058 A 
BRANCH  29  30
HETATM   30  N5  UNL     1      13.112  54.263  90.488  1.00  0.00    -0.280 N 
ATOM     31  H5  UNL     1      13.601  53.624  89.861  1.00  0.00     0.179 HD
BRANCH  30  32
HETATM   32  S2  UNL     1      14.090  55.183  91.545  1.00  0.00     0.263 S 
HETATM   33  O4  UNL     1      13.844  56.664  91.399  1.00  0.00    -0.200 OA
HETATM   34  O5  UNL     1      15.546  54.994  91.145  1.00  0.00    -0.200 OA
BRANCH  32  35
HETATM   35  C18 UNL     1      13.921  54.675  93.201  1.00  0.00     0.079 A 
HETATM   36  C19 UNL     1      13.656  55.639  94.178  1.00  0.00     0.025 A 
HETATM   37  C20 UNL     1      13.511  55.296  95.506  1.00  0.00     0.002 A 
HETATM   38  C21 UNL     1      13.631  53.966  95.890  1.00  0.00     0.000 A 
HETATM   39  C22 UNL     1      13.891  53.000  94.957  1.00  0.00     0.002 A 
HETATM   40  C23 UNL     1      14.031  53.376  93.631  1.00  0.00     0.025 A 
ENDBRANCH  32  35
ENDBRANCH  30  32
ENDBRANCH  29  30
ENDBRANCH   2  24
TORSDOF 7
ENDMDL
MODEL 4
REMARK VINA RESULT: -8.068719564      1.133      1.503
REMARK  7 active torsions:
REMARK  status: ('A' for Active; 'I' for Inactive)
REMARK       I    between atoms: C1_2  and  N1_3 
REMARK    1  A    between atoms: C1_2  and  C12_24 
REMARK    2  A    between atoms: N1_3  and  C2_5 
REMARK    3  A    between atoms: C5_8  and  S1_9 
REMARK    4  A    between atoms: S1_9  and  N2_12 
REMARK    5  A    between atoms: C17_29  and  N5_30 
REMARK    6  A    between atoms: N5_30  and  S2_32 
REMARK    7  A    between atoms: S2_32  and  C18_35 
ROOT
HETATM    1  O1  UNL     1      11.864  50.985  86.905  1.00  0.00    -0.267 OA
HETATM    2  C1  UNL     1      10.807  51.640  86.776  1.00  0.00     0.258 C 
HETATM    3  N1  UNL     1      10.593  52.842  87.463  1.00  0.00    -0.323 N 
ATOM      4  H1  UNL     1       9.702  53.310  87.292  1.00  0.00     0.169 HD
ENDROOT
BRANCH   3   5
HETATM    5  C2  UNL     1      11.476  53.481  88.370  1.00  0.00     0.035 A 
HETATM    6  C3  UNL     1      12.723  53.929  87.925  1.00  0.00     0.031 A 
HETATM    7  C4  UNL     1      13.622  54.571  88.739  1.00  0.00     0.027 A 
HETATM    8  C5  UNL     1      13.319  54.803  90.058  1.00  0.00     0.080 A 
HETATM    9  C10 UNL     1      12.103  54.380  90.539  1.00  0.00     0.027 A 
HETATM   10  C11 UNL     1      11.194  53.722  89.688  1.00  0.00     0.031 A 
BRANCH   8  11
HETATM   11  S1  UNL     1      14.461  55.624  91.106  1.00  0.00     0.276 S 
HETATM   12  O2  UNL     1      15.852  55.167  90.843  1.00  0.00    -0.200 OA
HETATM   13  O3  UNL     1      14.431  57.092  90.686  1.00  0.00    -0.200 OA
BRANCH  11  14
HETATM   14  N2  UNL     1      13.965  55.548  92.725  1.00  0.00    -0.112 N 
HETATM   15  C6  UNL     1      13.946  54.567  93.518  1.00  0.00     0.691 A 
HETATM   16  N3  UNL     1      13.485  54.813  94.785  1.00  0.00    -0.201 N 
HETATM   17  N4  UNL     1      14.350  53.353  93.150  1.00  0.00    -0.201 N 
HETATM   18  C7  UNL     1      13.435  53.828  95.678  1.00  0.00     0.107 A 
ATOM     19  H3  UNL     1      13.180  55.751  95.044  1.00  0.00     0.183 HD
HETATM   20  C8  UNL     1      13.844  52.554  95.341  1.00  0.00     0.035 A 
HETATM   21  C9  UNL     1      14.305  52.350  94.041  1.00  0.00     0.107 A 
ATOM     22  H4  UNL     1      14.691  53.188  92.203  1.00  0.00     0.183 HD
ATOM     23  H2  UNL     1      13.632  56.429  93.117  1.00  0.00     0.197 HD
ENDBRANCH  11  14
ENDBRANCH   8  11
ENDBRANCH   3   5
BRANCH   2  24
HETATM   24  C12 UNL     1       9.756  51.130  85.875  1.00  0.00     0.059 A 
HETATM   25  C13 UNL     1       8.597  50.546  86.338  1.00  0.00     0.019 A 
HETATM   26  C14 UNL     1       7.655  50.066  85.461  1.00  0.00     0.001 A 
HETATM   27  C15 UNL     1       7.881  50.175  84.111  1.00  0.00     0.002 A 
HETATM   28  C16 UNL     1       9.041  50.761  83.654  1.00  0.00     0.031 A 
HETATM   29  C17 UNL     1       9.996  51.248  84.513  1.00  0.00     0.058 A 
BRANCH  29  30
HETATM   30  N5  UNL     1      11.133  51.862  83.992  1.00  0.00    -0.280 N 
ATOM     31  H5  UNL     1      11.149  52.882  84.021  1.00  0.00     0.179 HD
BRANCH  30  32
HETATM   32  S2  UNL     1      12.504  51.104  83.311  1.00  0.00     0.263 S 
HETATM   33  O4  UNL     1      12.327  50.830  81.838  1.00  0.00    -0.200 OA
HETATM   34  O5  UNL     1      12.660  49.729  83.942  1.00  0.00    -0.200 OA
BRANCH  32  35
HETATM   35  C18 UNL     1      13.966  52.000  83.614  1.00  0.00     0.079 A 
HETATM   36  C19 UNL     1      13.963  52.977  84.612  1.00  0.00     0.025 A 
HETATM   37  C20 UNL     1      15.090  53.719  84.896  1.00  0.00     0.002 A 
HETATM   38  C21 UNL     1      16.260  53.495  84.180  1.00  0.00     0.000 A 
HETATM   39  C22 UNL     1      16.293  52.545  83.196  1.00  0.00     0.002 A 
HETATM   40  C23 UNL     1      15.145  51.817  82.934  1.00  0.00     0.025 A 
ENDBRANCH  32  35
ENDBRANCH  30  32
ENDBRANCH  29  30
ENDBRANCH   2  24
TORSDOF 7
ENDMDL
MODEL 5
REMARK VINA RESULT: -7.979512727      3.011      4.415
REMARK  7 active torsions:
REMARK  status: ('A' for Active; 'I' for Inactive)
REMARK       I    between atoms: C1_2  and  N1_3 
REMARK    1  A    between atoms: C1_2  and  C12_24 
REMARK    2  A    between atoms: N1_3  and  C2_5 
REMARK    3  A    between atoms: C5_8  and  S1_9 
REMARK    4  A    between atoms: S1_9  and  N2_12 
REMARK    5  A    between atoms: C17_29  and  N5_30 
REMARK    6  A    between atoms: N5_30  and  S2_32 
REMARK    7  A    between atoms: S2_32  and  C18_35 
ROOT
HETATM    1  O1  UNL     1      10.397  52.867  82.536  1.00  0.00    -0.267 OA
HETATM    2  C1  UNL     1      10.016  51.677  82.558  1.00  0.00     0.258 C 
HETATM    3  N1  UNL     1       9.954  50.941  83.747  1.00  0.00    -0.323 N 
ATOM      4  H1  UNL     1       9.626  49.978  83.668  1.00  0.00     0.169 HD
ENDROOT
BRANCH   3   5
HETATM    5  C2  UNL     1      10.296  51.385  85.049  1.00  0.00     0.035 A 
HETATM    6  C3  UNL     1      11.389  50.820  85.712  1.00  0.00     0.031 A 
HETATM    7  C4  UNL     1      11.791  51.212  86.964  1.00  0.00     0.027 A 
HETATM    8  C5  UNL     1      11.112  52.202  87.631  1.00  0.00     0.080 A 
HETATM    9  C10 UNL     1      10.030  52.787  87.017  1.00  0.00     0.027 A 
HETATM   10  C11 UNL     1       9.633  52.371  85.731  1.00  0.00     0.031 A 
BRANCH   8  11
HETATM   11  S1  UNL     1      11.618  52.710  89.231  1.00  0.00     0.276 S 
HETATM   12  O2  UNL     1      10.454  52.807  90.153  1.00  0.00    -0.200 OA
HETATM   13  O3  UNL     1      12.473  51.569  89.779  1.00  0.00    -0.200 OA
BRANCH  11  14
HETATM   14  N2  UNL     1      12.599  54.089  89.152  1.00  0.00    -0.112 N 
HETATM   15  C6  UNL     1      13.273  54.654  90.057  1.00  0.00     0.691 A 
HETATM   16  N3  UNL     1      13.979  55.770  89.689  1.00  0.00    -0.201 N 
HETATM   17  N4  UNL     1      13.301  54.195  91.306  1.00  0.00    -0.201 N 
HETATM   18  C7  UNL     1      14.713  56.419  90.588  1.00  0.00     0.107 A 
ATOM     19  H3  UNL     1      13.942  56.102  88.726  1.00  0.00     0.183 HD
HETATM   20  C8  UNL     1      14.772  55.980  91.895  1.00  0.00     0.035 A 
HETATM   21  C9  UNL     1      14.038  54.841  92.224  1.00  0.00     0.107 A 
ATOM     22  H4  UNL     1      12.770  53.363  91.563  1.00  0.00     0.183 HD
ATOM     23  H2  UNL     1      12.654  54.529  88.233  1.00  0.00     0.197 HD
ENDBRANCH  11  14
ENDBRANCH   8  11
ENDBRANCH   3   5
BRANCH   2  24
HETATM   24  C12 UNL     1       9.621  51.030  81.290  1.00  0.00     0.059 A 
HETATM   25  C13 UNL     1       8.342  50.580  81.051  1.00  0.00     0.019 A 
HETATM   26  C14 UNL     1       8.025  49.965  79.864  1.00  0.00     0.001 A 
HETATM   27  C15 UNL     1       9.003  49.803  78.914  1.00  0.00     0.002 A 
HETATM   28  C16 UNL     1      10.281  50.257  79.159  1.00  0.00     0.031 A 
HETATM   29  C17 UNL     1      10.619  50.874  80.337  1.00  0.00     0.058 A 
BRANCH  29  30
HETATM   30  N5  UNL     1      11.919  51.344  80.514  1.00  0.00    -0.280 N 
ATOM     31  H5  UNL     1      12.081  52.323  80.277  1.00  0.00     0.179 HD
BRANCH  30  32
HETATM   32  S2  UNL     1      13.271  50.469  81.082  1.00  0.00     0.263 S 
HETATM   33  O4  UNL     1      14.079  49.880  79.953  1.00  0.00    -0.200 OA
HETATM   34  O5  UNL     1      12.774  49.265  81.868  1.00  0.00    -0.200 OA
BRANCH  32  35
HETATM   35  C18 UNL     1      14.271  51.423  82.141  1.00  0.00     0.079 A 
HETATM   36  C19 UNL     1      15.563  51.758  81.729  1.00  0.00     0.025 A 
HETATM   37  C20 UNL     1      16.400  52.511  82.525  1.00  0.00     0.002 A 
HETATM   38  C21 UNL     1      15.955  52.951  83.767  1.00  0.00     0.000 A 
HETATM   39  C22 UNL     1      14.696  52.639  84.198  1.00  0.00     0.002 A 
HETATM   40  C23 UNL     1      13.879  51.881  83.376  1.00  0.00     0.025 A 
ENDBRANCH  32  35
ENDBRANCH  30  32
ENDBRANCH  29  30
ENDBRANCH   2  24
TORSDOF 7
ENDMDL
