MODEL 1
REMARK VINA RESULT: -6.978218602      0.000      0.000
REMARK  11 active torsions:
REMARK  status: ('A' for Active; 'I' for Inactive)
REMARK       I    between atoms: C1_4  and  N3_6 
REMARK    1  A    between atoms: N3_6  and  C2_8 
REMARK    2  A    between atoms: C2_8  and  C3_9 
REMARK    3  A    between atoms: C3_9  and  C4_10 
REMARK    4  A    between atoms: C3_9  and  C8_21 
REMARK    5  A    between atoms: C4_10  and  N4_11 
REMARK    6  A    between atoms: C6_13  and  C7_14 
REMARK    7  A    between atoms: C7_14  and  O1_15 
REMARK    8  A    between atoms: C8_21  and  N9_27 
REMARK    9  A    between atoms: N7_22  and  N8_24 
REMARK   10  A    between atoms: N9_27  and  N10_29 
REMARK   11  A    between atoms: N10_29  and  N11_30 
ROOT
HETATM    1  C3  UNL     1      21.143  17.014   9.524  1.00  0.00     0.093 C 
ENDROOT
BRANCH   1   2
HETATM    2  C2  UNL     1      20.617  15.788   8.761  1.00  0.00     0.136 C 
BRANCH   2   3
HETATM    3  N3  UNL     1      19.198  15.608   8.918  1.00  0.00    -0.364 N 
HETATM    4  C1  UNL     1      18.569  14.426   9.364  1.00  0.00     0.181 C 
HETATM    5  N1  UNL     1      18.483  13.443   8.538  1.00  0.00    -0.374 N 
HETATM    6  N2  UNL     1      18.074  14.391  10.683  1.00  0.00    -0.064 NA
ATOM      7  H12 UNL     1      18.029  12.588   8.860  1.00  0.00     0.158 HD
ATOM      8  H11 UNL     1      18.841  13.469   7.583  1.00  0.00     0.158 HD
ATOM      9  H3  UNL     1      18.598  16.400   8.689  1.00  0.00     0.162 HD
ENDBRANCH   2   3
ENDBRANCH   1   2
BRANCH   1  10
HETATM   10  C4  UNL     1      20.360  17.294  10.744  1.00  0.00     0.163 C 
BRANCH  10  11
HETATM   11  N4  UNL     1      20.307  18.648  11.206  1.00  0.00    -0.286 N 
HETATM   12  C5  UNL     1      20.230  19.208  12.405  1.00  0.00     0.140 A 
HETATM   13  C6  UNL     1      20.231  20.605  12.268  1.00  0.00     0.067 A 
HETATM   14  N5  UNL     1      20.310  20.803  10.959  1.00  0.00    -0.287 N 
HETATM   15  N6  UNL     1      20.356  19.671  10.331  1.00  0.00    -0.241 N 
ATOM     16  H5  UNL     1      20.332  21.719  10.509  1.00  0.00     0.188 HD
ATOM     17  H6  UNL     1      20.419  19.569   9.318  1.00  0.00     0.208 HD
BRANCH  13  18
HETATM   18  C7  UNL     1      20.166  21.629  13.321  1.00  0.00     0.224 C 
BRANCH  18  19
HETATM   19  O1  UNL     1      18.861  21.845  13.769  1.00  0.00    -0.395 OA
ATOM     20  H1  UNL     1      18.764  21.666  14.696  1.00  0.00     0.209 HD
ENDBRANCH  18  19
ENDBRANCH  13  18
ENDBRANCH  10  11
ENDBRANCH   1  10
BRANCH   1  21
HETATM   21  C8  UNL     1      22.549  16.704   9.796  1.00  0.00     0.116 C 
HETATM   22  N7  UNL     1      22.896  15.613  10.332  1.00  0.00    -0.294 N 
ATOM     23  H7  UNL     1      22.138  14.969  10.557  1.00  0.00     0.187 HD
BRANCH  22  24
HETATM   24  N8  UNL     1      24.165  15.180  10.649  1.00  0.00    -0.344 N 
ATOM     25  H82 UNL     1      24.656  15.765  11.325  1.00  0.00     0.176 HD
ATOM     26  H81 UNL     1      24.663  14.362  10.297  1.00  0.00     0.176 HD
ENDBRANCH  22  24
BRANCH  21  27
HETATM   27  N9  UNL     1      23.535  17.632   9.413  1.00  0.00    -0.272 N 
ATOM     28  H9  UNL     1      23.698  17.824   8.424  1.00  0.00     0.185 HD
BRANCH  27  29
HETATM   29  N10 UNL     1      24.285  18.286  10.378  1.00  0.00    -0.029 NA
BRANCH  29  30
HETATM   30  N11 UNL     1      25.646  18.365  10.037  1.00  0.00    -0.329 N 
ATOM     31 2H11 UNL     1      26.112  17.671   9.453  1.00  0.00     0.174 HD
ATOM     32 1H11 UNL     1      26.100  19.185  10.437  1.00  0.00     0.174 HD
ENDBRANCH  29  30
ENDBRANCH  27  29
ENDBRANCH  21  27
ENDBRANCH   1  21
TORSDOF 11
ENDMDL
MODEL 2
REMARK VINA RESULT: -6.834977849      0.848      1.309
REMARK  11 active torsions:
REMARK  status: ('A' for Active; 'I' for Inactive)
REMARK       I    between atoms: C1_4  and  N3_6 
REMARK    1  A    between atoms: N3_6  and  C2_8 
REMARK    2  A    between atoms: C2_8  and  C3_9 
REMARK    3  A    between atoms: C3_9  and  C4_10 
REMARK    4  A    between atoms: C3_9  and  C8_21 
REMARK    5  A    between atoms: C4_10  and  N4_11 
REMARK    6  A    between atoms: C6_13  and  C7_14 
REMARK    7  A    between atoms: C7_14  and  O1_15 
REMARK    8  A    between atoms: C8_21  and  N9_27 
REMARK    9  A    between atoms: N7_22  and  N8_24 
REMARK   10  A    between atoms: N9_27  and  N10_29 
REMARK   11  A    between atoms: N10_29  and  N11_30 
ROOT
HETATM    1  C3  UNL     1      21.075  16.697   9.416  1.00  0.00     0.093 C 
ENDROOT
BRANCH   1   2
HETATM    2  C2  UNL     1      20.327  16.024  10.578  1.00  0.00     0.136 C 
BRANCH   2   3
HETATM    3  N3  UNL     1      19.830  14.719  10.232  1.00  0.00    -0.364 N 
HETATM    4  C1  UNL     1      18.595  14.456   9.603  1.00  0.00     0.181 C 
HETATM    5  N1  UNL     1      17.527  14.544  10.315  1.00  0.00    -0.374 N 
HETATM    6  N2  UNL     1      18.603  14.115   8.235  1.00  0.00    -0.064 NA
ATOM      7  H12 UNL     1      16.634  14.354   9.860  1.00  0.00     0.158 HD
ATOM      8  H11 UNL     1      17.522  14.790  11.305  1.00  0.00     0.158 HD
ATOM      9  H3  UNL     1      20.420  13.919  10.460  1.00  0.00     0.162 HD
ENDBRANCH   2   3
ENDBRANCH   1   2
BRANCH   1  10
HETATM   10  C4  UNL     1      20.691  18.113   9.248  1.00  0.00     0.163 C 
BRANCH  10  11
HETATM   11  N4  UNL     1      20.366  18.860  10.424  1.00  0.00    -0.286 N 
HETATM   12  C5  UNL     1      20.748  20.036  10.902  1.00  0.00     0.140 A 
HETATM   13  C6  UNL     1      20.080  20.287  12.112  1.00  0.00     0.067 A 
HETATM   14  N5  UNL     1      19.319  19.216  12.291  1.00  0.00    -0.287 N 
HETATM   15  N6  UNL     1      19.476  18.379  11.315  1.00  0.00    -0.241 N 
ATOM     16  H5  UNL     1      18.697  19.072  13.087  1.00  0.00     0.188 HD
ATOM     17  H6  UNL     1      18.995  17.483  11.233  1.00  0.00     0.208 HD
BRANCH  13  18
HETATM   18  C7  UNL     1      20.185  21.463  12.988  1.00  0.00     0.224 C 
BRANCH  18  19
HETATM   19  O1  UNL     1      19.021  21.674  13.731  1.00  0.00    -0.395 OA
ATOM     20  H1  UNL     1      19.063  22.469  14.248  1.00  0.00     0.209 HD
ENDBRANCH  18  19
ENDBRANCH  13  18
ENDBRANCH  10  11
ENDBRANCH   1  10
BRANCH   1  21
HETATM   21  C8  UNL     1      22.493  16.516   9.736  1.00  0.00     0.116 C 
HETATM   22  N7  UNL     1      22.917  15.469  10.305  1.00  0.00    -0.294 N 
ATOM     23  H7  UNL     1      22.211  14.766  10.523  1.00  0.00     0.187 HD
BRANCH  22  24
HETATM   24  N8  UNL     1      24.208  15.155  10.668  1.00  0.00    -0.344 N 
ATOM     25  H82 UNL     1      24.689  15.882  11.196  1.00  0.00     0.176 HD
ATOM     26  H81 UNL     1      24.730  14.300  10.476  1.00  0.00     0.176 HD
ENDBRANCH  22  24
BRANCH  21  27
HETATM   27  N9  UNL     1      23.407  17.518   9.360  1.00  0.00    -0.272 N 
ATOM     28  H9  UNL     1      23.559  17.726   8.373  1.00  0.00     0.185 HD
BRANCH  27  29
HETATM   29  N10 UNL     1      24.101  18.224  10.331  1.00  0.00    -0.029 NA
BRANCH  29  30
HETATM   30  N11 UNL     1      25.473  18.321  10.045  1.00  0.00    -0.329 N 
ATOM     31 2H11 UNL     1      26.198  18.034  10.702  1.00  0.00     0.174 HD
ATOM     32 1H11 UNL     1      25.650  18.706   9.118  1.00  0.00     0.174 HD
ENDBRANCH  29  30
ENDBRANCH  27  29
ENDBRANCH  21  27
ENDBRANCH   1  21
TORSDOF 11
ENDMDL
MODEL 3
REMARK VINA RESULT: -6.562334699      2.671      4.908
REMARK  11 active torsions:
REMARK  status: ('A' for Active; 'I' for Inactive)
REMARK       I    between atoms: C1_4  and  N3_6 
REMARK    1  A    between atoms: N3_6  and  C2_8 
REMARK    2  A    between atoms: C2_8  and  C3_9 
REMARK    3  A    between atoms: C3_9  and  C4_10 
REMARK    4  A    between atoms: C3_9  and  C8_21 
REMARK    5  A    between atoms: C4_10  and  N4_11 
REMARK    6  A    between atoms: C6_13  and  C7_14 
REMARK    7  A    between atoms: C7_14  and  O1_15 
REMARK    8  A    between atoms: C8_21  and  N9_27 
REMARK    9  A    between atoms: N7_22  and  N8_24 
REMARK   10  A    between atoms: N9_27  and  N10_29 
REMARK   11  A    between atoms: N10_29  and  N11_30 
ROOT
HETATM    1  C3  UNL     1      22.779  17.687   9.787  1.00  0.00     0.093 C 
ENDROOT
BRANCH   1   2
HETATM    2  C2  UNL     1      22.111  19.056   9.986  1.00  0.00     0.136 C 
BRANCH   2   3
HETATM    3  N3  UNL     1      20.690  18.953  10.181  1.00  0.00    -0.364 N 
HETATM    4  C1  UNL     1      20.033  18.968  11.430  1.00  0.00     0.181 C 
HETATM    5  N1  UNL     1      20.090  17.904  12.152  1.00  0.00    -0.374 N 
HETATM    6  N2  UNL     1      19.357  20.144  11.814  1.00  0.00    -0.064 NA
ATOM      7  H12 UNL     1      19.616  17.915  13.055  1.00  0.00     0.158 HD
ATOM      8  H11 UNL     1      20.579  17.053  11.873  1.00  0.00     0.158 HD
ATOM      9  H3  UNL     1      20.109  18.863   9.348  1.00  0.00     0.162 HD
ENDBRANCH   2   3
ENDBRANCH   1   2
BRANCH   1  10
HETATM   10  C4  UNL     1      22.051  16.844   8.818  1.00  0.00     0.163 C 
BRANCH  10  11
HETATM   11  N4  UNL     1      21.032  15.975   9.323  1.00  0.00    -0.286 N 
HETATM   12  C5  UNL     1      19.709  15.958   9.232  1.00  0.00     0.140 A 
HETATM   13  C6  UNL     1      19.209  14.840   9.920  1.00  0.00     0.067 A 
HETATM   14  N5  UNL     1      20.292  14.240  10.397  1.00  0.00    -0.287 N 
HETATM   15  N6  UNL     1      21.358  14.892  10.055  1.00  0.00    -0.241 N 
ATOM     16  H5  UNL     1      20.286  13.386  10.954  1.00  0.00     0.188 HD
ATOM     17  H6  UNL     1      22.310  14.622  10.305  1.00  0.00     0.208 HD
BRANCH  13  18
HETATM   18  C7  UNL     1      17.811  14.415  10.082  1.00  0.00     0.224 C 
BRANCH  18  19
HETATM   19  O1  UNL     1      17.160  14.263   8.856  1.00  0.00    -0.395 OA
ATOM     20  H1  UNL     1      16.215  14.242   8.950  1.00  0.00     0.209 HD
ENDBRANCH  18  19
ENDBRANCH  13  18
ENDBRANCH  10  11
ENDBRANCH   1  10
BRANCH   1  21
HETATM   21  C8  UNL     1      24.147  18.001   9.367  1.00  0.00     0.116 C 
HETATM   22  N7  UNL     1      24.428  18.267   8.164  1.00  0.00    -0.294 N 
ATOM     23  H7  UNL     1      23.645  18.249   7.511  1.00  0.00     0.187 HD
BRANCH  22  24
HETATM   24  N8  UNL     1      25.655  18.578   7.620  1.00  0.00    -0.344 N 
ATOM     25  H82 UNL     1      26.117  19.380   8.047  1.00  0.00     0.176 HD
ATOM     26  H81 UNL     1      26.147  18.112   6.857  1.00  0.00     0.176 HD
ENDBRANCH  22  24
BRANCH  21  27
HETATM   27  N9  UNL     1      25.162  18.046  10.342  1.00  0.00    -0.272 N 
ATOM     28  H9  UNL     1      25.508  17.182  10.759  1.00  0.00     0.185 HD
BRANCH  27  29
HETATM   29  N10 UNL     1      25.693  19.265  10.735  1.00  0.00    -0.029 NA
BRANCH  29  30
HETATM   30  N11 UNL     1      27.045  19.168  11.101  1.00  0.00    -0.329 N 
ATOM     31 2H11 UNL     1      27.468  18.302  11.434  1.00  0.00     0.174 HD
ATOM     32 1H11 UNL     1      27.541  20.052  10.996  1.00  0.00     0.174 HD
ENDBRANCH  29  30
ENDBRANCH  27  29
ENDBRANCH  21  27
ENDBRANCH   1  21
TORSDOF 11
ENDMDL
MODEL 4
REMARK VINA RESULT: -6.400377565      2.826      5.099
REMARK  11 active torsions:
REMARK  status: ('A' for Active; 'I' for Inactive)
REMARK       I    between atoms: C1_4  and  N3_6 
REMARK    1  A    between atoms: N3_6  and  C2_8 
REMARK    2  A    between atoms: C2_8  and  C3_9 
REMARK    3  A    between atoms: C3_9  and  C4_10 
REMARK    4  A    between atoms: C3_9  and  C8_21 
REMARK    5  A    between atoms: C4_10  and  N4_11 
REMARK    6  A    between atoms: C6_13  and  C7_14 
REMARK    7  A    between atoms: C7_14  and  O1_15 
REMARK    8  A    between atoms: C8_21  and  N9_27 
REMARK    9  A    between atoms: N7_22  and  N8_24 
REMARK   10  A    between atoms: N9_27  and  N10_29 
REMARK   11  A    between atoms: N10_29  and  N11_30 
ROOT
HETATM    1  C3  UNL     1      23.240  17.817   9.937  1.00  0.00     0.093 C 
ENDROOT
BRANCH   1   2
HETATM    2  C2  UNL     1      22.578  19.152  10.312  1.00  0.00     0.136 C 
BRANCH   2   3
HETATM    3  N3  UNL     1      21.144  19.103  10.211  1.00  0.00    -0.364 N 
HETATM    4  C1  UNL     1      20.250  19.058  11.302  1.00  0.00     0.181 C 
HETATM    5  N1  UNL     1      20.126  17.942  11.931  1.00  0.00    -0.374 N 
HETATM    6  N2  UNL     1      19.548  20.234  11.638  1.00  0.00    -0.064 NA
ATOM      7  H12 UNL     1      19.480  17.910  12.720  1.00  0.00     0.158 HD
ATOM      8  H11 UNL     1      20.633  17.091  11.687  1.00  0.00     0.158 HD
ATOM      9  H3  UNL     1      20.740  19.102   9.275  1.00  0.00     0.162 HD
ENDBRANCH   2   3
ENDBRANCH   1   2
BRANCH   1  10
HETATM   10  C4  UNL     1      22.525  17.122   8.848  1.00  0.00     0.163 C 
BRANCH  10  11
HETATM   11  N4  UNL     1      21.482  16.212   9.210  1.00  0.00    -0.286 N 
HETATM   12  C5  UNL     1      20.239  16.022   8.789  1.00  0.00     0.140 A 
HETATM   13  C6  UNL     1      19.665  14.955   9.497  1.00  0.00     0.067 A 
HETATM   14  N5  UNL     1      20.624  14.559  10.323  1.00  0.00    -0.287 N 
HETATM   15  N6  UNL     1      21.686  15.284  10.165  1.00  0.00    -0.241 N 
ATOM     16  H5  UNL     1      20.536  13.793  10.991  1.00  0.00     0.188 HD
ATOM     17  H6  UNL     1      22.553  15.167  10.689  1.00  0.00     0.208 HD
BRANCH  13  18
HETATM   18  C7  UNL     1      18.315  14.388   9.362  1.00  0.00     0.224 C 
BRANCH  18  19
HETATM   19  O1  UNL     1      18.198  13.557   8.246  1.00  0.00    -0.395 OA
ATOM     20  H1  UNL     1      17.934  14.034   7.468  1.00  0.00     0.209 HD
ENDBRANCH  18  19
ENDBRANCH  13  18
ENDBRANCH  10  11
ENDBRANCH   1  10
BRANCH   1  21
HETATM   21  C8  UNL     1      24.619  18.173   9.590  1.00  0.00     0.116 C 
HETATM   22  N7  UNL     1      25.490  18.398  10.479  1.00  0.00    -0.294 N 
ATOM     23  H7  UNL     1      25.171  18.314  11.444  1.00  0.00     0.187 HD
BRANCH  22  24
HETATM   24  N8  UNL     1      26.813  18.741  10.312  1.00  0.00    -0.344 N 
ATOM     25  H82 UNL     1      27.153  18.670   9.353  1.00  0.00     0.176 HD
ATOM     26  H81 UNL     1      27.481  19.052  11.018  1.00  0.00     0.176 HD
ENDBRANCH  22  24
BRANCH  21  27
HETATM   27  N9  UNL     1      24.985  18.224   8.232  1.00  0.00    -0.272 N 
ATOM     28  H9  UNL     1      24.762  17.445   7.613  1.00  0.00     0.185 HD
BRANCH  27  29
HETATM   29  N10 UNL     1      25.650  19.335   7.734  1.00  0.00    -0.029 NA
BRANCH  29  30
HETATM   30  N11 UNL     1      26.834  18.993   7.060  1.00  0.00    -0.329 N 
ATOM     31 2H11 UNL     1      26.879  18.254   6.359  1.00  0.00     0.174 HD
ATOM     32 1H11 UNL     1      27.626  19.564   7.354  1.00  0.00     0.174 HD
ENDBRANCH  29  30
ENDBRANCH  27  29
ENDBRANCH  21  27
ENDBRANCH   1  21
TORSDOF 11
ENDMDL
MODEL 5
REMARK VINA RESULT: -6.351097054      1.317      4.492
REMARK  11 active torsions:
REMARK  status: ('A' for Active; 'I' for Inactive)
REMARK       I    between atoms: C1_4  and  N3_6 
REMARK    1  A    between atoms: N3_6  and  C2_8 
REMARK    2  A    between atoms: C2_8  and  C3_9 
REMARK    3  A    between atoms: C3_9  and  C4_10 
REMARK    4  A    between atoms: C3_9  and  C8_21 
REMARK    5  A    between atoms: C4_10  and  N4_11 
REMARK    6  A    between atoms: C6_13  and  C7_14 
REMARK    7  A    between atoms: C7_14  and  O1_15 
REMARK    8  A    between atoms: C8_21  and  N9_27 
REMARK    9  A    between atoms: N7_22  and  N8_24 
REMARK   10  A    between atoms: N9_27  and  N10_29 
REMARK   11  A    between atoms: N10_29  and  N11_30 
ROOT
HETATM    1  C3  UNL     1      21.342  16.791  10.110  1.00  0.00     0.093 C 
ENDROOT
BRANCH   1   2
HETATM    2  C2  UNL     1      22.559  16.529   9.209  1.00  0.00     0.136 C 
BRANCH   2   3
HETATM    3  N3  UNL     1      23.802  16.870   9.848  1.00  0.00    -0.364 N 
HETATM    4  C1  UNL     1      24.476  18.103   9.719  1.00  0.00     0.181 C 
HETATM    5  N1  UNL     1      25.115  18.326   8.624  1.00  0.00    -0.374 N 
HETATM    6  N2  UNL     1      24.411  19.015  10.792  1.00  0.00    -0.064 NA
ATOM      7  H12 UNL     1      25.602  19.218   8.530  1.00  0.00     0.158 HD
ATOM      8  H11 UNL     1      25.163  17.666   7.847  1.00  0.00     0.158 HD
ATOM      9  H3  UNL     1      24.230  16.163  10.444  1.00  0.00     0.162 HD
ENDBRANCH   2   3
ENDBRANCH   1   2
BRANCH   1  10
HETATM   10  C4  UNL     1      20.638  18.038   9.753  1.00  0.00     0.163 C 
BRANCH  10  11
HETATM   11  N4  UNL     1      20.307  18.943  10.811  1.00  0.00    -0.286 N 
HETATM   12  C5  UNL     1      20.714  20.161  11.142  1.00  0.00     0.140 A 
HETATM   13  C6  UNL     1      20.025  20.588  12.288  1.00  0.00     0.067 A 
HETATM   14  N5  UNL     1      19.226  19.572  12.585  1.00  0.00    -0.287 N 
HETATM   15  N6  UNL     1      19.382  18.609  11.732  1.00  0.00    -0.241 N 
ATOM     16  H5  UNL     1      18.580  19.551  13.374  1.00  0.00     0.188 HD
ATOM     17  H6  UNL     1      18.875  17.724  11.754  1.00  0.00     0.208 HD
BRANCH  13  18
HETATM   18  C7  UNL     1      20.144  21.866  13.005  1.00  0.00     0.224 C 
BRANCH  18  19
HETATM   19  O1  UNL     1      18.999  22.167  13.745  1.00  0.00    -0.395 OA
ATOM     20  H1  UNL     1      19.205  22.549  14.590  1.00  0.00     0.209 HD
ENDBRANCH  18  19
ENDBRANCH  13  18
ENDBRANCH  10  11
ENDBRANCH   1  10
BRANCH   1  21
HETATM   21  C8  UNL     1      20.510  15.594   9.963  1.00  0.00     0.116 C 
HETATM   22  N7  UNL     1      20.936  14.446  10.280  1.00  0.00    -0.294 N 
ATOM     23  H7  UNL     1      21.889  14.412  10.643  1.00  0.00     0.187 HD
BRANCH  22  24
HETATM   24  N8  UNL     1      20.281  13.238  10.199  1.00  0.00    -0.344 N 
ATOM     25  H82 UNL     1      20.328  12.672  11.046  1.00  0.00     0.176 HD
ATOM     26  H81 UNL     1      19.764  12.848   9.411  1.00  0.00     0.176 HD
ENDBRANCH  22  24
BRANCH  21  27
HETATM   27  N9  UNL     1      19.191  15.738   9.495  1.00  0.00    -0.272 N 
ATOM     28  H9  UNL     1      18.593  16.474   9.870  1.00  0.00     0.185 HD
BRANCH  27  29
HETATM   29  N10 UNL     1      18.702  14.878   8.522  1.00  0.00    -0.029 NA
BRANCH  29  30
HETATM   30  N11 UNL     1      17.522  14.231   8.924  1.00  0.00    -0.329 N 
ATOM     31 2H11 UNL     1      17.427  13.215   8.946  1.00  0.00     0.174 HD
ATOM     32 1H11 UNL     1      16.787  14.888   9.184  1.00  0.00     0.174 HD
ENDBRANCH  29  30
ENDBRANCH  27  29
ENDBRANCH  21  27
ENDBRANCH   1  21
TORSDOF 11
ENDMDL
