MODEL 1
REMARK VINA RESULT: -6.962365882      0.000      0.000
REMARK  8 active torsions:
REMARK  status: ('A' for Active; 'I' for Inactive)
REMARK    1  A    between atoms: N1_1  and  C1_4 
REMARK    2  A    between atoms: C2_7  and  C3_8 
REMARK    3  A    between atoms: C3_8  and  N3_9 
REMARK    4  A    between atoms: N3_9  and  C4_12 
REMARK    5  A    between atoms: C4_12  and  C5_13 
REMARK    6  A    between atoms: C5_13  and  N4_14 
REMARK    7  A    between atoms: N4_14  and  C6_17 
REMARK    8  A    between atoms: C8_23  and  O1_24 
ROOT
HETATM    1  N3  UNL     1      26.560  18.228  10.161  1.00  0.00    -0.067 N 
ATOM      2  H31 UNL     1      26.823  17.493  10.818  1.00  0.00     0.277 HD
ATOM      3  H32 UNL     1      26.622  17.689   9.297  1.00  0.00     0.277 HD
ENDROOT
BRANCH   1   4
HETATM    4  C3  UNL     1      27.502  19.328  10.178  1.00  0.00     0.309 C 
BRANCH   4   5
HETATM    5  C2  UNL     1      27.351  20.167   8.985  1.00  0.00     0.127 A 
HETATM    6  N2  UNL     1      26.880  19.678   7.825  1.00  0.00    -0.179 N 
HETATM    7  C1  UNL     1      26.761  20.490   6.749  1.00  0.00     0.681 A 
ATOM      8  H2  UNL     1      26.612  18.696   7.756  1.00  0.00     0.185 HD
HETATM    9  N9  UNL     1      27.111  21.783   6.830  1.00  0.00    -0.141 N 
HETATM   10  C9  UNL     1      27.579  22.279   7.973  1.00  0.00     0.340 A 
ATOM     11  H9  UNL     1      27.017  22.387   6.013  1.00  0.00     0.189 HD
HETATM   12  N8  UNL     1      27.704  21.480   9.057  1.00  0.00    -0.296 N 
HETATM   13  O2  UNL     1      27.918  23.470   8.105  1.00  0.00    -0.246 OA
ATOM     14  H8  UNL     1      28.063  21.863   9.932  1.00  0.00     0.172 HD
BRANCH   7  15
HETATM   15  N1  UNL     1      26.303  19.989   5.643  1.00  0.00    -0.234 N 
ATOM     16  H12 UNL     1      25.300  19.923   5.473  1.00  0.00     0.174 HD
ATOM     17  H11 UNL     1      26.970  19.661   4.944  1.00  0.00     0.174 HD
ENDBRANCH   7  15
ENDBRANCH   4   5
ENDBRANCH   1   4
BRANCH   1  18
HETATM   18  C4  UNL     1      25.194  18.713  10.404  1.00  0.00     0.260 C 
BRANCH  18  19
HETATM   19  C5  UNL     1      24.219  18.021   9.467  1.00  0.00     0.260 C 
BRANCH  19  20
HETATM   20  N4  UNL     1      23.000  17.661  10.161  1.00  0.00    -0.059 N 
ATOM     21  H42 UNL     1      23.183  17.074  10.975  1.00  0.00     0.278 HD
ATOM     22  H41 UNL     1      22.585  18.459  10.642  1.00  0.00     0.278 HD
BRANCH  20  23
HETATM   23  C6  UNL     1      22.069  17.037   9.241  1.00  0.00     0.296 C 
HETATM   24  C7  UNL     1      20.738  17.643   9.421  1.00  0.00     0.139 C 
HETATM   25  N5  UNL     1      20.464  19.046   9.638  1.00  0.00    -0.084 NA
HETATM   26  N6  UNL     1      19.861  16.715   9.354  1.00  0.00    -0.291 N 
HETATM   27  N7  UNL     1      20.445  15.471   9.139  1.00  0.00    -0.105 NA
ATOM     28  H6  UNL     1      18.857  16.869   9.447  1.00  0.00     0.183 HD
HETATM   29  C8  UNL     1      21.822  15.596   9.551  1.00  0.00     0.269 C 
BRANCH  29  30
HETATM   30  O1  UNL     1      22.661  14.730   8.862  1.00  0.00    -0.375 OA
ATOM     31  H1  UNL     1      22.792  13.898   9.303  1.00  0.00     0.211 HD
ENDBRANCH  29  30
ENDBRANCH  20  23
ENDBRANCH  19  20
ENDBRANCH  18  19
ENDBRANCH   1  18
TORSDOF 8
ENDMDL
MODEL 2
REMARK VINA RESULT: -6.883534103      5.181      7.699
REMARK  8 active torsions:
REMARK  status: ('A' for Active; 'I' for Inactive)
REMARK    1  A    between atoms: N1_1  and  C1_4 
REMARK    2  A    between atoms: C2_7  and  C3_8 
REMARK    3  A    between atoms: C3_8  and  N3_9 
REMARK    4  A    between atoms: N3_9  and  C4_12 
REMARK    5  A    between atoms: C4_12  and  C5_13 
REMARK    6  A    between atoms: C5_13  and  N4_14 
REMARK    7  A    between atoms: N4_14  and  C6_17 
REMARK    8  A    between atoms: C8_23  and  O1_24 
ROOT
HETATM    1  N3  UNL     1      19.388  20.124  12.344  1.00  0.00    -0.067 N 
ATOM      2  H31 UNL     1      18.510  20.259  11.844  1.00  0.00     0.277 HD
ATOM      3  H32 UNL     1      19.008  19.831  13.245  1.00  0.00     0.277 HD
ENDROOT
BRANCH   1   4
HETATM    4  C3  UNL     1      20.140  21.357  12.454  1.00  0.00     0.309 C 
BRANCH   4   5
HETATM    5  C2  UNL     1      19.984  21.951  13.786  1.00  0.00     0.127 A 
HETATM    6  N2  UNL     1      18.775  22.211  14.313  1.00  0.00    -0.179 N 
HETATM    7  C1  UNL     1      18.680  22.762  15.545  1.00  0.00     0.681 A 
ATOM      8  H2  UNL     1      17.930  21.992  13.784  1.00  0.00     0.185 HD
HETATM    9  N9  UNL     1      19.785  23.052  16.248  1.00  0.00    -0.141 N 
HETATM   10  C9  UNL     1      20.989  22.800  15.737  1.00  0.00     0.340 A 
ATOM     11  H9  UNL     1      19.703  23.467  17.177  1.00  0.00     0.189 HD
HETATM   12  N8  UNL     1      21.100  22.249  14.507  1.00  0.00    -0.296 N 
HETATM   13  O2  UNL     1      22.048  23.048  16.344  1.00  0.00    -0.246 OA
ATOM     14  H8  UNL     1      22.023  22.057  14.118  1.00  0.00     0.172 HD
BRANCH   7  15
HETATM   15  N1  UNL     1      17.500  23.001  16.027  1.00  0.00    -0.234 N 
ATOM     16  H12 UNL     1      16.661  22.674  15.548  1.00  0.00     0.174 HD
ATOM     17  H11 UNL     1      17.426  23.526  16.899  1.00  0.00     0.174 HD
ENDBRANCH   7  15
ENDBRANCH   4   5
ENDBRANCH   1   4
BRANCH   1  18
HETATM   18  C4  UNL     1      20.209  19.071  11.730  1.00  0.00     0.260 C 
BRANCH  18  19
HETATM   19  C5  UNL     1      20.977  19.632  10.545  1.00  0.00     0.260 C 
BRANCH  19  20
HETATM   20  N4  UNL     1      21.417  18.572   9.663  1.00  0.00    -0.059 N 
ATOM     21  H42 UNL     1      20.686  18.290   9.010  1.00  0.00     0.278 HD
ATOM     22  H41 UNL     1      22.104  18.901   8.984  1.00  0.00     0.278 HD
BRANCH  20  23
HETATM   23  C6  UNL     1      21.913  17.453  10.438  1.00  0.00     0.296 C 
HETATM   24  C7  UNL     1      23.379  17.385  10.300  1.00  0.00     0.139 C 
HETATM   25  N5  UNL     1      24.285  18.513  10.292  1.00  0.00    -0.084 NA
HETATM   26  N6  UNL     1      23.718  16.159  10.189  1.00  0.00    -0.291 N 
HETATM   27  N7  UNL     1      22.613  15.314  10.233  1.00  0.00    -0.105 NA
ATOM     28  H6  UNL     1      24.680  15.838  10.081  1.00  0.00     0.183 HD
HETATM   29  C8  UNL     1      21.471  16.130   9.900  1.00  0.00     0.269 C 
BRANCH  29  30
HETATM   30  O1  UNL     1      20.298  15.661  10.480  1.00  0.00    -0.375 OA
ATOM     31  H1  UNL     1      20.391  15.445  11.400  1.00  0.00     0.211 HD
ENDBRANCH  29  30
ENDBRANCH  20  23
ENDBRANCH  19  20
ENDBRANCH  18  19
ENDBRANCH   1  18
TORSDOF 8
ENDMDL
MODEL 3
REMARK VINA RESULT: -6.819112462      5.236      7.821
REMARK  8 active torsions:
REMARK  status: ('A' for Active; 'I' for Inactive)
REMARK    1  A    between atoms: N1_1  and  C1_4 
REMARK    2  A    between atoms: C2_7  and  C3_8 
REMARK    3  A    between atoms: C3_8  and  N3_9 
REMARK    4  A    between atoms: N3_9  and  C4_12 
REMARK    5  A    between atoms: C4_12  and  C5_13 
REMARK    6  A    between atoms: C5_13  and  N4_14 
REMARK    7  A    between atoms: N4_14  and  C6_17 
REMARK    8  A    between atoms: C8_23  and  O1_24 
ROOT
HETATM    1  N3  UNL     1      20.508  19.982  12.555  1.00  0.00    -0.067 N 
ATOM      2  H31 UNL     1      20.735  19.725  13.515  1.00  0.00     0.277 HD
ATOM      3  H32 UNL     1      21.442  19.900  12.150  1.00  0.00     0.277 HD
ENDROOT
BRANCH   1   4
HETATM    4  C3  UNL     1      20.000  21.336  12.465  1.00  0.00     0.309 C 
BRANCH   4   5
HETATM    5  C2  UNL     1      19.892  21.945  13.795  1.00  0.00     0.127 A 
HETATM    6  N2  UNL     1      18.702  22.224  14.355  1.00  0.00    -0.179 N 
HETATM    7  C1  UNL     1      18.651  22.789  15.584  1.00  0.00     0.681 A 
ATOM      8  H2  UNL     1      17.839  22.010  13.855  1.00  0.00     0.185 HD
HETATM    9  N9  UNL     1      19.781  23.074  16.250  1.00  0.00    -0.141 N 
HETATM   10  C9  UNL     1      20.965  22.803  15.704  1.00  0.00     0.340 A 
ATOM     11  H9  UNL     1      19.732  23.500  17.176  1.00  0.00     0.189 HD
HETATM   12  N8  UNL     1      21.032  22.238  14.478  1.00  0.00    -0.296 N 
HETATM   13  O2  UNL     1      22.045  23.046  16.276  1.00  0.00    -0.246 OA
ATOM     14  H8  UNL     1      21.941  22.032  14.063  1.00  0.00     0.172 HD
BRANCH   7  15
HETATM   15  N1  UNL     1      17.489  23.047  16.099  1.00  0.00    -0.234 N 
ATOM     16  H12 UNL     1      16.699  22.419  15.952  1.00  0.00     0.174 HD
ATOM     17  H11 UNL     1      17.380  23.894  16.656  1.00  0.00     0.174 HD
ENDBRANCH   7  15
ENDBRANCH   4   5
ENDBRANCH   1   4
BRANCH   1  18
HETATM   18  C4  UNL     1      19.565  19.035  11.945  1.00  0.00     0.260 C 
BRANCH  18  19
HETATM   19  C5  UNL     1      20.241  17.693  11.723  1.00  0.00     0.260 C 
BRANCH  19  20
HETATM   20  N4  UNL     1      20.144  17.285  10.337  1.00  0.00    -0.059 N 
ATOM     21  H42 UNL     1      19.649  16.399  10.233  1.00  0.00     0.278 HD
ATOM     22  H41 UNL     1      19.503  17.878   9.809  1.00  0.00     0.278 HD
BRANCH  20  23
HETATM   23  C6  UNL     1      21.462  17.243   9.737  1.00  0.00     0.296 C 
HETATM   24  C7  UNL     1      21.957  15.855   9.762  1.00  0.00     0.139 C 
HETATM   25  N5  UNL     1      21.175  14.668   9.493  1.00  0.00    -0.084 NA
HETATM   26  N6  UNL     1      23.199  15.876  10.063  1.00  0.00    -0.291 N 
HETATM   27  N7  UNL     1      23.658  17.174  10.264  1.00  0.00    -0.105 NA
ATOM     28  H6  UNL     1      23.781  15.043  10.147  1.00  0.00     0.183 HD
HETATM   29  C8  UNL     1      22.490  17.975  10.538  1.00  0.00     0.269 C 
BRANCH  29  30
HETATM   30  O1  UNL     1      22.654  19.299  10.151  1.00  0.00    -0.375 OA
ATOM     31  H1  UNL     1      22.617  19.913  10.875  1.00  0.00     0.211 HD
ENDBRANCH  29  30
ENDBRANCH  20  23
ENDBRANCH  19  20
ENDBRANCH  18  19
ENDBRANCH   1  18
TORSDOF 8
ENDMDL
MODEL 4
REMARK VINA RESULT: -6.550488264      1.880      2.464
REMARK  8 active torsions:
REMARK  status: ('A' for Active; 'I' for Inactive)
REMARK    1  A    between atoms: N1_1  and  C1_4 
REMARK    2  A    between atoms: C2_7  and  C3_8 
REMARK    3  A    between atoms: C3_8  and  N3_9 
REMARK    4  A    between atoms: N3_9  and  C4_12 
REMARK    5  A    between atoms: C4_12  and  C5_13 
REMARK    6  A    between atoms: C5_13  and  N4_14 
REMARK    7  A    between atoms: N4_14  and  C6_17 
REMARK    8  A    between atoms: C8_23  and  O1_24 
ROOT
HETATM    1  N3  UNL     1      26.680  18.487   9.853  1.00  0.00    -0.067 N 
ATOM      2  H31 UNL     1      26.949  17.505   9.916  1.00  0.00     0.277 HD
ATOM      3  H32 UNL     1      26.695  18.585   8.838  1.00  0.00     0.277 HD
ENDROOT
BRANCH   1   4
HETATM    4  C3  UNL     1      27.651  19.352  10.491  1.00  0.00     0.309 C 
BRANCH   4   5
HETATM    5  C2  UNL     1      27.523  20.731  10.008  1.00  0.00     0.127 A 
HETATM    6  N2  UNL     1      27.611  21.040   8.703  1.00  0.00    -0.179 N 
HETATM    7  C1  UNL     1      27.489  22.328   8.305  1.00  0.00     0.681 A 
ATOM      8  H2  UNL     1      27.771  20.305   8.014  1.00  0.00     0.185 HD
HETATM    9  N9  UNL     1      27.280  23.302   9.204  1.00  0.00    -0.141 N 
HETATM   10  C9  UNL     1      27.191  23.008  10.500  1.00  0.00     0.340 A 
ATOM     11  H9  UNL     1      27.189  24.269   8.893  1.00  0.00     0.189 HD
HETATM   12  N8  UNL     1      27.311  21.726  10.913  1.00  0.00    -0.296 N 
HETATM   13  O2  UNL     1      26.997  23.870  11.377  1.00  0.00    -0.246 OA
ATOM     14  H8  UNL     1      27.242  21.504  11.906  1.00  0.00     0.172 HD
BRANCH   7  15
HETATM   15  N1  UNL     1      27.579  22.595   7.039  1.00  0.00    -0.234 N 
ATOM     16  H12 UNL     1      28.317  23.202   6.681  1.00  0.00     0.174 HD
ATOM     17  H11 UNL     1      26.894  22.185   6.404  1.00  0.00     0.174 HD
ENDBRANCH   7  15
ENDBRANCH   4   5
ENDBRANCH   1   4
BRANCH   1  18
HETATM   18  C4  UNL     1      25.339  18.721  10.405  1.00  0.00     0.260 C 
BRANCH  18  19
HETATM   19  C5  UNL     1      24.287  18.085   9.512  1.00  0.00     0.260 C 
BRANCH  19  20
HETATM   20  N4  UNL     1      23.611  17.003  10.195  1.00  0.00    -0.059 N 
ATOM     21  H42 UNL     1      23.746  16.109   9.722  1.00  0.00     0.278 HD
ATOM     22  H41 UNL     1      24.059  16.773  11.082  1.00  0.00     0.278 HD
BRANCH  20  23
HETATM   23  C6  UNL     1      22.207  17.320  10.363  1.00  0.00     0.296 C 
HETATM   24  C7  UNL     1      21.404  16.393   9.545  1.00  0.00     0.139 C 
HETATM   25  N5  UNL     1      21.648  14.977   9.378  1.00  0.00    -0.084 NA
HETATM   26  N6  UNL     1      20.452  17.052   9.005  1.00  0.00    -0.291 N 
HETATM   27  N7  UNL     1      20.492  18.397   9.362  1.00  0.00    -0.105 NA
ATOM     28  H6  UNL     1      19.750  16.643   8.388  1.00  0.00     0.183 HD
HETATM   29  C8  UNL     1      21.840  18.656   9.802  1.00  0.00     0.269 C 
BRANCH  29  30
HETATM   30  O1  UNL     1      21.904  19.684  10.735  1.00  0.00    -0.375 OA
ATOM     31  H1  UNL     1      21.981  20.546  10.344  1.00  0.00     0.211 HD
ENDBRANCH  29  30
ENDBRANCH  20  23
ENDBRANCH  19  20
ENDBRANCH  18  19
ENDBRANCH   1  18
TORSDOF 8
ENDMDL
MODEL 5
REMARK VINA RESULT: -6.397621041      1.763      2.685
REMARK  8 active torsions:
REMARK  status: ('A' for Active; 'I' for Inactive)
REMARK    1  A    between atoms: N1_1  and  C1_4 
REMARK    2  A    between atoms: C2_7  and  C3_8 
REMARK    3  A    between atoms: C3_8  and  N3_9 
REMARK    4  A    between atoms: N3_9  and  C4_12 
REMARK    5  A    between atoms: C4_12  and  C5_13 
REMARK    6  A    between atoms: C5_13  and  N4_14 
REMARK    7  A    between atoms: N4_14  and  C6_17 
REMARK    8  A    between atoms: C8_23  and  O1_24 
ROOT
HETATM    1  N3  UNL     1      26.152  18.529  10.368  1.00  0.00    -0.067 N 
ATOM      2  H31 UNL     1      25.914  19.101  11.178  1.00  0.00     0.277 HD
ATOM      3  H32 UNL     1      26.316  17.644  10.849  1.00  0.00     0.277 HD
ENDROOT
BRANCH   1   4
HETATM    4  C3  UNL     1      27.346  19.008   9.702  1.00  0.00     0.309 C 
BRANCH   4   5
HETATM    5  C2  UNL     1      27.371  20.474   9.660  1.00  0.00     0.127 A 
HETATM    6  N2  UNL     1      27.186  21.222  10.761  1.00  0.00    -0.179 N 
HETATM    7  C1  UNL     1      27.215  22.572  10.673  1.00  0.00     0.681 A 
ATOM      8  H2  UNL     1      27.024  20.772  11.663  1.00  0.00     0.185 HD
HETATM    9  N9  UNL     1      27.428  23.173   9.492  1.00  0.00    -0.141 N 
HETATM   10  C9  UNL     1      27.613  22.442   8.394  1.00  0.00     0.340 A 
ATOM     11  H9  UNL     1      27.449  24.191   9.436  1.00  0.00     0.189 HD
HETATM   12  N8  UNL     1      27.586  21.093   8.466  1.00  0.00    -0.296 N 
HETATM   13  O2  UNL     1      27.815  22.946   7.273  1.00  0.00    -0.246 OA
ATOM     14  H8  UNL     1      27.727  20.536   7.623  1.00  0.00     0.172 HD
BRANCH   7  15
HETATM   15  N1  UNL     1      27.033  23.267  11.753  1.00  0.00    -0.234 N 
ATOM     16  H12 UNL     1      27.792  23.815  12.159  1.00  0.00     0.174 HD
ATOM     17  H11 UNL     1      26.112  23.255  12.190  1.00  0.00     0.174 HD
ENDBRANCH   7  15
ENDBRANCH   4   5
ENDBRANCH   1   4
BRANCH   1  18
HETATM   18  C4  UNL     1      25.034  18.435   9.420  1.00  0.00     0.260 C 
BRANCH  18  19
HETATM   19  C5  UNL     1      23.752  18.085  10.155  1.00  0.00     0.260 C 
BRANCH  19  20
HETATM   20  N4  UNL     1      23.463  16.670  10.051  1.00  0.00    -0.059 N 
ATOM     21  H42 UNL     1      23.917  16.246   9.242  1.00  0.00     0.278 HD
ATOM     22  H41 UNL     1      23.928  16.132  10.782  1.00  0.00     0.278 HD
BRANCH  20  23
HETATM   23  C6  UNL     1      22.030  16.453  10.045  1.00  0.00     0.296 C 
HETATM   24  C7  UNL     1      21.518  16.666   8.679  1.00  0.00     0.139 C 
HETATM   25  N5  UNL     1      22.160  16.240   7.455  1.00  0.00    -0.084 NA
HETATM   26  N6  UNL     1      20.408  17.292   8.758  1.00  0.00    -0.291 N 
HETATM   27  N7  UNL     1      20.061  17.559  10.079  1.00  0.00    -0.105 NA
ATOM     28  H6  UNL     1      19.845  17.563   7.952  1.00  0.00     0.183 HD
HETATM   29  C8  UNL     1      21.283  17.475  10.840  1.00  0.00     0.269 C 
BRANCH  29  30
HETATM   30  O1  UNL     1      21.060  17.096  12.158  1.00  0.00    -0.375 OA
ATOM     31  H1  UNL     1      20.973  17.831  12.754  1.00  0.00     0.211 HD
ENDBRANCH  29  30
ENDBRANCH  20  23
ENDBRANCH  19  20
ENDBRANCH  18  19
ENDBRANCH   1  18
TORSDOF 8
ENDMDL
