MODEL 1
REMARK VINA RESULT: -7.015961531      0.000      0.000
REMARK  9 active torsions:
REMARK  status: ('A' for Active; 'I' for Inactive)
REMARK    1  A    between atoms: C3_4  and  N2_5 
REMARK    2  A    between atoms: N2_5  and  C4_7 
REMARK    3  A    between atoms: C4_7  and  C5_8 
REMARK    4  A    between atoms: C5_8  and  C6_9 
REMARK    5  A    between atoms: C6_9  and  C7_10 
REMARK    6  A    between atoms: C13_18  and  N4_19 
REMARK    7  A    between atoms: N4_19  and  C14_21 
REMARK    8  A    between atoms: C14_21  and  C15_22 
REMARK    9  A    between atoms: C15_22  and  O1_23 
ROOT
HETATM    1  C1  UNL     1       8.099   1.084  46.632  1.00  0.00     0.177 C 
HETATM    2  N1  UNL     1       9.485   0.834  46.220  1.00  0.00    -0.290 N 
HETATM    3  C2  UNL     1      10.330   1.898  46.192  1.00  0.00     0.158 A 
HETATM    4  C3  UNL     1      11.642   1.719  45.813  1.00  0.00     0.134 A 
HETATM    5  N3  UNL     1      12.035   0.452  45.477  1.00  0.00    -0.174 N 
ATOM      6  H3  UNL     1      13.002   0.298  45.194  1.00  0.00     0.186 HD
HETATM    7  C13 UNL     1      11.196  -0.596  45.506  1.00  0.00     0.694 A 
HETATM    8  N5  UNL     1       9.931  -0.344  45.886  1.00  0.00    -0.131 N 
ATOM      9  H5  UNL     1       9.278  -1.126  45.916  1.00  0.00     0.205 HD
ENDROOT
BRANCH   4  10
HETATM   10  N2  UNL     1      12.496   2.677  45.763  1.00  0.00    -0.375 N 
ATOM     11  H2  UNL     1      12.868   2.966  44.859  1.00  0.00     0.161 HD
BRANCH  10  12
HETATM   12  C4  UNL     1      12.939   3.352  46.956  1.00  0.00     0.121 C 
BRANCH  12  13
HETATM   13  C5  UNL     1      14.369   2.962  47.263  1.00  0.00     0.024 C 
BRANCH  13  14
HETATM   14  C6  UNL     1      14.447   1.715  48.087  1.00  0.00     0.040 C 
BRANCH  14  15
HETATM   15  C7  UNL     1      15.143   0.614  47.421  1.00  0.00    -0.058 A 
HETATM   16  C8  UNL     1      15.513  -0.490  48.181  1.00  0.00     0.007 A 
HETATM   17  C9  UNL     1      16.168  -1.547  47.583  1.00  0.00     0.001 A 
HETATM   18  C10 UNL     1      16.461  -1.525  46.235  1.00  0.00     0.000 A 
HETATM   19  C11 UNL     1      16.094  -0.431  45.477  1.00  0.00     0.001 A 
HETATM   20  C12 UNL     1      15.444   0.620  46.076  1.00  0.00     0.007 A 
ENDBRANCH  14  15
ENDBRANCH  13  14
ENDBRANCH  12  13
ENDBRANCH  10  12
ENDBRANCH   4  10
BRANCH   7  21
HETATM   21  N4  UNL     1      11.608  -1.787  45.179  1.00  0.00    -0.223 N 
ATOM     22  H4  UNL     1      10.927  -2.452  44.811  1.00  0.00     0.177 HD
BRANCH  21  23
HETATM   23  C14 UNL     1      12.965  -2.204  45.312  1.00  0.00     0.164 C 
BRANCH  23  24
HETATM   24  C15 UNL     1      13.140  -3.338  46.299  1.00  0.00     0.184 C 
BRANCH  24  25
HETATM   25  O1  UNL     1      12.059  -4.214  46.271  1.00  0.00    -0.399 OA
ATOM     26  H1  UNL     1      12.230  -4.998  46.780  1.00  0.00     0.209 HD
ENDBRANCH  24  25
ENDBRANCH  23  24
ENDBRANCH  21  23
ENDBRANCH   7  21
TORSDOF 9
ENDMDL
MODEL 2
REMARK VINA RESULT: -7.003265844      0.070      1.042
REMARK  9 active torsions:
REMARK  status: ('A' for Active; 'I' for Inactive)
REMARK    1  A    between atoms: C3_4  and  N2_5 
REMARK    2  A    between atoms: N2_5  and  C4_7 
REMARK    3  A    between atoms: C4_7  and  C5_8 
REMARK    4  A    between atoms: C5_8  and  C6_9 
REMARK    5  A    between atoms: C6_9  and  C7_10 
REMARK    6  A    between atoms: C13_18  and  N4_19 
REMARK    7  A    between atoms: N4_19  and  C14_21 
REMARK    8  A    between atoms: C14_21  and  C15_22 
REMARK    9  A    between atoms: C15_22  and  O1_23 
ROOT
HETATM    1  C1  UNL     1       8.140   0.983  46.687  1.00  0.00     0.177 C 
HETATM    2  N1  UNL     1       9.522   0.762  46.242  1.00  0.00    -0.290 N 
HETATM    3  C2  UNL     1      10.344   1.842  46.198  1.00  0.00     0.158 A 
HETATM    4  C3  UNL     1      11.651   1.691  45.788  1.00  0.00     0.134 A 
HETATM    5  N3  UNL     1      12.061   0.433  45.440  1.00  0.00    -0.174 N 
ATOM      6  H3  UNL     1      13.025   0.299  45.134  1.00  0.00     0.186 HD
HETATM    7  C13 UNL     1      11.245  -0.632  45.485  1.00  0.00     0.694 A 
HETATM    8  N5  UNL     1       9.984  -0.406  45.895  1.00  0.00    -0.131 N 
ATOM      9  H5  UNL     1       9.347  -1.202  45.937  1.00  0.00     0.205 HD
ENDROOT
BRANCH   4  10
HETATM   10  N2  UNL     1      12.484   2.666  45.721  1.00  0.00    -0.375 N 
ATOM     11  H2  UNL     1      12.816   2.976  44.808  1.00  0.00     0.161 HD
BRANCH  10  12
HETATM   12  C4  UNL     1      12.959   3.331  46.907  1.00  0.00     0.121 C 
BRANCH  12  13
HETATM   13  C5  UNL     1      14.372   2.883  47.213  1.00  0.00     0.024 C 
BRANCH  13  14
HETATM   14  C6  UNL     1      14.399   1.655  48.070  1.00  0.00     0.040 C 
BRANCH  14  15
HETATM   15  C7  UNL     1      15.122   0.536  47.468  1.00  0.00    -0.058 A 
HETATM   16  C8  UNL     1      15.437   0.603  46.115  1.00  0.00     0.007 A 
HETATM   17  C9  UNL     1      16.122  -0.434  45.517  1.00  0.00     0.001 A 
HETATM   18  C10 UNL     1      16.502  -1.542  46.245  1.00  0.00     0.000 A 
HETATM   19  C11 UNL     1      16.192  -1.612  47.589  1.00  0.00     0.001 A 
HETATM   20  C12 UNL     1      15.509  -0.579  48.180  1.00  0.00     0.007 A 
ENDBRANCH  14  15
ENDBRANCH  13  14
ENDBRANCH  12  13
ENDBRANCH  10  12
ENDBRANCH   4  10
BRANCH   7  21
HETATM   21  N4  UNL     1      11.672  -1.814  45.146  1.00  0.00    -0.223 N 
ATOM     22  H4  UNL     1      11.009  -2.472  44.736  1.00  0.00     0.177 HD
BRANCH  21  23
HETATM   23  C14 UNL     1      13.025  -2.230  45.320  1.00  0.00     0.164 C 
BRANCH  23  24
HETATM   24  C15 UNL     1      13.167  -3.389  46.283  1.00  0.00     0.184 C 
BRANCH  24  25
HETATM   25  O1  UNL     1      12.041  -4.206  46.272  1.00  0.00    -0.399 OA
ATOM     26  H1  UNL     1      11.320  -3.816  46.753  1.00  0.00     0.209 HD
ENDBRANCH  24  25
ENDBRANCH  23  24
ENDBRANCH  21  23
ENDBRANCH   7  21
TORSDOF 9
ENDMDL
MODEL 3
REMARK VINA RESULT: -6.827181513      2.255      4.474
REMARK  9 active torsions:
REMARK  status: ('A' for Active; 'I' for Inactive)
REMARK    1  A    between atoms: C3_4  and  N2_5 
REMARK    2  A    between atoms: N2_5  and  C4_7 
REMARK    3  A    between atoms: C4_7  and  C5_8 
REMARK    4  A    between atoms: C5_8  and  C6_9 
REMARK    5  A    between atoms: C6_9  and  C7_10 
REMARK    6  A    between atoms: C13_18  and  N4_19 
REMARK    7  A    between atoms: N4_19  and  C14_21 
REMARK    8  A    between atoms: C14_21  and  C15_22 
REMARK    9  A    between atoms: C15_22  and  O1_23 
ROOT
HETATM    1  C1  UNL     1      13.074  -4.172  46.242  1.00  0.00     0.177 C 
HETATM    2  N1  UNL     1      12.877  -2.828  45.685  1.00  0.00    -0.290 N 
HETATM    3  C2  UNL     1      13.970  -2.190  45.192  1.00  0.00     0.158 A 
HETATM    4  C3  UNL     1      13.842  -0.927  44.657  1.00  0.00     0.134 A 
HETATM    5  N3  UNL     1      12.593  -0.369  44.651  1.00  0.00    -0.174 N 
ATOM      6  H3  UNL     1      12.476   0.565  44.259  1.00  0.00     0.186 HD
HETATM    7  C13 UNL     1      11.515  -1.004  45.139  1.00  0.00     0.694 A 
HETATM    8  N5  UNL     1      11.719  -2.233  45.644  1.00  0.00    -0.131 N 
ATOM      9  H5  UNL     1      10.913  -2.733  46.021  1.00  0.00     0.205 HD
ENDROOT
BRANCH   4  10
HETATM   10  N2  UNL     1      14.830  -0.265  44.174  1.00  0.00    -0.375 N 
ATOM     11  H2  UNL     1      14.836  -0.031  43.181  1.00  0.00     0.161 HD
BRANCH  10  12
HETATM   12  C4  UNL     1      15.931   0.154  45.003  1.00  0.00     0.121 C 
BRANCH  12  13
HETATM   13  C5  UNL     1      15.426   1.064  46.102  1.00  0.00     0.024 C 
BRANCH  13  14
HETATM   14  C6  UNL     1      15.528   0.424  47.452  1.00  0.00     0.040 C 
BRANCH  14  15
HETATM   15  C7  UNL     1      14.658   1.034  48.457  1.00  0.00    -0.058 A 
HETATM   16  C8  UNL     1      13.293   0.775  48.395  1.00  0.00     0.007 A 
HETATM   17  C9  UNL     1      12.445   1.333  49.329  1.00  0.00     0.001 A 
HETATM   18  C10 UNL     1      12.935   2.145  50.330  1.00  0.00     0.000 A 
HETATM   19  C11 UNL     1      14.289   2.404  50.396  1.00  0.00     0.001 A 
HETATM   20  C12 UNL     1      15.130   1.848  49.464  1.00  0.00     0.007 A 
ENDBRANCH  14  15
ENDBRANCH  13  14
ENDBRANCH  12  13
ENDBRANCH  10  12
ENDBRANCH   4  10
BRANCH   7  21
HETATM   21  N4  UNL     1      10.342  -0.439  45.115  1.00  0.00    -0.223 N 
ATOM     22  H4  UNL     1       9.697  -0.691  44.366  1.00  0.00     0.177 HD
BRANCH  21  23
HETATM   23  C14 UNL     1       9.918   0.514  46.088  1.00  0.00     0.164 C 
BRANCH  23  24
HETATM   24  C15 UNL     1       8.750   1.355  45.620  1.00  0.00     0.184 C 
BRANCH  24  25
HETATM   25  O1  UNL     1       9.148   2.316  44.695  1.00  0.00    -0.399 OA
ATOM     26  H1  UNL     1       8.412   2.643  44.191  1.00  0.00     0.209 HD
ENDBRANCH  24  25
ENDBRANCH  23  24
ENDBRANCH  21  23
ENDBRANCH   7  21
TORSDOF 9
ENDMDL
MODEL 4
REMARK VINA RESULT: -6.639326578      2.179      4.738
REMARK  9 active torsions:
REMARK  status: ('A' for Active; 'I' for Inactive)
REMARK    1  A    between atoms: C3_4  and  N2_5 
REMARK    2  A    between atoms: N2_5  and  C4_7 
REMARK    3  A    between atoms: C4_7  and  C5_8 
REMARK    4  A    between atoms: C5_8  and  C6_9 
REMARK    5  A    between atoms: C6_9  and  C7_10 
REMARK    6  A    between atoms: C13_18  and  N4_19 
REMARK    7  A    between atoms: N4_19  and  C14_21 
REMARK    8  A    between atoms: C14_21  and  C15_22 
REMARK    9  A    between atoms: C15_22  and  O1_23 
ROOT
HETATM    1  C1  UNL     1      13.098  -4.155  46.299  1.00  0.00     0.177 C 
HETATM    2  N1  UNL     1      12.894  -2.831  45.699  1.00  0.00    -0.290 N 
HETATM    3  C2  UNL     1      13.987  -2.193  45.206  1.00  0.00     0.158 A 
HETATM    4  C3  UNL     1      13.851  -0.948  44.631  1.00  0.00     0.134 A 
HETATM    5  N3  UNL     1      12.595  -0.408  44.586  1.00  0.00    -0.174 N 
ATOM      6  H3  UNL     1      12.472   0.513  44.165  1.00  0.00     0.186 HD
HETATM    7  C13 UNL     1      11.517  -1.042  45.075  1.00  0.00     0.694 A 
HETATM    8  N5  UNL     1      11.728  -2.253  45.620  1.00  0.00    -0.131 N 
ATOM      9  H5  UNL     1      10.923  -2.753  45.998  1.00  0.00     0.205 HD
ENDROOT
BRANCH   4  10
HETATM   10  N2  UNL     1      14.839  -0.287  44.145  1.00  0.00    -0.375 N 
ATOM     11  H2  UNL     1      14.888  -0.133  43.138  1.00  0.00     0.161 HD
BRANCH  10  12
HETATM   12  C4  UNL     1      15.878   0.241  44.990  1.00  0.00     0.121 C 
BRANCH  12  13
HETATM   13  C5  UNL     1      15.421   1.544  45.610  1.00  0.00     0.024 C 
BRANCH  13  14
HETATM   14  C6  UNL     1      14.822   1.340  46.967  1.00  0.00     0.040 C 
BRANCH  14  15
HETATM   15  C7  UNL     1      14.053   2.488  47.447  1.00  0.00    -0.058 A 
HETATM   16  C8  UNL     1      13.341   3.241  46.519  1.00  0.00     0.007 A 
HETATM   17  C9  UNL     1      12.603   4.328  46.938  1.00  0.00     0.001 A 
HETATM   18  C10 UNL     1      12.559   4.680  48.271  1.00  0.00     0.000 A 
HETATM   19  C11 UNL     1      13.263   3.935  49.195  1.00  0.00     0.001 A 
HETATM   20  C12 UNL     1      13.998   2.855  48.774  1.00  0.00     0.007 A 
ENDBRANCH  14  15
ENDBRANCH  13  14
ENDBRANCH  12  13
ENDBRANCH  10  12
ENDBRANCH   4  10
BRANCH   7  21
HETATM   21  N4  UNL     1      10.337  -0.495  45.013  1.00  0.00    -0.223 N 
ATOM     22  H4  UNL     1       9.759  -0.677  44.193  1.00  0.00     0.177 HD
BRANCH  21  23
HETATM   23  C14 UNL     1       9.817   0.347  46.040  1.00  0.00     0.164 C 
BRANCH  23  24
HETATM   24  C15 UNL     1       8.806   1.349  45.527  1.00  0.00     0.184 C 
BRANCH  24  25
HETATM   25  O1  UNL     1       8.213   0.918  44.343  1.00  0.00    -0.399 OA
ATOM     26  H1  UNL     1       7.274   1.063  44.349  1.00  0.00     0.209 HD
ENDBRANCH  24  25
ENDBRANCH  23  24
ENDBRANCH  21  23
ENDBRANCH   7  21
TORSDOF 9
ENDMDL
MODEL 5
REMARK VINA RESULT: -6.574665172      2.225      4.571
REMARK  9 active torsions:
REMARK  status: ('A' for Active; 'I' for Inactive)
REMARK    1  A    between atoms: C3_4  and  N2_5 
REMARK    2  A    between atoms: N2_5  and  C4_7 
REMARK    3  A    between atoms: C4_7  and  C5_8 
REMARK    4  A    between atoms: C5_8  and  C6_9 
REMARK    5  A    between atoms: C6_9  and  C7_10 
REMARK    6  A    between atoms: C13_18  and  N4_19 
REMARK    7  A    between atoms: N4_19  and  C14_21 
REMARK    8  A    between atoms: C14_21  and  C15_22 
REMARK    9  A    between atoms: C15_22  and  O1_23 
ROOT
HETATM    1  C1  UNL     1      13.072  -4.187  46.244  1.00  0.00     0.177 C 
HETATM    2  N1  UNL     1      12.869  -2.845  45.684  1.00  0.00    -0.290 N 
HETATM    3  C2  UNL     1      13.966  -2.186  45.229  1.00  0.00     0.158 A 
HETATM    4  C3  UNL     1      13.832  -0.924  44.693  1.00  0.00     0.134 A 
HETATM    5  N3  UNL     1      12.574  -0.389  44.647  1.00  0.00    -0.174 N 
ATOM      6  H3  UNL     1      12.453   0.545  44.254  1.00  0.00     0.186 HD
HETATM    7  C13 UNL     1      11.492  -1.044  45.099  1.00  0.00     0.694 A 
HETATM    8  N5  UNL     1      11.702  -2.271  45.608  1.00  0.00    -0.131 N 
ATOM      9  H5  UNL     1      10.894  -2.787  45.957  1.00  0.00     0.205 HD
ENDROOT
BRANCH   4  10
HETATM   10  N2  UNL     1      14.823  -0.243  44.243  1.00  0.00    -0.375 N 
ATOM     11  H2  UNL     1      14.887  -0.056  43.243  1.00  0.00     0.161 HD
BRANCH  10  12
HETATM   12  C4  UNL     1      15.847   0.263  45.121  1.00  0.00     0.121 C 
BRANCH  12  13
HETATM   13  C5  UNL     1      15.325   1.465  45.877  1.00  0.00     0.024 C 
BRANCH  13  14
HETATM   14  C6  UNL     1      14.792   1.092  47.226  1.00  0.00     0.040 C 
BRANCH  14  15
HETATM   15  C7  UNL     1      13.533   1.754  47.562  1.00  0.00    -0.058 A 
HETATM   16  C8  UNL     1      12.902   1.409  48.753  1.00  0.00     0.007 A 
HETATM   17  C9  UNL     1      11.713   2.016  49.101  1.00  0.00     0.001 A 
HETATM   18  C10 UNL     1      11.140   2.967  48.283  1.00  0.00     0.000 A 
HETATM   19  C11 UNL     1      11.763   3.313  47.101  1.00  0.00     0.001 A 
HETATM   20  C12 UNL     1      12.945   2.705  46.757  1.00  0.00     0.007 A 
ENDBRANCH  14  15
ENDBRANCH  13  14
ENDBRANCH  12  13
ENDBRANCH  10  12
ENDBRANCH   4  10
BRANCH   7  21
HETATM   21  N4  UNL     1      10.311  -0.501  45.038  1.00  0.00    -0.223 N 
ATOM     22  H4  UNL     1       9.714  -0.723  44.241  1.00  0.00     0.177 HD
BRANCH  21  23
HETATM   23  C14 UNL     1       9.813   0.391  46.035  1.00  0.00     0.164 C 
BRANCH  23  24
HETATM   24  C15 UNL     1       8.721   1.302  45.519  1.00  0.00     0.184 C 
BRANCH  24  25
HETATM   25  O1  UNL     1       9.237   2.322  44.723  1.00  0.00    -0.399 OA
ATOM     26  H1  UNL     1       8.584   2.663  44.124  1.00  0.00     0.209 HD
ENDBRANCH  24  25
ENDBRANCH  23  24
ENDBRANCH  21  23
ENDBRANCH   7  21
TORSDOF 9
ENDMDL
