MODEL 1
REMARK VINA RESULT: -6.350856047      0.000      0.000
REMARK  8 active torsions:
REMARK  status: ('A' for Active; 'I' for Inactive)
REMARK    1  A    between atoms: N1_2  and  C2_4 
REMARK    2  A    between atoms: C3_7  and  O1_8 
REMARK    3  A    between atoms: O1_8  and  C4_9 
REMARK    4  A    between atoms: C4_9  and  C5_10 
REMARK    5  A    between atoms: C5_10  and  C6_11 
REMARK    6  A    between atoms: C6_11  and  N3_12 
REMARK    7  A    between atoms: C14_20  and  C15_21 
REMARK    8  A    between atoms: N4_22  and  N5_24 
ROOT
HETATM    1  C2  UNL     1      14.786  -0.052  45.488  1.00  0.00     0.114 A 
HETATM    2  N2  UNL     1      15.396   0.505  46.531  1.00  0.00    -0.323 N 
ATOM      3  H2  UNL     1      16.267   1.014  46.373  1.00  0.00     0.169 HD
HETATM    4  C3  UNL     1      14.905   0.424  47.811  1.00  0.00     0.143 A 
HETATM    5  C12 UNL     1      13.736  -0.270  47.954  1.00  0.00     0.057 A 
HETATM    6  C13 UNL     1      13.077  -0.864  46.868  1.00  0.00     0.021 A 
HETATM    7  C14 UNL     1      13.585  -0.768  45.619  1.00  0.00     0.025 A 
ENDROOT
BRANCH   4   8
HETATM    8  O1  UNL     1      15.552   0.995  48.825  1.00  0.00    -0.336 OA
BRANCH   8   9
HETATM    9  C4  UNL     1      15.384   2.012  49.704  1.00  0.00     0.179 C 
BRANCH   9  10
HETATM   10  C5  UNL     1      15.088   3.325  49.063  1.00  0.00     0.047 C 
BRANCH  10  11
HETATM   11  C6  UNL     1      13.652   3.786  49.251  1.00  0.00     0.130 C 
BRANCH  11  12
HETATM   12  N3  UNL     1      12.761   3.247  48.258  1.00  0.00    -0.366 N 
HETATM   13  C7  UNL     1      13.143   3.338  46.963  1.00  0.00     0.090 A 
HETATM   14  C8  UNL     1      12.384   2.850  45.925  1.00  0.00     0.017 A 
HETATM   15  C9  UNL     1      11.188   2.247  46.236  1.00  0.00     0.003 A 
HETATM   16  C10 UNL     1      10.791   2.150  47.544  1.00  0.00     0.017 A 
HETATM   17  C11 UNL     1      11.593   2.655  48.524  1.00  0.00     0.090 A 
ENDBRANCH  11  12
ENDBRANCH  10  11
ENDBRANCH   9  10
ENDBRANCH   8   9
ENDBRANCH   4   8
BRANCH   1  18
HETATM   18  N1  UNL     1      15.275   0.041  44.287  1.00  0.00    -0.380 N 
HETATM   19  C1  UNL     1      16.496   0.798  44.106  1.00  0.00     0.147 C 
ATOM     20  H1  UNL     1      14.812  -0.407  43.496  1.00  0.00     0.160 HD
ENDBRANCH   1  18
BRANCH   7  21
HETATM   21  C15 UNL     1      12.959  -1.358  44.444  1.00  0.00     0.121 C 
HETATM   22  N4  UNL     1      11.749  -1.386  44.142  1.00  0.00    -0.318 N 
ATOM     23  H4  UNL     1      11.597  -1.867  43.255  1.00  0.00     0.185 HD
BRANCH  22  24
HETATM   24  N5  UNL     1      10.581  -0.951  44.672  1.00  0.00    -0.345 N 
ATOM     25  H52 UNL     1      10.700  -0.765  45.668  1.00  0.00     0.176 HD
ATOM     26  H51 UNL     1       9.633  -0.764  44.345  1.00  0.00     0.176 HD
ENDBRANCH  22  24
ENDBRANCH   7  21
TORSDOF 8
ENDMDL
MODEL 2
REMARK VINA RESULT: -6.285224492      0.121      1.025
REMARK  8 active torsions:
REMARK  status: ('A' for Active; 'I' for Inactive)
REMARK    1  A    between atoms: N1_2  and  C2_4 
REMARK    2  A    between atoms: C3_7  and  O1_8 
REMARK    3  A    between atoms: O1_8  and  C4_9 
REMARK    4  A    between atoms: C4_9  and  C5_10 
REMARK    5  A    between atoms: C5_10  and  C6_11 
REMARK    6  A    between atoms: C6_11  and  N3_12 
REMARK    7  A    between atoms: C14_20  and  C15_21 
REMARK    8  A    between atoms: N4_22  and  N5_24 
ROOT
HETATM    1  C2  UNL     1      14.798  -0.048  45.478  1.00  0.00     0.114 A 
HETATM    2  N2  UNL     1      15.403   0.517  46.520  1.00  0.00    -0.323 N 
ATOM      3  H2  UNL     1      16.270   1.031  46.362  1.00  0.00     0.169 HD
HETATM    4  C3  UNL     1      14.909   0.438  47.799  1.00  0.00     0.143 A 
HETATM    5  C12 UNL     1      13.744  -0.262  47.943  1.00  0.00     0.057 A 
HETATM    6  C13 UNL     1      13.091  -0.866  46.857  1.00  0.00     0.021 A 
HETATM    7  C14 UNL     1      13.602  -0.772  45.610  1.00  0.00     0.025 A 
ENDROOT
BRANCH   4   8
HETATM    8  O1  UNL     1      15.550   1.018  48.812  1.00  0.00    -0.336 OA
BRANCH   8   9
HETATM    9  C4  UNL     1      15.388   2.058  49.665  1.00  0.00     0.179 C 
BRANCH   9  10
HETATM   10  C5  UNL     1      15.091   3.354  48.992  1.00  0.00     0.047 C 
BRANCH  10  11
HETATM   11  C6  UNL     1      13.650   3.809  49.154  1.00  0.00     0.130 C 
BRANCH  11  12
HETATM   12  N3  UNL     1      12.773   3.242  48.165  1.00  0.00    -0.366 N 
HETATM   13  C7  UNL     1      11.623   2.679  48.602  1.00  0.00     0.090 A 
HETATM   14  C8  UNL     1      10.699   2.114  47.754  1.00  0.00     0.017 A 
HETATM   15  C9  UNL     1      10.974   2.133  46.406  1.00  0.00     0.003 A 
HETATM   16  C10 UNL     1      12.136   2.700  45.953  1.00  0.00     0.017 A 
HETATM   17  C11 UNL     1      13.008   3.242  46.849  1.00  0.00     0.090 A 
ENDBRANCH  11  12
ENDBRANCH  10  11
ENDBRANCH   9  10
ENDBRANCH   8   9
ENDBRANCH   4   8
BRANCH   1  18
HETATM   18  N1  UNL     1      15.289   0.043  44.278  1.00  0.00    -0.380 N 
HETATM   19  C1  UNL     1      16.505   0.810  44.095  1.00  0.00     0.147 C 
ATOM     20  H1  UNL     1      14.832  -0.413  43.487  1.00  0.00     0.160 HD
ENDBRANCH   1  18
BRANCH   7  21
HETATM   21  C15 UNL     1      12.982  -1.370  44.436  1.00  0.00     0.121 C 
HETATM   22  N4  UNL     1      11.773  -1.400  44.127  1.00  0.00    -0.318 N 
ATOM     23  H4  UNL     1      11.627  -1.888  43.243  1.00  0.00     0.185 HD
BRANCH  22  24
HETATM   24  N5  UNL     1      10.603  -0.962  44.647  1.00  0.00    -0.345 N 
ATOM     25  H52 UNL     1      10.368  -0.051  44.253  1.00  0.00     0.176 HD
ATOM     26  H51 UNL     1       9.908  -1.294  45.316  1.00  0.00     0.176 HD
ENDBRANCH  22  24
ENDBRANCH   7  21
TORSDOF 8
ENDMDL
MODEL 3
REMARK VINA RESULT: -6.012879367      2.634      4.319
REMARK  8 active torsions:
REMARK  status: ('A' for Active; 'I' for Inactive)
REMARK    1  A    between atoms: N1_2  and  C2_4 
REMARK    2  A    between atoms: C3_7  and  O1_8 
REMARK    3  A    between atoms: O1_8  and  C4_9 
REMARK    4  A    between atoms: C4_9  and  C5_10 
REMARK    5  A    between atoms: C5_10  and  C6_11 
REMARK    6  A    between atoms: C6_11  and  N3_12 
REMARK    7  A    between atoms: C14_20  and  C15_21 
REMARK    8  A    between atoms: N4_22  and  N5_24 
ROOT
HETATM    1  C2  UNL     1      13.287  -0.447  45.163  1.00  0.00     0.114 A 
HETATM    2  N2  UNL     1      13.516   0.772  45.649  1.00  0.00    -0.323 N 
ATOM      3  H2  UNL     1      12.798   1.486  45.533  1.00  0.00     0.169 HD
HETATM    4  C3  UNL     1      14.679   1.107  46.298  1.00  0.00     0.143 A 
HETATM    5  C12 UNL     1      15.600   0.104  46.420  1.00  0.00     0.057 A 
HETATM    6  C13 UNL     1      15.378  -1.186  45.915  1.00  0.00     0.021 A 
HETATM    7  C14 UNL     1      14.224  -1.486  45.280  1.00  0.00     0.025 A 
ENDROOT
BRANCH   4   8
HETATM    8  O1  UNL     1      14.865   2.339  46.765  1.00  0.00    -0.336 OA
BRANCH   8   9
HETATM    9  C4  UNL     1      14.551   3.080  47.855  1.00  0.00     0.179 C 
BRANCH   9  10
HETATM   10  C5  UNL     1      15.047   2.509  49.139  1.00  0.00     0.047 C 
BRANCH  10  11
HETATM   11  C6  UNL     1      14.258   2.966  50.355  1.00  0.00     0.130 C 
BRANCH  11  12
HETATM   12  N3  UNL     1      15.052   3.737  51.275  1.00  0.00    -0.366 N 
HETATM   13  C7  UNL     1      16.287   4.111  50.869  1.00  0.00     0.090 A 
HETATM   14  C8  UNL     1      17.136   4.859  51.653  1.00  0.00     0.017 A 
HETATM   15  C9  UNL     1      16.691   5.234  52.899  1.00  0.00     0.003 A 
HETATM   16  C10 UNL     1      15.442   4.859  53.320  1.00  0.00     0.017 A 
HETATM   17  C11 UNL     1      14.652   4.118  52.492  1.00  0.00     0.090 A 
ENDBRANCH  11  12
ENDBRANCH  10  11
ENDBRANCH   9  10
ENDBRANCH   8   9
ENDBRANCH   4   8
BRANCH   1  18
HETATM   18  N1  UNL     1      12.176  -0.735  44.552  1.00  0.00    -0.380 N 
HETATM   19  C1  UNL     1      10.946  -0.685  45.316  1.00  0.00     0.147 C 
ATOM     20  H1  UNL     1      12.171  -0.989  43.564  1.00  0.00     0.160 HD
ENDBRANCH   1  18
BRANCH   7  21
HETATM   21  C15 UNL     1      13.922  -2.800  44.730  1.00  0.00     0.121 C 
HETATM   22  N4  UNL     1      13.597  -3.840  45.340  1.00  0.00    -0.318 N 
ATOM     23  H4  UNL     1      13.443  -4.616  44.696  1.00  0.00     0.185 HD
BRANCH  22  24
HETATM   24  N5  UNL     1      13.394  -4.218  46.624  1.00  0.00    -0.345 N 
ATOM     25  H52 UNL     1      13.165  -5.211  46.661  1.00  0.00     0.176 HD
ATOM     26  H51 UNL     1      13.410  -3.780  47.546  1.00  0.00     0.176 HD
ENDBRANCH  22  24
ENDBRANCH   7  21
TORSDOF 8
ENDMDL
MODEL 4
REMARK VINA RESULT: -5.992188444      2.156      2.919
REMARK  8 active torsions:
REMARK  status: ('A' for Active; 'I' for Inactive)
REMARK    1  A    between atoms: N1_2  and  C2_4 
REMARK    2  A    between atoms: C3_7  and  O1_8 
REMARK    3  A    between atoms: O1_8  and  C4_9 
REMARK    4  A    between atoms: C4_9  and  C5_10 
REMARK    5  A    between atoms: C5_10  and  C6_11 
REMARK    6  A    between atoms: C6_11  and  N3_12 
REMARK    7  A    between atoms: C14_20  and  C15_21 
REMARK    8  A    between atoms: N4_22  and  N5_24 
ROOT
HETATM    1  C2  UNL     1      15.353   0.690  45.523  1.00  0.00     0.114 A 
HETATM    2  N2  UNL     1      14.821   1.885  45.769  1.00  0.00    -0.323 N 
ATOM      3  H2  UNL     1      14.705   2.537  44.992  1.00  0.00     0.169 HD
HETATM    4  C3  UNL     1      14.424   2.279  47.023  1.00  0.00     0.143 A 
HETATM    5  C12 UNL     1      14.606   1.360  48.018  1.00  0.00     0.057 A 
HETATM    6  C13 UNL     1      15.164   0.095  47.780  1.00  0.00     0.021 A 
HETATM    7  C14 UNL     1      15.547  -0.264  46.535  1.00  0.00     0.025 A 
ENDROOT
BRANCH   4   8
HETATM    8  O1  UNL     1      13.900   3.487  47.221  1.00  0.00    -0.336 OA
BRANCH   8   9
HETATM    9  C4  UNL     1      12.877   4.247  46.762  1.00  0.00     0.179 C 
BRANCH   9  10
HETATM   10  C5  UNL     1      11.788   4.463  47.757  1.00  0.00     0.047 C 
BRANCH  10  11
HETATM   11  C6  UNL     1      11.264   3.178  48.375  1.00  0.00     0.130 C 
BRANCH  11  12
HETATM   12  N3  UNL     1      10.494   2.389  47.449  1.00  0.00    -0.366 N 
HETATM   13  C7  UNL     1       9.336   2.918  46.994  1.00  0.00     0.090 A 
HETATM   14  C8  UNL     1       8.519   2.267  46.098  1.00  0.00     0.017 A 
HETATM   15  C9  UNL     1       8.915   1.026  45.658  1.00  0.00     0.003 A 
HETATM   16  C10 UNL     1      10.086   0.480  46.114  1.00  0.00     0.017 A 
HETATM   17  C11 UNL     1      10.848   1.181  47.002  1.00  0.00     0.090 A 
ENDBRANCH  11  12
ENDBRANCH  10  11
ENDBRANCH   9  10
ENDBRANCH   8   9
ENDBRANCH   4   8
BRANCH   1  18
HETATM   18  N1  UNL     1      15.720   0.344  44.324  1.00  0.00    -0.380 N 
HETATM   19  C1  UNL     1      16.808   1.075  43.708  1.00  0.00     0.147 C 
ATOM     20  H1  UNL     1      15.255  -0.419  43.833  1.00  0.00     0.160 HD
ENDBRANCH   1  18
BRANCH   7  21
HETATM   21  C15 UNL     1      16.133  -1.557  46.211  1.00  0.00     0.121 C 
HETATM   22  N4  UNL     1      15.599  -2.528  45.635  1.00  0.00    -0.318 N 
ATOM     23  H4  UNL     1      16.250  -3.307  45.539  1.00  0.00     0.185 HD
BRANCH  22  24
HETATM   24  N5  UNL     1      14.391  -2.827  45.103  1.00  0.00    -0.345 N 
ATOM     25  H52 UNL     1      14.410  -3.767  44.706  1.00  0.00     0.176 HD
ATOM     26  H51 UNL     1      13.485  -2.370  44.995  1.00  0.00     0.176 HD
ENDBRANCH  22  24
ENDBRANCH   7  21
TORSDOF 8
ENDMDL
MODEL 5
REMARK VINA RESULT: -5.931744918      2.246      5.734
REMARK  8 active torsions:
REMARK  status: ('A' for Active; 'I' for Inactive)
REMARK    1  A    between atoms: N1_2  and  C2_4 
REMARK    2  A    between atoms: C3_7  and  O1_8 
REMARK    3  A    between atoms: O1_8  and  C4_9 
REMARK    4  A    between atoms: C4_9  and  C5_10 
REMARK    5  A    between atoms: C5_10  and  C6_11 
REMARK    6  A    between atoms: C6_11  and  N3_12 
REMARK    7  A    between atoms: C14_20  and  C15_21 
REMARK    8  A    between atoms: N4_22  and  N5_24 
ROOT
HETATM    1  C2  UNL     1      13.390   2.820  47.167  1.00  0.00     0.114 A 
HETATM    2  N2  UNL     1      12.620   2.136  46.324  1.00  0.00    -0.323 N 
ATOM      3  H2  UNL     1      12.334   2.582  45.452  1.00  0.00     0.169 HD
HETATM    4  C3  UNL     1      12.194   0.856  46.578  1.00  0.00     0.143 A 
HETATM    5  C12 UNL     1      12.613   0.316  47.762  1.00  0.00     0.057 A 
HETATM    6  C13 UNL     1      13.425   1.020  48.664  1.00  0.00     0.021 A 
HETATM    7  C14 UNL     1      13.827   2.280  48.386  1.00  0.00     0.025 A 
ENDROOT
BRANCH   4   8
HETATM    8  O1  UNL     1      11.422   0.211  45.706  1.00  0.00    -0.336 OA
BRANCH   8   9
HETATM    9  C4  UNL     1      11.374  -0.984  45.070  1.00  0.00     0.179 C 
BRANCH   9  10
HETATM   10  C5  UNL     1      12.584  -1.286  44.253  1.00  0.00     0.047 C 
BRANCH  10  11
HETATM   11  C6  UNL     1      13.461  -2.378  44.843  1.00  0.00     0.130 C 
BRANCH  11  12
HETATM   12  N3  UNL     1      14.464  -1.863  45.737  1.00  0.00    -0.366 N 
HETATM   13  C7  UNL     1      15.113  -0.737  45.363  1.00  0.00     0.090 A 
HETATM   14  C8  UNL     1      16.083  -0.143  46.137  1.00  0.00     0.017 A 
HETATM   15  C9  UNL     1      16.392  -0.733  47.339  1.00  0.00     0.003 A 
HETATM   16  C10 UNL     1      15.742  -1.875  47.727  1.00  0.00     0.017 A 
HETATM   17  C11 UNL     1      14.790  -2.411  46.912  1.00  0.00     0.090 A 
ENDBRANCH  11  12
ENDBRANCH  10  11
ENDBRANCH   9  10
ENDBRANCH   8   9
ENDBRANCH   4   8
BRANCH   1  18
HETATM   18  N1  UNL     1      13.778   4.032  46.899  1.00  0.00    -0.380 N 
HETATM   19  C1  UNL     1      12.811   5.102  47.031  1.00  0.00     0.147 C 
ATOM     20  H1  UNL     1      14.736   4.224  46.605  1.00  0.00     0.160 HD
ENDBRANCH   1  18
BRANCH   7  21
HETATM   21  C15 UNL     1      14.669   3.073  49.272  1.00  0.00     0.121 C 
HETATM   22  N4  UNL     1      14.323   3.798  50.227  1.00  0.00    -0.318 N 
ATOM     23  H4  UNL     1      15.130   4.235  50.673  1.00  0.00     0.185 HD
BRANCH  22  24
HETATM   24  N5  UNL     1      13.168   4.163  50.831  1.00  0.00    -0.345 N 
ATOM     25  H52 UNL     1      12.407   3.562  50.516  1.00  0.00     0.176 HD
ATOM     26  H51 UNL     1      12.864   4.867  51.504  1.00  0.00     0.176 HD
ENDBRANCH  22  24
ENDBRANCH   7  21
TORSDOF 8
ENDMDL
