MODEL 1
REMARK VINA RESULT: -6.856439868      0.000      0.000
REMARK  9 active torsions:
REMARK  status: ('A' for Active; 'I' for Inactive)
REMARK    1  A    between atoms: N1_1  and  C1_4 
REMARK    2  A    between atoms: C4_9  and  N3_10 
REMARK    3  A    between atoms: N3_10  and  C5_12 
REMARK    4  A    between atoms: C5_12  and  C6_13 
REMARK    5  A    between atoms: C6_13  and  C7_14 
REMARK    6  A    between atoms: C7_14  and  C8_15 
REMARK    7  A    between atoms: C8_15  and  C9_16 
REMARK    8  A    between atoms: C9_16  and  N4_17 
REMARK    9  A    between atoms: N5_20  and  O1_21 
ROOT
HETATM    1  C5  UNL     1      11.339   0.843  46.883  1.00  0.00     0.138 C 
ENDROOT
BRANCH   1   2
HETATM    2  N3  UNL     1      10.987  -0.079  45.826  1.00  0.00    -0.226 N 
ATOM      3  H3  UNL     1      10.054  -0.066  45.416  1.00  0.00     0.177 HD
BRANCH   2   4
HETATM    4  C4  UNL     1      11.864  -0.908  45.414  1.00  0.00     0.679 A 
HETATM    5  N2  UNL     1      12.450  -0.730  44.228  1.00  0.00    -0.202 N 
HETATM    6  C3  UNL     1      13.383  -1.611  43.790  1.00  0.00     0.110 A 
ATOM      7  H2  UNL     1      12.194   0.070  43.650  1.00  0.00     0.183 HD
HETATM    8  C2  UNL     1      13.702  -2.683  44.601  1.00  0.00     0.066 A 
HETATM    9  C1  UNL     1      13.100  -2.869  45.825  1.00  0.00     0.116 A 
HETATM   10  N6  UNL     1      12.182  -1.951  46.192  1.00  0.00    -0.177 N 
ATOM     11  H6  UNL     1      11.714  -2.055  47.093  1.00  0.00     0.185 HD
BRANCH   9  12
HETATM   12  N1  UNL     1      13.415  -3.877  46.561  1.00  0.00    -0.385 N 
ATOM     13  H12 UNL     1      13.824  -4.733  46.185  1.00  0.00     0.157 HD
ATOM     14  H11 UNL     1      13.263  -3.848  47.569  1.00  0.00     0.157 HD
ENDBRANCH   9  12
ENDBRANCH   2   4
ENDBRANCH   1   2
BRANCH   1  15
HETATM   15  C6  UNL     1      11.165   2.288  46.435  1.00  0.00     0.020 C 
BRANCH  15  16
HETATM   16  C7  UNL     1      11.887   3.139  47.431  1.00  0.00     0.003 C 
BRANCH  16  17
HETATM   17  C8  UNL     1      13.182   3.650  46.883  1.00  0.00     0.020 C 
BRANCH  17  18
HETATM   18  C9  UNL     1      14.343   3.171  47.723  1.00  0.00     0.126 C 
BRANCH  18  19
HETATM   19  N4  UNL     1      14.732   1.887  47.179  1.00  0.00    -0.346 N 
HETATM   20  C10 UNL     1      14.835   1.713  45.769  1.00  0.00     0.172 C 
HETATM   21  C11 UNL     1      15.669   0.532  45.423  1.00  0.00     0.110 C 
HETATM   22  N5  UNL     1      15.914  -0.440  46.218  1.00  0.00    -0.266 N 
HETATM   23  C12 UNL     1      15.415  -0.534  47.576  1.00  0.00     0.257 C 
HETATM   24  C13 UNL     1      15.004   0.826  48.055  1.00  0.00     0.240 C 
HETATM   25  O2  UNL     1      14.918   0.956  49.309  1.00  0.00    -0.271 OA
BRANCH  22  26
HETATM   26  O1  UNL     1      16.706  -1.482  45.775  1.00  0.00    -0.288 OA
ATOM     27  H1  UNL     1      17.540  -1.638  46.201  1.00  0.00     0.244 HD
ENDBRANCH  22  26
ENDBRANCH  18  19
ENDBRANCH  17  18
ENDBRANCH  16  17
ENDBRANCH  15  16
ENDBRANCH   1  15
TORSDOF 9
ENDMDL
MODEL 2
REMARK VINA RESULT: -6.388220100      2.236      3.539
REMARK  9 active torsions:
REMARK  status: ('A' for Active; 'I' for Inactive)
REMARK    1  A    between atoms: N1_1  and  C1_4 
REMARK    2  A    between atoms: C4_9  and  N3_10 
REMARK    3  A    between atoms: N3_10  and  C5_12 
REMARK    4  A    between atoms: C5_12  and  C6_13 
REMARK    5  A    between atoms: C6_13  and  C7_14 
REMARK    6  A    between atoms: C7_14  and  C8_15 
REMARK    7  A    between atoms: C8_15  and  C9_16 
REMARK    8  A    between atoms: C9_16  and  N4_17 
REMARK    9  A    between atoms: N5_20  and  O1_21 
ROOT
HETATM    1  C5  UNL     1       9.894  -0.043  45.860  1.00  0.00     0.138 C 
ENDROOT
BRANCH   1   2
HETATM    2  N3  UNL     1      10.586  -0.789  44.834  1.00  0.00    -0.226 N 
ATOM      3  H3  UNL     1      10.132  -0.989  43.943  1.00  0.00     0.177 HD
BRANCH   2   4
HETATM    4  C4  UNL     1      11.773  -1.194  45.061  1.00  0.00     0.679 A 
HETATM    5  N2  UNL     1      11.978  -2.360  45.676  1.00  0.00    -0.202 N 
HETATM    6  C3  UNL     1      13.241  -2.792  45.918  1.00  0.00     0.110 A 
ATOM      7  H2  UNL     1      11.182  -2.928  45.966  1.00  0.00     0.183 HD
HETATM    8  C2  UNL     1      14.293  -1.994  45.512  1.00  0.00     0.066 A 
HETATM    9  C1  UNL     1      14.086  -0.790  44.877  1.00  0.00     0.116 A 
HETATM   10  N6  UNL     1      12.802  -0.429  44.672  1.00  0.00    -0.177 N 
ATOM     11  H6  UNL     1      12.608   0.457  44.204  1.00  0.00     0.185 HD
BRANCH   9  12
HETATM   12  N1  UNL     1      15.084  -0.066  44.509  1.00  0.00    -0.385 N 
ATOM     13  H12 UNL     1      15.833   0.211  45.144  1.00  0.00     0.157 HD
ATOM     14  H11 UNL     1      15.158   0.262  43.546  1.00  0.00     0.157 HD
ENDBRANCH   9  12
ENDBRANCH   2   4
ENDBRANCH   1   2
BRANCH   1  15
HETATM   15  C6  UNL     1       8.917   0.955  45.251  1.00  0.00     0.020 C 
BRANCH  15  16
HETATM   16  C7  UNL     1       8.975   2.188  46.098  1.00  0.00     0.003 C 
BRANCH  16  17
HETATM   17  C8  UNL     1       9.236   1.859  47.533  1.00  0.00     0.020 C 
BRANCH  17  18
HETATM   18  C9  UNL     1       9.857   3.038  48.247  1.00  0.00     0.126 C 
BRANCH  18  19
HETATM   19  N4  UNL     1      11.282   2.949  48.007  1.00  0.00    -0.346 N 
HETATM   20  C10 UNL     1      11.971   1.727  48.255  1.00  0.00     0.172 C 
HETATM   21  C11 UNL     1      13.271   1.676  47.535  1.00  0.00     0.110 C 
HETATM   22  N5  UNL     1      13.901   2.703  47.103  1.00  0.00    -0.266 N 
HETATM   23  C12 UNL     1      13.442   4.070  47.253  1.00  0.00     0.257 C 
HETATM   24  C13 UNL     1      11.968   4.076  47.530  1.00  0.00     0.240 C 
HETATM   25  O2  UNL     1      11.379   5.171  47.304  1.00  0.00    -0.271 OA
BRANCH  22  26
HETATM   26  O1  UNL     1      15.103   2.522  46.447  1.00  0.00    -0.288 OA
ATOM     27  H1  UNL     1      15.608   1.736  46.621  1.00  0.00     0.244 HD
ENDBRANCH  22  26
ENDBRANCH  18  19
ENDBRANCH  17  18
ENDBRANCH  16  17
ENDBRANCH  15  16
ENDBRANCH   1  15
TORSDOF 9
ENDMDL
MODEL 3
REMARK VINA RESULT: -6.278143991      2.267      3.428
REMARK  9 active torsions:
REMARK  status: ('A' for Active; 'I' for Inactive)
REMARK    1  A    between atoms: N1_1  and  C1_4 
REMARK    2  A    between atoms: C4_9  and  N3_10 
REMARK    3  A    between atoms: N3_10  and  C5_12 
REMARK    4  A    between atoms: C5_12  and  C6_13 
REMARK    5  A    between atoms: C6_13  and  C7_14 
REMARK    6  A    between atoms: C7_14  and  C8_15 
REMARK    7  A    between atoms: C8_15  and  C9_16 
REMARK    8  A    between atoms: C9_16  and  N4_17 
REMARK    9  A    between atoms: N5_20  and  O1_21 
ROOT
HETATM    1  C5  UNL     1       9.887   0.022  45.870  1.00  0.00     0.138 C 
ENDROOT
BRANCH   1   2
HETATM    2  N3  UNL     1      10.550  -0.779  44.865  1.00  0.00    -0.226 N 
ATOM      3  H3  UNL     1      10.077  -1.011  43.992  1.00  0.00     0.177 HD
BRANCH   2   4
HETATM    4  C4  UNL     1      11.736  -1.190  45.088  1.00  0.00     0.679 A 
HETATM    5  N2  UNL     1      12.782  -0.429  44.760  1.00  0.00    -0.202 N 
HETATM    6  C3  UNL     1      14.044  -0.864  44.998  1.00  0.00     0.110 A 
ATOM      7  H2  UNL     1      12.631   0.484  44.329  1.00  0.00     0.183 HD
HETATM    8  C2  UNL     1      14.208  -2.106  45.582  1.00  0.00     0.066 A 
HETATM    9  C1  UNL     1      13.131  -2.893  45.921  1.00  0.00     0.116 A 
HETATM   10  N6  UNL     1      11.908  -2.391  45.654  1.00  0.00    -0.177 N 
ATOM     11  H6  UNL     1      11.085  -2.946  45.892  1.00  0.00     0.185 HD
BRANCH   9  12
HETATM   12  N1  UNL     1      13.311  -4.046  46.465  1.00  0.00    -0.385 N 
ATOM     13  H12 UNL     1      14.039  -4.226  47.157  1.00  0.00     0.157 HD
ATOM     14  H11 UNL     1      12.716  -4.836  46.213  1.00  0.00     0.157 HD
ENDBRANCH   9  12
ENDBRANCH   2   4
ENDBRANCH   1   2
BRANCH   1  15
HETATM   15  C6  UNL     1       8.936   1.027  45.235  1.00  0.00     0.020 C 
BRANCH  15  16
HETATM   16  C7  UNL     1       8.923   2.231  46.124  1.00  0.00     0.003 C 
BRANCH  16  17
HETATM   17  C8  UNL     1       9.155   1.863  47.554  1.00  0.00     0.020 C 
BRANCH  17  18
HETATM   18  C9  UNL     1       9.667   3.051  48.335  1.00  0.00     0.126 C 
BRANCH  18  19
HETATM   19  N4  UNL     1      11.103   3.069  48.147  1.00  0.00    -0.346 N 
HETATM   20  C10 UNL     1      11.868   1.895  48.404  1.00  0.00     0.172 C 
HETATM   21  C11 UNL     1      13.194   1.949  47.732  1.00  0.00     0.110 C 
HETATM   22  N5  UNL     1      13.763   3.026  47.338  1.00  0.00    -0.266 N 
HETATM   23  C12 UNL     1      13.201   4.354  47.490  1.00  0.00     0.257 C 
HETATM   24  C13 UNL     1      11.722   4.249  47.712  1.00  0.00     0.240 C 
HETATM   25  O2  UNL     1      11.063   5.303  47.480  1.00  0.00    -0.271 OA
BRANCH  22  26
HETATM   26  O1  UNL     1      14.998   2.942  46.725  1.00  0.00    -0.288 OA
ATOM     27  H1  UNL     1      15.212   3.561  46.037  1.00  0.00     0.244 HD
ENDBRANCH  22  26
ENDBRANCH  18  19
ENDBRANCH  17  18
ENDBRANCH  16  17
ENDBRANCH  15  16
ENDBRANCH   1  15
TORSDOF 9
ENDMDL
MODEL 4
REMARK VINA RESULT: -6.235390393      1.534      2.176
REMARK  9 active torsions:
REMARK  status: ('A' for Active; 'I' for Inactive)
REMARK    1  A    between atoms: N1_1  and  C1_4 
REMARK    2  A    between atoms: C4_9  and  N3_10 
REMARK    3  A    between atoms: N3_10  and  C5_12 
REMARK    4  A    between atoms: C5_12  and  C6_13 
REMARK    5  A    between atoms: C6_13  and  C7_14 
REMARK    6  A    between atoms: C7_14  and  C8_15 
REMARK    7  A    between atoms: C8_15  and  C9_16 
REMARK    8  A    between atoms: C9_16  and  N4_17 
REMARK    9  A    between atoms: N5_20  and  O1_21 
ROOT
HETATM    1  C5  UNL     1      10.401   0.417  46.360  1.00  0.00     0.138 C 
ENDROOT
BRANCH   1   2
HETATM    2  N3  UNL     1      10.537  -0.531  45.277  1.00  0.00    -0.226 N 
ATOM      3  H3  UNL     1       9.759  -0.709  44.643  1.00  0.00     0.177 HD
BRANCH   2   4
HETATM    4  C4  UNL     1      11.646  -1.142  45.130  1.00  0.00     0.679 A 
HETATM    5  N2  UNL     1      12.564  -0.670  44.284  1.00  0.00    -0.202 N 
HETATM    6  C3  UNL     1      13.745  -1.318  44.127  1.00  0.00     0.110 A 
ATOM      7  H2  UNL     1      12.376   0.181  43.754  1.00  0.00     0.183 HD
HETATM    8  C2  UNL     1      13.962  -2.468  44.861  1.00  0.00     0.066 A 
HETATM    9  C1  UNL     1      13.018  -2.958  45.735  1.00  0.00     0.116 A 
HETATM   10  N6  UNL     1      11.869  -2.258  45.837  1.00  0.00    -0.177 N 
ATOM     11  H6  UNL     1      11.145  -2.590  46.475  1.00  0.00     0.185 HD
BRANCH   9  12
HETATM   12  N1  UNL     1      13.245  -4.031  46.407  1.00  0.00    -0.385 N 
ATOM     13  H12 UNL     1      13.924  -4.736  46.116  1.00  0.00     0.157 HD
ATOM     14  H11 UNL     1      12.741  -4.215  47.275  1.00  0.00     0.157 HD
ENDBRANCH   9  12
ENDBRANCH   2   4
ENDBRANCH   1   2
BRANCH   1  15
HETATM   15  C6  UNL     1       9.644   1.660  45.912  1.00  0.00     0.020 C 
BRANCH  15  16
HETATM   16  C7  UNL     1       9.595   2.584  47.088  1.00  0.00     0.003 C 
BRANCH  16  17
HETATM   17  C8  UNL     1      10.633   2.236  48.106  1.00  0.00     0.020 C 
BRANCH  17  18
HETATM   18  C9  UNL     1      11.732   3.273  48.123  1.00  0.00     0.126 C 
BRANCH  18  19
HETATM   19  N4  UNL     1      12.956   2.569  47.803  1.00  0.00    -0.346 N 
HETATM   20  C10 UNL     1      13.666   1.875  48.824  1.00  0.00     0.172 C 
HETATM   21  C11 UNL     1      14.591   0.860  48.254  1.00  0.00     0.110 C 
HETATM   22  N5  UNL     1      15.028   0.872  47.051  1.00  0.00    -0.266 N 
HETATM   23  C12 UNL     1      14.684   1.877  46.064  1.00  0.00     0.257 C 
HETATM   24  C13 UNL     1      13.428   2.581  46.482  1.00  0.00     0.240 C 
HETATM   25  O2  UNL     1      12.816   3.192  45.560  1.00  0.00    -0.271 OA
BRANCH  22  26
HETATM   26  O1  UNL     1      15.885  -0.131  46.641  1.00  0.00    -0.288 OA
ATOM     27  H1  UNL     1      16.744  -0.193  47.043  1.00  0.00     0.244 HD
ENDBRANCH  22  26
ENDBRANCH  18  19
ENDBRANCH  17  18
ENDBRANCH  16  17
ENDBRANCH  15  16
ENDBRANCH   1  15
TORSDOF 9
ENDMDL
MODEL 5
REMARK VINA RESULT: -6.179448417      1.595      4.442
REMARK  9 active torsions:
REMARK  status: ('A' for Active; 'I' for Inactive)
REMARK    1  A    between atoms: N1_1  and  C1_4 
REMARK    2  A    between atoms: C4_9  and  N3_10 
REMARK    3  A    between atoms: N3_10  and  C5_12 
REMARK    4  A    between atoms: C5_12  and  C6_13 
REMARK    5  A    between atoms: C6_13  and  C7_14 
REMARK    6  A    between atoms: C7_14  and  C8_15 
REMARK    7  A    between atoms: C8_15  and  C9_16 
REMARK    8  A    between atoms: C9_16  and  N4_17 
REMARK    9  A    between atoms: N5_20  and  O1_21 
ROOT
HETATM    1  C5  UNL     1      12.810  -1.528  44.377  1.00  0.00     0.138 C 
ENDROOT
BRANCH   1   2
HETATM    2  N3  UNL     1      11.598  -1.528  45.166  1.00  0.00    -0.226 N 
ATOM      3  H3  UNL     1      11.144  -2.405  45.418  1.00  0.00     0.177 HD
BRANCH   2   4
HETATM    4  C4  UNL     1      11.107  -0.413  45.540  1.00  0.00     0.679 A 
HETATM    5  N2  UNL     1      11.871   0.681  45.565  1.00  0.00    -0.202 N 
HETATM    6  C3  UNL     1      11.349   1.868  45.963  1.00  0.00     0.110 A 
ATOM      7  H2  UNL     1      12.850   0.624  45.285  1.00  0.00     0.183 HD
HETATM    8  C2  UNL     1      10.020   1.905  46.336  1.00  0.00     0.066 A 
HETATM    9  C1  UNL     1       9.229   0.779  46.311  1.00  0.00     0.116 A 
HETATM   10  N6  UNL     1       9.819  -0.364  45.904  1.00  0.00    -0.177 N 
ATOM     11  H6  UNL     1       9.265  -1.220  45.872  1.00  0.00     0.185 HD
BRANCH   9  12
HETATM   12  N1  UNL     1       7.993   0.841  46.664  1.00  0.00    -0.385 N 
ATOM     13  H12 UNL     1       7.249   1.140  46.033  1.00  0.00     0.157 HD
ATOM     14  H11 UNL     1       7.712   0.586  47.611  1.00  0.00     0.157 HD
ENDBRANCH   9  12
ENDBRANCH   2   4
ENDBRANCH   1   2
BRANCH   1  15
HETATM   15  C6  UNL     1      13.771  -2.614  44.843  1.00  0.00     0.020 C 
BRANCH  15  16
HETATM   16  C7  UNL     1      13.392  -2.951  46.251  1.00  0.00     0.003 C 
BRANCH  16  17
HETATM   17  C8  UNL     1      14.442  -2.515  47.224  1.00  0.00     0.020 C 
BRANCH  17  18
HETATM   18  C9  UNL     1      15.503  -1.693  46.531  1.00  0.00     0.126 C 
BRANCH  18  19
HETATM   19  N4  UNL     1      15.145  -0.306  46.748  1.00  0.00    -0.346 N 
HETATM   20  C10 UNL     1      14.541   0.088  47.977  1.00  0.00     0.172 C 
HETATM   21  C11 UNL     1      14.675   1.551  48.207  1.00  0.00     0.110 C 
HETATM   22  N5  UNL     1      14.902   2.411  47.287  1.00  0.00    -0.266 N 
HETATM   23  C12 UNL     1      15.063   2.088  45.883  1.00  0.00     0.257 C 
HETATM   24  C13 UNL     1      15.400   0.633  45.740  1.00  0.00     0.240 C 
HETATM   25  O2  UNL     1      15.933   0.306  44.641  1.00  0.00    -0.271 OA
BRANCH  22  26
HETATM   26  O1  UNL     1      15.005   3.745  47.631  1.00  0.00    -0.288 OA
ATOM     27  H1  UNL     1      15.545   3.988  48.375  1.00  0.00     0.244 HD
ENDBRANCH  22  26
ENDBRANCH  18  19
ENDBRANCH  17  18
ENDBRANCH  16  17
ENDBRANCH  15  16
ENDBRANCH   1  15
TORSDOF 9
ENDMDL
