MODEL 1
REMARK VINA RESULT: -6.860038980      0.000      0.000
REMARK  7 active torsions:
REMARK  status: ('A' for Active; 'I' for Inactive)
REMARK       I    between atoms: C1_2  and  N2_3 
REMARK       I    between atoms: C1_2  and  N4_16 
REMARK    1  A    between atoms: N2_3  and  C2_4 
REMARK    2  A    between atoms: C2_4  and  C3_5 
REMARK    3  A    between atoms: C3_5  and  N3_6 
REMARK    4  A    between atoms: N3_6  and  C4_8 
REMARK    5  A    between atoms: C4_8  and  C5_9 
REMARK    6  A    between atoms: C5_9  and  C6_10 
REMARK    7  A    between atoms: N4_16  and  C12_18 
ROOT
HETATM    1  N1  UNL     1      11.785   2.152  45.521  1.00  0.00    -0.048 NA
HETATM    2  C1  UNL     1      11.163   1.234  46.461  1.00  0.00     0.281 C 
HETATM    3  N2  UNL     1      10.982   1.551  47.576  1.00  0.00    -0.389 NA
HETATM    4  N4  UNL     1      10.807  -0.031  45.831  1.00  0.00    -0.151 N 
ATOM      5  H4  UNL     1       9.825  -0.276  45.702  1.00  0.00     0.188 HD
ENDROOT
BRANCH   3   6
HETATM    6  C2  UNL     1      10.853   2.066  48.795  1.00  0.00     0.178 C 
BRANCH   6   7
HETATM    7  C3  UNL     1      12.140   2.602  49.458  1.00  0.00     0.178 C 
BRANCH   7   8
HETATM    8  N3  UNL     1      12.929   3.273  48.496  1.00  0.00    -0.396 N 
ATOM      9  H3  UNL     1      12.544   4.055  47.965  1.00  0.00     0.159 HD
BRANCH   8  10
HETATM   10  C4  UNL     1      14.255   2.847  48.281  1.00  0.00     0.060 C 
BRANCH  10  11
HETATM   11  C5  UNL     1      14.426   1.422  48.780  1.00  0.00     0.082 C 
BRANCH  11  12
HETATM   12  C6  UNL     1      15.123   0.593  47.764  1.00  0.00    -0.053 A 
HETATM   13  C7  UNL     1      15.092   1.048  46.461  1.00  0.00     0.007 A 
HETATM   14  C8  UNL     1      15.734   0.316  45.465  1.00  0.00     0.001 A 
HETATM   15  C9  UNL     1      16.391  -0.838  45.743  1.00  0.00     0.000 A 
HETATM   16  C10 UNL     1      16.437  -1.315  47.035  1.00  0.00     0.001 A 
HETATM   17  C11 UNL     1      15.791  -0.571  48.012  1.00  0.00     0.007 A 
ENDBRANCH  11  12
ENDBRANCH  10  11
ENDBRANCH   8  10
ENDBRANCH   7   8
ENDBRANCH   6   7
ENDBRANCH   3   6
BRANCH   4  18
HETATM   18  C12 UNL     1      11.733  -0.845  45.436  1.00  0.00     0.685 A 
HETATM   19  N5  UNL     1      12.289  -0.748  44.208  1.00  0.00    -0.202 N 
HETATM   20  C13 UNL     1      13.258  -1.582  43.781  1.00  0.00     0.107 A 
ATOM     21  H5  UNL     1      11.963  -0.014  43.581  1.00  0.00     0.183 HD
HETATM   22  C14 UNL     1      13.709  -2.590  44.638  1.00  0.00     0.035 A 
HETATM   23  C15 UNL     1      13.151  -2.702  45.894  1.00  0.00     0.107 A 
HETATM   24  N6  UNL     1      12.193  -1.826  46.230  1.00  0.00    -0.202 N 
ATOM     25  H6  UNL     1      11.783  -1.910  47.159  1.00  0.00     0.183 HD
ENDBRANCH   4  18
TORSDOF 7
ENDMDL
MODEL 2
REMARK VINA RESULT: -6.830762682      0.702      1.273
REMARK  7 active torsions:
REMARK  status: ('A' for Active; 'I' for Inactive)
REMARK       I    between atoms: C1_2  and  N2_3 
REMARK       I    between atoms: C1_2  and  N4_16 
REMARK    1  A    between atoms: N2_3  and  C2_4 
REMARK    2  A    between atoms: C2_4  and  C3_5 
REMARK    3  A    between atoms: C3_5  and  N3_6 
REMARK    4  A    between atoms: N3_6  and  C4_8 
REMARK    5  A    between atoms: C4_8  and  C5_9 
REMARK    6  A    between atoms: C5_9  and  C6_10 
REMARK    7  A    between atoms: N4_16  and  C12_18 
ROOT
HETATM    1  N1  UNL     1      11.322   2.105  45.495  1.00  0.00    -0.048 NA
HETATM    2  C1  UNL     1      11.169   1.226  46.643  1.00  0.00     0.281 C 
HETATM    3  N2  UNL     1      11.280   1.644  47.734  1.00  0.00    -0.389 NA
HETATM    4  N4  UNL     1      10.855  -0.139  46.245  1.00  0.00    -0.151 N 
ATOM      5  H4  UNL     1       9.935  -0.529  46.447  1.00  0.00     0.188 HD
ENDROOT
BRANCH   3   6
HETATM    6  C2  UNL     1      11.436   2.275  48.894  1.00  0.00     0.178 C 
BRANCH   6   7
HETATM    7  C3  UNL     1      12.764   3.040  49.089  1.00  0.00     0.178 C 
BRANCH   7   8
HETATM    8  N3  UNL     1      13.353   3.302  47.832  1.00  0.00    -0.396 N 
ATOM      9  H3  UNL     1      12.843   3.826  47.120  1.00  0.00     0.159 HD
BRANCH   8  10
HETATM   10  C4  UNL     1      14.655   2.830  47.575  1.00  0.00     0.060 C 
BRANCH  10  11
HETATM   11  C5  UNL     1      14.650   1.949  46.337  1.00  0.00     0.082 C 
BRANCH  11  12
HETATM   12  C6  UNL     1      15.139   0.585  46.663  1.00  0.00    -0.053 A 
HETATM   13  C7  UNL     1      14.627  -0.005  47.802  1.00  0.00     0.007 A 
HETATM   14  C8  UNL     1      15.043  -1.286  48.155  1.00  0.00     0.001 A 
HETATM   15  C9  UNL     1      15.944  -1.972  47.408  1.00  0.00     0.000 A 
HETATM   16  C10 UNL     1      16.472  -1.406  46.267  1.00  0.00     0.001 A 
HETATM   17  C11 UNL     1      16.044  -0.130  45.933  1.00  0.00     0.007 A 
ENDBRANCH  11  12
ENDBRANCH  10  11
ENDBRANCH   8  10
ENDBRANCH   7   8
ENDBRANCH   6   7
ENDBRANCH   3   6
BRANCH   4  18
HETATM   18  C12 UNL     1      11.742  -0.860  45.637  1.00  0.00     0.685 A 
HETATM   19  N5  UNL     1      12.332  -0.448  44.493  1.00  0.00    -0.202 N 
HETATM   20  C13 UNL     1      13.261  -1.182  43.849  1.00  0.00     0.107 A 
ATOM     21  H5  UNL     1      12.063   0.454  44.103  1.00  0.00     0.183 HD
HETATM   22  C14 UNL     1      13.632  -2.421  44.380  1.00  0.00     0.035 A 
HETATM   23  C15 UNL     1      13.040  -2.855  45.547  1.00  0.00     0.107 A 
HETATM   24  N6  UNL     1      12.126  -2.055  46.116  1.00  0.00    -0.202 N 
ATOM     25  H6  UNL     1      11.690  -2.378  46.979  1.00  0.00     0.183 HD
ENDBRANCH   4  18
TORSDOF 7
ENDMDL
MODEL 3
REMARK VINA RESULT: -6.758550062      0.131      1.456
REMARK  7 active torsions:
REMARK  status: ('A' for Active; 'I' for Inactive)
REMARK       I    between atoms: C1_2  and  N2_3 
REMARK       I    between atoms: C1_2  and  N4_16 
REMARK    1  A    between atoms: N2_3  and  C2_4 
REMARK    2  A    between atoms: C2_4  and  C3_5 
REMARK    3  A    between atoms: C3_5  and  N3_6 
REMARK    4  A    between atoms: N3_6  and  C4_8 
REMARK    5  A    between atoms: C4_8  and  C5_9 
REMARK    6  A    between atoms: C5_9  and  C6_10 
REMARK    7  A    between atoms: N4_16  and  C12_18 
ROOT
HETATM    1  N1  UNL     1      11.818   2.227  45.500  1.00  0.00    -0.048 NA
HETATM    2  C1  UNL     1      11.136   1.320  46.408  1.00  0.00     0.281 C 
HETATM    3  N2  UNL     1      10.907   1.641  47.514  1.00  0.00    -0.389 NA
HETATM    4  N4  UNL     1      10.788   0.062  45.762  1.00  0.00    -0.151 N 
ATOM      5  H4  UNL     1       9.810  -0.167  45.586  1.00  0.00     0.188 HD
ENDROOT
BRANCH   3   6
HETATM    6  C2  UNL     1      10.728   2.159  48.725  1.00  0.00     0.178 C 
BRANCH   6   7
HETATM    7  C3  UNL     1      11.987   2.700  49.437  1.00  0.00     0.178 C 
BRANCH   7   8
HETATM    8  N3  UNL     1      12.820   3.356  48.502  1.00  0.00    -0.396 N 
ATOM      9  H3  UNL     1      12.453   4.109  47.920  1.00  0.00     0.159 HD
BRANCH   8  10
HETATM   10  C4  UNL     1      14.165   2.954  48.385  1.00  0.00     0.060 C 
BRANCH  10  11
HETATM   11  C5  UNL     1      14.304   1.494  48.783  1.00  0.00     0.082 C 
BRANCH  11  12
HETATM   12  C6  UNL     1      15.008   0.728  47.723  1.00  0.00    -0.053 A 
HETATM   13  C7  UNL     1      15.655  -0.428  48.115  1.00  0.00     0.007 A 
HETATM   14  C8  UNL     1      16.327  -1.192  47.164  1.00  0.00     0.001 A 
HETATM   15  C9  UNL     1      16.363  -0.829  45.857  1.00  0.00     0.000 A 
HETATM   16  C10 UNL     1      15.726   0.320  45.439  1.00  0.00     0.001 A 
HETATM   17  C11 UNL     1      15.063   1.066  46.402  1.00  0.00     0.007 A 
ENDBRANCH  11  12
ENDBRANCH  10  11
ENDBRANCH   8  10
ENDBRANCH   7   8
ENDBRANCH   6   7
ENDBRANCH   3   6
BRANCH   4  18
HETATM   18  C12 UNL     1      11.718  -0.768  45.411  1.00  0.00     0.685 A 
HETATM   19  N5  UNL     1      12.157  -1.739  46.242  1.00  0.00    -0.202 N 
HETATM   20  C13 UNL     1      13.120  -2.615  45.893  1.00  0.00     0.107 A 
ATOM     21  H5  UNL     1      11.742  -1.812  47.171  1.00  0.00     0.183 HD
HETATM   22  C14 UNL     1      13.691  -2.520  44.621  1.00  0.00     0.035 A 
HETATM   23  C15 UNL     1      13.254  -1.535  43.761  1.00  0.00     0.107 A 
HETATM   24  N6  UNL     1      12.291  -0.710  44.198  1.00  0.00    -0.202 N 
ATOM     25  H6  UNL     1      11.969   0.017  43.560  1.00  0.00     0.183 HD
ENDBRANCH   4  18
TORSDOF 7
ENDMDL
MODEL 4
REMARK VINA RESULT: -6.691568366      1.110      1.791
REMARK  7 active torsions:
REMARK  status: ('A' for Active; 'I' for Inactive)
REMARK       I    between atoms: C1_2  and  N2_3 
REMARK       I    between atoms: C1_2  and  N4_16 
REMARK    1  A    between atoms: N2_3  and  C2_4 
REMARK    2  A    between atoms: C2_4  and  C3_5 
REMARK    3  A    between atoms: C3_5  and  N3_6 
REMARK    4  A    between atoms: N3_6  and  C4_8 
REMARK    5  A    between atoms: C4_8  and  C5_9 
REMARK    6  A    between atoms: C5_9  and  C6_10 
REMARK    7  A    between atoms: N4_16  and  C12_18 
ROOT
HETATM    1  N1  UNL     1       9.881   1.031  45.480  1.00  0.00    -0.048 NA
HETATM    2  C1  UNL     1      10.964   1.182  46.437  1.00  0.00     0.281 C 
HETATM    3  N2  UNL     1      11.300   2.247  46.796  1.00  0.00    -0.389 NA
HETATM    4  N4  UNL     1      11.500  -0.105  46.861  1.00  0.00    -0.151 N 
ATOM      5  H4  UNL     1      11.358  -0.425  47.818  1.00  0.00     0.188 HD
ENDROOT
BRANCH   3   6
HETATM    6  C2  UNL     1      11.554   3.518  47.095  1.00  0.00     0.178 C 
BRANCH   6   7
HETATM    7  C3  UNL     1      12.851   4.119  46.509  1.00  0.00     0.178 C 
BRANCH   7   8
HETATM    8  N3  UNL     1      13.861   4.130  47.498  1.00  0.00    -0.396 N 
ATOM      9  H3  UNL     1      14.037   4.971  48.048  1.00  0.00     0.159 HD
BRANCH   8  10
HETATM   10  C4  UNL     1      14.621   2.964  47.713  1.00  0.00     0.060 C 
BRANCH  10  11
HETATM   11  C5  UNL     1      14.707   2.160  46.426  1.00  0.00     0.082 C 
BRANCH  11  12
HETATM   12  C6  UNL     1      15.260   0.808  46.690  1.00  0.00    -0.053 A 
HETATM   13  C7  UNL     1      15.886   0.173  45.634  1.00  0.00     0.007 A 
HETATM   14  C8  UNL     1      16.431  -1.095  45.824  1.00  0.00     0.001 A 
HETATM   15  C9  UNL     1      16.362  -1.725  47.023  1.00  0.00     0.000 A 
HETATM   16  C10 UNL     1      15.743  -1.115  48.093  1.00  0.00     0.001 A 
HETATM   17  C11 UNL     1      15.206   0.146  47.883  1.00  0.00     0.007 A 
ENDBRANCH  11  12
ENDBRANCH  10  11
ENDBRANCH   8  10
ENDBRANCH   7   8
ENDBRANCH   6   7
ENDBRANCH   3   6
BRANCH   4  18
HETATM   18  C12 UNL     1      12.157  -0.844  46.025  1.00  0.00     0.685 A 
HETATM   19  N5  UNL     1      12.614  -2.069  46.364  1.00  0.00    -0.202 N 
HETATM   20  C13 UNL     1      13.295  -2.854  45.506  1.00  0.00     0.107 A 
ATOM     21  H5  UNL     1      12.437  -2.413  47.307  1.00  0.00     0.183 HD
HETATM   22  C14 UNL     1      13.541  -2.387  44.211  1.00  0.00     0.035 A 
HETATM   23  C15 UNL     1      13.080  -1.139  43.849  1.00  0.00     0.107 A 
HETATM   24  N6  UNL     1      12.412  -0.431  44.772  1.00  0.00    -0.202 N 
ATOM     25  H6  UNL     1      12.072   0.491  44.502  1.00  0.00     0.183 HD
ENDBRANCH   4  18
TORSDOF 7
ENDMDL
MODEL 5
REMARK VINA RESULT: -6.463084109      2.982      4.543
REMARK  7 active torsions:
REMARK  status: ('A' for Active; 'I' for Inactive)
REMARK       I    between atoms: C1_2  and  N2_3 
REMARK       I    between atoms: C1_2  and  N4_16 
REMARK    1  A    between atoms: N2_3  and  C2_4 
REMARK    2  A    between atoms: C2_4  and  C3_5 
REMARK    3  A    between atoms: C3_5  and  N3_6 
REMARK    4  A    between atoms: N3_6  and  C4_8 
REMARK    5  A    between atoms: C4_8  and  C5_9 
REMARK    6  A    between atoms: C5_9  and  C6_10 
REMARK    7  A    between atoms: N4_16  and  C12_18 
ROOT
HETATM    1  N1  UNL     1       8.884   2.289  44.698  1.00  0.00    -0.048 NA
HETATM    2  C1  UNL     1       9.450   1.958  45.995  1.00  0.00     0.281 C 
HETATM    3  N2  UNL     1      10.608   1.815  46.122  1.00  0.00    -0.389 NA
HETATM    4  N4  UNL     1       8.429   1.868  47.029  1.00  0.00    -0.151 N 
ATOM      5  H4  UNL     1       8.394   2.565  47.773  1.00  0.00     0.188 HD
ENDROOT
BRANCH   3   6
HETATM    6  C2  UNL     1      11.931   1.687  46.092  1.00  0.00     0.178 C 
BRANCH   6   7
HETATM    7  C3  UNL     1      12.745   2.985  45.891  1.00  0.00     0.178 C 
BRANCH   7   8
HETATM    8  N3  UNL     1      14.070   2.665  45.517  1.00  0.00    -0.396 N 
ATOM      9  H3  UNL     1      14.476   3.056  44.666  1.00  0.00     0.159 HD
BRANCH   8  10
HETATM   10  C4  UNL     1      14.821   1.797  46.334  1.00  0.00     0.060 C 
BRANCH  10  11
HETATM   11  C5  UNL     1      15.446   0.702  45.486  1.00  0.00     0.082 C 
BRANCH  11  12
HETATM   12  C6  UNL     1      14.753  -0.592  45.710  1.00  0.00    -0.053 A 
HETATM   13  C7  UNL     1      14.986  -1.224  46.916  1.00  0.00     0.007 A 
HETATM   14  C8  UNL     1      14.358  -2.437  47.185  1.00  0.00     0.001 A 
HETATM   15  C9  UNL     1      13.520  -3.018  46.290  1.00  0.00     0.000 A 
HETATM   16  C10 UNL     1      13.270  -2.409  45.079  1.00  0.00     0.001 A 
HETATM   17  C11 UNL     1      13.906  -1.202  44.830  1.00  0.00     0.007 A 
ENDBRANCH  11  12
ENDBRANCH  10  11
ENDBRANCH   8  10
ENDBRANCH   7   8
ENDBRANCH   6   7
ENDBRANCH   3   6
BRANCH   4  18
HETATM   18  C12 UNL     1       7.563   0.906  47.007  1.00  0.00     0.685 A 
HETATM   19  N5  UNL     1       7.777  -0.259  47.658  1.00  0.00    -0.202 N 
HETATM   20  C13 UNL     1       6.886  -1.270  47.650  1.00  0.00     0.107 A 
ATOM     21  H5  UNL     1       8.647  -0.377  48.175  1.00  0.00     0.183 HD
HETATM   22  C14 UNL     1       5.690  -1.113  46.942  1.00  0.00     0.035 A 
HETATM   23  C15 UNL     1       5.457   0.070  46.273  1.00  0.00     0.107 A 
HETATM   24  N6  UNL     1       6.403   1.018  46.339  1.00  0.00    -0.202 N 
ATOM     25  H6  UNL     1       6.228   1.892  45.844  1.00  0.00     0.183 HD
ENDBRANCH   4  18
TORSDOF 7
ENDMDL
