MODEL 1
REMARK VINA RESULT: -6.682951451      0.000      0.000
REMARK  6 active torsions:
REMARK  status: ('A' for Active; 'I' for Inactive)
REMARK    1  A    between atoms: C2_2  and  C3_3 
REMARK    2  A    between atoms: C3_3  and  N1_4 
REMARK    3  A    between atoms: C8_10  and  C9_11 
REMARK    4  A    between atoms: C9_11  and  C10_12 
REMARK    5  A    between atoms: C10_12  and  C11_13 
REMARK    6  A    between atoms: C11_13  and  C12_14 
ROOT
HETATM    1  C9  UNL     1      13.931   2.714  46.176  1.00  0.00     0.057 C 
ENDROOT
BRANCH   1   2
HETATM    2  C8  UNL     1      12.523   2.856  46.597  1.00  0.00     0.011 A 
HETATM    3  C7  UNL     1      12.036   3.662  47.561  1.00  0.00     0.025 A 
HETATM    4  C6  UNL     1      10.682   3.735  47.893  1.00  0.00     0.006 A 
HETATM    5  C5  UNL     1       9.801   2.941  47.198  1.00  0.00     0.048 A 
HETATM    6  C4  UNL     1      10.284   2.114  46.211  1.00  0.00     0.101 A 
HETATM    7  N1  UNL     1       9.451   1.375  45.576  1.00  0.00    -0.373 N 
HETATM    8  N4  UNL     1      11.598   2.081  45.930  1.00  0.00    -0.346 N 
ATOM      9  H1  UNL     1       9.833   0.770  44.850  1.00  0.00     0.161 HD
ATOM     10  H4  UNL     1      11.925   1.457  45.193  1.00  0.00     0.167 HD
BRANCH   7  11
HETATM   11  C3  UNL     1       8.045   1.317  45.784  1.00  0.00     0.147 C 
BRANCH  11  12
HETATM   12  C2  UNL     1       7.715   0.108  46.586  1.00  0.00    -0.018 C 
HETATM   13  C1  UNL     1       7.269   0.162  47.815  1.00  0.00     0.008 C 
ENDBRANCH  11  12
ENDBRANCH   7  11
ENDBRANCH   1   2
BRANCH   1  14
HETATM   14  C10 UNL     1      14.608   1.457  46.471  1.00  0.00     0.011 C 
BRANCH  14  15
HETATM   15  C11 UNL     1      14.828   0.358  45.535  1.00  0.00     0.046 C 
BRANCH  15  16
HETATM   16  C12 UNL     1      14.106  -0.888  45.702  1.00  0.00     0.025 A 
HETATM   17  C13 UNL     1      14.820  -1.922  46.349  1.00  0.00     0.105 A 
HETATM   18  N2  UNL     1      14.262  -3.123  46.533  1.00  0.00    -0.318 N 
HETATM   19  C14 UNL     1      13.007  -3.388  46.110  1.00  0.00     0.326 A 
ATOM     20  H2  UNL     1      14.796  -3.855  47.003  1.00  0.00     0.170 HD
HETATM   21  O1  UNL     1      12.530  -4.534  46.307  1.00  0.00    -0.247 OA
HETATM   22  N3  UNL     1      12.304  -2.432  45.494  1.00  0.00    -0.275 N 
HETATM   23  C15 UNL     1      12.863  -1.191  45.298  1.00  0.00     0.257 A 
ATOM     24  H3  UNL     1      11.356  -2.623  45.170  1.00  0.00     0.173 HD
HETATM   25  O2  UNL     1      12.092  -0.393  44.711  1.00  0.00    -0.267 OA
ENDBRANCH  15  16
ENDBRANCH  14  15
ENDBRANCH   1  14
TORSDOF 6
ENDMDL
MODEL 2
REMARK VINA RESULT: -6.679119887      1.280      1.737
REMARK  6 active torsions:
REMARK  status: ('A' for Active; 'I' for Inactive)
REMARK    1  A    between atoms: C2_2  and  C3_3 
REMARK    2  A    between atoms: C3_3  and  N1_4 
REMARK    3  A    between atoms: C8_10  and  C9_11 
REMARK    4  A    between atoms: C9_11  and  C10_12 
REMARK    5  A    between atoms: C10_12  and  C11_13 
REMARK    6  A    between atoms: C11_13  and  C12_14 
ROOT
HETATM    1  C9  UNL     1      14.755   1.760  47.039  1.00  0.00     0.057 C 
ENDROOT
BRANCH   1   2
HETATM    2  C8  UNL     1      13.382   2.260  47.250  1.00  0.00     0.011 A 
HETATM    3  C7  UNL     1      12.958   3.100  48.215  1.00  0.00     0.025 A 
HETATM    4  C6  UNL     1      11.635   3.525  48.340  1.00  0.00     0.006 A 
HETATM    5  C5  UNL     1      10.716   3.060  47.429  1.00  0.00     0.048 A 
HETATM    6  C4  UNL     1      11.135   2.203  46.438  1.00  0.00     0.101 A 
HETATM    7  N1  UNL     1      10.266   1.774  45.599  1.00  0.00    -0.373 N 
HETATM    8  N4  UNL     1      12.423   1.824  46.362  1.00  0.00    -0.346 N 
ATOM      9  H1  UNL     1      10.601   1.139  44.874  1.00  0.00     0.161 HD
ATOM     10  H4  UNL     1      12.701   1.187  45.616  1.00  0.00     0.167 HD
BRANCH   7  11
HETATM   11  C3  UNL     1       8.881   2.096  45.578  1.00  0.00     0.147 C 
BRANCH  11  12
HETATM   12  C2  UNL     1       8.084   0.865  45.827  1.00  0.00    -0.018 C 
HETATM   13  C1  UNL     1       7.919   0.345  47.017  1.00  0.00     0.008 C 
ENDBRANCH  11  12
ENDBRANCH   7  11
ENDBRANCH   1   2
BRANCH   1  14
HETATM   14  C10 UNL     1      15.150   1.405  45.681  1.00  0.00     0.011 C 
BRANCH  14  15
HETATM   15  C11 UNL     1      15.617   0.095  45.236  1.00  0.00     0.046 C 
BRANCH  15  16
HETATM   16  C12 UNL     1      14.868  -1.096  45.588  1.00  0.00     0.025 A 
HETATM   17  C13 UNL     1      13.716  -1.341  44.809  1.00  0.00     0.105 A 
HETATM   18  N2  UNL     1      12.933  -2.395  45.062  1.00  0.00    -0.318 N 
HETATM   19  C14 UNL     1      13.215  -3.255  46.065  1.00  0.00     0.326 A 
ATOM     20  H2  UNL     1      12.106  -2.553  44.486  1.00  0.00     0.170 HD
HETATM   21  O1  UNL     1      12.447  -4.230  46.262  1.00  0.00    -0.247 OA
HETATM   22  N3  UNL     1      14.298  -3.052  46.821  1.00  0.00    -0.275 N 
HETATM   23  C15 UNL     1      15.114  -1.973  46.573  1.00  0.00     0.257 A 
ATOM     24  H3  UNL     1      14.519  -3.696  47.581  1.00  0.00     0.173 HD
HETATM   25  O2  UNL     1      16.093  -1.907  47.357  1.00  0.00    -0.267 OA
ENDBRANCH  15  16
ENDBRANCH  14  15
ENDBRANCH   1  14
TORSDOF 6
ENDMDL
MODEL 3
REMARK VINA RESULT: -6.627568516      2.482      4.102
REMARK  6 active torsions:
REMARK  status: ('A' for Active; 'I' for Inactive)
REMARK    1  A    between atoms: C2_2  and  C3_3 
REMARK    2  A    between atoms: C3_3  and  N1_4 
REMARK    3  A    between atoms: C8_10  and  C9_11 
REMARK    4  A    between atoms: C9_11  and  C10_12 
REMARK    5  A    between atoms: C10_12  and  C11_13 
REMARK    6  A    between atoms: C11_13  and  C12_14 
ROOT
HETATM    1  C9  UNL     1      15.563  -0.540  48.182  1.00  0.00     0.057 C 
ENDROOT
BRANCH   1   2
HETATM    2  C8  UNL     1      15.306   0.888  48.454  1.00  0.00     0.011 A 
HETATM    3  C7  UNL     1      15.899   1.661  49.384  1.00  0.00     0.025 A 
HETATM    4  C6  UNL     1      15.596   3.011  49.571  1.00  0.00     0.006 A 
HETATM    5  C5  UNL     1      14.640   3.578  48.762  1.00  0.00     0.048 A 
HETATM    6  C4  UNL     1      14.027   2.800  47.808  1.00  0.00     0.101 A 
HETATM    7  N1  UNL     1      13.134   3.342  47.065  1.00  0.00    -0.373 N 
HETATM    8  N4  UNL     1      14.356   1.504  47.668  1.00  0.00    -0.346 N 
ATOM      9  H1  UNL     1      12.693   2.744  46.366  1.00  0.00     0.161 HD
ATOM     10  H4  UNL     1      13.883   0.954  46.952  1.00  0.00     0.167 HD
BRANCH   7  11
HETATM   11  C3  UNL     1      12.697   4.694  47.119  1.00  0.00     0.147 C 
BRANCH  11  12
HETATM   12  C2  UNL     1      11.417   4.769  47.874  1.00  0.00    -0.018 C 
HETATM   13  C1  UNL     1      11.343   5.139  49.126  1.00  0.00     0.008 C 
ENDBRANCH  11  12
ENDBRANCH   7  11
ENDBRANCH   1   2
BRANCH   1  14
HETATM   14  C10 UNL     1      16.093  -0.901  46.873  1.00  0.00     0.011 C 
BRANCH  14  15
HETATM   15  C11 UNL     1      15.461  -1.795  45.905  1.00  0.00     0.046 C 
BRANCH  15  16
HETATM   16  C12 UNL     1      14.046  -1.663  45.619  1.00  0.00     0.025 A 
HETATM   17  C13 UNL     1      13.664  -0.460  44.984  1.00  0.00     0.105 A 
HETATM   18  N2  UNL     1      12.380  -0.218  44.697  1.00  0.00    -0.318 N 
HETATM   19  C14 UNL     1      11.412  -1.109  45.004  1.00  0.00     0.326 A 
ATOM     20  H2  UNL     1      12.127   0.657  44.238  1.00  0.00     0.170 HD
HETATM   21  O1  UNL     1      10.220  -0.833  44.714  1.00  0.00    -0.247 OA
HETATM   22  N3  UNL     1      11.739  -2.256  45.606  1.00  0.00    -0.275 N 
HETATM   23  C15 UNL     1      13.055  -2.520  45.906  1.00  0.00     0.257 A 
ATOM     24  H3  UNL     1      11.015  -2.935  45.841  1.00  0.00     0.173 HD
HETATM   25  O2  UNL     1      13.217  -3.633  46.467  1.00  0.00    -0.267 OA
ENDBRANCH  15  16
ENDBRANCH  14  15
ENDBRANCH   1  14
TORSDOF 6
ENDMDL
MODEL 4
REMARK VINA RESULT: -6.599852575      2.359      4.653
REMARK  6 active torsions:
REMARK  status: ('A' for Active; 'I' for Inactive)
REMARK    1  A    between atoms: C2_2  and  C3_3 
REMARK    2  A    between atoms: C3_3  and  N1_4 
REMARK    3  A    between atoms: C8_10  and  C9_11 
REMARK    4  A    between atoms: C9_11  and  C10_12 
REMARK    5  A    between atoms: C10_12  and  C11_13 
REMARK    6  A    between atoms: C11_13  and  C12_14 
ROOT
HETATM    1  C9  UNL     1      14.741  -2.705  47.116  1.00  0.00     0.057 C 
ENDROOT
BRANCH   1   2
HETATM    2  C8  UNL     1      13.812  -2.086  46.150  1.00  0.00     0.011 A 
HETATM    3  C7  UNL     1      13.876  -2.141  44.805  1.00  0.00     0.025 A 
HETATM    4  C6  UNL     1      12.948  -1.525  43.964  1.00  0.00     0.006 A 
HETATM    5  C5  UNL     1      11.916  -0.824  44.541  1.00  0.00     0.048 A 
HETATM    6  C4  UNL     1      11.838  -0.760  45.913  1.00  0.00     0.101 A 
HETATM    7  N1  UNL     1      10.873  -0.099  46.436  1.00  0.00    -0.373 N 
HETATM    8  N4  UNL     1      12.758  -1.372  46.679  1.00  0.00    -0.346 N 
ATOM      9  H1  UNL     1      10.838  -0.065  47.455  1.00  0.00     0.161 HD
ATOM     10  H4  UNL     1      12.673  -1.305  47.693  1.00  0.00     0.167 HD
BRANCH   7  11
HETATM   11  C3  UNL     1       9.846   0.592  45.737  1.00  0.00     0.147 C 
BRANCH  11  12
HETATM   12  C2  UNL     1       9.874   2.032  46.115  1.00  0.00    -0.018 C 
HETATM   13  C1  UNL     1       9.903   2.447  47.355  1.00  0.00     0.008 C 
ENDBRANCH  11  12
ENDBRANCH   7  11
ENDBRANCH   1   2
BRANCH   1  14
HETATM   14  C10 UNL     1      15.684  -1.836  47.810  1.00  0.00     0.011 C 
BRANCH  14  15
HETATM   15  C11 UNL     1      16.325  -0.646  47.256  1.00  0.00     0.046 C 
BRANCH  15  16
HETATM   16  C12 UNL     1      15.521   0.503  46.891  1.00  0.00     0.025 A 
HETATM   17  C13 UNL     1      14.758   1.068  47.938  1.00  0.00     0.105 A 
HETATM   18  N2  UNL     1      13.958   2.115  47.710  1.00  0.00    -0.318 N 
HETATM   19  C14 UNL     1      13.851   2.663  46.480  1.00  0.00     0.326 A 
ATOM     20  H2  UNL     1      13.417   2.507  48.480  1.00  0.00     0.170 HD
HETATM   21  O1  UNL     1      13.084   3.646  46.318  1.00  0.00    -0.247 OA
HETATM   22  N3  UNL     1      14.558   2.152  45.467  1.00  0.00    -0.275 N 
HETATM   23  C15 UNL     1      15.387   1.076  45.686  1.00  0.00     0.257 A 
ATOM     24  H3  UNL     1      14.484   2.560  44.535  1.00  0.00     0.173 HD
HETATM   25  O2  UNL     1      15.990   0.704  44.649  1.00  0.00    -0.267 OA
ENDBRANCH  15  16
ENDBRANCH  14  15
ENDBRANCH   1  14
TORSDOF 6
ENDMDL
MODEL 5
REMARK VINA RESULT: -6.593153882      1.763      3.190
REMARK  6 active torsions:
REMARK  status: ('A' for Active; 'I' for Inactive)
REMARK    1  A    between atoms: C2_2  and  C3_3 
REMARK    2  A    between atoms: C3_3  and  N1_4 
REMARK    3  A    between atoms: C8_10  and  C9_11 
REMARK    4  A    between atoms: C9_11  and  C10_12 
REMARK    5  A    between atoms: C10_12  and  C11_13 
REMARK    6  A    between atoms: C11_13  and  C12_14 
ROOT
HETATM    1  C9  UNL     1      15.640  -0.797  48.172  1.00  0.00     0.057 C 
ENDROOT
BRANCH   1   2
HETATM    2  C8  UNL     1      14.802   0.417  48.221  1.00  0.00     0.011 A 
HETATM    3  C7  UNL     1      15.206   1.679  48.461  1.00  0.00     0.025 A 
HETATM    4  C6  UNL     1      14.340   2.774  48.486  1.00  0.00     0.006 A 
HETATM    5  C5  UNL     1      13.004   2.549  48.252  1.00  0.00     0.048 A 
HETATM    6  C4  UNL     1      12.577   1.264  48.005  1.00  0.00     0.101 A 
HETATM    7  N1  UNL     1      11.328   1.069  47.795  1.00  0.00    -0.373 N 
HETATM    8  N4  UNL     1      13.453   0.244  47.993  1.00  0.00    -0.346 N 
ATOM      9  H1  UNL     1      11.036   0.108  47.616  1.00  0.00     0.161 HD
ATOM     10  H4  UNL     1      13.105  -0.696  47.807  1.00  0.00     0.167 HD
BRANCH   7  11
HETATM   11  C3  UNL     1      10.308   2.060  47.788  1.00  0.00     0.147 C 
BRANCH  11  12
HETATM   12  C2  UNL     1       9.869   2.306  46.387  1.00  0.00    -0.018 C 
HETATM   13  C1  UNL     1       8.696   1.950  45.930  1.00  0.00     0.008 C 
ENDBRANCH  11  12
ENDBRANCH   7  11
ENDBRANCH   1   2
BRANCH   1  14
HETATM   14  C10 UNL     1      16.229  -1.169  46.892  1.00  0.00     0.011 C 
BRANCH  14  15
HETATM   15  C11 UNL     1      15.599  -1.989  45.860  1.00  0.00     0.046 C 
BRANCH  15  16
HETATM   16  C12 UNL     1      14.187  -1.826  45.573  1.00  0.00     0.025 A 
HETATM   17  C13 UNL     1      13.846  -0.671  44.834  1.00  0.00     0.105 A 
HETATM   18  N2  UNL     1      12.571  -0.405  44.535  1.00  0.00    -0.318 N 
HETATM   19  C14 UNL     1      11.571  -1.224  44.927  1.00  0.00     0.326 A 
ATOM     20  H2  UNL     1      12.348   0.435  44.000  1.00  0.00     0.170 HD
HETATM   21  O1  UNL     1      10.388  -0.928  44.621  1.00  0.00    -0.247 OA
HETATM   22  N3  UNL     1      11.858  -2.325  45.628  1.00  0.00    -0.275 N 
HETATM   23  C15 UNL     1      13.166  -2.614  45.942  1.00  0.00     0.257 A 
ATOM     24  H3  UNL     1      11.110  -2.950  45.928  1.00  0.00     0.173 HD
HETATM   25  O2  UNL     1      13.289  -3.677  46.600  1.00  0.00    -0.267 OA
ENDBRANCH  15  16
ENDBRANCH  14  15
ENDBRANCH   1  14
TORSDOF 6
ENDMDL
