MODEL 1
REMARK VINA RESULT: -8.212964828      0.000      0.000
REMARK  5 active torsions:
REMARK  status: ('A' for Active; 'I' for Inactive)
REMARK    1  A    between atoms: N1_1  and  C1_4 
REMARK    2  A    between atoms: C2_7  and  N3_8 
REMARK    3  A    between atoms: N4_12  and  C6_13 
REMARK    4  A    between atoms: C12_20  and  O1_21 
REMARK    5  A    between atoms: O1_21  and  C13_22 
ROOT
HETATM    1  C1  UNL     1      -3.959   2.704  11.303  1.00  0.00     0.679 A 
HETATM    2  N2  UNL     1      -3.435   3.930  11.229  1.00  0.00    -0.174 N 
ATOM      3  H2  UNL     1      -3.099   4.280  10.332  1.00  0.00     0.186 HD
HETATM    4  C2  UNL     1      -3.345   4.708  12.322  1.00  0.00     0.162 A 
HETATM    5  C11 UNL     1      -3.799   4.226  13.511  1.00  0.00     0.211 A 
HETATM    6  F1  UNL     1      -3.736   4.970  14.643  1.00  0.00    -0.197 F 
HETATM    7  C12 UNL     1      -4.359   2.938  13.630  1.00  0.00     0.201 A 
HETATM    8  N5  UNL     1      -4.410   2.228  12.492  1.00  0.00    -0.167 N 
ATOM      9  H5  UNL     1      -4.805   1.289  12.521  1.00  0.00     0.186 HD
ENDROOT
BRANCH   4  10
HETATM   10  N3  UNL     1      -2.771   6.029  12.207  1.00  0.00    -0.362 N 
HETATM   11  C3  UNL     1      -3.755   7.058  11.982  1.00  0.00     0.126 C 
HETATM   12  C4  UNL     1      -3.916   7.958  13.192  1.00  0.00     0.050 C 
HETATM   13  C5  UNL     1      -2.538   8.011  13.863  1.00  0.00     0.274 C 
HETATM   14  N4  UNL     1      -1.618   8.428  12.819  1.00  0.00     0.094 N 
HETATM   15  C9  UNL     1      -0.723   7.396  12.400  1.00  0.00     0.292 C 
HETATM   16  C10 UNL     1      -1.350   6.046  12.338  1.00  0.00     0.154 C 
BRANCH  14  17
HETATM   17  C6  UNL     1      -0.968   9.638  13.218  1.00  0.00     0.223 A 
HETATM   18  C7  UNL     1      -1.583  10.897  12.657  1.00  0.00     0.038 A 
HETATM   19  C8  UNL     1      -1.564  10.635  14.117  1.00  0.00     0.038 A 
ENDBRANCH  14  17
ENDBRANCH   4  10
BRANCH   1  20
HETATM   20  N1  UNL     1      -4.052   1.942  10.258  1.00  0.00    -0.234 N 
ATOM     21  H12 UNL     1      -3.382   2.073   9.500  1.00  0.00     0.174 HD
ATOM     22  H11 UNL     1      -4.773   1.225  10.184  1.00  0.00     0.174 HD
ENDBRANCH   1  20
BRANCH   7  23
HETATM   23  O1  UNL     1      -4.801   2.499  14.846  1.00  0.00    -0.327 OA
BRANCH  23  24
HETATM   24  C13 UNL     1      -5.159   3.331  15.883  1.00  0.00     0.135 C 
HETATM   25  C14 UNL     1      -5.080   2.606  17.243  1.00  0.00     0.037 C 
HETATM   26  C15 UNL     1      -6.385   2.982  17.863  1.00  0.00    -0.012 C 
HETATM   27  C16 UNL     1      -6.421   4.479  18.021  1.00  0.00     0.005 C 
HETATM   28  C19 UNL     1      -7.309   2.805  16.643  1.00  0.00     0.012 C 
HETATM   29  C17 UNL     1      -6.716   5.057  16.636  1.00  0.00     0.007 C 
HETATM   30  C18 UNL     1      -6.586   3.838  15.773  1.00  0.00     0.015 C 
ENDBRANCH  23  24
ENDBRANCH   7  23
TORSDOF 5
ENDMDL
MODEL 2
REMARK VINA RESULT: -7.968033941      3.230      7.289
REMARK  5 active torsions:
REMARK  status: ('A' for Active; 'I' for Inactive)
REMARK    1  A    between atoms: N1_1  and  C1_4 
REMARK    2  A    between atoms: C2_7  and  N3_8 
REMARK    3  A    between atoms: N4_12  and  C6_13 
REMARK    4  A    between atoms: C12_20  and  O1_21 
REMARK    5  A    between atoms: O1_21  and  C13_22 
ROOT
HETATM    1  C1  UNL     1      -2.318   9.536  13.047  1.00  0.00     0.679 A 
HETATM    2  N2  UNL     1      -2.734   8.631  13.935  1.00  0.00    -0.174 N 
ATOM      3  H2  UNL     1      -2.426   8.699  14.905  1.00  0.00     0.186 HD
HETATM    4  C2  UNL     1      -3.551   7.628  13.568  1.00  0.00     0.162 A 
HETATM    5  C11 UNL     1      -3.953   7.551  12.269  1.00  0.00     0.211 A 
HETATM    6  F1  UNL     1      -4.781   6.563  11.846  1.00  0.00    -0.197 F 
HETATM    7  C12 UNL     1      -3.537   8.488  11.302  1.00  0.00     0.201 A 
HETATM    8  N5  UNL     1      -2.722   9.454  11.753  1.00  0.00    -0.167 N 
ATOM      9  H5  UNL     1      -2.390  10.158  11.095  1.00  0.00     0.186 HD
ENDROOT
BRANCH   4  10
HETATM   10  N3  UNL     1      -3.980   6.664  14.554  1.00  0.00    -0.362 N 
HETATM   11  C3  UNL     1      -5.111   7.109  15.328  1.00  0.00     0.126 C 
HETATM   12  C4  UNL     1      -6.367   6.329  14.991  1.00  0.00     0.050 C 
HETATM   13  C5  UNL     1      -5.898   4.919  14.611  1.00  0.00     0.274 C 
HETATM   14  N4  UNL     1      -5.094   4.467  15.734  1.00  0.00     0.094 N 
HETATM   15  C9  UNL     1      -3.699   4.374  15.438  1.00  0.00     0.292 C 
HETATM   16  C10 UNL     1      -3.198   5.471  14.563  1.00  0.00     0.154 C 
BRANCH  14  17
HETATM   17  C6  UNL     1      -5.659   3.265  16.265  1.00  0.00     0.223 A 
HETATM   18  C7  UNL     1      -5.975   3.317  17.740  1.00  0.00     0.038 A 
HETATM   19  C8  UNL     1      -7.047   3.143  16.730  1.00  0.00     0.038 A 
ENDBRANCH  14  17
ENDBRANCH   4  10
BRANCH   1  20
HETATM   20  N1  UNL     1      -1.530  10.507  13.387  1.00  0.00    -0.234 N 
ATOM     21  H12 UNL     1      -1.259  10.593  14.366  1.00  0.00     0.174 HD
ATOM     22  H11 UNL     1      -1.181  11.176  12.700  1.00  0.00     0.174 HD
ENDBRANCH   1  20
BRANCH   7  23
HETATM   23  O1  UNL     1      -3.968   8.367  10.011  1.00  0.00    -0.327 OA
BRANCH  23  24
HETATM   24  C13 UNL     1      -4.992   9.110   9.467  1.00  0.00     0.135 C 
HETATM   25  C14 UNL     1      -5.100  10.498  10.133  1.00  0.00     0.037 C 
HETATM   26  C15 UNL     1      -6.565  10.591  10.404  1.00  0.00    -0.012 C 
HETATM   27  C16 UNL     1      -7.295  10.536   9.088  1.00  0.00     0.005 C 
HETATM   28  C19 UNL     1      -6.821   9.165  10.927  1.00  0.00     0.012 C 
HETATM   29  C17 UNL     1      -7.294   9.071   8.649  1.00  0.00     0.007 C 
HETATM   30  C18 UNL     1      -6.355   8.463   9.647  1.00  0.00     0.015 C 
ENDBRANCH  23  24
ENDBRANCH   7  23
TORSDOF 5
ENDMDL
MODEL 3
REMARK VINA RESULT: -7.924273288      3.518      7.643
REMARK  5 active torsions:
REMARK  status: ('A' for Active; 'I' for Inactive)
REMARK    1  A    between atoms: N1_1  and  C1_4 
REMARK    2  A    between atoms: C2_7  and  N3_8 
REMARK    3  A    between atoms: N4_12  and  C6_13 
REMARK    4  A    between atoms: C12_20  and  O1_21 
REMARK    5  A    between atoms: O1_21  and  C13_22 
ROOT
HETATM    1  C1  UNL     1      -1.177   5.725  11.632  1.00  0.00     0.679 A 
HETATM    2  N2  UNL     1      -2.122   5.369  12.505  1.00  0.00    -0.174 N 
ATOM      3  H2  UNL     1      -1.865   5.169  13.471  1.00  0.00     0.186 HD
HETATM    4  C2  UNL     1      -3.409   5.271  12.127  1.00  0.00     0.162 A 
HETATM    5  C11 UNL     1      -3.735   5.542  10.833  1.00  0.00     0.211 A 
HETATM    6  F1  UNL     1      -5.018   5.462  10.399  1.00  0.00    -0.197 F 
HETATM    7  C12 UNL     1      -2.767   5.920   9.882  1.00  0.00     0.201 A 
HETATM    8  N5  UNL     1      -1.508   5.993  10.344  1.00  0.00    -0.167 N 
ATOM      9  H5  UNL     1      -0.768   6.262   9.697  1.00  0.00     0.186 HD
ENDROOT
BRANCH   4  10
HETATM   10  N3  UNL     1      -4.406   4.882  13.097  1.00  0.00    -0.362 N 
HETATM   11  C3  UNL     1      -4.661   3.464  13.113  1.00  0.00     0.126 C 
HETATM   12  C4  UNL     1      -4.136   2.811  14.377  1.00  0.00     0.050 C 
HETATM   13  C5  UNL     1      -4.260   3.869  15.479  1.00  0.00     0.274 C 
HETATM   14  N4  UNL     1      -5.651   4.289  15.455  1.00  0.00     0.094 N 
HETATM   15  C9  UNL     1      -5.837   5.620  14.970  1.00  0.00     0.292 C 
HETATM   16  C10 UNL     1      -4.935   5.980  13.840  1.00  0.00     0.154 C 
BRANCH  14  17
HETATM   17  C6  UNL     1      -6.241   4.045  16.734  1.00  0.00     0.223 A 
HETATM   18  C7  UNL     1      -7.276   2.947  16.751  1.00  0.00     0.038 A 
HETATM   19  C8  UNL     1      -6.016   2.829  17.527  1.00  0.00     0.038 A 
ENDBRANCH  14  17
ENDBRANCH   4  10
BRANCH   1  20
HETATM   20  N1  UNL     1       0.068   5.823  11.983  1.00  0.00    -0.234 N 
ATOM     21  H12 UNL     1       0.285   5.957  12.970  1.00  0.00     0.174 HD
ATOM     22  H11 UNL     1       0.820   5.768  11.297  1.00  0.00     0.174 HD
ENDBRANCH   1  20
BRANCH   7  23
HETATM   23  O1  UNL     1      -3.145   6.182   8.595  1.00  0.00    -0.327 OA
BRANCH  23  24
HETATM   24  C13 UNL     1      -3.032   7.416   7.994  1.00  0.00     0.135 C 
HETATM   25  C14 UNL     1      -3.918   8.468   8.693  1.00  0.00     0.037 C 
HETATM   26  C15 UNL     1      -4.594   9.116   7.530  1.00  0.00    -0.012 C 
HETATM   27  C16 UNL     1      -3.539   9.751   6.663  1.00  0.00     0.005 C 
HETATM   28  C19 UNL     1      -4.928   7.864   6.697  1.00  0.00     0.012 C 
HETATM   29  C17 UNL     1      -2.884   8.617   5.872  1.00  0.00     0.007 C 
HETATM   30  C18 UNL     1      -3.472   7.411   6.540  1.00  0.00     0.015 C 
ENDBRANCH  23  24
ENDBRANCH   7  23
TORSDOF 5
ENDMDL
MODEL 4
REMARK VINA RESULT: -7.767502885      1.074      1.207
REMARK  5 active torsions:
REMARK  status: ('A' for Active; 'I' for Inactive)
REMARK    1  A    between atoms: N1_1  and  C1_4 
REMARK    2  A    between atoms: C2_7  and  N3_8 
REMARK    3  A    between atoms: N4_12  and  C6_13 
REMARK    4  A    between atoms: C12_20  and  O1_21 
REMARK    5  A    between atoms: O1_21  and  C13_22 
ROOT
HETATM    1  C1  UNL     1      -3.183   2.882  11.879  1.00  0.00     0.679 A 
HETATM    2  N2  UNL     1      -2.620   4.066  11.628  1.00  0.00    -0.174 N 
ATOM      3  H2  UNL     1      -1.851   4.126  10.961  1.00  0.00     0.186 HD
HETATM    4  C2  UNL     1      -3.053   5.180  12.245  1.00  0.00     0.162 A 
HETATM    5  C11 UNL     1      -4.081   5.082  13.132  1.00  0.00     0.211 A 
HETATM    6  F1  UNL     1      -4.559   6.174  13.779  1.00  0.00    -0.197 F 
HETATM    7  C12 UNL     1      -4.701   3.851  13.423  1.00  0.00     0.201 A 
HETATM    8  N5  UNL     1      -4.207   2.790  12.765  1.00  0.00    -0.167 N 
ATOM      9  H5  UNL     1      -4.620   1.875  12.939  1.00  0.00     0.186 HD
ENDROOT
BRANCH   4  10
HETATM   10  N3  UNL     1      -2.420   6.445  11.951  1.00  0.00    -0.362 N 
HETATM   11  C3  UNL     1      -3.128   7.219  10.963  1.00  0.00     0.126 C 
HETATM   12  C4  UNL     1      -3.784   8.444  11.570  1.00  0.00     0.050 C 
HETATM   13  C5  UNL     1      -2.876   8.877  12.727  1.00  0.00     0.274 C 
HETATM   14  N4  UNL     1      -1.554   9.028  12.143  1.00  0.00     0.094 N 
HETATM   15  C9  UNL     1      -0.625   8.028  12.564  1.00  0.00     0.292 C 
HETATM   16  C10 UNL     1      -1.225   6.670  12.697  1.00  0.00     0.154 C 
BRANCH  14  17
HETATM   17  C6  UNL     1      -1.099  10.369  12.344  1.00  0.00     0.223 A 
HETATM   18  C7  UNL     1      -0.880  11.156  11.075  1.00  0.00     0.038 A 
HETATM   19  C8  UNL     1      -1.907  11.563  12.065  1.00  0.00     0.038 A 
ENDBRANCH  14  17
ENDBRANCH   4  10
BRANCH   1  20
HETATM   20  N1  UNL     1      -2.776   1.800  11.292  1.00  0.00    -0.234 N 
ATOM     21  H12 UNL     1      -1.912   1.836  10.752  1.00  0.00     0.174 HD
ATOM     22  H11 UNL     1      -3.298   0.927  11.362  1.00  0.00     0.174 HD
ENDBRANCH   1  20
BRANCH   7  23
HETATM   23  O1  UNL     1      -5.729   3.804  14.323  1.00  0.00    -0.327 OA
BRANCH  23  24
HETATM   24  C13 UNL     1      -5.561   3.825  15.689  1.00  0.00     0.135 C 
HETATM   25  C14 UNL     1      -5.044   2.469  16.215  1.00  0.00     0.037 C 
HETATM   26  C15 UNL     1      -5.955   2.226  17.372  1.00  0.00    -0.012 C 
HETATM   27  C16 UNL     1      -5.758   3.334  18.372  1.00  0.00     0.005 C 
HETATM   28  C19 UNL     1      -7.294   2.653  16.740  1.00  0.00     0.012 C 
HETATM   29  C17 UNL     1      -6.498   4.555  17.823  1.00  0.00     0.007 C 
HETATM   30  C18 UNL     1      -6.852   4.091  16.443  1.00  0.00     0.015 C 
ENDBRANCH  23  24
ENDBRANCH   7  23
TORSDOF 5
ENDMDL
MODEL 5
REMARK VINA RESULT: -7.676327759      1.528      2.258
REMARK  5 active torsions:
REMARK  status: ('A' for Active; 'I' for Inactive)
REMARK    1  A    between atoms: N1_1  and  C1_4 
REMARK    2  A    between atoms: C2_7  and  N3_8 
REMARK    3  A    between atoms: N4_12  and  C6_13 
REMARK    4  A    between atoms: C12_20  and  O1_21 
REMARK    5  A    between atoms: O1_21  and  C13_22 
ROOT
HETATM    1  C1  UNL     1      -2.565   4.543  12.240  1.00  0.00     0.679 A 
HETATM    2  N2  UNL     1      -2.473   5.874  12.178  1.00  0.00    -0.174 N 
ATOM      3  H2  UNL     1      -1.735   6.301  11.619  1.00  0.00     0.186 HD
HETATM    4  C2  UNL     1      -3.341   6.657  12.842  1.00  0.00     0.162 A 
HETATM    5  C11 UNL     1      -4.321   6.070  13.583  1.00  0.00     0.211 A 
HETATM    6  F1  UNL     1      -5.225   6.813  14.270  1.00  0.00    -0.197 F 
HETATM    7  C12 UNL     1      -4.451   4.670  13.673  1.00  0.00     0.201 A 
HETATM    8  N5  UNL     1      -3.544   3.964  12.981  1.00  0.00    -0.167 N 
ATOM      9  H5  UNL     1      -3.592   2.946  13.012  1.00  0.00     0.186 HD
ENDROOT
BRANCH   4  10
HETATM   10  N3  UNL     1      -3.212   8.093  12.754  1.00  0.00    -0.362 N 
HETATM   11  C3  UNL     1      -2.791   8.702  13.990  1.00  0.00     0.126 C 
HETATM   12  C4  UNL     1      -1.374   9.236  13.902  1.00  0.00     0.050 C 
HETATM   13  C5  UNL     1      -1.180   9.674  12.445  1.00  0.00     0.274 C 
HETATM   14  N4  UNL     1      -2.273  10.590  12.170  1.00  0.00     0.094 N 
HETATM   15  C9  UNL     1      -3.246  10.064  11.266  1.00  0.00     0.292 C 
HETATM   16  C10 UNL     1      -3.528   8.615  11.464  1.00  0.00     0.154 C 
BRANCH  14  17
HETATM   17  C6  UNL     1      -1.739  11.859  11.780  1.00  0.00     0.223 A 
HETATM   18  C7  UNL     1      -2.121  13.006  12.684  1.00  0.00     0.038 A 
HETATM   19  C8  UNL     1      -0.707  12.584  12.532  1.00  0.00     0.038 A 
ENDBRANCH  14  17
ENDBRANCH   4  10
BRANCH   1  20
HETATM   20  N1  UNL     1      -1.735   3.776  11.605  1.00  0.00    -0.234 N 
ATOM     21  H12 UNL     1      -0.756   3.774  11.893  1.00  0.00     0.174 HD
ATOM     22  H11 UNL     1      -2.041   3.183  10.834  1.00  0.00     0.174 HD
ENDBRANCH   1  20
BRANCH   7  23
HETATM   23  O1  UNL     1      -5.453   4.128  14.430  1.00  0.00    -0.327 OA
BRANCH  23  24
HETATM   24  C13 UNL     1      -5.401   4.002  15.800  1.00  0.00     0.135 C 
HETATM   25  C14 UNL     1      -5.050   2.559  16.222  1.00  0.00     0.037 C 
HETATM   26  C15 UNL     1      -6.075   2.293  17.274  1.00  0.00    -0.012 C 
HETATM   27  C16 UNL     1      -5.870   3.277  18.395  1.00  0.00     0.005 C 
HETATM   28  C19 UNL     1      -7.313   2.903  16.587  1.00  0.00     0.012 C 
HETATM   29  C17 UNL     1      -6.453   4.608  17.920  1.00  0.00     0.007 C 
HETATM   30  C18 UNL     1      -6.725   4.314  16.476  1.00  0.00     0.015 C 
ENDBRANCH  23  24
ENDBRANCH   7  23
TORSDOF 5
ENDMDL
