MODEL 1
REMARK VINA RESULT: -6.966189688      0.000      0.000
REMARK  6 active torsions:
REMARK  status: ('A' for Active; 'I' for Inactive)
REMARK    1  A    between atoms: C3_3  and  C4_4 
REMARK    2  A    between atoms: C4_4  and  C5_6 
REMARK    3  A    between atoms: N1_12  and  C10_13 
REMARK    4  A    between atoms: C12_15  and  O2_16 
REMARK    5  A    between atoms: C13_18  and  C14_19 
REMARK    6  A    between atoms: C14_19  and  O3_20 
ROOT
HETATM    1  C1  UNL     1      -4.442   2.759  12.402  1.00  0.00     0.069 C 
HETATM    2  C2  UNL     1      -4.052   4.079  12.934  1.00  0.00     0.025 A 
HETATM    3  C3  UNL     1      -3.264   4.992  12.225  1.00  0.00     0.051 A 
HETATM    4  C8  UNL     1      -3.130   6.069  13.045  1.00  0.00     0.042 A 
HETATM    5 BR1  UNL     1      -2.160   7.673  12.673  1.00  0.00    -0.049 Br
HETATM    6  C9  UNL     1      -3.824   5.789  14.202  1.00  0.00     0.114 A 
HETATM    7  N1  UNL     1      -4.383   4.566  14.120  1.00  0.00    -0.331 N 
ENDROOT
BRANCH   7   8
HETATM    8  C10 UNL     1      -5.171   3.962  15.144  1.00  0.00     0.230 C 
HETATM    9  C11 UNL     1      -6.294   4.839  15.638  1.00  0.00     0.088 C 
HETATM   10  C12 UNL     1      -6.711   4.066  16.895  1.00  0.00     0.153 C 
HETATM   11  C13 UNL     1      -5.446   3.327  17.221  1.00  0.00     0.176 C 
HETATM   12  O4  UNL     1      -4.490   3.675  16.302  1.00  0.00    -0.356 OA
BRANCH  10  13
HETATM   13  O2  UNL     1      -7.774   3.212  16.615  1.00  0.00    -0.393 OA
ATOM     14  H2  UNL     1      -8.365   3.159  17.358  1.00  0.00     0.210 HD
ENDBRANCH  10  13
BRANCH  11  15
HETATM   15  C14 UNL     1      -5.667   1.843  17.340  1.00  0.00     0.198 C 
BRANCH  15  16
HETATM   16  O3  UNL     1      -5.367   1.259  16.111  1.00  0.00    -0.398 OA
ATOM     17  H3  UNL     1      -4.941   0.426  16.274  1.00  0.00     0.209 HD
ENDBRANCH  15  16
ENDBRANCH  11  15
ENDBRANCH   7   8
BRANCH   3  18
HETATM   18  C4  UNL     1      -2.725   4.774  10.893  1.00  0.00     0.166 C 
HETATM   19  O1  UNL     1      -3.445   5.133   9.905  1.00  0.00    -0.292 OA
BRANCH  18  20
HETATM   20  C5  UNL     1      -1.409   4.173  10.600  1.00  0.00     0.052 C 
HETATM   21  C6  UNL     1      -0.299   4.850  11.366  1.00  0.00     0.018 C 
HETATM   22  C7  UNL     1      -1.356   2.710  10.910  1.00  0.00     0.018 C 
ENDBRANCH  18  20
ENDBRANCH   3  18
TORSDOF 6
ENDMDL
MODEL 2
REMARK VINA RESULT: -6.703531169      2.721      6.198
REMARK  6 active torsions:
REMARK  status: ('A' for Active; 'I' for Inactive)
REMARK    1  A    between atoms: C3_3  and  C4_4 
REMARK    2  A    between atoms: C4_4  and  C5_6 
REMARK    3  A    between atoms: N1_12  and  C10_13 
REMARK    4  A    between atoms: C12_15  and  O2_16 
REMARK    5  A    between atoms: C13_18  and  C14_19 
REMARK    6  A    between atoms: C14_19  and  O3_20 
ROOT
HETATM    1  C1  UNL     1      -4.219   1.295  15.118  1.00  0.00     0.069 C 
HETATM    2  C2  UNL     1      -4.466   2.587  14.452  1.00  0.00     0.025 A 
HETATM    3  C3  UNL     1      -4.940   3.720  15.123  1.00  0.00     0.051 A 
HETATM    4  C8  UNL     1      -5.033   4.691  14.174  1.00  0.00     0.042 A 
HETATM    5 BR1  UNL     1      -5.626   6.489  14.434  1.00  0.00    -0.049 Br
HETATM    6  C9  UNL     1      -4.623   4.136  12.981  1.00  0.00     0.114 A 
HETATM    7  N1  UNL     1      -4.278   2.847  13.168  1.00  0.00    -0.331 N 
ENDROOT
BRANCH   7   8
HETATM    8  C10 UNL     1      -3.808   1.974  12.141  1.00  0.00     0.230 C 
HETATM    9  C11 UNL     1      -4.230   2.389  10.755  1.00  0.00     0.088 C 
HETATM   10  C12 UNL     1      -3.864   1.126   9.967  1.00  0.00     0.153 C 
HETATM   11  C13 UNL     1      -3.911   0.082  11.044  1.00  0.00     0.176 C 
HETATM   12  O4  UNL     1      -4.279   0.687  12.219  1.00  0.00    -0.356 OA
BRANCH  10  13
HETATM   13  O2  UNL     1      -2.599   1.253   9.399  1.00  0.00    -0.393 OA
ATOM     14  H2  UNL     1      -2.500   2.105   8.991  1.00  0.00     0.210 HD
ENDBRANCH  10  13
BRANCH  11  15
HETATM   15  C14 UNL     1      -2.630  -0.702  11.136  1.00  0.00     0.198 C 
BRANCH  15  16
HETATM   16  O3  UNL     1      -2.953  -2.051  11.250  1.00  0.00    -0.398 OA
ATOM     17  H3  UNL     1      -2.239  -2.491  11.697  1.00  0.00     0.209 HD
ENDBRANCH  15  16
ENDBRANCH  11  15
ENDBRANCH   7   8
BRANCH   3  18
HETATM   18  C4  UNL     1      -5.256   3.782  16.540  1.00  0.00     0.166 C 
HETATM   19  O1  UNL     1      -4.292   3.632  17.360  1.00  0.00    -0.292 OA
BRANCH  18  20
HETATM   20  C5  UNL     1      -6.603   4.009  17.098  1.00  0.00     0.052 C 
HETATM   21  C6  UNL     1      -7.536   2.862  16.798  1.00  0.00     0.018 C 
HETATM   22  C7  UNL     1      -6.591   4.215  18.580  1.00  0.00     0.018 C 
ENDBRANCH  18  20
ENDBRANCH   3  18
TORSDOF 6
ENDMDL
MODEL 3
REMARK VINA RESULT: -6.625387065      1.161      1.224
REMARK  6 active torsions:
REMARK  status: ('A' for Active; 'I' for Inactive)
REMARK    1  A    between atoms: C3_3  and  C4_4 
REMARK    2  A    between atoms: C4_4  and  C5_6 
REMARK    3  A    between atoms: N1_12  and  C10_13 
REMARK    4  A    between atoms: C12_15  and  O2_16 
REMARK    5  A    between atoms: C13_18  and  C14_19 
REMARK    6  A    between atoms: C14_19  and  O3_20 
ROOT
HETATM    1  C1  UNL     1      -3.549   3.386  12.231  1.00  0.00     0.069 C 
HETATM    2  C2  UNL     1      -3.876   4.800  12.496  1.00  0.00     0.025 A 
HETATM    3  C3  UNL     1      -3.462   5.852  11.672  1.00  0.00     0.051 A 
HETATM    4  C8  UNL     1      -3.958   6.981  12.249  1.00  0.00     0.042 A 
HETATM    5 BR1  UNL     1      -3.745   8.772  11.619  1.00  0.00    -0.049 Br
HETATM    6  C9  UNL     1      -4.643   6.593  13.380  1.00  0.00     0.114 A 
HETATM    7  N1  UNL     1      -4.584   5.254  13.518  1.00  0.00    -0.331 N 
ENDROOT
BRANCH   7   8
HETATM    8  C10 UNL     1      -5.187   4.519  14.582  1.00  0.00     0.230 C 
HETATM    9  C11 UNL     1      -6.179   5.323  15.385  1.00  0.00     0.088 C 
HETATM   10  C12 UNL     1      -6.379   4.391  16.585  1.00  0.00     0.153 C 
HETATM   11  C13 UNL     1      -5.094   3.614  16.574  1.00  0.00     0.176 C 
HETATM   12  O4  UNL     1      -4.314   4.082  15.547  1.00  0.00    -0.356 OA
BRANCH  10  13
HETATM   13  O2  UNL     1      -7.496   3.581  16.396  1.00  0.00    -0.393 OA
ATOM     14  H2  UNL     1      -8.211   3.862  16.955  1.00  0.00     0.210 HD
ENDBRANCH  10  13
BRANCH  11  15
HETATM   15  C14 UNL     1      -5.326   2.127  16.536  1.00  0.00     0.198 C 
BRANCH  15  16
HETATM   16  O3  UNL     1      -5.557   1.690  17.838  1.00  0.00    -0.398 OA
ATOM     17  H3  UNL     1      -6.492   1.551  17.943  1.00  0.00     0.209 HD
ENDBRANCH  15  16
ENDBRANCH  11  15
ENDBRANCH   7   8
BRANCH   3  18
HETATM   18  C4  UNL     1      -2.664   5.706  10.466  1.00  0.00     0.166 C 
HETATM   19  O1  UNL     1      -3.290   5.572   9.364  1.00  0.00    -0.292 OA
BRANCH  18  20
HETATM   20  C5  UNL     1      -1.190   5.705  10.422  1.00  0.00     0.052 C 
HETATM   21  C6  UNL     1      -0.591   6.450  11.590  1.00  0.00     0.018 C 
HETATM   22  C7  UNL     1      -0.609   4.326  10.409  1.00  0.00     0.018 C 
ENDBRANCH  18  20
ENDBRANCH   3  18
TORSDOF 6
ENDMDL
MODEL 4
REMARK VINA RESULT: -6.615522345      1.097      1.590
REMARK  6 active torsions:
REMARK  status: ('A' for Active; 'I' for Inactive)
REMARK    1  A    between atoms: C3_3  and  C4_4 
REMARK    2  A    between atoms: C4_4  and  C5_6 
REMARK    3  A    between atoms: N1_12  and  C10_13 
REMARK    4  A    between atoms: C12_15  and  O2_16 
REMARK    5  A    between atoms: C13_18  and  C14_19 
REMARK    6  A    between atoms: C14_19  and  O3_20 
ROOT
HETATM    1  C1  UNL     1      -4.138   2.899  12.672  1.00  0.00     0.069 C 
HETATM    2  C2  UNL     1      -3.788   4.172  13.331  1.00  0.00     0.025 A 
HETATM    3  C3  UNL     1      -2.934   5.122  12.761  1.00  0.00     0.051 A 
HETATM    4  C8  UNL     1      -2.866   6.137  13.666  1.00  0.00     0.042 A 
HETATM    5 BR1  UNL     1      -1.856   7.750  13.498  1.00  0.00    -0.049 Br
HETATM    6  C9  UNL     1      -3.661   5.783  14.735  1.00  0.00     0.114 A 
HETATM    7  N1  UNL     1      -4.219   4.577  14.515  1.00  0.00    -0.331 N 
ENDROOT
BRANCH   7   8
HETATM    8  C10 UNL     1      -5.098   3.911  15.420  1.00  0.00     0.230 C 
HETATM    9  C11 UNL     1      -6.287   4.743  15.829  1.00  0.00     0.088 C 
HETATM   10  C12 UNL     1      -6.819   3.905  16.997  1.00  0.00     0.153 C 
HETATM   11  C13 UNL     1      -5.580   3.174  17.424  1.00  0.00     0.176 C 
HETATM   12  O4  UNL     1      -4.539   3.582  16.630  1.00  0.00    -0.356 OA
BRANCH  10  13
HETATM   13  O2  UNL     1      -7.826   3.046  16.566  1.00  0.00    -0.393 OA
ATOM     14  H2  UNL     1      -8.479   2.929  17.245  1.00  0.00     0.210 HD
ENDBRANCH  10  13
BRANCH  11  15
HETATM   15  C14 UNL     1      -5.778   1.682  17.451  1.00  0.00     0.198 C 
BRANCH  15  16
HETATM   16  O3  UNL     1      -5.391   1.170  16.216  1.00  0.00    -0.398 OA
ATOM     17  H3  UNL     1      -5.127   0.265  16.339  1.00  0.00     0.209 HD
ENDBRANCH  15  16
ENDBRANCH  11  15
ENDBRANCH   7   8
BRANCH   3  18
HETATM   18  C4  UNL     1      -2.281   4.994  11.470  1.00  0.00     0.166 C 
HETATM   19  O1  UNL     1      -1.235   4.267  11.415  1.00  0.00    -0.292 OA
BRANCH  18  20
HETATM   20  C5  UNL     1      -2.737   5.634  10.222  1.00  0.00     0.052 C 
HETATM   21  C6  UNL     1      -4.111   6.241  10.371  1.00  0.00     0.018 C 
HETATM   22  C7  UNL     1      -1.810   6.709   9.747  1.00  0.00     0.018 C 
ENDBRANCH  18  20
ENDBRANCH   3  18
TORSDOF 6
ENDMDL
MODEL 5
REMARK VINA RESULT: -6.577473002      3.056      5.383
REMARK  6 active torsions:
REMARK  status: ('A' for Active; 'I' for Inactive)
REMARK    1  A    between atoms: C3_3  and  C4_4 
REMARK    2  A    between atoms: C4_4  and  C5_6 
REMARK    3  A    between atoms: N1_12  and  C10_13 
REMARK    4  A    between atoms: C12_15  and  O2_16 
REMARK    5  A    between atoms: C13_18  and  C14_19 
REMARK    6  A    between atoms: C14_19  and  O3_20 
ROOT
HETATM    1  C1  UNL     1      -3.917   4.997  11.874  1.00  0.00     0.069 C 
HETATM    2  C2  UNL     1      -4.241   4.206  13.077  1.00  0.00     0.025 A 
HETATM    3  C3  UNL     1      -4.640   4.780  14.289  1.00  0.00     0.051 A 
HETATM    4  C8  UNL     1      -4.841   3.733  15.136  1.00  0.00     0.042 A 
HETATM    5 BR1  UNL     1      -5.396   3.833  16.962  1.00  0.00    -0.049 Br
HETATM    6  C9  UNL     1      -4.565   2.581  14.432  1.00  0.00     0.114 A 
HETATM    7  N1  UNL     1      -4.199   2.887  13.173  1.00  0.00    -0.331 N 
ENDROOT
BRANCH   7   8
HETATM    8  C10 UNL     1      -3.844   1.931  12.174  1.00  0.00     0.230 C 
HETATM    9  C11 UNL     1      -4.518   2.167  10.846  1.00  0.00     0.088 C 
HETATM   10  C12 UNL     1      -4.199   0.846  10.138  1.00  0.00     0.153 C 
HETATM   11  C13 UNL     1      -3.994  -0.074  11.307  1.00  0.00     0.176 C 
HETATM   12  O4  UNL     1      -4.205   0.638  12.460  1.00  0.00    -0.356 OA
BRANCH  10  13
HETATM   13  O2  UNL     1      -3.057   0.974   9.351  1.00  0.00    -0.393 OA
ATOM     14  H2  UNL     1      -2.435   0.284   9.550  1.00  0.00     0.210 HD
ENDBRANCH  10  13
BRANCH  11  15
HETATM   15  C14 UNL     1      -2.663  -0.774  11.256  1.00  0.00     0.198 C 
BRANCH  15  16
HETATM   16  O3  UNL     1      -2.892  -2.147  11.305  1.00  0.00    -0.398 OA
ATOM     17  H3  UNL     1      -2.401  -2.556  10.601  1.00  0.00     0.209 HD
ENDBRANCH  15  16
ENDBRANCH  11  15
ENDBRANCH   7   8
BRANCH   3  18
HETATM   18  C4  UNL     1      -4.785   6.204  14.533  1.00  0.00     0.166 C 
HETATM   19  O1  UNL     1      -5.968   6.652  14.691  1.00  0.00    -0.292 OA
BRANCH  18  20
HETATM   20  C5  UNL     1      -3.671   7.168  14.615  1.00  0.00     0.052 C 
HETATM   21  C6  UNL     1      -2.334   6.475  14.710  1.00  0.00     0.018 C 
HETATM   22  C7  UNL     1      -3.622   8.101  13.446  1.00  0.00     0.018 C 
ENDBRANCH  18  20
ENDBRANCH   3  18
TORSDOF 6
ENDMDL
