MODEL 1
REMARK VINA RESULT: -7.675418260      0.000      0.000
REMARK  5 active torsions:
REMARK  status: ('A' for Active; 'I' for Inactive)
REMARK    1  A    between atoms: C2_2  and  N1_3 
REMARK    2  A    between atoms: C2_2  and  C16_29 
REMARK    3  A    between atoms: N1_3  and  C3_5 
REMARK    4  A    between atoms: N3_9  and  C5_11 
REMARK    5  A    between atoms: N6_23  and  C12_24 
ROOT
HETATM    1  C3  UNL     1      -3.398   4.316  12.935  1.00  0.00     0.148 A 
HETATM    2  N2  UNL     1      -4.353   4.291  13.902  1.00  0.00    -0.175 N 
ATOM      3  H2  UNL     1      -4.760   3.395  14.170  1.00  0.00     0.186 HD
HETATM    4  C4  UNL     1      -4.779   5.408  14.519  1.00  0.00     0.681 A 
HETATM    5  N3  UNL     1      -5.699   5.324  15.441  1.00  0.00    -0.217 N 
ATOM      6  H3  UNL     1      -6.015   6.178  15.901  1.00  0.00     0.178 HD
HETATM    7  N4  UNL     1      -4.274   6.616  14.203  1.00  0.00    -0.174 N 
ATOM      8  H4  UNL     1      -4.602   7.458  14.675  1.00  0.00     0.186 HD
HETATM    9  C9  UNL     1      -3.325   6.684  13.248  1.00  0.00     0.155 A 
HETATM   10  C10 UNL     1      -2.871   5.539  12.598  1.00  0.00     0.123 A 
HETATM   11  N5  UNL     1      -1.936   5.909  11.707  1.00  0.00    -0.346 N 
ATOM     12  H5  UNL     1      -1.426   5.282  11.086  1.00  0.00     0.167 HD
HETATM   13  C11 UNL     1      -1.784   7.256  11.772  1.00  0.00     0.185 A 
HETATM   14  N6  UNL     1      -2.630   7.714  12.708  1.00  0.00    -0.322 N 
ENDROOT
BRANCH   1  15
HETATM   15  N1  UNL     1      -3.059   3.222  12.409  1.00  0.00    -0.369 N 
ATOM     16  H1  UNL     1      -2.870   2.466  13.068  1.00  0.00     0.161 HD
BRANCH  15  17
HETATM   17  C2  UNL     1      -2.901   2.879  11.038  1.00  0.00     0.083 C 
HETATM   18  C1  UNL     1      -1.426   2.531  10.800  1.00  0.00     0.032 C 
BRANCH  17  19
HETATM   19  C16 UNL     1      -3.729   1.607  10.808  1.00  0.00     0.008 A 
HETATM   20  C17 UNL     1      -3.063   0.297  11.040  1.00  0.00     0.007 A 
HETATM   21  C18 UNL     1      -4.111   0.792  12.027  1.00  0.00     0.007 A 
ENDBRANCH  17  19
ENDBRANCH  15  17
ENDBRANCH   1  15
BRANCH   5  22
HETATM   22  C5  UNL     1      -6.276   4.077  15.826  1.00  0.00     0.151 C 
HETATM   23  C6  UNL     1      -7.351   4.126  16.869  1.00  0.00     0.196 C 
HETATM   24  O1  UNL     1      -6.383   3.973  17.855  1.00  0.00    -0.382 OA
HETATM   25  C7  UNL     1      -5.474   3.447  16.948  1.00  0.00     0.142 C 
HETATM   26  C8  UNL     1      -5.472   1.929  16.918  1.00  0.00     0.042 C 
ENDBRANCH   5  22
BRANCH  14  27
HETATM   27  C12 UNL     1      -2.843   9.087  13.152  1.00  0.00     0.097 C 
HETATM   28  C13 UNL     1      -2.068   9.323  14.430  1.00  0.00     0.063 C 
HETATM   29  C14 UNL     1      -1.431  10.525  13.789  1.00  0.00     0.174 C 
HETATM   30  F1  UNL     1      -1.945  11.684  14.305  1.00  0.00    -0.249 F 
HETATM   31  C15 UNL     1      -2.035  10.123  12.444  1.00  0.00     0.063 C 
ENDBRANCH  14  27
TORSDOF 5
ENDMDL
MODEL 2
REMARK VINA RESULT: -7.621818585      3.923      7.139
REMARK  5 active torsions:
REMARK  status: ('A' for Active; 'I' for Inactive)
REMARK    1  A    between atoms: C2_2  and  N1_3 
REMARK    2  A    between atoms: C2_2  and  C16_29 
REMARK    3  A    between atoms: N1_3  and  C3_5 
REMARK    4  A    between atoms: N3_9  and  C5_11 
REMARK    5  A    between atoms: N6_23  and  C12_24 
ROOT
HETATM    1  C3  UNL     1      -4.447   7.192  12.743  1.00  0.00     0.148 A 
HETATM    2  N2  UNL     1      -3.227   6.734  12.354  1.00  0.00    -0.175 N 
ATOM      3  H2  UNL     1      -2.755   7.193  11.576  1.00  0.00     0.186 HD
HETATM    4  C4  UNL     1      -2.622   5.698  12.961  1.00  0.00     0.681 A 
HETATM    5  N3  UNL     1      -1.451   5.301  12.545  1.00  0.00    -0.217 N 
ATOM      6  H3  UNL     1      -1.001   4.514  13.012  1.00  0.00     0.178 HD
HETATM    7  N4  UNL     1      -3.203   5.057  13.993  1.00  0.00    -0.174 N 
ATOM      8  H4  UNL     1      -2.738   4.272  14.449  1.00  0.00     0.186 HD
HETATM    9  C9  UNL     1      -4.414   5.479  14.411  1.00  0.00     0.155 A 
HETATM   10  C10 UNL     1      -5.056   6.551  13.795  1.00  0.00     0.123 A 
HETATM   11  N5  UNL     1      -6.231   6.743  14.415  1.00  0.00    -0.346 N 
ATOM     12  H5  UNL     1      -6.917   7.460  14.180  1.00  0.00     0.167 HD
HETATM   13  C11 UNL     1      -6.354   5.824  15.407  1.00  0.00     0.185 A 
HETATM   14  N6  UNL     1      -5.249   5.066  15.394  1.00  0.00    -0.322 N 
ENDROOT
BRANCH   1  15
HETATM   15  N1  UNL     1      -4.940   8.168  12.118  1.00  0.00    -0.369 N 
ATOM     16  H1  UNL     1      -5.564   8.761  12.665  1.00  0.00     0.161 HD
BRANCH  15  17
HETATM   17  C2  UNL     1      -4.759   8.569  10.766  1.00  0.00     0.083 C 
HETATM   18  C1  UNL     1      -5.141   7.390   9.861  1.00  0.00     0.032 C 
BRANCH  17  19
HETATM   19  C16 UNL     1      -5.761   9.703  10.510  1.00  0.00     0.008 A 
HETATM   20  C17 UNL     1      -6.956   9.396   9.678  1.00  0.00     0.007 A 
HETATM   21  C18 UNL     1      -7.118   9.602  11.177  1.00  0.00     0.007 A 
ENDBRANCH  17  19
ENDBRANCH  15  17
ENDBRANCH   1  15
BRANCH   5  22
HETATM   22  C5  UNL     1      -0.778   5.935  11.456  1.00  0.00     0.151 C 
HETATM   23  C6  UNL     1      -1.309   5.656  10.082  1.00  0.00     0.196 C 
HETATM   24  O1  UNL     1      -0.440   4.576   9.981  1.00  0.00    -0.382 OA
HETATM   25  C7  UNL     1       0.379   5.078  10.981  1.00  0.00     0.142 C 
HETATM   26  C8  UNL     1       1.551   5.881  10.444  1.00  0.00     0.042 C 
ENDBRANCH   5  22
BRANCH  14  27
HETATM   27  C12 UNL     1      -4.900   3.946  16.261  1.00  0.00     0.097 C 
HETATM   28  C13 UNL     1      -5.983   3.767  17.303  1.00  0.00     0.063 C 
HETATM   29  C14 UNL     1      -6.094   2.322  16.900  1.00  0.00     0.174 C 
HETATM   30  F1  UNL     1      -5.541   1.506  17.849  1.00  0.00    -0.249 F 
HETATM   31  C15 UNL     1      -5.182   2.590  15.704  1.00  0.00     0.063 C 
ENDBRANCH  14  27
TORSDOF 5
ENDMDL
MODEL 3
REMARK VINA RESULT: -7.421361679      2.248      4.850
REMARK  5 active torsions:
REMARK  status: ('A' for Active; 'I' for Inactive)
REMARK    1  A    between atoms: C2_2  and  N1_3 
REMARK    2  A    between atoms: C2_2  and  C16_29 
REMARK    3  A    between atoms: N1_3  and  C3_5 
REMARK    4  A    between atoms: N3_9  and  C5_11 
REMARK    5  A    between atoms: N6_23  and  C12_24 
ROOT
HETATM    1  C3  UNL     1      -3.877   5.467  14.211  1.00  0.00     0.148 A 
HETATM    2  N2  UNL     1      -3.429   4.526  13.339  1.00  0.00    -0.175 N 
ATOM      3  H2  UNL     1      -3.803   3.579  13.400  1.00  0.00     0.186 HD
HETATM    4  C4  UNL     1      -2.509   4.800  12.397  1.00  0.00     0.681 A 
HETATM    5  N3  UNL     1      -2.115   3.856  11.586  1.00  0.00    -0.217 N 
ATOM      6  H3  UNL     1      -1.416   4.075  10.875  1.00  0.00     0.178 HD
HETATM    7  N4  UNL     1      -1.983   6.033  12.273  1.00  0.00    -0.174 N 
ATOM      8  H4  UNL     1      -1.286   6.234  11.556  1.00  0.00     0.186 HD
HETATM    9  C9  UNL     1      -2.400   6.996  13.119  1.00  0.00     0.155 A 
HETATM   10  C10 UNL     1      -3.352   6.732  14.101  1.00  0.00     0.123 A 
HETATM   11  N5  UNL     1      -3.570   7.866  14.786  1.00  0.00    -0.346 N 
ATOM     12  H5  UNL     1      -4.218   7.975  15.565  1.00  0.00     0.167 HD
HETATM   13  C11 UNL     1      -2.783   8.843  14.268  1.00  0.00     0.185 A 
HETATM   14  N6  UNL     1      -2.081   8.305  13.260  1.00  0.00    -0.322 N 
ENDROOT
BRANCH   1  15
HETATM   15  N1  UNL     1      -4.740   5.121  15.062  1.00  0.00    -0.369 N 
ATOM     16  H1  UNL     1      -5.174   5.890  15.574  1.00  0.00     0.161 HD
BRANCH  15  17
HETATM   17  C2  UNL     1      -5.200   3.824  15.419  1.00  0.00     0.083 C 
HETATM   18  C1  UNL     1      -4.082   3.117  16.196  1.00  0.00     0.032 C 
BRANCH  17  19
HETATM   19  C16 UNL     1      -6.383   4.030  16.376  1.00  0.00     0.008 A 
HETATM   20  C17 UNL     1      -7.113   2.820  16.842  1.00  0.00     0.007 A 
HETATM   21  C18 UNL     1      -6.210   3.571  17.810  1.00  0.00     0.007 A 
ENDBRANCH  17  19
ENDBRANCH  15  17
ENDBRANCH   1  15
BRANCH   5  22
HETATM   22  C5  UNL     1      -2.631   2.527  11.660  1.00  0.00     0.151 C 
HETATM   23  C6  UNL     1      -1.894   1.475  10.888  1.00  0.00     0.196 C 
HETATM   24  O1  UNL     1      -2.713   1.723   9.793  1.00  0.00    -0.382 OA
HETATM   25  C7  UNL     1      -3.684   2.309  10.591  1.00  0.00     0.142 C 
HETATM   26  C8  UNL     1      -4.780   1.342  11.005  1.00  0.00     0.042 C 
ENDBRANCH   5  22
BRANCH  14  27
HETATM   27  C12 UNL     1      -1.100   8.943  12.388  1.00  0.00     0.097 C 
HETATM   28  C13 UNL     1      -1.802   9.952  11.505  1.00  0.00     0.063 C 
HETATM   29  C14 UNL     1      -0.819  10.995  11.962  1.00  0.00     0.174 C 
HETATM   30  F1  UNL     1       0.081  11.285  10.973  1.00  0.00    -0.249 F 
HETATM   31  C15 UNL     1      -0.290  10.027  13.019  1.00  0.00     0.063 C 
ENDBRANCH  14  27
TORSDOF 5
ENDMDL
MODEL 4
REMARK VINA RESULT: -7.354246126      3.851      7.268
REMARK  5 active torsions:
REMARK  status: ('A' for Active; 'I' for Inactive)
REMARK    1  A    between atoms: C2_2  and  N1_3 
REMARK    2  A    between atoms: C2_2  and  C16_29 
REMARK    3  A    between atoms: N1_3  and  C3_5 
REMARK    4  A    between atoms: N3_9  and  C5_11 
REMARK    5  A    between atoms: N6_23  and  C12_24 
ROOT
HETATM    1  C3  UNL     1      -4.286   7.323  12.762  1.00  0.00     0.148 A 
HETATM    2  N2  UNL     1      -3.090   6.825  12.354  1.00  0.00    -0.175 N 
ATOM      3  H2  UNL     1      -2.600   7.286  11.587  1.00  0.00     0.186 HD
HETATM    4  C4  UNL     1      -2.530   5.744  12.925  1.00  0.00     0.681 A 
HETATM    5  N3  UNL     1      -1.379   5.308  12.491  1.00  0.00    -0.217 N 
ATOM      6  H3  UNL     1      -0.963   4.487  12.931  1.00  0.00     0.178 HD
HETATM    7  N4  UNL     1      -3.135   5.098  13.940  1.00  0.00    -0.174 N 
ATOM      8  H4  UNL     1      -2.705   4.279  14.369  1.00  0.00     0.186 HD
HETATM    9  C9  UNL     1      -4.325   5.560  14.375  1.00  0.00     0.155 A 
HETATM   10  C10 UNL     1      -4.920   6.678  13.797  1.00  0.00     0.123 A 
HETATM   11  N5  UNL     1      -6.084   6.903  14.428  1.00  0.00    -0.346 N 
ATOM     12  H5  UNL     1      -6.738   7.657  14.218  1.00  0.00     0.167 HD
HETATM   13  C11 UNL     1      -6.245   5.960  15.391  1.00  0.00     0.185 A 
HETATM   14  N6  UNL     1      -5.174   5.154  15.350  1.00  0.00    -0.322 N 
ENDROOT
BRANCH   1  15
HETATM   15  N1  UNL     1      -4.738   8.340  12.169  1.00  0.00    -0.369 N 
ATOM     16  H1  UNL     1      -4.561   9.228  12.639  1.00  0.00     0.161 HD
BRANCH  15  17
HETATM   17  C2  UNL     1      -5.456   8.438  10.946  1.00  0.00     0.083 C 
HETATM   18  C1  UNL     1      -6.777   9.167  11.224  1.00  0.00     0.032 C 
BRANCH  17  19
HETATM   19  C16 UNL     1      -4.614   9.323  10.016  1.00  0.00     0.008 A 
HETATM   20  C17 UNL     1      -4.958  10.769   9.941  1.00  0.00     0.007 A 
HETATM   21  C18 UNL     1      -3.690  10.335  10.662  1.00  0.00     0.007 A 
ENDBRANCH  17  19
ENDBRANCH  15  17
ENDBRANCH   1  15
BRANCH   5  22
HETATM   22  C5  UNL     1      -0.681   5.945  11.420  1.00  0.00     0.151 C 
HETATM   23  C6  UNL     1      -1.214   5.712  10.038  1.00  0.00     0.196 C 
HETATM   24  O1  UNL     1      -0.378   4.608   9.916  1.00  0.00    -0.382 OA
HETATM   25  C7  UNL     1       0.452   5.064  10.931  1.00  0.00     0.142 C 
HETATM   26  C8  UNL     1       1.650   5.843  10.417  1.00  0.00     0.042 C 
ENDBRANCH   5  22
BRANCH  14  27
HETATM   27  C12 UNL     1      -4.873   3.993  16.180  1.00  0.00     0.097 C 
HETATM   28  C13 UNL     1      -5.974   3.813  17.203  1.00  0.00     0.063 C 
HETATM   29  C14 UNL     1      -6.128   2.388  16.747  1.00  0.00     0.174 C 
HETATM   30  F1  UNL     1      -5.613   1.521  17.672  1.00  0.00    -0.249 F 
HETATM   31  C15 UNL     1      -5.193   2.668  15.571  1.00  0.00     0.063 C 
ENDBRANCH  14  27
TORSDOF 5
ENDMDL
MODEL 5
REMARK VINA RESULT: -7.292210622      2.939      6.194
REMARK  5 active torsions:
REMARK  status: ('A' for Active; 'I' for Inactive)
REMARK    1  A    between atoms: C2_2  and  N1_3 
REMARK    2  A    between atoms: C2_2  and  C16_29 
REMARK    3  A    between atoms: N1_3  and  C3_5 
REMARK    4  A    between atoms: N3_9  and  C5_11 
REMARK    5  A    between atoms: N6_23  and  C12_24 
ROOT
HETATM    1  C3  UNL     1      -3.718   5.282  13.337  1.00  0.00     0.148 A 
HETATM    2  N2  UNL     1      -4.241   4.578  14.376  1.00  0.00    -0.175 N 
ATOM      3  H2  UNL     1      -4.480   5.072  15.236  1.00  0.00     0.186 HD
HETATM    4  C4  UNL     1      -4.455   3.252  14.308  1.00  0.00     0.681 A 
HETATM    5  N3  UNL     1      -4.960   2.627  15.337  1.00  0.00    -0.217 N 
ATOM      6  H3  UNL     1      -5.117   1.621  15.275  1.00  0.00     0.178 HD
HETATM    7  N4  UNL     1      -4.158   2.552  13.197  1.00  0.00    -0.174 N 
ATOM      8  H4  UNL     1      -4.322   1.546  13.153  1.00  0.00     0.186 HD
HETATM    9  C9  UNL     1      -3.636   3.212  12.144  1.00  0.00     0.155 A 
HETATM   10  C10 UNL     1      -3.407   4.586  12.194  1.00  0.00     0.123 A 
HETATM   11  N5  UNL     1      -2.889   4.965  11.015  1.00  0.00    -0.346 N 
ATOM     12  H5  UNL     1      -2.621   5.915  10.762  1.00  0.00     0.167 HD
HETATM   13  C11 UNL     1      -2.781   3.872  10.217  1.00  0.00     0.185 A 
HETATM   14  N6  UNL     1      -3.236   2.818  10.911  1.00  0.00    -0.322 N 
ENDROOT
BRANCH   1  15
HETATM   15  N1  UNL     1      -3.550   6.522  13.488  1.00  0.00    -0.369 N 
ATOM     16  H1  UNL     1      -4.302   7.107  13.122  1.00  0.00     0.161 HD
BRANCH  15  17
HETATM   17  C2  UNL     1      -2.474   7.229  14.090  1.00  0.00     0.083 C 
HETATM   18  C1  UNL     1      -1.273   7.174  13.136  1.00  0.00     0.032 C 
BRANCH  17  19
HETATM   19  C16 UNL     1      -2.922   8.694  14.199  1.00  0.00     0.008 A 
HETATM   20  C17 UNL     1      -2.064   9.623  14.983  1.00  0.00     0.007 A 
HETATM   21  C18 UNL     1      -2.099   9.733  13.465  1.00  0.00     0.007 A 
ENDBRANCH  17  19
ENDBRANCH  15  17
ENDBRANCH   1  15
BRANCH   5  22
HETATM   22  C5  UNL     1      -5.299   3.306  16.546  1.00  0.00     0.151 C 
HETATM   23  C6  UNL     1      -5.835   2.464  17.664  1.00  0.00     0.196 C 
HETATM   24  O1  UNL     1      -7.124   2.678  17.191  1.00  0.00    -0.382 OA
HETATM   25  C7  UNL     1      -6.730   3.807  16.487  1.00  0.00     0.142 C 
HETATM   26  C8  UNL     1      -6.955   5.098  17.254  1.00  0.00     0.042 C 
ENDBRANCH   5  22
BRANCH  14  27
HETATM   27  C12 UNL     1      -3.331   1.423  10.495  1.00  0.00     0.097 C 
HETATM   28  C13 UNL     1      -2.070   0.694  10.907  1.00  0.00     0.063 C 
HETATM   29  C14 UNL     1      -2.923  -0.335  11.596  1.00  0.00     0.174 C 
HETATM   30  F1  UNL     1      -2.944  -1.506  10.888  1.00  0.00    -0.249 F 
HETATM   31  C15 UNL     1      -4.153   0.545  11.378  1.00  0.00     0.063 C 
ENDBRANCH  14  27
TORSDOF 5
ENDMDL
