MODEL 1
REMARK VINA RESULT: -8.282221113      0.000      0.000
REMARK  4 active torsions:
REMARK  status: ('A' for Active; 'I' for Inactive)
REMARK    1  A    between atoms: C10_11  and  C11_12 
REMARK    2  A    between atoms: C11_12  and  N1_13 
REMARK       I    between atoms: N1_13  and  C12_15 
REMARK    3  A    between atoms: C12_15  and  C13_17 
REMARK    4  A    between atoms: C15_21  and  C16_22 
ROOT
HETATM    1  N1  UNL     1      -3.875   7.697  11.549  1.00  0.00    -0.359 N 
ATOM      2  H1  UNL     1      -3.025   7.522  11.013  1.00  0.00     0.162 HD
HETATM    3  C12 UNL     1      -4.538   6.636  12.215  1.00  0.00     0.233 C 
HETATM    4  O1  UNL     1      -5.602   6.848  12.887  1.00  0.00    -0.273 OA
ENDROOT
BRANCH   1   5
HETATM    5  C11 UNL     1      -4.411   9.008  11.641  1.00  0.00     0.135 C 
BRANCH   5   6
HETATM    6  C10 UNL     1      -5.055   9.574  10.429  1.00  0.00     0.013 C 
HETATM    7  C2  UNL     1      -6.490   9.229  10.233  1.00  0.00     0.112 C 
HETATM    8  C1  UNL     1      -7.306   9.562  11.468  1.00  0.00     0.053 C 
HETATM    9  F1  UNL     1      -6.702   7.917   9.943  1.00  0.00    -0.242 F 
HETATM   10  C3  UNL     1      -7.073  10.026   9.087  1.00  0.00     0.026 C 
HETATM   11  C4  UNL     1      -6.332   9.558   7.834  1.00  0.00     0.012 C 
HETATM   12  C8  UNL     1      -6.973  11.504   9.267  1.00  0.00     0.012 C 
HETATM   13  C5  UNL     1      -4.885   9.946   7.990  1.00  0.00    -0.013 C 
HETATM   14  C6  UNL     1      -4.796  11.443   8.142  1.00  0.00     0.009 C 
HETATM   15  C19 UNL     1      -4.304   9.203   9.153  1.00  0.00     0.019 C 
HETATM   16  C7  UNL     1      -5.499  11.836   9.401  1.00  0.00    -0.013 C 
HETATM   17  C9  UNL     1      -4.900  11.097  10.547  1.00  0.00     0.019 C 
ENDBRANCH   5   6
ENDBRANCH   1   5
BRANCH   3  18
HETATM   18  C13 UNL     1      -3.999   5.280  12.131  1.00  0.00     0.203 C 
HETATM   19  C14 UNL     1      -5.092   4.261  12.104  1.00  0.00     0.237 C 
HETATM   20  O2  UNL     1      -5.847   3.798  11.241  1.00  0.00    -0.272 OA
HETATM   21  N2  UNL     1      -4.951   3.989  13.514  1.00  0.00    -0.321 N 
HETATM   22  C15 UNL     1      -5.212   3.570  14.851  1.00  0.00     0.198 C 
HETATM   23  C18 UNL     1      -3.620   4.572  13.378  1.00  0.00     0.172 C 
HETATM   24  C17 UNL     1      -4.955   4.732  15.787  1.00  0.00     0.112 C 
HETATM   25  S1  UNL     1      -3.571   5.563  14.906  1.00  0.00    -0.140 SA
BRANCH  22  26
HETATM   26  C16 UNL     1      -4.479   2.351  15.215  1.00  0.00     0.197 C 
HETATM   27  O3  UNL     1      -4.626   1.267  14.606  1.00  0.00    -0.646 OA
HETATM   28  O4  UNL     1      -3.590   2.393  16.271  1.00  0.00    -0.646 OA
ENDBRANCH  22  26
ENDBRANCH   3  18
TORSDOF 4
ENDMDL
MODEL 2
REMARK VINA RESULT: -8.219346346      0.915      1.667
REMARK  4 active torsions:
REMARK  status: ('A' for Active; 'I' for Inactive)
REMARK    1  A    between atoms: C10_11  and  C11_12 
REMARK    2  A    between atoms: C11_12  and  N1_13 
REMARK       I    between atoms: N1_13  and  C12_15 
REMARK    3  A    between atoms: C12_15  and  C13_17 
REMARK    4  A    between atoms: C15_21  and  C16_22 
ROOT
HETATM    1  N1  UNL     1      -4.137   7.590  11.222  1.00  0.00    -0.359 N 
ATOM      2  H1  UNL     1      -3.418   7.367  10.534  1.00  0.00     0.162 HD
HETATM    3  C12 UNL     1      -4.599   6.601  12.127  1.00  0.00     0.233 C 
HETATM    4  O1  UNL     1      -5.499   6.872  12.990  1.00  0.00    -0.273 OA
ENDROOT
BRANCH   1   5
HETATM    5  C11 UNL     1      -4.689   8.895  11.290  1.00  0.00     0.135 C 
BRANCH   5   6
HETATM    6  C10 UNL     1      -5.588   9.320  10.187  1.00  0.00     0.013 C 
HETATM    7  C2  UNL     1      -6.159  10.690  10.305  1.00  0.00     0.112 C 
HETATM    8  C1  UNL     1      -5.068  11.721  10.522  1.00  0.00     0.053 C 
HETATM    9  F1  UNL     1      -7.057  10.823  11.318  1.00  0.00    -0.242 F 
HETATM   10  C3  UNL     1      -6.884  11.070   9.032  1.00  0.00     0.026 C 
HETATM   11  C4  UNL     1      -8.066  10.108   8.920  1.00  0.00     0.012 C 
HETATM   12  C8  UNL     1      -6.023  11.030   7.812  1.00  0.00     0.012 C 
HETATM   13  C5  UNL     1      -7.507   8.719   8.749  1.00  0.00    -0.013 C 
HETATM   14  C6  UNL     1      -6.665   8.685   7.499  1.00  0.00     0.009 C 
HETATM   15  C19 UNL     1      -6.744   8.345   9.981  1.00  0.00     0.019 C 
HETATM   16  C7  UNL     1      -5.505   9.611   7.682  1.00  0.00    -0.013 C 
HETATM   17  C9  UNL     1      -4.752   9.216   8.904  1.00  0.00     0.019 C 
ENDBRANCH   5   6
ENDBRANCH   1   5
BRANCH   3  18
HETATM   18  C13 UNL     1      -4.041   5.251  12.071  1.00  0.00     0.203 C 
HETATM   19  C14 UNL     1      -5.119   4.216  12.066  1.00  0.00     0.237 C 
HETATM   20  O2  UNL     1      -5.868   3.725  11.214  1.00  0.00    -0.272 OA
HETATM   21  N2  UNL     1      -4.972   3.976  13.482  1.00  0.00    -0.321 N 
HETATM   22  C15 UNL     1      -5.226   3.581  14.828  1.00  0.00     0.198 C 
HETATM   23  C18 UNL     1      -3.650   4.576  13.332  1.00  0.00     0.172 C 
HETATM   24  C17 UNL     1      -4.985   4.767  15.739  1.00  0.00     0.112 C 
HETATM   25  S1  UNL     1      -3.614   5.599  14.839  1.00  0.00    -0.140 SA
BRANCH  22  26
HETATM   26  C16 UNL     1      -4.475   2.381  15.216  1.00  0.00     0.197 C 
HETATM   27  O3  UNL     1      -4.609   1.282  14.633  1.00  0.00    -0.646 OA
HETATM   28  O4  UNL     1      -3.584   2.459  16.268  1.00  0.00    -0.646 OA
ENDBRANCH  22  26
ENDBRANCH   3  18
TORSDOF 4
ENDMDL
MODEL 3
REMARK VINA RESULT: -8.169510970      1.261      2.175
REMARK  4 active torsions:
REMARK  status: ('A' for Active; 'I' for Inactive)
REMARK    1  A    between atoms: C10_11  and  C11_12 
REMARK    2  A    between atoms: C11_12  and  N1_13 
REMARK       I    between atoms: N1_13  and  C12_15 
REMARK    3  A    between atoms: C12_15  and  C13_17 
REMARK    4  A    between atoms: C15_21  and  C16_22 
ROOT
HETATM    1  N1  UNL     1      -5.099   7.244  11.766  1.00  0.00    -0.359 N 
ATOM      2  H1  UNL     1      -5.781   6.534  11.501  1.00  0.00     0.162 HD
HETATM    3  C12 UNL     1      -3.767   6.880  12.085  1.00  0.00     0.233 C 
HETATM    4  O1  UNL     1      -2.908   7.762  12.418  1.00  0.00    -0.273 OA
ENDROOT
BRANCH   1   5
HETATM    5  C11 UNL     1      -5.469   8.614  11.821  1.00  0.00     0.135 C 
BRANCH   5   6
HETATM    6  C10 UNL     1      -6.017   9.228  10.586  1.00  0.00     0.013 C 
HETATM    7  C2  UNL     1      -5.329  10.461  10.113  1.00  0.00     0.112 C 
HETATM    8  C1  UNL     1      -3.836  10.235   9.971  1.00  0.00     0.053 C 
HETATM    9  F1  UNL     1      -5.506  11.534  10.930  1.00  0.00    -0.242 F 
HETATM   10  C3  UNL     1      -5.849  10.865   8.749  1.00  0.00     0.026 C 
HETATM   11  C4  UNL     1      -7.319  11.231   8.955  1.00  0.00     0.012 C 
HETATM   12  C8  UNL     1      -5.683   9.812   7.704  1.00  0.00     0.012 C 
HETATM   13  C5  UNL     1      -8.043   9.981   9.385  1.00  0.00    -0.013 C 
HETATM   14  C6  UNL     1      -7.892   8.937   8.308  1.00  0.00     0.009 C 
HETATM   15  C19 UNL     1      -7.506   9.538  10.710  1.00  0.00     0.019 C 
HETATM   16  C7  UNL     1      -6.444   8.589   8.181  1.00  0.00    -0.013 C 
HETATM   17  C9  UNL     1      -5.931   8.140   9.506  1.00  0.00     0.019 C 
ENDBRANCH   5   6
ENDBRANCH   1   5
BRANCH   3  18
HETATM   18  C13 UNL     1      -3.369   5.474  12.033  1.00  0.00     0.203 C 
HETATM   19  C14 UNL     1      -4.554   4.579  11.864  1.00  0.00     0.237 C 
HETATM   20  O2  UNL     1      -5.252   4.208  10.914  1.00  0.00    -0.272 OA
HETATM   21  N2  UNL     1      -4.601   4.282  13.275  1.00  0.00    -0.321 N 
HETATM   22  C15 UNL     1      -5.053   3.881  14.566  1.00  0.00     0.198 C 
HETATM   23  C18 UNL     1      -3.209   4.719  13.299  1.00  0.00     0.172 C 
HETATM   24  C17 UNL     1      -4.780   5.001  15.549  1.00  0.00     0.112 C 
HETATM   25  S1  UNL     1      -3.226   5.685  14.844  1.00  0.00    -0.140 SA
BRANCH  22  26
HETATM   26  C16 UNL     1      -4.499   2.587  14.983  1.00  0.00     0.197 C 
HETATM   27  O3  UNL     1      -4.688   1.532  14.338  1.00  0.00    -0.646 OA
HETATM   28  O4  UNL     1      -3.739   2.523  16.135  1.00  0.00    -0.646 OA
ENDBRANCH  22  26
ENDBRANCH   3  18
TORSDOF 4
ENDMDL
MODEL 4
REMARK VINA RESULT: -7.903125901      1.458      2.031
REMARK  4 active torsions:
REMARK  status: ('A' for Active; 'I' for Inactive)
REMARK    1  A    between atoms: C10_11  and  C11_12 
REMARK    2  A    between atoms: C11_12  and  N1_13 
REMARK       I    between atoms: N1_13  and  C12_15 
REMARK    3  A    between atoms: C12_15  and  C13_17 
REMARK    4  A    between atoms: C15_21  and  C16_22 
ROOT
HETATM    1  N1  UNL     1      -4.702   7.530  11.084  1.00  0.00    -0.359 N 
ATOM      2  H1  UNL     1      -5.383   6.792  10.912  1.00  0.00     0.162 HD
HETATM    3  C12 UNL     1      -3.361   7.211  11.417  1.00  0.00     0.233 C 
HETATM    4  O1  UNL     1      -2.503   8.129  11.633  1.00  0.00    -0.273 OA
ENDROOT
BRANCH   1   5
HETATM    5  C11 UNL     1      -5.080   8.895  10.992  1.00  0.00     0.135 C 
BRANCH   5   6
HETATM    6  C10 UNL     1      -6.026   9.276   9.913  1.00  0.00     0.013 C 
HETATM    7  C2  UNL     1      -6.952  10.399  10.226  1.00  0.00     0.112 C 
HETATM    8  C1  UNL     1      -6.189  11.617  10.712  1.00  0.00     0.053 C 
HETATM    9  F1  UNL     1      -7.883  10.094  11.169  1.00  0.00    -0.242 F 
HETATM   10  C3  UNL     1      -7.712  10.817   8.985  1.00  0.00     0.026 C 
HETATM   11  C4  UNL     1      -8.584   9.619   8.607  1.00  0.00     0.012 C 
HETATM   12  C8  UNL     1      -6.836  11.241   7.854  1.00  0.00     0.012 C 
HETATM   13  C5  UNL     1      -7.663   8.486   8.237  1.00  0.00    -0.013 C 
HETATM   14  C6  UNL     1      -6.804   8.917   7.075  1.00  0.00     0.009 C 
HETATM   15  C19 UNL     1      -6.865   8.092   9.441  1.00  0.00     0.019 C 
HETATM   16  C7  UNL     1      -5.947  10.059   7.515  1.00  0.00    -0.013 C 
HETATM   17  C9  UNL     1      -5.153   9.645   8.705  1.00  0.00     0.019 C 
ENDBRANCH   5   6
ENDBRANCH   1   5
BRANCH   3  18
HETATM   18  C13 UNL     1      -2.954   5.810  11.515  1.00  0.00     0.203 C 
HETATM   19  C14 UNL     1      -4.095   4.890  11.219  1.00  0.00     0.237 C 
HETATM   20  O2  UNL     1      -4.633   4.453  10.197  1.00  0.00    -0.272 OA
HETATM   21  N2  UNL     1      -4.361   4.679  12.622  1.00  0.00    -0.321 N 
HETATM   22  C15 UNL     1      -5.008   4.351  13.849  1.00  0.00     0.198 C 
HETATM   23  C18 UNL     1      -2.991   5.135  12.836  1.00  0.00     0.172 C 
HETATM   24  C17 UNL     1      -4.898   5.532  14.790  1.00  0.00     0.112 C 
HETATM   25  S1  UNL     1      -3.255   6.194  14.295  1.00  0.00    -0.140 SA
BRANCH  22  26
HETATM   26  C16 UNL     1      -4.521   3.092  14.427  1.00  0.00     0.197 C 
HETATM   27  O3  UNL     1      -4.055   3.017  15.585  1.00  0.00    -0.646 OA
HETATM   28  O4  UNL     1      -4.575   1.941  13.667  1.00  0.00    -0.646 OA
ENDBRANCH  22  26
ENDBRANCH   3  18
TORSDOF 4
ENDMDL
MODEL 5
REMARK VINA RESULT: -7.771532194      1.480      1.955
REMARK  4 active torsions:
REMARK  status: ('A' for Active; 'I' for Inactive)
REMARK    1  A    between atoms: C10_11  and  C11_12 
REMARK    2  A    between atoms: C11_12  and  N1_13 
REMARK       I    between atoms: N1_13  and  C12_15 
REMARK    3  A    between atoms: C12_15  and  C13_17 
REMARK    4  A    between atoms: C15_21  and  C16_22 
ROOT
HETATM    1  N1  UNL     1      -5.191   8.117  12.419  1.00  0.00    -0.359 N 
ATOM      2  H1  UNL     1      -4.869   8.713  13.181  1.00  0.00     0.162 HD
HETATM    3  C12 UNL     1      -4.658   6.814  12.248  1.00  0.00     0.233 C 
HETATM    4  O1  UNL     1      -5.055   6.063  11.297  1.00  0.00    -0.273 OA
ENDROOT
BRANCH   1   5
HETATM    5  C11 UNL     1      -6.180   8.579  11.512  1.00  0.00     0.135 C 
BRANCH   5   6
HETATM    6  C10 UNL     1      -5.807   9.681  10.590  1.00  0.00     0.013 C 
HETATM    7  C2  UNL     1      -5.861   9.360   9.137  1.00  0.00     0.112 C 
HETATM    8  C1  UNL     1      -7.212   8.786   8.753  1.00  0.00     0.053 C 
HETATM    9  F1  UNL     1      -4.910   8.474   8.737  1.00  0.00    -0.242 F 
HETATM   10  C3  UNL     1      -5.660  10.613   8.312  1.00  0.00     0.026 C 
HETATM   11  C4  UNL     1      -4.236  11.084   8.608  1.00  0.00     0.012 C 
HETATM   12  C8  UNL     1      -6.663  11.684   8.587  1.00  0.00     0.012 C 
HETATM   13  C5  UNL     1      -4.175  11.463  10.065  1.00  0.00    -0.013 C 
HETATM   14  C6  UNL     1      -5.172  12.564  10.323  1.00  0.00     0.009 C 
HETATM   15  C19 UNL     1      -4.422  10.243  10.897  1.00  0.00     0.019 C 
HETATM   16  C7  UNL     1      -6.545  12.036  10.058  1.00  0.00    -0.013 C 
HETATM   17  C9  UNL     1      -6.776  10.831  10.903  1.00  0.00     0.019 C 
ENDBRANCH   5   6
ENDBRANCH   1   5
BRANCH   3  18
HETATM   18  C13 UNL     1      -3.639   6.323  13.173  1.00  0.00     0.203 C 
HETATM   19  C14 UNL     1      -3.396   4.860  12.989  1.00  0.00     0.237 C 
HETATM   20  O2  UNL     1      -2.734   4.166  12.208  1.00  0.00    -0.272 OA
HETATM   21  N2  UNL     1      -4.249   4.520  14.101  1.00  0.00    -0.321 N 
HETATM   22  C15 UNL     1      -5.096   3.804  14.997  1.00  0.00     0.198 C 
HETATM   23  C18 UNL     1      -4.040   5.898  14.536  1.00  0.00     0.172 C 
HETATM   24  C17 UNL     1      -6.379   4.587  15.187  1.00  0.00     0.112 C 
HETATM   25  S1  UNL     1      -5.737   6.305  15.060  1.00  0.00    -0.140 SA
BRANCH  22  26
HETATM   26  C16 UNL     1      -4.426   3.462  16.257  1.00  0.00     0.197 C 
HETATM   27  O3  UNL     1      -3.214   3.159  16.318  1.00  0.00    -0.646 OA
HETATM   28  O4  UNL     1      -5.158   3.470  17.429  1.00  0.00    -0.646 OA
ENDBRANCH  22  26
ENDBRANCH   3  18
TORSDOF 4
ENDMDL
