MODEL 1
REMARK VINA RESULT: -6.592128834      0.000      0.000
REMARK  6 active torsions:
REMARK  status: ('A' for Active; 'I' for Inactive)
REMARK    1  A    between atoms: N1_2  and  O1_3 
REMARK    2  A    between atoms: N1_2  and  C2_5 
REMARK       I    between atoms: N2_6  and  C3_8 
REMARK    3  A    between atoms: C3_8  and  C4_10 
REMARK    4  A    between atoms: C4_10  and  C5_11 
REMARK    5  A    between atoms: C5_11  and  C6_12 
REMARK    6  A    between atoms: N3_15  and  C9_16 
ROOT
HETATM    1  C6  UNL     1      -4.545   7.052  13.554  1.00  0.00     0.123 C 
HETATM    2  C7  UNL     1      -5.963   6.698  13.927  1.00  0.00     0.062 C 
HETATM    3  C8  UNL     1      -6.104   5.941  15.206  1.00  0.00     0.275 C 
HETATM    4  N3  UNL     1      -5.533   4.622  15.186  1.00  0.00     0.095 N 
HETATM    5  C14 UNL     1      -4.161   4.585  15.531  1.00  0.00     0.299 C 
HETATM    6  C15 UNL     1      -3.417   5.832  15.042  1.00  0.00     0.198 C 
HETATM    7  O3  UNL     1      -3.696   5.941  13.676  1.00  0.00    -0.384 OA
ENDROOT
BRANCH   1   8
HETATM    8  C5  UNL     1      -4.574   7.489  12.118  1.00  0.00     0.041 C 
BRANCH   8   9
HETATM    9  C4  UNL     1      -3.521   6.962  11.229  1.00  0.00     0.105 C 
BRANCH   9  10
HETATM   10  C3  UNL     1      -3.970   5.876  10.364  1.00  0.00     0.222 C 
HETATM   11  N2  UNL     1      -4.613   4.768  10.966  1.00  0.00    -0.322 N 
HETATM   12  C2  UNL     1      -3.958   3.767  11.396  1.00  0.00     0.209 C 
ATOM     13  H2  UNL     1      -5.629   4.772  11.057  1.00  0.00     0.169 HD
HETATM   14  O2  UNL     1      -3.808   5.902   9.137  1.00  0.00    -0.273 OA
BRANCH  12  15
HETATM   15  N1  UNL     1      -2.553   3.695  11.302  1.00  0.00    -0.261 N 
HETATM   16  C1  UNL     1      -1.912   2.915  10.240  1.00  0.00     0.186 C 
BRANCH  15  17
HETATM   17  O1  UNL     1      -1.769   4.345  12.184  1.00  0.00    -0.287 OA
ATOM     18  H1  UNL     1      -1.296   3.835  12.831  1.00  0.00     0.244 HD
ENDBRANCH  15  17
ENDBRANCH  12  15
ENDBRANCH   9  10
ENDBRANCH   8   9
ENDBRANCH   1   8
BRANCH   4  19
HETATM   19  C9  UNL     1      -6.410   3.713  15.792  1.00  0.00     0.223 C 
HETATM   20  C10 UNL     1      -5.688   2.550  16.435  1.00  0.00     0.036 C 
HETATM   21  C11 UNL     1      -5.822   2.747  17.950  1.00  0.00     0.002 C 
HETATM   22  C12 UNL     1      -6.429   4.137  18.103  1.00  0.00     0.002 C 
HETATM   23  C13 UNL     1      -7.287   4.197  16.877  1.00  0.00     0.036 C 
ENDBRANCH   4  19
TORSDOF 6
ENDMDL
MODEL 2
REMARK VINA RESULT: -6.465686816      2.823      4.866
REMARK  6 active torsions:
REMARK  status: ('A' for Active; 'I' for Inactive)
REMARK    1  A    between atoms: N1_2  and  O1_3 
REMARK    2  A    between atoms: N1_2  and  C2_5 
REMARK       I    between atoms: N2_6  and  C3_8 
REMARK    3  A    between atoms: C3_8  and  C4_10 
REMARK    4  A    between atoms: C4_10  and  C5_11 
REMARK    5  A    between atoms: C5_11  and  C6_12 
REMARK    6  A    between atoms: N3_15  and  C9_16 
ROOT
HETATM    1  C6  UNL     1      -1.473   4.788  10.378  1.00  0.00     0.123 C 
HETATM    2  C7  UNL     1      -2.683   5.664  10.172  1.00  0.00     0.062 C 
HETATM    3  C8  UNL     1      -2.613   6.997  10.841  1.00  0.00     0.275 C 
HETATM    4  N3  UNL     1      -2.606   6.945  12.277  1.00  0.00     0.095 N 
HETATM    5  C14 UNL     1      -1.316   6.802  12.840  1.00  0.00     0.299 C 
HETATM    6  C15 UNL     1      -0.405   5.938  11.963  1.00  0.00     0.198 C 
HETATM    7  O3  UNL     1      -1.101   4.748  11.732  1.00  0.00    -0.384 OA
ENDROOT
BRANCH   1   8
HETATM    8  C5  UNL     1      -1.862   3.406   9.939  1.00  0.00     0.041 C 
BRANCH   8   9
HETATM    9  C4  UNL     1      -1.756   2.323  10.936  1.00  0.00     0.105 C 
BRANCH   9  10
HETATM   10  C3  UNL     1      -2.896   1.412  10.936  1.00  0.00     0.222 C 
HETATM   11  N2  UNL     1      -4.152   1.916  10.526  1.00  0.00    -0.322 N 
HETATM   12  C2  UNL     1      -4.956   2.460  11.346  1.00  0.00     0.209 C 
ATOM     13  H2  UNL     1      -4.420   1.841   9.544  1.00  0.00     0.169 HD
HETATM   14  O2  UNL     1      -2.789   0.227  11.280  1.00  0.00    -0.273 OA
BRANCH  12  15
HETATM   15  N1  UNL     1      -4.649   2.597  12.715  1.00  0.00    -0.261 N 
HETATM   16  C1  UNL     1      -4.360   3.914  13.290  1.00  0.00     0.186 C 
BRANCH  15  17
HETATM   17  O1  UNL     1      -4.619   1.522  13.527  1.00  0.00    -0.287 OA
ATOM     18  H1  UNL     1      -4.141   0.753  13.241  1.00  0.00     0.244 HD
ENDBRANCH  15  17
ENDBRANCH  12  15
ENDBRANCH   9  10
ENDBRANCH   8   9
ENDBRANCH   1   8
BRANCH   4  19
HETATM   19  C9  UNL     1      -3.468   7.922  12.793  1.00  0.00     0.223 C 
HETATM   20  C10 UNL     1      -4.924   7.616  12.518  1.00  0.00     0.036 C 
HETATM   21  C11 UNL     1      -5.543   7.234  13.869  1.00  0.00     0.002 C 
HETATM   22  C12 UNL     1      -4.355   7.127  14.819  1.00  0.00     0.002 C 
HETATM   23  C13 UNL     1      -3.454   8.178  14.248  1.00  0.00     0.036 C 
ENDBRANCH   4  19
TORSDOF 6
ENDMDL
MODEL 3
REMARK VINA RESULT: -6.386741645      2.243      6.245
REMARK  6 active torsions:
REMARK  status: ('A' for Active; 'I' for Inactive)
REMARK    1  A    between atoms: N1_2  and  O1_3 
REMARK    2  A    between atoms: N1_2  and  C2_5 
REMARK       I    between atoms: N2_6  and  C3_8 
REMARK    3  A    between atoms: C3_8  and  C4_10 
REMARK    4  A    between atoms: C4_10  and  C5_11 
REMARK    5  A    between atoms: C5_11  and  C6_12 
REMARK    6  A    between atoms: N3_15  and  C9_16 
ROOT
HETATM    1  C6  UNL     1      -3.557   3.435  11.001  1.00  0.00     0.123 C 
HETATM    2  C7  UNL     1      -3.829   4.886  10.690  1.00  0.00     0.062 C 
HETATM    3  C8  UNL     1      -2.648   5.651  10.190  1.00  0.00     0.275 C 
HETATM    4  N3  UNL     1      -1.590   5.813  11.149  1.00  0.00     0.095 N 
HETATM    5  C14 UNL     1      -0.660   4.747  11.163  1.00  0.00     0.299 C 
HETATM    6  C15 UNL     1      -1.331   3.402  10.870  1.00  0.00     0.198 C 
HETATM    7  O3  UNL     1      -2.393   3.291  11.773  1.00  0.00    -0.384 OA
ENDROOT
BRANCH   1   8
HETATM    8  C5  UNL     1      -4.732   2.938  11.794  1.00  0.00     0.041 C 
BRANCH   8   9
HETATM    9  C4  UNL     1      -4.543   2.762  13.246  1.00  0.00     0.105 C 
BRANCH   9  10
HETATM   10  C3  UNL     1      -4.875   3.947  14.030  1.00  0.00     0.222 C 
HETATM   11  N2  UNL     1      -4.163   4.173  15.232  1.00  0.00    -0.322 N 
HETATM   12  C2  UNL     1      -4.550   3.687  16.340  1.00  0.00     0.209 C 
ATOM     13  H2  UNL     1      -3.315   4.740  15.207  1.00  0.00     0.169 HD
HETATM   14  O2  UNL     1      -5.749   4.748  13.672  1.00  0.00    -0.273 OA
BRANCH  12  15
HETATM   15  N1  UNL     1      -5.711   2.893  16.445  1.00  0.00    -0.261 N 
HETATM   16  C1  UNL     1      -7.014   3.506  16.717  1.00  0.00     0.186 C 
BRANCH  15  17
HETATM   17  O1  UNL     1      -5.648   1.556  16.295  1.00  0.00    -0.287 OA
ATOM     18  H1  UNL     1      -5.804   1.190  15.432  1.00  0.00     0.244 HD
ENDBRANCH  15  17
ENDBRANCH  12  15
ENDBRANCH   9  10
ENDBRANCH   8   9
ENDBRANCH   1   8
BRANCH   4  19
HETATM   19  C9  UNL     1      -1.114   7.130  11.115  1.00  0.00     0.223 C 
HETATM   20  C10 UNL     1      -2.206   8.135  10.823  1.00  0.00     0.036 C 
HETATM   21  C11 UNL     1      -2.440   8.905  12.129  1.00  0.00     0.002 C 
HETATM   22  C12 UNL     1      -1.621   8.151  13.170  1.00  0.00     0.002 C 
HETATM   23  C13 UNL     1      -0.475   7.681  12.328  1.00  0.00     0.036 C 
ENDBRANCH   4  19
TORSDOF 6
ENDMDL
MODEL 4
REMARK VINA RESULT: -6.368259128      1.643      1.863
REMARK  6 active torsions:
REMARK  status: ('A' for Active; 'I' for Inactive)
REMARK    1  A    between atoms: N1_2  and  O1_3 
REMARK    2  A    between atoms: N1_2  and  C2_5 
REMARK       I    between atoms: N2_6  and  C3_8 
REMARK    3  A    between atoms: C3_8  and  C4_10 
REMARK    4  A    between atoms: C4_10  and  C5_11 
REMARK    5  A    between atoms: C5_11  and  C6_12 
REMARK    6  A    between atoms: N3_15  and  C9_16 
ROOT
HETATM    1  C6  UNL     1      -3.748   5.909  13.128  1.00  0.00     0.123 C 
HETATM    2  C7  UNL     1      -5.240   5.699  13.187  1.00  0.00     0.062 C 
HETATM    3  C8  UNL     1      -5.799   5.558  14.565  1.00  0.00     0.275 C 
HETATM    4  N3  UNL     1      -5.370   4.379  15.266  1.00  0.00     0.095 N 
HETATM    5  C14 UNL     1      -4.157   4.543  15.975  1.00  0.00     0.299 C 
HETATM    6  C15 UNL     1      -3.194   5.485  15.246  1.00  0.00     0.198 C 
HETATM    7  O3  UNL     1      -3.073   4.988  13.945  1.00  0.00    -0.384 OA
ENDROOT
BRANCH   1   8
HETATM    8  C5  UNL     1      -3.338   5.686  11.700  1.00  0.00     0.041 C 
BRANCH   8   9
HETATM    9  C4  UNL     1      -2.444   4.546  11.422  1.00  0.00     0.105 C 
BRANCH   9  10
HETATM   10  C3  UNL     1      -2.998   3.580  10.480  1.00  0.00     0.222 C 
HETATM   11  N2  UNL     1      -4.404   3.428  10.431  1.00  0.00    -0.322 N 
HETATM   12  C2  UNL     1      -5.016   2.608  11.185  1.00  0.00     0.209 C 
ATOM     13  H2  UNL     1      -4.942   3.993   9.773  1.00  0.00     0.169 HD
HETATM   14  O2  UNL     1      -2.279   2.903   9.733  1.00  0.00    -0.273 OA
BRANCH  12  15
HETATM   15  N1  UNL     1      -4.335   1.798  12.117  1.00  0.00    -0.261 N 
HETATM   16  C1  UNL     1      -3.886   0.452  11.752  1.00  0.00     0.186 C 
BRANCH  15  17
HETATM   17  O1  UNL     1      -4.080   2.245  13.362  1.00  0.00    -0.287 OA
ATOM     18  H1  UNL     1      -3.527   3.010  13.464  1.00  0.00     0.244 HD
ENDBRANCH  15  17
ENDBRANCH  12  15
ENDBRANCH   9  10
ENDBRANCH   8   9
ENDBRANCH   1   8
BRANCH   4  19
HETATM   19  C9  UNL     1      -6.461   3.787  15.916  1.00  0.00     0.223 C 
HETATM   20  C10 UNL     1      -6.063   2.578  16.733  1.00  0.00     0.036 C 
HETATM   21  C11 UNL     1      -6.198   2.992  18.204  1.00  0.00     0.002 C 
HETATM   22  C12 UNL     1      -6.457   4.494  18.157  1.00  0.00     0.002 C 
HETATM   23  C13 UNL     1      -7.232   4.597  16.879  1.00  0.00     0.036 C 
ENDBRANCH   4  19
TORSDOF 6
ENDMDL
MODEL 5
REMARK VINA RESULT: -6.356504343      2.476      6.348
REMARK  6 active torsions:
REMARK  status: ('A' for Active; 'I' for Inactive)
REMARK    1  A    between atoms: N1_2  and  O1_3 
REMARK    2  A    between atoms: N1_2  and  C2_5 
REMARK       I    between atoms: N2_6  and  C3_8 
REMARK    3  A    between atoms: C3_8  and  C4_10 
REMARK    4  A    between atoms: C4_10  and  C5_11 
REMARK    5  A    between atoms: C5_11  and  C6_12 
REMARK    6  A    between atoms: N3_15  and  C9_16 
ROOT
HETATM    1  C6  UNL     1      -4.040   3.490  12.258  1.00  0.00     0.123 C 
HETATM    2  C7  UNL     1      -4.512   4.902  12.497  1.00  0.00     0.062 C 
HETATM    3  C8  UNL     1      -3.917   5.924  11.586  1.00  0.00     0.275 C 
HETATM    4  N3  UNL     1      -2.503   6.121  11.751  1.00  0.00     0.095 N 
HETATM    5  C14 UNL     1      -1.707   5.241  10.979  1.00  0.00     0.299 C 
HETATM    6  C15 UNL     1      -2.354   3.859  10.844  1.00  0.00     0.198 C 
HETATM    7  O3  UNL     1      -2.641   3.434  12.145  1.00  0.00    -0.384 OA
ENDROOT
BRANCH   1   8
HETATM    8  C5  UNL     1      -4.465   2.685  13.453  1.00  0.00     0.041 C 
BRANCH   8   9
HETATM    9  C4  UNL     1      -4.905   3.429  14.648  1.00  0.00     0.105 C 
BRANCH   9  10
HETATM   10  C3  UNL     1      -4.490   2.818  15.906  1.00  0.00     0.222 C 
HETATM   11  N2  UNL     1      -5.346   1.858  16.496  1.00  0.00    -0.322 N 
HETATM   12  C2  UNL     1      -6.273   2.192  17.299  1.00  0.00     0.209 C 
ATOM     13  H2  UNL     1      -5.216   0.872  16.271  1.00  0.00     0.169 HD
HETATM   14  O2  UNL     1      -3.422   3.114  16.459  1.00  0.00    -0.273 OA
BRANCH  12  15
HETATM   15  N1  UNL     1      -6.509   3.536  17.653  1.00  0.00    -0.261 N 
HETATM   16  C1  UNL     1      -7.210   4.440  16.737  1.00  0.00     0.186 C 
BRANCH  15  17
HETATM   17  O1  UNL     1      -6.099   4.019  18.842  1.00  0.00    -0.287 OA
ATOM     18  H1  UNL     1      -6.230   3.485  19.617  1.00  0.00     0.244 HD
ENDBRANCH  15  17
ENDBRANCH  12  15
ENDBRANCH   9  10
ENDBRANCH   8   9
ENDBRANCH   1   8
BRANCH   4  19
HETATM   19  C9  UNL     1      -2.207   7.490  11.738  1.00  0.00     0.223 C 
HETATM   20  C10 UNL     1      -3.385   8.342  12.160  1.00  0.00     0.036 C 
HETATM   21  C11 UNL     1      -3.032   8.905  13.542  1.00  0.00     0.002 C 
HETATM   22  C12 UNL     1      -1.759   8.168  13.943  1.00  0.00     0.002 C 
HETATM   23  C13 UNL     1      -1.117   7.985  12.602  1.00  0.00     0.036 C 
ENDBRANCH   4  19
TORSDOF 6
ENDMDL
