MODEL 1
REMARK VINA RESULT: -7.280598779      0.000      0.000
REMARK  4 active torsions:
REMARK  status: ('A' for Active; 'I' for Inactive)
REMARK    1  A    between atoms: C2_2  and  C4_4 
REMARK    2  A    between atoms: C4_4  and  N1_5 
REMARK    3  A    between atoms: N2_12  and  C10_13 
REMARK    4  A    between atoms: C10_13  and  C11_14 
ROOT
HETATM    1  N1  UNL     1      -4.040   2.539  12.713  1.00  0.00     0.113 N 
HETATM    2  C5  UNL     1      -4.414   1.722  13.883  1.00  0.00     0.440 C 
HETATM    3  O1  UNL     1      -4.247   2.429  15.071  1.00  0.00    -0.355 OA
HETATM    4  C6  UNL     1      -5.229   3.432  15.018  1.00  0.00     0.159 C 
HETATM    5  C7  UNL     1      -5.411   4.002  16.379  1.00  0.00     0.036 C 
HETATM    6  C8  UNL     1      -6.441   5.110  16.263  1.00  0.00     0.033 C 
HETATM    7  C9  UNL     1      -6.724   5.440  14.814  1.00  0.00     0.273 C 
HETATM    8  N2  UNL     1      -5.504   5.672  14.068  1.00  0.00     0.097 N 
HETATM    9  C16 UNL     1      -4.712   4.455  14.011  1.00  0.00     0.279 C 
HETATM   10  C17 UNL     1      -4.782   3.790  12.671  1.00  0.00     0.313 C 
ENDROOT
BRANCH   8  11
HETATM   11  C10 UNL     1      -4.730   6.697  14.669  1.00  0.00     0.279 C 
BRANCH  11  12
HETATM   12  C11 UNL     1      -3.630   7.235  13.768  1.00  0.00     0.039 C 
HETATM   13  C12 UNL     1      -2.926   8.311  14.501  1.00  0.00     0.010 C 
HETATM   14  C13 UNL     1      -2.440   9.462  13.688  1.00  0.00     0.028 C 
HETATM   15  C14 UNL     1      -2.644   9.278  12.209  1.00  0.00     0.232 C 
HETATM   16  N3  UNL     1      -4.042   8.939  12.015  1.00  0.00    -0.075 N 
HETATM   17  C15 UNL     1      -4.255   7.599  12.462  1.00  0.00     0.238 C 
ATOM     18  H32 UNL     1      -4.670   9.604  12.465  1.00  0.00     0.277 HD
ATOM     19  H31 UNL     1      -4.348   9.084  11.054  1.00  0.00     0.277 HD
ENDBRANCH  11  12
ENDBRANCH   8  11
BRANCH   1  20
HETATM   20  C4  UNL     1      -4.506   1.704  11.585  1.00  0.00     0.279 C 
BRANCH  20  21
HETATM   21  C2  UNL     1      -3.376   1.201  10.740  1.00  0.00     0.006 C 
HETATM   22  C1  UNL     1      -2.123   2.050  10.924  1.00  0.00     0.011 C 
HETATM   23  C3  UNL     1      -3.081  -0.222  11.168  1.00  0.00     0.011 C 
ENDBRANCH  20  21
ENDBRANCH   1  20
TORSDOF 4
ENDMDL
MODEL 2
REMARK VINA RESULT: -7.199544706      0.873      1.229
REMARK  4 active torsions:
REMARK  status: ('A' for Active; 'I' for Inactive)
REMARK    1  A    between atoms: C2_2  and  C4_4 
REMARK    2  A    between atoms: C4_4  and  N1_5 
REMARK    3  A    between atoms: N2_12  and  C10_13 
REMARK    4  A    between atoms: C10_13  and  C11_14 
ROOT
HETATM    1  N1  UNL     1      -4.024   2.538  12.751  1.00  0.00     0.113 N 
HETATM    2  C5  UNL     1      -4.439   1.689  13.883  1.00  0.00     0.440 C 
HETATM    3  O1  UNL     1      -4.282   2.350  15.098  1.00  0.00    -0.355 OA
HETATM    4  C6  UNL     1      -5.243   3.375  15.062  1.00  0.00     0.159 C 
HETATM    5  C7  UNL     1      -5.441   3.901  16.438  1.00  0.00     0.036 C 
HETATM    6  C8  UNL     1      -6.446   5.034  16.340  1.00  0.00     0.033 C 
HETATM    7  C9  UNL     1      -6.692   5.419  14.898  1.00  0.00     0.273 C 
HETATM    8  N2  UNL     1      -5.452   5.652  14.185  1.00  0.00     0.097 N 
HETATM    9  C16 UNL     1      -4.684   4.421  14.102  1.00  0.00     0.279 C 
HETATM   10  C17 UNL     1      -4.740   3.805  12.738  1.00  0.00     0.313 C 
ENDROOT
BRANCH   8  11
HETATM   11  C10 UNL     1      -4.670   6.639  14.837  1.00  0.00     0.279 C 
BRANCH  11  12
HETATM   12  C11 UNL     1      -4.060   7.656  13.886  1.00  0.00     0.039 C 
HETATM   13  C12 UNL     1      -4.902   7.704  12.669  1.00  0.00     0.010 C 
HETATM   14  C13 UNL     1      -4.192   7.925  11.378  1.00  0.00     0.028 C 
HETATM   15  C14 UNL     1      -2.719   8.186  11.541  1.00  0.00     0.232 C 
HETATM   16  N3  UNL     1      -2.188   7.109  12.355  1.00  0.00    -0.075 N 
HETATM   17  C15 UNL     1      -2.622   7.296  13.703  1.00  0.00     0.238 C 
ATOM     18  H32 UNL     1      -2.432   6.189  11.991  1.00  0.00     0.277 HD
ATOM     19  H31 UNL     1      -1.175   7.027  12.280  1.00  0.00     0.277 HD
ENDBRANCH  11  12
ENDBRANCH   8  11
BRANCH   1  20
HETATM   20  C4  UNL     1      -4.484   1.753  11.585  1.00  0.00     0.279 C 
BRANCH  20  21
HETATM   21  C2  UNL     1      -3.347   1.240  10.755  1.00  0.00     0.006 C 
HETATM   22  C1  UNL     1      -2.087   2.073  10.962  1.00  0.00     0.011 C 
HETATM   23  C3  UNL     1      -3.075  -0.188  11.182  1.00  0.00     0.011 C 
ENDBRANCH  20  21
ENDBRANCH   1  20
TORSDOF 4
ENDMDL
MODEL 3
REMARK VINA RESULT: -7.189997111      2.115      4.753
REMARK  4 active torsions:
REMARK  status: ('A' for Active; 'I' for Inactive)
REMARK    1  A    between atoms: C2_2  and  C4_4 
REMARK    2  A    between atoms: C4_4  and  N1_5 
REMARK    3  A    between atoms: N2_12  and  C10_13 
REMARK    4  A    between atoms: C10_13  and  C11_14 
ROOT
HETATM    1  N1  UNL     1      -4.792   3.897  11.016  1.00  0.00     0.113 N 
HETATM    2  C5  UNL     1      -4.334   5.183  10.456  1.00  0.00     0.440 C 
HETATM    3  O1  UNL     1      -4.880   6.261  11.147  1.00  0.00    -0.355 OA
HETATM    4  C6  UNL     1      -4.280   6.200  12.416  1.00  0.00     0.159 C 
HETATM    5  C7  UNL     1      -4.478   7.501  13.107  1.00  0.00     0.036 C 
HETATM    6  C8  UNL     1      -3.858   7.371  14.486  1.00  0.00     0.033 C 
HETATM    7  C9  UNL     1      -3.505   5.931  14.789  1.00  0.00     0.273 C 
HETATM    8  N2  UNL     1      -4.622   5.041  14.545  1.00  0.00     0.097 N 
HETATM    9  C16 UNL     1      -4.961   5.038  13.132  1.00  0.00     0.279 C 
HETATM   10  C17 UNL     1      -4.498   3.794  12.438  1.00  0.00     0.313 C 
ENDROOT
BRANCH   8  11
HETATM   11  C10 UNL     1      -5.760   5.441  15.290  1.00  0.00     0.279 C 
BRANCH  11  12
HETATM   12  C11 UNL     1      -6.433   4.297  16.032  1.00  0.00     0.039 C 
HETATM   13  C12 UNL     1      -6.566   4.691  17.453  1.00  0.00     0.010 C 
HETATM   14  C13 UNL     1      -6.410   3.606  18.462  1.00  0.00     0.028 C 
HETATM   15  C14 UNL     1      -6.259   2.239  17.851  1.00  0.00     0.232 C 
HETATM   16  N3  UNL     1      -5.186   2.328  16.878  1.00  0.00    -0.075 N 
HETATM   17  C15 UNL     1      -5.657   3.054  15.742  1.00  0.00     0.238 C 
ATOM     18  H32 UNL     1      -4.335   2.729  17.272  1.00  0.00     0.277 HD
ATOM     19  H31 UNL     1      -4.809   1.415  16.629  1.00  0.00     0.277 HD
ENDBRANCH  11  12
ENDBRANCH   8  11
BRANCH   1  20
HETATM   20  C4  UNL     1      -3.932   2.924  10.310  1.00  0.00     0.279 C 
BRANCH  20  21
HETATM   21  C2  UNL     1      -2.985   2.220  11.233  1.00  0.00     0.006 C 
HETATM   22  C1  UNL     1      -3.078   0.706  11.078  1.00  0.00     0.011 C 
HETATM   23  C3  UNL     1      -1.582   2.672  10.882  1.00  0.00     0.011 C 
ENDBRANCH  20  21
ENDBRANCH   1  20
TORSDOF 4
ENDMDL
MODEL 4
REMARK VINA RESULT: -6.854143927      2.950      4.948
REMARK  4 active torsions:
REMARK  status: ('A' for Active; 'I' for Inactive)
REMARK    1  A    between atoms: C2_2  and  C4_4 
REMARK    2  A    between atoms: C4_4  and  N1_5 
REMARK    3  A    between atoms: N2_12  and  C10_13 
REMARK    4  A    between atoms: C10_13  and  C11_14 
ROOT
HETATM    1  N1  UNL     1      -6.005   4.871  15.071  1.00  0.00     0.113 N 
HETATM    2  C5  UNL     1      -4.672   4.431  15.525  1.00  0.00     0.440 C 
HETATM    3  O1  UNL     1      -3.730   4.526  14.505  1.00  0.00    -0.355 OA
HETATM    4  C6  UNL     1      -3.587   5.908  14.293  1.00  0.00     0.159 C 
HETATM    5  C7  UNL     1      -2.345   6.152  13.515  1.00  0.00     0.036 C 
HETATM    6  C8  UNL     1      -2.260   7.647  13.270  1.00  0.00     0.033 C 
HETATM    7  C9  UNL     1      -3.556   8.334  13.644  1.00  0.00     0.273 C 
HETATM    8  N2  UNL     1      -4.701   7.688  13.034  1.00  0.00     0.097 N 
HETATM    9  C16 UNL     1      -4.848   6.338  13.549  1.00  0.00     0.279 C 
HETATM   10  C17 UNL     1      -5.971   6.223  14.534  1.00  0.00     0.313 C 
ENDROOT
BRANCH   8  11
HETATM   11  C10 UNL     1      -4.558   7.630  11.624  1.00  0.00     0.279 C 
BRANCH  11  12
HETATM   12  C11 UNL     1      -5.126   8.843  10.905  1.00  0.00     0.039 C 
HETATM   13  C12 UNL     1      -6.518   9.037  11.370  1.00  0.00     0.010 C 
HETATM   14  C13 UNL     1      -7.493   9.536  10.359  1.00  0.00     0.028 C 
HETATM   15  C14 UNL     1      -6.862   9.880   9.038  1.00  0.00     0.232 C 
HETATM   16  N3  UNL     1      -6.091   8.723   8.625  1.00  0.00    -0.075 N 
HETATM   17  C15 UNL     1      -4.922   8.636   9.441  1.00  0.00     0.238 C 
ATOM     18  H32 UNL     1      -6.640   7.864   8.638  1.00  0.00     0.277 HD
ATOM     19  H31 UNL     1      -5.872   8.735   7.629  1.00  0.00     0.277 HD
ENDBRANCH  11  12
ENDBRANCH   8  11
BRANCH   1  20
HETATM   20  C4  UNL     1      -6.770   4.911  16.336  1.00  0.00     0.279 C 
BRANCH  20  21
HETATM   21  C2  UNL     1      -6.461   3.749  17.230  1.00  0.00     0.006 C 
HETATM   22  C1  UNL     1      -6.501   4.152  18.700  1.00  0.00     0.011 C 
HETATM   23  C3  UNL     1      -7.508   2.684  16.976  1.00  0.00     0.011 C 
ENDBRANCH  20  21
ENDBRANCH   1  20
TORSDOF 4
ENDMDL
MODEL 5
REMARK VINA RESULT: -6.630337137      1.097      1.178
REMARK  4 active torsions:
REMARK  status: ('A' for Active; 'I' for Inactive)
REMARK    1  A    between atoms: C2_2  and  C4_4 
REMARK    2  A    between atoms: C4_4  and  N1_5 
REMARK    3  A    between atoms: N2_12  and  C10_13 
REMARK    4  A    between atoms: C10_13  and  C11_14 
ROOT
HETATM    1  N1  UNL     1      -3.762   3.489  12.362  1.00  0.00     0.113 N 
HETATM    2  C5  UNL     1      -4.552   2.681  13.309  1.00  0.00     0.440 C 
HETATM    3  O1  UNL     1      -4.536   3.235  14.586  1.00  0.00    -0.355 OA
HETATM    4  C6  UNL     1      -5.265   4.430  14.455  1.00  0.00     0.159 C 
HETATM    5  C7  UNL     1      -5.648   4.912  15.807  1.00  0.00     0.036 C 
HETATM    6  C8  UNL     1      -6.387   6.224  15.618  1.00  0.00     0.033 C 
HETATM    7  C9  UNL     1      -6.251   6.725  14.196  1.00  0.00     0.273 C 
HETATM    8  N2  UNL     1      -4.868   6.745  13.764  1.00  0.00     0.097 N 
HETATM    9  C16 UNL     1      -4.336   5.393  13.722  1.00  0.00     0.279 C 
HETATM   10  C17 UNL     1      -4.216   4.871  12.323  1.00  0.00     0.313 C 
ENDROOT
BRANCH   8  11
HETATM   11  C10 UNL     1      -4.074   7.524  14.644  1.00  0.00     0.279 C 
BRANCH  11  12
HETATM   12  C11 UNL     1      -2.892   8.195  13.962  1.00  0.00     0.039 C 
HETATM   13  C12 UNL     1      -2.468   9.336  14.804  1.00  0.00     0.010 C 
HETATM   14  C13 UNL     1      -1.972  10.544  14.086  1.00  0.00     0.028 C 
HETATM   15  C14 UNL     1      -1.871  10.356  12.597  1.00  0.00     0.232 C 
HETATM   16  N3  UNL     1      -3.159   9.862  12.146  1.00  0.00    -0.075 N 
HETATM   17  C15 UNL     1      -3.297   8.502  12.557  1.00  0.00     0.238 C 
ATOM     18  H32 UNL     1      -3.932  10.446  12.463  1.00  0.00     0.277 HD
ATOM     19  H31 UNL     1      -3.293   9.983  11.143  1.00  0.00     0.277 HD
ENDBRANCH  11  12
ENDBRANCH   8  11
BRANCH   1  20
HETATM   20  C4  UNL     1      -4.101   2.870  11.062  1.00  0.00     0.279 C 
BRANCH  20  21
HETATM   21  C2  UNL     1      -2.963   2.084  10.487  1.00  0.00     0.006 C 
HETATM   22  C1  UNL     1      -1.619   2.605  10.986  1.00  0.00     0.011 C 
HETATM   23  C3  UNL     1      -3.132   0.644  10.923  1.00  0.00     0.011 C 
ENDBRANCH  20  21
ENDBRANCH   1  20
TORSDOF 4
ENDMDL
