MODEL 1
REMARK VINA RESULT: -7.630262547      0.000      0.000
REMARK  5 active torsions:
REMARK  status: ('A' for Active; 'I' for Inactive)
REMARK    1  A    between atoms: N4_16  and  C10_18 
REMARK    2  A    between atoms: C10_18  and  C11_19 
REMARK    3  A    between atoms: C11_19  and  C12_20 
REMARK    4  A    between atoms: C12_20  and  C13_21 
REMARK    5  A    between atoms: C13_21  and  N5_22 
ROOT
HETATM    1  C1  UNL     1      -2.483  -0.184  10.953  1.00  0.00     0.070 C 
HETATM    2  C2  UNL     1      -3.092   1.131  11.268  1.00  0.00     0.030 A 
HETATM    3  N1  UNL     1      -4.372   1.234  11.704  1.00  0.00    -0.304 N 
ATOM      4  H1  UNL     1      -5.006   0.448  11.849  1.00  0.00     0.186 HD
HETATM    5  N2  UNL     1      -4.678   2.503  11.912  1.00  0.00    -0.296 N 
ATOM      6  H2  UNL     1      -5.574   2.862  12.241  1.00  0.00     0.187 HD
HETATM    7  C3  UNL     1      -3.597   3.228  11.612  1.00  0.00     0.099 A 
HETATM    8  C4  UNL     1      -2.570   2.402  11.200  1.00  0.00    -0.000 A 
HETATM    9  C5  UNL     1      -1.237   2.848  10.790  1.00  0.00     0.073 C 
HETATM   10  C6  UNL     1      -1.045   4.307  10.691  1.00  0.00     0.028 C 
HETATM   11  C7  UNL     1      -0.994   4.671   9.201  1.00  0.00     0.038 C 
HETATM   12  C8  UNL     1       0.284   4.764  11.273  1.00  0.00     0.038 C 
HETATM   13  N3  UNL     1      -2.080   5.123  11.271  1.00  0.00    -0.366 N 
ATOM     14  H3  UNL     1      -1.877   6.112  11.415  1.00  0.00     0.162 HD
HETATM   15  C9  UNL     1      -3.345   4.658  11.652  1.00  0.00     0.127 C 
HETATM   16  N4  UNL     1      -4.258   5.447  12.019  1.00  0.00    -0.375 N 
ATOM     17  H4  UNL     1      -5.153   5.034  12.278  1.00  0.00     0.161 HD
ENDROOT
BRANCH  16  18
HETATM   18  C10 UNL     1      -4.144   6.900  12.106  1.00  0.00     0.121 C 
BRANCH  18  19
HETATM   19  C11 UNL     1      -4.946   7.293  13.321  1.00  0.00     0.021 C 
BRANCH  19  20
HETATM   20  C12 UNL     1      -4.645   6.399  14.481  1.00  0.00     0.032 C 
BRANCH  20  21
HETATM   21  C13 UNL     1      -5.904   5.970  15.141  1.00  0.00     0.272 C 
BRANCH  21  22
HETATM   22  N5  UNL     1      -5.965   4.540  15.384  1.00  0.00     0.092 N 
HETATM   23  C14 UNL     1      -6.591   4.182  16.613  1.00  0.00     0.298 C 
HETATM   24  C15 UNL     1      -6.335   2.730  16.900  1.00  0.00     0.198 C 
HETATM   25  O1  UNL     1      -5.020   2.371  16.938  1.00  0.00    -0.388 OA
HETATM   26  C16 UNL     1      -4.137   3.216  16.329  1.00  0.00     0.198 C 
HETATM   27  C17 UNL     1      -4.710   3.917  15.119  1.00  0.00     0.298 C 
ENDBRANCH  21  22
ENDBRANCH  20  21
ENDBRANCH  19  20
ENDBRANCH  18  19
ENDBRANCH  16  18
TORSDOF 5
ENDMDL
MODEL 2
REMARK VINA RESULT: -7.365407393      2.783      6.951
REMARK  5 active torsions:
REMARK  status: ('A' for Active; 'I' for Inactive)
REMARK    1  A    between atoms: N4_16  and  C10_18 
REMARK    2  A    between atoms: C10_18  and  C11_19 
REMARK    3  A    between atoms: C11_19  and  C12_20 
REMARK    4  A    between atoms: C12_20  and  C13_21 
REMARK    5  A    between atoms: C13_21  and  N5_22 
ROOT
HETATM    1  C1  UNL     1      -6.252   3.679  18.328  1.00  0.00     0.070 C 
HETATM    2  C2  UNL     1      -5.629   3.345  17.025  1.00  0.00     0.030 A 
HETATM    3  N1  UNL     1      -5.181   2.093  16.753  1.00  0.00    -0.304 N 
ATOM      4  H1  UNL     1      -5.231   1.302  17.394  1.00  0.00     0.186 HD
HETATM    5  N2  UNL     1      -4.670   2.052  15.535  1.00  0.00    -0.296 N 
ATOM      6  H2  UNL     1      -4.263   1.235  15.078  1.00  0.00     0.187 HD
HETATM    7  C3  UNL     1      -4.785   3.275  15.012  1.00  0.00     0.099 A 
HETATM    8  C4  UNL     1      -5.385   4.125  15.919  1.00  0.00    -0.000 A 
HETATM    9  C5  UNL     1      -5.670   5.544  15.691  1.00  0.00     0.073 C 
HETATM   10  C6  UNL     1      -5.143   6.116  14.437  1.00  0.00     0.028 C 
HETATM   11  C7  UNL     1      -3.948   7.007  14.797  1.00  0.00     0.038 C 
HETATM   12  C8  UNL     1      -6.144   7.027  13.745  1.00  0.00     0.038 C 
HETATM   13  N3  UNL     1      -4.664   5.171  13.462  1.00  0.00    -0.366 N 
ATOM     14  H3  UNL     1      -4.503   5.511  12.514  1.00  0.00     0.162 HD
HETATM   15  C9  UNL     1      -4.404   3.819  13.719  1.00  0.00     0.127 C 
HETATM   16  N4  UNL     1      -3.850   3.077  12.863  1.00  0.00    -0.375 N 
ATOM     17  H4  UNL     1      -3.690   2.104  13.125  1.00  0.00     0.161 HD
ENDROOT
BRANCH  16  18
HETATM   18  C10 UNL     1      -3.417   3.488  11.531  1.00  0.00     0.121 C 
BRANCH  18  19
HETATM   19  C11 UNL     1      -2.509   2.387  11.047  1.00  0.00     0.021 C 
BRANCH  19  20
HETATM   20  C12 UNL     1      -1.165   2.922  10.666  1.00  0.00     0.032 C 
BRANCH  20  21
HETATM   21  C13 UNL     1      -1.016   4.322  11.137  1.00  0.00     0.272 C 
BRANCH  21  22
HETATM   22  N5  UNL     1      -0.494   5.217  10.120  1.00  0.00     0.092 N 
HETATM   23  C14 UNL     1      -0.577   4.706   8.793  1.00  0.00     0.298 C 
HETATM   24  C15 UNL     1       0.247   5.562   7.875  1.00  0.00     0.198 C 
HETATM   25  O1  UNL     1       1.557   5.695   8.229  1.00  0.00    -0.388 OA
HETATM   26  C16 UNL     1       1.872   5.411   9.527  1.00  0.00     0.198 C 
HETATM   27  C17 UNL     1       0.770   5.753  10.503  1.00  0.00     0.298 C 
ENDBRANCH  21  22
ENDBRANCH  20  21
ENDBRANCH  19  20
ENDBRANCH  18  19
ENDBRANCH  16  18
TORSDOF 5
ENDMDL
MODEL 3
REMARK VINA RESULT: -7.358445833      2.230      6.194
REMARK  5 active torsions:
REMARK  status: ('A' for Active; 'I' for Inactive)
REMARK    1  A    between atoms: N4_16  and  C10_18 
REMARK    2  A    between atoms: C10_18  and  C11_19 
REMARK    3  A    between atoms: C11_19  and  C12_20 
REMARK    4  A    between atoms: C12_20  and  C13_21 
REMARK    5  A    between atoms: C13_21  and  N5_22 
ROOT
HETATM    1  C1  UNL     1      -5.928   3.660  18.391  1.00  0.00     0.070 C 
HETATM    2  C2  UNL     1      -5.435   3.269  17.048  1.00  0.00     0.030 A 
HETATM    3  N1  UNL     1      -5.125   1.981  16.753  1.00  0.00    -0.304 N 
ATOM      4  H1  UNL     1      -5.201   1.198  17.401  1.00  0.00     0.186 HD
HETATM    5  N2  UNL     1      -4.710   1.892  15.502  1.00  0.00    -0.296 N 
ATOM      6  H2  UNL     1      -4.414   1.041  15.022  1.00  0.00     0.187 HD
HETATM    7  C3  UNL     1      -4.750   3.121  14.980  1.00  0.00     0.099 A 
HETATM    8  C4  UNL     1      -5.202   4.023  15.922  1.00  0.00    -0.000 A 
HETATM    9  C5  UNL     1      -5.371   5.462  15.705  1.00  0.00     0.073 C 
HETATM   10  C6  UNL     1      -4.887   5.982  14.412  1.00  0.00     0.028 C 
HETATM   11  C7  UNL     1      -3.591   6.760  14.678  1.00  0.00     0.038 C 
HETATM   12  C8  UNL     1      -5.847   6.982  13.788  1.00  0.00     0.038 C 
HETATM   13  N3  UNL     1      -4.569   4.997  13.411  1.00  0.00    -0.366 N 
ATOM     14  H3  UNL     1      -4.447   5.320  12.452  1.00  0.00     0.162 HD
HETATM   15  C9  UNL     1      -4.416   3.626  13.659  1.00  0.00     0.127 C 
HETATM   16  N4  UNL     1      -3.996   2.836  12.771  1.00  0.00    -0.375 N 
ATOM     17  H4  UNL     1      -3.908   1.853  13.027  1.00  0.00     0.161 HD
ENDROOT
BRANCH  16  18
HETATM   18  C10 UNL     1      -3.625   3.205  11.408  1.00  0.00     0.121 C 
BRANCH  18  19
HETATM   19  C11 UNL     1      -2.510   2.266  11.027  1.00  0.00     0.021 C 
BRANCH  19  20
HETATM   20  C12 UNL     1      -1.188   2.966  11.030  1.00  0.00     0.032 C 
BRANCH  20  21
HETATM   21  C13 UNL     1      -1.090   3.887   9.869  1.00  0.00     0.272 C 
BRANCH  21  22
HETATM   22  N5  UNL     1      -0.933   5.278  10.253  1.00  0.00     0.092 N 
HETATM   23  C14 UNL     1      -0.690   5.477  11.643  1.00  0.00     0.298 C 
HETATM   24  C15 UNL     1      -0.842   6.934  11.973  1.00  0.00     0.198 C 
HETATM   25  O1  UNL     1      -2.047   7.480  11.640  1.00  0.00    -0.388 OA
HETATM   26  C16 UNL     1      -2.788   6.806  10.713  1.00  0.00     0.198 C 
HETATM   27  C17 UNL     1      -1.953   6.091   9.677  1.00  0.00     0.298 C 
ENDBRANCH  21  22
ENDBRANCH  20  21
ENDBRANCH  19  20
ENDBRANCH  18  19
ENDBRANCH  16  18
TORSDOF 5
ENDMDL
MODEL 4
REMARK VINA RESULT: -7.307495523      2.488      6.328
REMARK  5 active torsions:
REMARK  status: ('A' for Active; 'I' for Inactive)
REMARK    1  A    between atoms: N4_16  and  C10_18 
REMARK    2  A    between atoms: C10_18  and  C11_19 
REMARK    3  A    between atoms: C11_19  and  C12_20 
REMARK    4  A    between atoms: C12_20  and  C13_21 
REMARK    5  A    between atoms: C13_21  and  N5_22 
ROOT
HETATM    1  C1  UNL     1      -6.028   3.658  18.452  1.00  0.00     0.070 C 
HETATM    2  C2  UNL     1      -5.500   3.257  17.126  1.00  0.00     0.030 A 
HETATM    3  N1  UNL     1      -5.150   1.974  16.860  1.00  0.00    -0.304 N 
ATOM      4  H1  UNL     1      -5.217   1.200  17.521  1.00  0.00     0.186 HD
HETATM    5  N2  UNL     1      -4.709   1.874  15.618  1.00  0.00    -0.296 N 
ATOM      6  H2  UNL     1      -4.382   1.023  15.160  1.00  0.00     0.187 HD
HETATM    7  C3  UNL     1      -4.772   3.091  15.074  1.00  0.00     0.099 A 
HETATM    8  C4  UNL     1      -5.266   3.997  15.990  1.00  0.00    -0.000 A 
HETATM    9  C5  UNL     1      -5.469   5.427  15.745  1.00  0.00     0.073 C 
HETATM   10  C6  UNL     1      -4.975   5.937  14.452  1.00  0.00     0.028 C 
HETATM   11  C7  UNL     1      -3.706   6.755  14.727  1.00  0.00     0.038 C 
HETATM   12  C8  UNL     1      -5.950   6.899  13.791  1.00  0.00     0.038 C 
HETATM   13  N3  UNL     1      -4.612   4.943  13.475  1.00  0.00    -0.366 N 
ATOM     14  H3  UNL     1      -4.480   5.253  12.512  1.00  0.00     0.162 HD
HETATM   15  C9  UNL     1      -4.427   3.582  13.750  1.00  0.00     0.127 C 
HETATM   16  N4  UNL     1      -3.969   2.788  12.884  1.00  0.00    -0.375 N 
ATOM     17  H4  UNL     1      -3.860   1.813  13.160  1.00  0.00     0.161 HD
ENDROOT
BRANCH  16  18
HETATM   18  C10 UNL     1      -3.583   3.143  11.522  1.00  0.00     0.121 C 
BRANCH  18  19
HETATM   19  C11 UNL     1      -2.486   2.177  11.151  1.00  0.00     0.021 C 
BRANCH  19  20
HETATM   20  C12 UNL     1      -1.260   2.901  10.693  1.00  0.00     0.032 C 
BRANCH  20  21
HETATM   21  C13 UNL     1      -1.562   4.338  10.473  1.00  0.00     0.272 C 
BRANCH  21  22
HETATM   22  N5  UNL     1      -0.839   5.220  11.372  1.00  0.00     0.092 N 
HETATM   23  C14 UNL     1      -1.575   6.371  11.778  1.00  0.00     0.298 C 
HETATM   24  C15 UNL     1      -0.649   7.345  12.447  1.00  0.00     0.198 C 
HETATM   25  O1  UNL     1       0.424   7.732  11.698  1.00  0.00    -0.388 OA
HETATM   26  C16 UNL     1       0.761   6.924  10.651  1.00  0.00     0.198 C 
HETATM   27  C17 UNL     1       0.486   5.461  10.905  1.00  0.00     0.298 C 
ENDBRANCH  21  22
ENDBRANCH  20  21
ENDBRANCH  19  20
ENDBRANCH  18  19
ENDBRANCH  16  18
TORSDOF 5
ENDMDL
MODEL 5
REMARK VINA RESULT: -7.289922113      2.136      5.739
REMARK  5 active torsions:
REMARK  status: ('A' for Active; 'I' for Inactive)
REMARK    1  A    between atoms: N4_16  and  C10_18 
REMARK    2  A    between atoms: C10_18  and  C11_19 
REMARK    3  A    between atoms: C11_19  and  C12_20 
REMARK    4  A    between atoms: C12_20  and  C13_21 
REMARK    5  A    between atoms: C13_21  and  N5_22 
ROOT
HETATM    1  C1  UNL     1      -7.036   2.635  16.957  1.00  0.00     0.070 C 
HETATM    2  C2  UNL     1      -5.764   3.163  16.406  1.00  0.00     0.030 A 
HETATM    3  N1  UNL     1      -4.610   2.454  16.481  1.00  0.00    -0.304 N 
ATOM      4  H1  UNL     1      -4.517   1.531  16.905  1.00  0.00     0.186 HD
HETATM    5  N2  UNL     1      -3.624   3.135  15.924  1.00  0.00    -0.296 N 
ATOM      6  H2  UNL     1      -2.652   2.835  15.844  1.00  0.00     0.187 HD
HETATM    7  C3  UNL     1      -4.135   4.288  15.485  1.00  0.00     0.099 A 
HETATM    8  C4  UNL     1      -5.484   4.349  15.768  1.00  0.00    -0.000 A 
HETATM    9  C5  UNL     1      -6.371   5.467  15.437  1.00  0.00     0.073 C 
HETATM   10  C6  UNL     1      -5.718   6.665  14.876  1.00  0.00     0.028 C 
HETATM   11  C7  UNL     1      -5.713   7.746  15.965  1.00  0.00     0.038 C 
HETATM   12  C8  UNL     1      -6.490   7.259  13.708  1.00  0.00     0.038 C 
HETATM   13  N3  UNL     1      -4.349   6.504  14.458  1.00  0.00    -0.366 N 
ATOM     14  H3  UNL     1      -3.945   7.235  13.873  1.00  0.00     0.162 HD
HETATM   15  C9  UNL     1      -3.533   5.418  14.797  1.00  0.00     0.127 C 
HETATM   16  N4  UNL     1      -2.302   5.404  14.522  1.00  0.00    -0.375 N 
ATOM     17  H4  UNL     1      -1.773   4.579  14.804  1.00  0.00     0.161 HD
ENDROOT
BRANCH  16  18
HETATM   18  C10 UNL     1      -1.570   6.464  13.837  1.00  0.00     0.121 C 
BRANCH  18  19
HETATM   19  C11 UNL     1      -1.049   5.838  12.569  1.00  0.00     0.021 C 
BRANCH  19  20
HETATM   20  C12 UNL     1      -2.090   5.844  11.495  1.00  0.00     0.032 C 
BRANCH  20  21
HETATM   21  C13 UNL     1      -1.991   4.611  10.674  1.00  0.00     0.272 C 
BRANCH  21  22
HETATM   22  N5  UNL     1      -2.577   3.447  11.313  1.00  0.00     0.092 N 
HETATM   23  C14 UNL     1      -2.260   2.211  10.680  1.00  0.00     0.298 C 
HETATM   24  C15 UNL     1      -3.143   1.128  11.229  1.00  0.00     0.198 C 
HETATM   25  O1  UNL     1      -4.482   1.363  11.121  1.00  0.00    -0.388 OA
HETATM   26  C16 UNL     1      -4.862   2.660  10.930  1.00  0.00     0.198 C 
HETATM   27  C17 UNL     1      -3.956   3.660  11.609  1.00  0.00     0.298 C 
ENDBRANCH  21  22
ENDBRANCH  20  21
ENDBRANCH  19  20
ENDBRANCH  18  19
ENDBRANCH  16  18
TORSDOF 5
ENDMDL
