MODEL 1
REMARK VINA RESULT: -7.788458357      0.000      0.000
REMARK  5 active torsions:
REMARK  status: ('A' for Active; 'I' for Inactive)
REMARK    1  A    between atoms: C1_2  and  C2_3 
REMARK       I    between atoms: C1_2  and  N2_11 
REMARK    2  A    between atoms: C2_3  and  C3_4 
REMARK    3  A    between atoms: C3_4  and  C4_5 
REMARK    4  A    between atoms: C4_5  and  N1_6 
REMARK    5  A    between atoms: N5_19  and  C11_21 
ROOT
HETATM    1  O1  UNL     1      -2.990   8.789  13.532  1.00  0.00    -0.273 OA
HETATM    2  C1  UNL     1      -2.658   7.626  13.872  1.00  0.00     0.224 C 
HETATM    3  N2  UNL     1      -1.475   7.119  13.289  1.00  0.00    -0.291 N 
ATOM      4  H2  UNL     1      -0.611   7.660  13.329  1.00  0.00     0.172 HD
HETATM    5  C9  UNL     1      -1.491   5.972  12.707  1.00  0.00     0.248 A 
HETATM    6  N3  UNL     1      -0.379   5.449  12.135  1.00  0.00    -0.262 N 
ATOM      7  H3  UNL     1       0.538   5.893  12.109  1.00  0.00     0.190 HD
HETATM    8  N4  UNL     1      -0.678   4.270  11.614  1.00  0.00    -0.262 N 
ATOM      9  H4  UNL     1      -0.037   3.649  11.120  1.00  0.00     0.190 HD
HETATM   10  C10 UNL     1      -1.983   4.040  11.855  1.00  0.00     0.242 A 
HETATM   11  N5  UNL     1      -2.596   2.988  11.487  1.00  0.00    -0.350 N 
ATOM     12  H5  UNL     1      -2.038   2.298  10.983  1.00  0.00     0.163 HD
HETATM   13  O2  UNL     1      -2.416   5.088  12.509  1.00  0.00    -0.244 OA
ENDROOT
BRANCH   2  14
HETATM   14  C2  UNL     1      -3.410   6.781  14.820  1.00  0.00     0.105 C 
BRANCH  14  15
HETATM   15  C3  UNL     1      -4.868   6.663  14.498  1.00  0.00     0.039 C 
BRANCH  15  16
HETATM   16  C4  UNL     1      -5.350   5.254  14.485  1.00  0.00     0.273 C 
BRANCH  16  17
HETATM   17  N1  UNL     1      -5.380   4.611  15.756  1.00  0.00     0.088 N 
HETATM   18  C5  UNL     1      -6.638   4.632  16.424  1.00  0.00     0.272 C 
HETATM   19  C6  UNL     1      -6.637   3.470  17.396  1.00  0.00     0.032 C 
HETATM   20  C7  UNL     1      -5.539   2.543  16.925  1.00  0.00     0.032 C 
HETATM   21  C8  UNL     1      -4.821   3.308  15.837  1.00  0.00     0.272 C 
ENDBRANCH  16  17
ENDBRANCH  15  16
ENDBRANCH  14  15
ENDBRANCH   2  14
BRANCH  11  22
HETATM   22  C11 UNL     1      -3.969   2.653  11.692  1.00  0.00     0.085 C 
HETATM   23  C12 UNL     1      -4.060   1.582  12.771  1.00  0.00     0.025 C 
HETATM   24  C13 UNL     1      -3.931   0.199  12.186  1.00  0.00     0.002 C 
HETATM   25  C14 UNL     1      -2.895   0.176  11.098  1.00  0.00     0.000 C 
HETATM   26  C15 UNL     1      -3.298   1.072   9.974  1.00  0.00     0.002 C 
HETATM   27  C16 UNL     1      -4.452   1.950  10.415  1.00  0.00     0.025 C 
ENDBRANCH  11  22
TORSDOF 5
ENDMDL
MODEL 2
REMARK VINA RESULT: -7.418402465      2.327      5.004
REMARK  5 active torsions:
REMARK  status: ('A' for Active; 'I' for Inactive)
REMARK    1  A    between atoms: C1_2  and  C2_3 
REMARK       I    between atoms: C1_2  and  N2_11 
REMARK    2  A    between atoms: C2_3  and  C3_4 
REMARK    3  A    between atoms: C3_4  and  C4_5 
REMARK    4  A    between atoms: C4_5  and  N1_6 
REMARK    5  A    between atoms: N5_19  and  C11_21 
ROOT
HETATM    1  O1  UNL     1      -3.777   2.174  16.260  1.00  0.00    -0.273 OA
HETATM    2  C1  UNL     1      -4.332   2.514  15.186  1.00  0.00     0.224 C 
HETATM    3  N2  UNL     1      -4.253   1.588  14.121  1.00  0.00    -0.291 N 
ATOM      4  H2  UNL     1      -4.534   0.618  14.265  1.00  0.00     0.172 HD
HETATM    5  C9  UNL     1      -3.825   1.972  12.971  1.00  0.00     0.248 A 
HETATM    6  N3  UNL     1      -3.733   1.115  11.925  1.00  0.00    -0.262 N 
ATOM      7  H3  UNL     1      -3.983   0.126  11.945  1.00  0.00     0.190 HD
HETATM    8  N4  UNL     1      -3.267   1.769  10.873  1.00  0.00    -0.262 N 
ATOM      9  H4  UNL     1      -3.096   1.378   9.946  1.00  0.00     0.190 HD
HETATM   10  C10 UNL     1      -3.062   3.046  11.249  1.00  0.00     0.242 A 
HETATM   11  N5  UNL     1      -2.616   3.949  10.473  1.00  0.00    -0.350 N 
ATOM     12  H5  UNL     1      -2.413   3.658   9.517  1.00  0.00     0.163 HD
HETATM   13  O2  UNL     1      -3.411   3.108  12.510  1.00  0.00    -0.244 OA
ENDROOT
BRANCH   2  14
HETATM   14  C2  UNL     1      -5.041   3.791  14.974  1.00  0.00     0.105 C 
BRANCH  14  15
HETATM   15  C3  UNL     1      -4.372   4.967  15.615  1.00  0.00     0.039 C 
BRANCH  15  16
HETATM   16  C4  UNL     1      -3.285   5.548  14.777  1.00  0.00     0.273 C 
BRANCH  16  17
HETATM   17  N1  UNL     1      -3.542   6.854  14.271  1.00  0.00     0.088 N 
HETATM   18  C5  UNL     1      -2.391   7.602  13.888  1.00  0.00     0.272 C 
HETATM   19  C6  UNL     1      -2.856   8.639  12.887  1.00  0.00     0.032 C 
HETATM   20  C7  UNL     1      -4.196   8.153  12.385  1.00  0.00     0.032 C 
HETATM   21  C8  UNL     1      -4.541   6.976  13.269  1.00  0.00     0.272 C 
ENDBRANCH  16  17
ENDBRANCH  15  16
ENDBRANCH  14  15
ENDBRANCH   2  14
BRANCH  11  22
HETATM   22  C11 UNL     1      -2.364   5.322  10.775  1.00  0.00     0.085 C 
HETATM   23  C12 UNL     1      -2.567   6.150   9.514  1.00  0.00     0.025 C 
HETATM   24  C13 UNL     1      -1.306   6.222   8.692  1.00  0.00     0.002 C 
HETATM   25  C14 UNL     1      -0.595   4.897   8.693  1.00  0.00     0.000 C 
HETATM   26  C15 UNL     1      -0.175   4.532  10.078  1.00  0.00     0.002 C 
HETATM   27  C16 UNL     1      -0.862   5.444  11.074  1.00  0.00     0.025 C 
ENDBRANCH  11  22
TORSDOF 5
ENDMDL
MODEL 3
REMARK VINA RESULT: -7.111573307      2.329      6.142
REMARK  5 active torsions:
REMARK  status: ('A' for Active; 'I' for Inactive)
REMARK    1  A    between atoms: C1_2  and  C2_3 
REMARK       I    between atoms: C1_2  and  N2_11 
REMARK    2  A    between atoms: C2_3  and  C3_4 
REMARK    3  A    between atoms: C3_4  and  C4_5 
REMARK    4  A    between atoms: C4_5  and  N1_6 
REMARK    5  A    between atoms: N5_19  and  C11_21 
ROOT
HETATM    1  O1  UNL     1      -6.846   1.916  16.374  1.00  0.00    -0.273 OA
HETATM    2  C1  UNL     1      -5.987   2.831  16.424  1.00  0.00     0.224 C 
HETATM    3  N2  UNL     1      -6.458   4.112  16.792  1.00  0.00    -0.291 N 
ATOM      4  H2  UNL     1      -7.014   4.229  17.639  1.00  0.00     0.172 HD
HETATM    5  C9  UNL     1      -6.184   5.129  16.055  1.00  0.00     0.248 A 
HETATM    6  N3  UNL     1      -6.617   6.374  16.372  1.00  0.00    -0.262 N 
ATOM      7  H3  UNL     1      -7.178   6.616  17.189  1.00  0.00     0.190 HD
HETATM    8  N4  UNL     1      -6.194   7.224  15.450  1.00  0.00    -0.262 N 
ATOM      9  H4  UNL     1      -6.370   8.229  15.430  1.00  0.00     0.190 HD
HETATM   10  C10 UNL     1      -5.490   6.520  14.543  1.00  0.00     0.242 A 
HETATM   11  N5  UNL     1      -4.939   7.036  13.519  1.00  0.00    -0.350 N 
ATOM     12  H5  UNL     1      -5.055   8.043  13.408  1.00  0.00     0.163 HD
HETATM   13  O2  UNL     1      -5.517   5.277  14.955  1.00  0.00    -0.244 OA
ENDROOT
BRANCH   2  14
HETATM   14  C2  UNL     1      -4.552   2.653  16.128  1.00  0.00     0.105 C 
BRANCH  14  15
HETATM   15  C3  UNL     1      -4.285   1.934  14.842  1.00  0.00     0.039 C 
BRANCH  15  16
HETATM   16  C4  UNL     1      -4.291   2.837  13.657  1.00  0.00     0.273 C 
BRANCH  16  17
HETATM   17  N1  UNL     1      -4.153   2.186  12.398  1.00  0.00     0.088 N 
HETATM   18  C5  UNL     1      -3.260   2.810  11.479  1.00  0.00     0.272 C 
HETATM   19  C6  UNL     1      -2.808   1.736  10.511  1.00  0.00     0.032 C 
HETATM   20  C7  UNL     1      -3.112   0.419  11.187  1.00  0.00     0.032 C 
HETATM   21  C8  UNL     1      -3.914   0.786  12.415  1.00  0.00     0.272 C 
ENDBRANCH  16  17
ENDBRANCH  15  16
ENDBRANCH  14  15
ENDBRANCH   2  14
BRANCH  11  22
HETATM   22  C11 UNL     1      -4.177   6.379  12.507  1.00  0.00     0.085 C 
HETATM   23  C12 UNL     1      -2.753   6.181  13.009  1.00  0.00     0.025 C 
HETATM   24  C13 UNL     1      -1.893   7.383  12.713  1.00  0.00     0.002 C 
HETATM   25  C14 UNL     1      -2.664   8.655  12.925  1.00  0.00     0.000 C 
HETATM   26  C15 UNL     1      -3.823   8.725  11.986  1.00  0.00     0.002 C 
HETATM   27  C16 UNL     1      -4.036   7.370  11.342  1.00  0.00     0.025 C 
ENDBRANCH  11  22
TORSDOF 5
ENDMDL
MODEL 4
REMARK VINA RESULT: -7.003112419      2.295      4.553
REMARK  5 active torsions:
REMARK  status: ('A' for Active; 'I' for Inactive)
REMARK    1  A    between atoms: C1_2  and  C2_3 
REMARK       I    between atoms: C1_2  and  N2_11 
REMARK    2  A    between atoms: C2_3  and  C3_4 
REMARK    3  A    between atoms: C3_4  and  C4_5 
REMARK    4  A    between atoms: C4_5  and  N1_6 
REMARK    5  A    between atoms: N5_19  and  C11_21 
ROOT
HETATM    1  O1  UNL     1      -4.487   1.440  14.392  1.00  0.00    -0.273 OA
HETATM    2  C1  UNL     1      -4.434   2.187  13.383  1.00  0.00     0.224 C 
HETATM    3  N2  UNL     1      -4.078   1.568  12.164  1.00  0.00    -0.291 N 
ATOM      4  H2  UNL     1      -4.577   0.737  11.847  1.00  0.00     0.172 HD
HETATM    5  C9  UNL     1      -3.122   2.056  11.455  1.00  0.00     0.248 A 
HETATM    6  N3  UNL     1      -2.749   1.491  10.280  1.00  0.00    -0.262 N 
ATOM      7  H3  UNL     1      -3.170   0.662   9.862  1.00  0.00     0.190 HD
HETATM    8  N4  UNL     1      -1.751   2.191   9.765  1.00  0.00    -0.262 N 
ATOM      9  H4  UNL     1      -1.270   1.999   8.887  1.00  0.00     0.190 HD
HETATM   10  C10 UNL     1      -1.486   3.203  10.614  1.00  0.00     0.242 A 
HETATM   11  N5  UNL     1      -0.578   4.072  10.418  1.00  0.00    -0.350 N 
ATOM     12  H5  UNL     1      -0.036   3.967   9.560  1.00  0.00     0.163 HD
HETATM   13  O2  UNL     1      -2.335   3.072  11.603  1.00  0.00    -0.244 OA
ENDROOT
BRANCH   2  14
HETATM   14  C2  UNL     1      -4.713   3.636  13.397  1.00  0.00     0.105 C 
BRANCH  14  15
HETATM   15  C3  UNL     1      -4.106   4.358  14.560  1.00  0.00     0.039 C 
BRANCH  15  16
HETATM   16  C4  UNL     1      -5.106   5.118  15.362  1.00  0.00     0.273 C 
BRANCH  16  17
HETATM   17  N1  UNL     1      -5.714   4.387  16.423  1.00  0.00     0.088 N 
HETATM   18  C5  UNL     1      -7.043   3.937  16.175  1.00  0.00     0.272 C 
HETATM   19  C6  UNL     1      -7.282   2.755  17.091  1.00  0.00     0.032 C 
HETATM   20  C7  UNL     1      -5.911   2.282  17.517  1.00  0.00     0.032 C 
HETATM   21  C8  UNL     1      -4.956   3.334  17.002  1.00  0.00     0.272 C 
ENDBRANCH  16  17
ENDBRANCH  15  16
ENDBRANCH  14  15
ENDBRANCH   2  14
BRANCH  11  22
HETATM   22  C11 UNL     1      -0.222   5.174  11.252  1.00  0.00     0.085 C 
HETATM   23  C12 UNL     1      -1.175   6.329  10.976  1.00  0.00     0.025 C 
HETATM   24  C13 UNL     1      -0.687   7.186   9.835  1.00  0.00     0.002 C 
HETATM   25  C14 UNL     1      -0.099   6.334   8.745  1.00  0.00     0.000 C 
HETATM   26  C15 UNL     1       1.091   5.589   9.251  1.00  0.00     0.002 C 
HETATM   27  C16 UNL     1       1.143   5.681  10.762  1.00  0.00     0.025 C 
ENDBRANCH  11  22
TORSDOF 5
ENDMDL
MODEL 5
REMARK VINA RESULT: -6.888390648      1.969      4.750
REMARK  5 active torsions:
REMARK  status: ('A' for Active; 'I' for Inactive)
REMARK    1  A    between atoms: C1_2  and  C2_3 
REMARK       I    between atoms: C1_2  and  N2_11 
REMARK    2  A    between atoms: C2_3  and  C3_4 
REMARK    3  A    between atoms: C3_4  and  C4_5 
REMARK    4  A    between atoms: C4_5  and  N1_6 
REMARK    5  A    between atoms: N5_19  and  C11_21 
ROOT
HETATM    1  O1  UNL     1      -4.153   1.598  13.784  1.00  0.00    -0.273 OA
HETATM    2  C1  UNL     1      -4.093   2.471  12.883  1.00  0.00     0.224 C 
HETATM    3  N2  UNL     1      -3.312   2.148  11.750  1.00  0.00    -0.291 N 
ATOM      4  H2  UNL     1      -3.470   1.271  11.253  1.00  0.00     0.172 HD
HETATM    5  C9  UNL     1      -2.403   2.963  11.347  1.00  0.00     0.248 A 
HETATM    6  N3  UNL     1      -1.632   2.690  10.266  1.00  0.00    -0.262 N 
ATOM      7  H3  UNL     1      -1.694   1.850   9.691  1.00  0.00     0.190 HD
HETATM    8  N4  UNL     1      -0.786   3.691  10.077  1.00  0.00    -0.262 N 
ATOM      9  H4  UNL     1      -0.087   3.758   9.338  1.00  0.00     0.190 HD
HETATM   10  C10 UNL     1      -1.018   4.603  11.041  1.00  0.00     0.242 A 
HETATM   11  N5  UNL     1      -0.376   5.696  11.150  1.00  0.00    -0.350 N 
ATOM     12  H5  UNL     1       0.350   5.860  10.452  1.00  0.00     0.163 HD
HETATM   13  O2  UNL     1      -1.992   4.116  11.768  1.00  0.00    -0.244 OA
ENDROOT
BRANCH   2  14
HETATM   14  C2  UNL     1      -4.770   3.782  12.936  1.00  0.00     0.105 C 
BRANCH  14  15
HETATM   15  C3  UNL     1      -4.387   4.611  14.123  1.00  0.00     0.039 C 
BRANCH  15  16
HETATM   16  C4  UNL     1      -5.563   5.118  14.885  1.00  0.00     0.273 C 
BRANCH  16  17
HETATM   17  N1  UNL     1      -5.823   4.449  16.115  1.00  0.00     0.088 N 
HETATM   18  C5  UNL     1      -7.139   3.923  16.262  1.00  0.00     0.272 C 
HETATM   19  C6  UNL     1      -7.053   2.809  17.284  1.00  0.00     0.032 C 
HETATM   20  C7  UNL     1      -5.591   2.432  17.358  1.00  0.00     0.032 C 
HETATM   21  C8  UNL     1      -4.874   3.480  16.538  1.00  0.00     0.272 C 
ENDBRANCH  16  17
ENDBRANCH  15  16
ENDBRANCH  14  15
ENDBRANCH   2  14
BRANCH  11  22
HETATM   22  C11 UNL     1      -0.545   6.720  12.130  1.00  0.00     0.085 C 
HETATM   23  C12 UNL     1      -1.838   7.471  11.841  1.00  0.00     0.025 C 
HETATM   24  C13 UNL     1      -1.613   8.600  10.868  1.00  0.00     0.002 C 
HETATM   25  C14 UNL     1      -0.649   8.190   9.790  1.00  0.00     0.000 C 
HETATM   26  C15 UNL     1       0.685   7.871  10.379  1.00  0.00     0.002 C 
HETATM   27  C16 UNL     1       0.561   7.758  11.885  1.00  0.00     0.025 C 
ENDBRANCH  11  22
TORSDOF 5
ENDMDL
