MODEL 1
REMARK VINA RESULT: -7.173615526      0.000      0.000
REMARK  6 active torsions:
REMARK  status: ('A' for Active; 'I' for Inactive)
REMARK    1  A    between atoms: O1_2  and  N1_3 
REMARK       I    between atoms: C2_5  and  N2_6 
REMARK       I    between atoms: C2_5  and  N3_16 
REMARK    2  A    between atoms: N2_6  and  C3_8 
REMARK    3  A    between atoms: C3_8  and  C4_9 
REMARK    4  A    between atoms: N4_19  and  C13_20 
REMARK    5  A    between atoms: C13_20  and  C14_21 
REMARK    6  A    between atoms: C14_21  and  O2_23 
ROOT
HETATM    1  N1  UNL     1      -4.329   7.246  11.991  1.00  0.00    -0.097 N 
ATOM      2  H1  UNL     1      -3.910   7.483  11.092  1.00  0.00     0.213 HD
HETATM    3  C2  UNL     1      -3.636   6.530  12.791  1.00  0.00     0.696 C 
HETATM    4  N2  UNL     1      -4.160   6.166  14.055  1.00  0.00    -0.224 N 
ATOM      5  H2  UNL     1      -5.014   6.618  14.383  1.00  0.00     0.177 HD
HETATM    6  N3  UNL     1      -2.348   6.102  12.411  1.00  0.00    -0.213 N 
HETATM    7  C11 UNL     1      -2.123   4.979  11.516  1.00  0.00     0.160 C 
HETATM    8  C12 UNL     1      -0.648   4.662  11.485  1.00  0.00     0.137 C 
HETATM    9  N4  UNL     1       0.192   5.784  11.270  1.00  0.00    -0.407 N 
HETATM   10  C16 UNL     1      -0.283   7.047  11.702  1.00  0.00     0.137 C 
HETATM   11  C17 UNL     1      -1.194   6.793  12.914  1.00  0.00     0.160 C 
ENDROOT
BRANCH   1  12
HETATM   12  O1  UNL     1      -5.586   7.719  12.242  1.00  0.00    -0.272 OA
HETATM   13  C1  UNL     1      -6.064   8.789  11.412  1.00  0.00     0.238 C 
ENDBRANCH   1  12
BRANCH   4  14
HETATM   14  C3  UNL     1      -3.526   5.178  14.894  1.00  0.00     0.142 C 
BRANCH  14  15
HETATM   15  C4  UNL     1      -4.582   4.471  15.704  1.00  0.00     0.004 C 
HETATM   16  C5  UNL     1      -5.915   5.058  15.274  1.00  0.00     0.006 C 
HETATM   17  C6  UNL     1      -6.726   5.357  16.510  1.00  0.00     0.000 C 
HETATM   18  C7  UNL     1      -6.744   4.230  17.497  1.00  0.00     0.000 C 
HETATM   19  C8  UNL     1      -6.770   2.893  16.795  1.00  0.00     0.000 C 
HETATM   20  C9  UNL     1      -5.398   2.324  16.589  1.00  0.00     0.000 C 
HETATM   21  C10 UNL     1      -4.626   2.990  15.485  1.00  0.00     0.006 C 
ENDBRANCH  14  15
ENDBRANCH   4  14
BRANCH   9  22
HETATM   22  C13 UNL     1       1.068   5.745  10.163  1.00  0.00     0.148 C 
BRANCH  22  23
HETATM   23  C14 UNL     1       2.412   6.356  10.353  1.00  0.00     0.131 C 
HETATM   24  C15 UNL     1       3.303   5.920   9.207  1.00  0.00     0.041 C 
BRANCH  23  25
HETATM   25  O2  UNL     1       3.009   5.881  11.531  1.00  0.00    -0.394 OA
ATOM     26  H2  UNL     1       2.875   6.493  12.245  1.00  0.00     0.210 HD
ENDBRANCH  23  25
ENDBRANCH  22  23
ENDBRANCH   9  22
TORSDOF 6
ENDMDL
MODEL 2
REMARK VINA RESULT: -7.065088748      2.444      3.395
REMARK  6 active torsions:
REMARK  status: ('A' for Active; 'I' for Inactive)
REMARK    1  A    between atoms: O1_2  and  N1_3 
REMARK       I    between atoms: C2_5  and  N2_6 
REMARK       I    between atoms: C2_5  and  N3_16 
REMARK    2  A    between atoms: N2_6  and  C3_8 
REMARK    3  A    between atoms: C3_8  and  C4_9 
REMARK    4  A    between atoms: N4_19  and  C13_20 
REMARK    5  A    between atoms: C13_20  and  C14_21 
REMARK    6  A    between atoms: C14_21  and  O2_23 
ROOT
HETATM    1  N1  UNL     1      -3.333   2.369  11.223  1.00  0.00    -0.097 N 
ATOM      2  H1  UNL     1      -2.558   2.323  10.560  1.00  0.00     0.213 HD
HETATM    3  C2  UNL     1      -3.567   3.497  11.775  1.00  0.00     0.696 C 
HETATM    4  N2  UNL     1      -4.628   3.627  12.702  1.00  0.00    -0.224 N 
ATOM      5  H2  UNL     1      -5.299   2.865  12.794  1.00  0.00     0.177 HD
HETATM    6  N3  UNL     1      -2.765   4.611  11.457  1.00  0.00    -0.213 N 
HETATM    7  C11 UNL     1      -1.446   4.822  12.030  1.00  0.00     0.160 C 
HETATM    8  C12 UNL     1      -0.956   6.196  11.646  1.00  0.00     0.137 C 
HETATM    9  N4  UNL     1      -1.071   6.499  10.265  1.00  0.00    -0.407 N 
HETATM   10  C16 UNL     1      -2.102   5.853   9.539  1.00  0.00     0.137 C 
HETATM   11  C17 UNL     1      -3.251   5.593  10.527  1.00  0.00     0.160 C 
ENDROOT
BRANCH   1  12
HETATM   12  O1  UNL     1      -4.035   1.218  11.447  1.00  0.00    -0.272 OA
HETATM   13  C1  UNL     1      -3.304  -0.017  11.414  1.00  0.00     0.238 C 
ENDBRANCH   1  12
BRANCH   4  14
HETATM   14  C3  UNL     1      -4.792   4.804  13.522  1.00  0.00     0.142 C 
BRANCH  14  15
HETATM   15  C4  UNL     1      -5.412   4.405  14.836  1.00  0.00     0.004 C 
HETATM   16  C5  UNL     1      -4.294   3.805  15.671  1.00  0.00     0.006 C 
HETATM   17  C6  UNL     1      -4.799   2.529  16.298  1.00  0.00     0.000 C 
HETATM   18  C7  UNL     1      -6.147   2.671  16.935  1.00  0.00     0.000 C 
HETATM   19  C8  UNL     1      -6.304   4.028  17.581  1.00  0.00     0.000 C 
HETATM   20  C9  UNL     1      -6.936   5.032  16.664  1.00  0.00     0.000 C 
HETATM   21  C10 UNL     1      -6.010   5.547  15.599  1.00  0.00     0.006 C 
ENDBRANCH  14  15
ENDBRANCH   4  14
BRANCH   9  22
HETATM   22  C13 UNL     1       0.106   6.861   9.574  1.00  0.00     0.148 C 
BRANCH  22  23
HETATM   23  C14 UNL     1       1.308   6.017   9.815  1.00  0.00     0.131 C 
HETATM   24  C15 UNL     1       2.510   6.710   9.205  1.00  0.00     0.041 C 
BRANCH  23  25
HETATM   25  O2  UNL     1       1.183   4.780   9.164  1.00  0.00    -0.394 OA
ATOM     26  H2  UNL     1       2.029   4.356   9.085  1.00  0.00     0.210 HD
ENDBRANCH  23  25
ENDBRANCH  22  23
ENDBRANCH   9  22
TORSDOF 6
ENDMDL
MODEL 3
REMARK VINA RESULT: -6.984539575      2.984      3.894
REMARK  6 active torsions:
REMARK  status: ('A' for Active; 'I' for Inactive)
REMARK    1  A    between atoms: O1_2  and  N1_3 
REMARK       I    between atoms: C2_5  and  N2_6 
REMARK       I    between atoms: C2_5  and  N3_16 
REMARK    2  A    between atoms: N2_6  and  C3_8 
REMARK    3  A    between atoms: C3_8  and  C4_9 
REMARK    4  A    between atoms: N4_19  and  C13_20 
REMARK    5  A    between atoms: C13_20  and  C14_21 
REMARK    6  A    between atoms: C14_21  and  O2_23 
ROOT
HETATM    1  N1  UNL     1      -3.632   2.288  11.052  1.00  0.00    -0.097 N 
ATOM      2  H1  UNL     1      -3.117   2.326  10.173  1.00  0.00     0.213 HD
HETATM    3  C2  UNL     1      -3.711   3.367  11.734  1.00  0.00     0.696 C 
HETATM    4  N2  UNL     1      -4.411   3.381  12.963  1.00  0.00    -0.224 N 
ATOM      5  H2  UNL     1      -4.989   2.578  13.211  1.00  0.00     0.177 HD
HETATM    6  N3  UNL     1      -3.095   4.541  11.257  1.00  0.00    -0.213 N 
HETATM    7  C11 UNL     1      -1.669   4.792  11.383  1.00  0.00     0.160 C 
HETATM    8  C12 UNL     1      -1.379   6.212  10.965  1.00  0.00     0.137 C 
HETATM    9  N4  UNL     1      -1.951   6.590   9.724  1.00  0.00    -0.407 N 
HETATM   10  C16 UNL     1      -3.141   5.931   9.327  1.00  0.00     0.137 C 
HETATM   11  C17 UNL     1      -3.892   5.548  10.612  1.00  0.00     0.160 C 
ENDROOT
BRANCH   1  12
HETATM   12  O1  UNL     1      -4.182   1.089  11.407  1.00  0.00    -0.272 OA
HETATM   13  C1  UNL     1      -3.324  -0.062  11.383  1.00  0.00     0.238 C 
ENDBRANCH   1  12
BRANCH   4  14
HETATM   14  C3  UNL     1      -4.336   4.495  13.878  1.00  0.00     0.142 C 
BRANCH  14  15
HETATM   15  C4  UNL     1      -5.216   4.214  15.069  1.00  0.00     0.004 C 
HETATM   16  C5  UNL     1      -4.371   3.416  16.046  1.00  0.00     0.006 C 
HETATM   17  C6  UNL     1      -5.190   2.254  16.547  1.00  0.00     0.000 C 
HETATM   18  C7  UNL     1      -6.573   2.640  16.974  1.00  0.00     0.000 C 
HETATM   19  C8  UNL     1      -6.579   4.001  17.631  1.00  0.00     0.000 C 
HETATM   20  C9  UNL     1      -6.867   5.107  16.661  1.00  0.00     0.000 C 
HETATM   21  C10 UNL     1      -5.707   5.445  15.766  1.00  0.00     0.006 C 
ENDBRANCH  14  15
ENDBRANCH   4  14
BRANCH   9  22
HETATM   22  C13 UNL     1      -1.080   7.058   8.716  1.00  0.00     0.148 C 
BRANCH  22  23
HETATM   23  C14 UNL     1      -1.006   6.249   7.469  1.00  0.00     0.131 C 
HETATM   24  C15 UNL     1       0.092   5.217   7.632  1.00  0.00     0.041 C 
BRANCH  23  25
HETATM   25  O2  UNL     1      -0.643   7.054   6.378  1.00  0.00    -0.394 OA
ATOM     26  H2  UNL     1      -0.089   7.772   6.662  1.00  0.00     0.210 HD
ENDBRANCH  23  25
ENDBRANCH  22  23
ENDBRANCH   9  22
TORSDOF 6
ENDMDL
MODEL 4
REMARK VINA RESULT: -6.972034152      0.673      1.454
REMARK  6 active torsions:
REMARK  status: ('A' for Active; 'I' for Inactive)
REMARK    1  A    between atoms: O1_2  and  N1_3 
REMARK       I    between atoms: C2_5  and  N2_6 
REMARK       I    between atoms: C2_5  and  N3_16 
REMARK    2  A    between atoms: N2_6  and  C3_8 
REMARK    3  A    between atoms: C3_8  and  C4_9 
REMARK    4  A    between atoms: N4_19  and  C13_20 
REMARK    5  A    between atoms: C13_20  and  C14_21 
REMARK    6  A    between atoms: C14_21  and  O2_23 
ROOT
HETATM    1  N1  UNL     1      -4.351   7.334  11.671  1.00  0.00    -0.097 N 
ATOM      2  H1  UNL     1      -3.738   7.758  10.974  1.00  0.00     0.213 HD
HETATM    3  C2  UNL     1      -3.916   6.304  12.288  1.00  0.00     0.696 C 
HETATM    4  N2  UNL     1      -4.718   5.669  13.265  1.00  0.00    -0.224 N 
ATOM      5  H2  UNL     1      -5.564   6.137  13.589  1.00  0.00     0.177 HD
HETATM    6  N3  UNL     1      -2.634   5.800  11.989  1.00  0.00    -0.213 N 
HETATM    7  C11 UNL     1      -2.361   4.979  10.821  1.00  0.00     0.160 C 
HETATM    8  C12 UNL     1      -0.954   4.443  10.914  1.00  0.00     0.137 C 
HETATM    9  N4  UNL     1       0.031   5.418  11.210  1.00  0.00    -0.407 N 
HETATM   10  C16 UNL     1      -0.377   6.552  11.955  1.00  0.00     0.137 C 
HETATM   11  C17 UNL     1      -1.533   6.101  12.862  1.00  0.00     0.160 C 
ENDROOT
BRANCH   1  12
HETATM   12  O1  UNL     1      -5.572   7.915  11.868  1.00  0.00    -0.272 OA
HETATM   13  C1  UNL     1      -5.906   9.043  11.045  1.00  0.00     0.238 C 
ENDBRANCH   1  12
BRANCH   4  14
HETATM   14  C3  UNL     1      -4.377   4.381  13.821  1.00  0.00     0.142 C 
BRANCH  14  15
HETATM   15  C4  UNL     1      -5.228   4.131  15.040  1.00  0.00     0.004 C 
HETATM   16  C5  UNL     1      -4.352   3.376  16.024  1.00  0.00     0.006 C 
HETATM   17  C6  UNL     1      -5.147   2.222  16.583  1.00  0.00     0.000 C 
HETATM   18  C7  UNL     1      -6.524   2.608  17.027  1.00  0.00     0.000 C 
HETATM   19  C8  UNL     1      -6.531   3.990  17.638  1.00  0.00     0.000 C 
HETATM   20  C9  UNL     1      -6.853   5.059  16.637  1.00  0.00     0.000 C 
HETATM   21  C10 UNL     1      -5.717   5.379  15.706  1.00  0.00     0.006 C 
ENDBRANCH  14  15
ENDBRANCH   4  14
BRANCH   9  22
HETATM   22  C13 UNL     1       1.100   5.568  10.300  1.00  0.00     0.148 C 
BRANCH  22  23
HETATM   23  C14 UNL     1       2.198   6.488  10.704  1.00  0.00     0.131 C 
HETATM   24  C15 UNL     1       3.076   6.746   9.496  1.00  0.00     0.041 C 
BRANCH  23  25
HETATM   25  O2  UNL     1       3.015   5.886  11.674  1.00  0.00    -0.394 OA
ATOM     26  H2  UNL     1       3.464   5.132  11.312  1.00  0.00     0.210 HD
ENDBRANCH  23  25
ENDBRANCH  22  23
ENDBRANCH   9  22
TORSDOF 6
ENDMDL
MODEL 5
REMARK VINA RESULT: -6.920043505      2.944      4.173
REMARK  6 active torsions:
REMARK  status: ('A' for Active; 'I' for Inactive)
REMARK    1  A    between atoms: O1_2  and  N1_3 
REMARK       I    between atoms: C2_5  and  N2_6 
REMARK       I    between atoms: C2_5  and  N3_16 
REMARK    2  A    between atoms: N2_6  and  C3_8 
REMARK    3  A    between atoms: C3_8  and  C4_9 
REMARK    4  A    between atoms: N4_19  and  C13_20 
REMARK    5  A    between atoms: C13_20  and  C14_21 
REMARK    6  A    between atoms: C14_21  and  O2_23 
ROOT
HETATM    1  N1  UNL     1      -2.199   4.406  12.060  1.00  0.00    -0.097 N 
ATOM      2  H1  UNL     1      -1.299   4.802  11.785  1.00  0.00     0.213 HD
HETATM    3  C2  UNL     1      -3.025   5.182  12.650  1.00  0.00     0.696 C 
HETATM    4  N2  UNL     1      -4.290   4.695  13.057  1.00  0.00    -0.224 N 
ATOM      5  H2  UNL     1      -4.596   3.780  12.726  1.00  0.00     0.177 HD
HETATM    6  N3  UNL     1      -2.672   6.523  12.896  1.00  0.00    -0.213 N 
HETATM    7  C11 UNL     1      -1.808   6.923  13.995  1.00  0.00     0.160 C 
HETATM    8  C12 UNL     1      -1.804   8.428  14.096  1.00  0.00     0.137 C 
HETATM    9  N4  UNL     1      -1.573   9.101  12.870  1.00  0.00    -0.407 N 
HETATM   10  C16 UNL     1      -1.968   8.442  11.680  1.00  0.00     0.137 C 
HETATM   11  C17 UNL     1      -3.174   7.558  12.035  1.00  0.00     0.160 C 
ENDROOT
BRANCH   1  12
HETATM   12  O1  UNL     1      -2.422   3.090  11.767  1.00  0.00    -0.272 OA
HETATM   13  C1  UNL     1      -1.669   2.520  10.685  1.00  0.00     0.238 C 
ENDBRANCH   1  12
BRANCH   4  14
HETATM   14  C3  UNL     1      -5.162   5.450  13.924  1.00  0.00     0.142 C 
BRANCH  14  15
HETATM   15  C4  UNL     1      -5.524   4.603  15.117  1.00  0.00     0.004 C 
HETATM   16  C5  UNL     1      -4.213   4.219  15.781  1.00  0.00     0.006 C 
HETATM   17  C6  UNL     1      -4.255   2.746  16.102  1.00  0.00     0.000 C 
HETATM   18  C7  UNL     1      -5.526   2.317  16.766  1.00  0.00     0.000 C 
HETATM   19  C8  UNL     1      -6.034   3.382  17.709  1.00  0.00     0.000 C 
HETATM   20  C9  UNL     1      -7.014   4.310  17.054  1.00  0.00     0.000 C 
HETATM   21  C10 UNL     1      -6.376   5.307  16.127  1.00  0.00     0.006 C 
ENDBRANCH  14  15
ENDBRANCH   4  14
BRANCH   9  22
HETATM   22  C13 UNL     1      -0.479   9.992  12.808  1.00  0.00     0.148 C 
BRANCH  22  23
HETATM   23  C14 UNL     1      -0.244  10.845  14.005  1.00  0.00     0.131 C 
HETATM   24  C15 UNL     1      -1.160  12.050  13.921  1.00  0.00     0.041 C 
BRANCH  23  25
HETATM   25  O2  UNL     1       1.070  11.338  14.011  1.00  0.00    -0.394 OA
ATOM     26  H2  UNL     1       1.084  12.251  14.274  1.00  0.00     0.210 HD
ENDBRANCH  23  25
ENDBRANCH  22  23
ENDBRANCH   9  22
TORSDOF 6
ENDMDL
