MODEL 1
REMARK VINA RESULT: -6.863167839      0.000      0.000
REMARK  7 active torsions:
REMARK  status: ('A' for Active; 'I' for Inactive)
REMARK    1  A    between atoms: C2_2  and  C4_4 
REMARK    2  A    between atoms: C4_4  and  N1_6 
REMARK       I    between atoms: N1_6  and  C6_8 
REMARK    3  A    between atoms: C6_8  and  C7_10 
REMARK    4  A    between atoms: C7_10  and  N2_12 
REMARK    5  A    between atoms: N2_12  and  C9_14 
REMARK    6  A    between atoms: N3_17  and  C12_18 
REMARK    7  A    between atoms: C17_23  and  O2_24 
ROOT
HETATM    1  N2  UNL     1      -3.160   6.387  12.893  1.00  0.00    -0.403 N 
ATOM      2  H2  UNL     1      -2.659   7.269  12.783  1.00  0.00     0.154 HD
ENDROOT
BRANCH   1   3
HETATM    3  C7  UNL     1      -4.057   6.287  13.952  1.00  0.00     0.165 C 
HETATM    4  C8  UNL     1      -4.023   7.620  14.741  1.00  0.00     0.042 C 
BRANCH   3   5
HETATM    5  C6  UNL     1      -3.897   5.231  14.966  1.00  0.00     0.240 C 
HETATM    6  N1  UNL     1      -5.016   4.536  15.443  1.00  0.00    -0.351 N 
ATOM      7  H1  UNL     1      -5.944   4.765  15.087  1.00  0.00     0.163 HD
HETATM    8  O1  UNL     1      -2.721   4.974  15.390  1.00  0.00    -0.271 OA
BRANCH   6   9
HETATM    9  C4  UNL     1      -4.866   3.499  16.433  1.00  0.00     0.108 C 
HETATM   10  C5  UNL     1      -4.566   2.182  15.784  1.00  0.00     0.037 C 
BRANCH   9  11
HETATM   11  C2  UNL     1      -6.061   3.398  17.324  1.00  0.00    -0.071 C 
HETATM   12  C1  UNL     1      -6.027   3.823  18.581  1.00  0.00     0.016 C 
HETATM   13  C3  UNL     1      -7.335   2.816  16.837  1.00  0.00     0.044 C 
ENDBRANCH   9  11
ENDBRANCH   6   9
ENDBRANCH   3   5
ENDBRANCH   1   3
BRANCH   1  14
HETATM   14  C9  UNL     1      -2.893   5.376  11.974  1.00  0.00     0.109 C 
HETATM   15  C10 UNL     1      -1.492   5.052  11.696  1.00  0.00     0.047 C 
HETATM   16  C11 UNL     1      -0.828   6.011  10.706  1.00  0.00     0.119 C 
HETATM   17  N3  UNL     1      -1.636   6.036   9.544  1.00  0.00    -0.402 N 
HETATM   18  C16 UNL     1      -2.902   6.604   9.790  1.00  0.00     0.151 C 
HETATM   19  C17 UNL     1      -3.688   5.640  10.684  1.00  0.00     0.160 C 
BRANCH  17  20
HETATM   20  C12 UNL     1      -1.026   6.220   8.294  1.00  0.00     0.017 C 
HETATM   21  C13 UNL     1      -0.058   7.398   8.381  1.00  0.00     0.037 C 
HETATM   22  C14 UNL     1      -2.111   6.671   7.304  1.00  0.00     0.037 C 
HETATM   23  C15 UNL     1      -0.317   5.045   7.720  1.00  0.00     0.037 C 
ENDBRANCH  17  20
BRANCH  19  24
HETATM   24  O2  UNL     1      -4.102   4.510  10.048  1.00  0.00    -0.387 OA
HETATM   25  C18 UNL     1      -4.754   3.589  10.849  1.00  0.00     0.202 C 
ENDBRANCH  19  24
ENDBRANCH   1  14
TORSDOF 7
ENDMDL
MODEL 2
REMARK VINA RESULT: -6.818149902      0.719      1.319
REMARK  7 active torsions:
REMARK  status: ('A' for Active; 'I' for Inactive)
REMARK    1  A    between atoms: C2_2  and  C4_4 
REMARK    2  A    between atoms: C4_4  and  N1_6 
REMARK       I    between atoms: N1_6  and  C6_8 
REMARK    3  A    between atoms: C6_8  and  C7_10 
REMARK    4  A    between atoms: C7_10  and  N2_12 
REMARK    5  A    between atoms: N2_12  and  C9_14 
REMARK    6  A    between atoms: N3_17  and  C12_18 
REMARK    7  A    between atoms: C17_23  and  O2_24 
ROOT
HETATM    1  N2  UNL     1      -2.925   6.176  12.908  1.00  0.00    -0.403 N 
ATOM      2  H2  UNL     1      -2.215   6.899  13.033  1.00  0.00     0.154 HD
ENDROOT
BRANCH   1   3
HETATM    3  C7  UNL     1      -3.923   6.084  13.873  1.00  0.00     0.165 C 
HETATM    4  C8  UNL     1      -4.020   7.449  14.600  1.00  0.00     0.042 C 
BRANCH   3   5
HETATM    5  C6  UNL     1      -3.832   5.079  14.945  1.00  0.00     0.240 C 
HETATM    6  N1  UNL     1      -4.982   4.413  15.389  1.00  0.00    -0.351 N 
ATOM      7  H1  UNL     1      -5.886   4.629  14.969  1.00  0.00     0.163 HD
HETATM    8  O1  UNL     1      -2.684   4.837  15.450  1.00  0.00    -0.271 OA
BRANCH   6   9
HETATM    9  C4  UNL     1      -4.898   3.426  16.436  1.00  0.00     0.108 C 
HETATM   10  C5  UNL     1      -4.602   2.071  15.868  1.00  0.00     0.037 C 
BRANCH   9  11
HETATM   11  C2  UNL     1      -6.131   3.398  17.278  1.00  0.00    -0.071 C 
HETATM   12  C1  UNL     1      -7.261   2.857  16.837  1.00  0.00     0.016 C 
HETATM   13  C3  UNL     1      -6.142   3.976  18.644  1.00  0.00     0.044 C 
ENDBRANCH   9  11
ENDBRANCH   6   9
ENDBRANCH   3   5
ENDBRANCH   1   3
BRANCH   1  14
HETATM   14  C9  UNL     1      -2.821   5.359  11.786  1.00  0.00     0.109 C 
HETATM   15  C10 UNL     1      -1.550   5.351  11.058  1.00  0.00     0.047 C 
HETATM   16  C11 UNL     1      -1.384   6.536  10.105  1.00  0.00     0.119 C 
HETATM   17  N3  UNL     1      -2.514   6.548   9.253  1.00  0.00    -0.402 N 
HETATM   18  C16 UNL     1      -3.705   6.824   9.956  1.00  0.00     0.151 C 
HETATM   19  C17 UNL     1      -4.015   5.622  10.853  1.00  0.00     0.160 C 
BRANCH  17  20
HETATM   20  C12 UNL     1      -2.368   7.000   7.934  1.00  0.00     0.017 C 
HETATM   21  C13 UNL     1      -1.201   6.263   7.280  1.00  0.00     0.037 C 
HETATM   22  C14 UNL     1      -1.926   8.471   7.988  1.00  0.00     0.037 C 
HETATM   23  C15 UNL     1      -3.566   6.895   7.058  1.00  0.00     0.037 C 
ENDBRANCH  17  20
BRANCH  19  24
HETATM   24  O2  UNL     1      -4.440   4.521  10.175  1.00  0.00    -0.387 OA
HETATM   25  C18 UNL     1      -4.832   3.456  10.966  1.00  0.00     0.202 C 
ENDBRANCH  19  24
ENDBRANCH   1  14
TORSDOF 7
ENDMDL
MODEL 3
REMARK VINA RESULT: -6.801622281      1.895      7.304
REMARK  7 active torsions:
REMARK  status: ('A' for Active; 'I' for Inactive)
REMARK    1  A    between atoms: C2_2  and  C4_4 
REMARK    2  A    between atoms: C4_4  and  N1_6 
REMARK       I    between atoms: N1_6  and  C6_8 
REMARK    3  A    between atoms: C6_8  and  C7_10 
REMARK    4  A    between atoms: C7_10  and  N2_12 
REMARK    5  A    between atoms: N2_12  and  C9_14 
REMARK    6  A    between atoms: N3_17  and  C12_18 
REMARK    7  A    between atoms: C17_23  and  O2_24 
ROOT
HETATM    1  N2  UNL     1      -3.983   6.761  14.381  1.00  0.00    -0.403 N 
ATOM      2  H2  UNL     1      -4.001   7.186  15.308  1.00  0.00     0.154 HD
ENDROOT
BRANCH   1   3
HETATM    3  C7  UNL     1      -3.028   7.223  13.481  1.00  0.00     0.165 C 
HETATM    4  C8  UNL     1      -3.737   7.525  12.137  1.00  0.00     0.042 C 
BRANCH   3   5
HETATM    5  C6  UNL     1      -1.869   6.385  13.129  1.00  0.00     0.240 C 
HETATM    6  N1  UNL     1      -1.578   6.110  11.787  1.00  0.00    -0.351 N 
ATOM      7  H1  UNL     1      -2.173   6.491  11.052  1.00  0.00     0.163 HD
HETATM    8  O1  UNL     1      -1.148   5.923  14.077  1.00  0.00    -0.271 OA
BRANCH   6   9
HETATM    9  C4  UNL     1      -0.443   5.293  11.437  1.00  0.00     0.108 C 
HETATM   10  C5  UNL     1       0.717   6.145  11.015  1.00  0.00     0.037 C 
BRANCH   9  11
HETATM   11  C2  UNL     1      -0.781   4.288  10.385  1.00  0.00    -0.071 C 
HETATM   12  C1  UNL     1      -0.650   4.564   9.093  1.00  0.00     0.016 C 
HETATM   13  C3  UNL     1      -1.280   2.938  10.744  1.00  0.00     0.044 C 
ENDBRANCH   9  11
ENDBRANCH   6   9
ENDBRANCH   3   5
ENDBRANCH   1   3
BRANCH   1  14
HETATM   14  C9  UNL     1      -4.916   5.762  14.114  1.00  0.00     0.109 C 
HETATM   15  C10 UNL     1      -6.240   5.877  14.729  1.00  0.00     0.047 C 
HETATM   16  C11 UNL     1      -6.280   5.406  16.184  1.00  0.00     0.119 C 
HETATM   17  N3  UNL     1      -5.765   4.088  16.211  1.00  0.00    -0.402 N 
HETATM   18  C16 UNL     1      -4.399   4.045  15.864  1.00  0.00     0.151 C 
HETATM   19  C17 UNL     1      -4.278   4.387  14.375  1.00  0.00     0.160 C 
BRANCH  17  20
HETATM   20  C12 UNL     1      -6.268   3.178  17.153  1.00  0.00     0.017 C 
HETATM   21  C13 UNL     1      -7.744   2.921  16.856  1.00  0.00     0.037 C 
HETATM   22  C14 UNL     1      -6.255   3.868  18.525  1.00  0.00     0.037 C 
HETATM   23  C15 UNL     1      -5.557   1.877  17.267  1.00  0.00     0.037 C 
ENDBRANCH  17  20
BRANCH  19  24
HETATM   24  O2  UNL     1      -4.721   3.405  13.544  1.00  0.00    -0.387 OA
HETATM   25  C18 UNL     1      -4.580   3.667  12.193  1.00  0.00     0.202 C 
ENDBRANCH  19  24
ENDBRANCH   1  14
TORSDOF 7
ENDMDL
MODEL 4
REMARK VINA RESULT: -6.789702644      1.746      3.521
REMARK  7 active torsions:
REMARK  status: ('A' for Active; 'I' for Inactive)
REMARK    1  A    between atoms: C2_2  and  C4_4 
REMARK    2  A    between atoms: C4_4  and  N1_6 
REMARK       I    between atoms: N1_6  and  C6_8 
REMARK    3  A    between atoms: C6_8  and  C7_10 
REMARK    4  A    between atoms: C7_10  and  N2_12 
REMARK    5  A    between atoms: N2_12  and  C9_14 
REMARK    6  A    between atoms: N3_17  and  C12_18 
REMARK    7  A    between atoms: C17_23  and  O2_24 
ROOT
HETATM    1  N2  UNL     1      -2.754   6.373  12.457  1.00  0.00    -0.403 N 
ATOM      2  H2  UNL     1      -1.795   6.704  12.567  1.00  0.00     0.154 HD
ENDROOT
BRANCH   1   3
HETATM    3  C7  UNL     1      -3.622   6.552  13.530  1.00  0.00     0.165 C 
HETATM    4  C8  UNL     1      -3.266   7.893  14.220  1.00  0.00     0.042 C 
BRANCH   3   5
HETATM    5  C6  UNL     1      -3.677   5.559  14.616  1.00  0.00     0.240 C 
HETATM    6  N1  UNL     1      -4.902   4.990  14.991  1.00  0.00    -0.351 N 
ATOM      7  H1  UNL     1      -5.757   5.268  14.510  1.00  0.00     0.163 HD
HETATM    8  O1  UNL     1      -2.587   5.238  15.198  1.00  0.00    -0.271 OA
BRANCH   6   9
HETATM    9  C4  UNL     1      -4.962   4.016  16.051  1.00  0.00     0.108 C 
HETATM   10  C5  UNL     1      -4.596   2.653  15.543  1.00  0.00     0.037 C 
BRANCH   9  11
HETATM   11  C2  UNL     1      -6.297   3.998  16.720  1.00  0.00    -0.071 C 
HETATM   12  C1  UNL     1      -6.936   5.122  17.023  1.00  0.00     0.016 C 
HETATM   13  C3  UNL     1      -6.962   2.721  17.076  1.00  0.00     0.044 C 
ENDBRANCH   9  11
ENDBRANCH   6   9
ENDBRANCH   3   5
ENDBRANCH   1   3
BRANCH   1  14
HETATM   14  C9  UNL     1      -3.095   5.777  11.245  1.00  0.00     0.109 C 
HETATM   15  C10 UNL     1      -4.408   5.138  11.139  1.00  0.00     0.047 C 
HETATM   16  C11 UNL     1      -4.456   3.735  11.745  1.00  0.00     0.119 C 
HETATM   17  N3  UNL     1      -3.420   2.983  11.140  1.00  0.00    -0.402 N 
HETATM   18  C16 UNL     1      -2.143   3.472  11.482  1.00  0.00     0.151 C 
HETATM   19  C17 UNL     1      -1.961   4.835  10.807  1.00  0.00     0.160 C 
BRANCH  17  20
HETATM   20  C12 UNL     1      -3.604   1.607  10.939  1.00  0.00     0.017 C 
HETATM   21  C13 UNL     1      -4.818   1.394  10.037  1.00  0.00     0.037 C 
HETATM   22  C14 UNL     1      -3.999   0.985  12.287  1.00  0.00     0.037 C 
HETATM   23  C15 UNL     1      -2.446   0.855  10.388  1.00  0.00     0.037 C 
ENDBRANCH  17  20
BRANCH  19  24
HETATM   24  O2  UNL     1      -1.790   4.766   9.458  1.00  0.00    -0.387 OA
HETATM   25  C18 UNL     1      -0.474   4.762   9.031  1.00  0.00     0.202 C 
ENDBRANCH  19  24
ENDBRANCH   1  14
TORSDOF 7
ENDMDL
MODEL 5
REMARK VINA RESULT: -6.762214915      1.827      7.548
REMARK  7 active torsions:
REMARK  status: ('A' for Active; 'I' for Inactive)
REMARK    1  A    between atoms: C2_2  and  C4_4 
REMARK    2  A    between atoms: C4_4  and  N1_6 
REMARK       I    between atoms: N1_6  and  C6_8 
REMARK    3  A    between atoms: C6_8  and  C7_10 
REMARK    4  A    between atoms: C7_10  and  N2_12 
REMARK    5  A    between atoms: N2_12  and  C9_14 
REMARK    6  A    between atoms: N3_17  and  C12_18 
REMARK    7  A    between atoms: C17_23  and  O2_24 
ROOT
HETATM    1  N2  UNL     1      -3.667   6.239  14.263  1.00  0.00    -0.403 N 
ATOM      2  H2  UNL     1      -3.906   7.000  14.900  1.00  0.00     0.154 HD
ENDROOT
BRANCH   1   3
HETATM    3  C7  UNL     1      -2.420   6.284  13.648  1.00  0.00     0.165 C 
HETATM    4  C8  UNL     1      -1.907   7.745  13.703  1.00  0.00     0.042 C 
BRANCH   3   5
HETATM    5  C6  UNL     1      -2.267   5.871  12.243  1.00  0.00     0.240 C 
HETATM    6  N1  UNL     1      -1.441   4.789  11.911  1.00  0.00    -0.351 N 
ATOM      7  H1  UNL     1      -0.943   4.288  12.647  1.00  0.00     0.163 HD
HETATM    8  O1  UNL     1      -2.904   6.523  11.349  1.00  0.00    -0.271 OA
BRANCH   6   9
HETATM    9  C4  UNL     1      -1.290   4.378  10.538  1.00  0.00     0.108 C 
HETATM   10  C5  UNL     1      -1.226   2.884  10.433  1.00  0.00     0.037 C 
BRANCH   9  11
HETATM   11  C2  UNL     1      -0.103   5.013   9.891  1.00  0.00    -0.071 C 
HETATM   12  C1  UNL     1       0.015   5.079   8.570  1.00  0.00     0.016 C 
HETATM   13  C3  UNL     1       0.996   5.593  10.702  1.00  0.00     0.044 C 
ENDBRANCH   9  11
ENDBRANCH   6   9
ENDBRANCH   3   5
ENDBRANCH   1   3
BRANCH   1  14
HETATM   14  C9  UNL     1      -4.615   5.236  14.075  1.00  0.00     0.109 C 
HETATM   15  C10 UNL     1      -5.979   5.484  14.547  1.00  0.00     0.047 C 
HETATM   16  C11 UNL     1      -6.157   5.254  16.049  1.00  0.00     0.119 C 
HETATM   17  N3  UNL     1      -5.700   3.944  16.328  1.00  0.00    -0.402 N 
HETATM   18  C16 UNL     1      -4.313   3.810  16.113  1.00  0.00     0.151 C 
HETATM   19  C17 UNL     1      -4.057   3.905  14.605  1.00  0.00     0.160 C 
BRANCH  17  20
HETATM   20  C12 UNL     1      -6.316   3.212  17.353  1.00  0.00     0.017 C 
HETATM   21  C13 UNL     1      -5.669   1.830  17.436  1.00  0.00     0.037 C 
HETATM   22  C14 UNL     1      -7.769   2.944  16.932  1.00  0.00     0.037 C 
HETATM   23  C15 UNL     1      -6.319   3.832  18.705  1.00  0.00     0.037 C 
ENDBRANCH  17  20
BRANCH  19  24
HETATM   24  O2  UNL     1      -4.469   2.814  13.904  1.00  0.00    -0.387 OA
HETATM   25  C18 UNL     1      -4.380   2.930  12.528  1.00  0.00     0.202 C 
ENDBRANCH  19  24
ENDBRANCH   1  14
TORSDOF 7
ENDMDL
