MODEL 1
REMARK VINA RESULT: -7.496387441      0.000      0.000
REMARK  10 active torsions:
REMARK  status: ('A' for Active; 'I' for Inactive)
REMARK    1  A    between atoms: C4_4  and  C5_5 
REMARK    2  A    between atoms: C5_5  and  O2_7 
REMARK    3  A    between atoms: O2_7  and  C6_8 
REMARK    4  A    between atoms: C8_11  and  C9_12 
REMARK    5  A    between atoms: C9_12  and  O4_13 
REMARK    6  A    between atoms: C10_15  and  O5_16 
REMARK    7  A    between atoms: O5_16  and  C11_17 
REMARK    8  A    between atoms: C11_17  and  C12_19 
REMARK    9  A    between atoms: C15_22  and  O7_23 
REMARK   10  A    between atoms: C16_25  and  O8_26 
ROOT
HETATM    1  C6  UNL     1      -3.221   4.838  11.553  1.00  0.00     0.181 C 
HETATM    2  C7  UNL     1      -3.840   5.124  12.664  1.00  0.00     0.100 C 
HETATM    3  O3  UNL     1      -3.284   4.735  13.869  1.00  0.00    -0.341 OA
HETATM    4  C8  UNL     1      -4.066   4.514  15.013  1.00  0.00     0.184 C 
HETATM    5  C10 UNL     1      -5.159   5.514  15.226  1.00  0.00     0.195 C 
HETATM    6  C15 UNL     1      -5.343   6.478  14.092  1.00  0.00     0.185 C 
HETATM    7  C16 UNL     1      -5.130   5.855  12.732  1.00  0.00     0.208 C 
ENDROOT
BRANCH   1   8
HETATM    8  O2  UNL     1      -2.018   4.151  11.546  1.00  0.00    -0.285 OA
BRANCH   8   9
HETATM    9  C5  UNL     1      -1.768   3.083  10.717  1.00  0.00     0.287 C 
HETATM   10  O1  UNL     1      -1.335   3.319   9.534  1.00  0.00    -0.260 OA
BRANCH   9  11
HETATM   11  C4  UNL     1      -1.972   1.720  11.123  1.00  0.00     0.084 C 
HETATM   12  C2  UNL     1      -3.125   1.109  10.990  1.00  0.00    -0.082 C 
HETATM   13  C1  UNL     1      -4.310   1.743  10.423  1.00  0.00     0.043 C 
HETATM   14  C3  UNL     1      -3.208  -0.342  11.462  1.00  0.00     0.043 C 
ENDBRANCH   9  11
ENDBRANCH   8   9
ENDBRANCH   1   8
BRANCH   7  15
HETATM   15  O8  UNL     1      -5.011   6.929  11.815  1.00  0.00    -0.386 OA
ATOM     16  H8  UNL     1      -5.854   7.365  11.820  1.00  0.00     0.210 HD
ENDBRANCH   7  15
BRANCH   4  17
HETATM   17  C9  UNL     1      -4.617   3.084  14.971  1.00  0.00     0.199 C 
BRANCH  17  18
HETATM   18  O4  UNL     1      -4.001   2.255  15.868  1.00  0.00    -0.398 OA
ATOM     19  H4  UNL     1      -4.228   1.342  15.739  1.00  0.00     0.209 HD
ENDBRANCH  17  18
ENDBRANCH   4  17
BRANCH   6  20
HETATM   20  O7  UNL     1      -6.631   7.016  14.094  1.00  0.00    -0.390 OA
ATOM     21  H7  UNL     1      -6.694   7.755  13.501  1.00  0.00     0.210 HD
ENDBRANCH   6  20
BRANCH   5  22
HETATM   22  O5  UNL     1      -6.335   4.804  15.547  1.00  0.00    -0.310 OA
BRANCH  22  23
HETATM   23  C11 UNL     1      -6.947   4.959  16.780  1.00  0.00     0.262 C 
HETATM   24  O6  UNL     1      -7.319   6.119  17.089  1.00  0.00    -0.265 OA
BRANCH  23  25
HETATM   25  C12 UNL     1      -7.182   3.871  17.729  1.00  0.00     0.077 C 
HETATM   26  C13 UNL     1      -6.033   3.646  18.682  1.00  0.00     0.020 C 
HETATM   27  C14 UNL     1      -7.465   2.550  17.022  1.00  0.00     0.020 C 
ENDBRANCH  23  25
ENDBRANCH  22  23
ENDBRANCH   5  22
TORSDOF 10
ENDMDL
MODEL 2
REMARK VINA RESULT: -7.400858260      2.125      6.206
REMARK  10 active torsions:
REMARK  status: ('A' for Active; 'I' for Inactive)
REMARK    1  A    between atoms: C4_4  and  C5_5 
REMARK    2  A    between atoms: C5_5  and  O2_7 
REMARK    3  A    between atoms: O2_7  and  C6_8 
REMARK    4  A    between atoms: C8_11  and  C9_12 
REMARK    5  A    between atoms: C9_12  and  O4_13 
REMARK    6  A    between atoms: C10_15  and  O5_16 
REMARK    7  A    between atoms: O5_16  and  C11_17 
REMARK    8  A    between atoms: C11_17  and  C12_19 
REMARK    9  A    between atoms: C15_22  and  O7_23 
REMARK   10  A    between atoms: C16_25  and  O8_26 
ROOT
HETATM    1  C6  UNL     1      -4.677   2.143  14.371  1.00  0.00     0.181 C 
HETATM    2  C7  UNL     1      -4.452   3.091  13.504  1.00  0.00     0.100 C 
HETATM    3  O3  UNL     1      -3.740   4.210  13.895  1.00  0.00    -0.341 OA
HETATM    4  C8  UNL     1      -3.896   5.451  13.259  1.00  0.00     0.184 C 
HETATM    5  C10 UNL     1      -4.007   5.380  11.769  1.00  0.00     0.195 C 
HETATM    6  C15 UNL     1      -4.107   3.987  11.223  1.00  0.00     0.185 C 
HETATM    7  C16 UNL     1      -4.914   3.055  12.095  1.00  0.00     0.208 C 
ENDROOT
BRANCH   1   8
HETATM    8  O2  UNL     1      -4.222   2.227  15.677  1.00  0.00    -0.285 OA
BRANCH   8   9
HETATM    9  C5  UNL     1      -5.012   2.648  16.721  1.00  0.00     0.287 C 
HETATM   10  O1  UNL     1      -5.314   1.802  17.636  1.00  0.00    -0.260 OA
BRANCH   9  11
HETATM   11  C4  UNL     1      -5.509   3.991  16.826  1.00  0.00     0.084 C 
HETATM   12  C2  UNL     1      -6.790   4.274  16.807  1.00  0.00    -0.082 C 
HETATM   13  C1  UNL     1      -7.834   3.263  16.678  1.00  0.00     0.043 C 
HETATM   14  C3  UNL     1      -7.186   5.745  16.927  1.00  0.00     0.043 C 
ENDBRANCH   9  11
ENDBRANCH   8   9
ENDBRANCH   1   8
BRANCH   7  15
HETATM   15  O8  UNL     1      -4.644   1.743  11.635  1.00  0.00    -0.386 OA
ATOM     16  H8  UNL     1      -5.481   1.295  11.630  1.00  0.00     0.210 HD
ENDBRANCH   7  15
BRANCH   4  17
HETATM   17  C9  UNL     1      -5.098   6.178  13.875  1.00  0.00     0.199 C 
BRANCH  17  18
HETATM   18  O4  UNL     1      -4.728   7.123  14.793  1.00  0.00    -0.398 OA
ATOM     19  H4  UNL     1      -5.408   7.767  14.950  1.00  0.00     0.209 HD
ENDBRANCH  17  18
ENDBRANCH   4  17
BRANCH   6  20
HETATM   20  O7  UNL     1      -4.706   3.984   9.962  1.00  0.00    -0.390 OA
ATOM     21  H7  UNL     1      -4.780   3.101   9.621  1.00  0.00     0.210 HD
ENDBRANCH   6  20
BRANCH   5  22
HETATM   22  O5  UNL     1      -5.081   6.207  11.377  1.00  0.00    -0.310 OA
BRANCH  22  23
HETATM   23  C11 UNL     1      -4.881   7.279  10.521  1.00  0.00     0.262 C 
HETATM   24  O6  UNL     1      -4.560   7.008   9.336  1.00  0.00    -0.265 OA
BRANCH  23  25
HETATM   25  C12 UNL     1      -5.017   8.683  10.907  1.00  0.00     0.077 C 
HETATM   26  C13 UNL     1      -3.959   9.143  11.881  1.00  0.00     0.020 C 
HETATM   27  C14 UNL     1      -6.378   8.973  11.528  1.00  0.00     0.020 C 
ENDBRANCH  23  25
ENDBRANCH  22  23
ENDBRANCH   5  22
TORSDOF 10
ENDMDL
MODEL 3
REMARK VINA RESULT: -7.257473190      2.796      5.221
REMARK  10 active torsions:
REMARK  status: ('A' for Active; 'I' for Inactive)
REMARK    1  A    between atoms: C4_4  and  C5_5 
REMARK    2  A    between atoms: C5_5  and  O2_7 
REMARK    3  A    between atoms: O2_7  and  C6_8 
REMARK    4  A    between atoms: C8_11  and  C9_12 
REMARK    5  A    between atoms: C9_12  and  O4_13 
REMARK    6  A    between atoms: C10_15  and  O5_16 
REMARK    7  A    between atoms: O5_16  and  C11_17 
REMARK    8  A    between atoms: C11_17  and  C12_19 
REMARK    9  A    between atoms: C15_22  and  O7_23 
REMARK   10  A    between atoms: C16_25  and  O8_26 
ROOT
HETATM    1  C6  UNL     1      -3.887   6.350  10.286  1.00  0.00     0.181 C 
HETATM    2  C7  UNL     1      -4.313   5.640  11.295  1.00  0.00     0.100 C 
HETATM    3  O3  UNL     1      -4.918   6.277  12.363  1.00  0.00    -0.341 OA
HETATM    4  C8  UNL     1      -4.919   5.726  13.654  1.00  0.00     0.184 C 
HETATM    5  C10 UNL     1      -5.160   4.250  13.703  1.00  0.00     0.195 C 
HETATM    6  C15 UNL     1      -5.185   3.583  12.360  1.00  0.00     0.185 C 
HETATM    7  C16 UNL     1      -4.192   4.164  11.381  1.00  0.00     0.208 C 
ENDROOT
BRANCH   1   8
HETATM    8  O2  UNL     1      -4.024   7.728  10.257  1.00  0.00    -0.285 OA
BRANCH   8   9
HETATM    9  C5  UNL     1      -5.015   8.369   9.551  1.00  0.00     0.287 C 
HETATM   10  O1  UNL     1      -5.698   7.689   8.706  1.00  0.00    -0.260 OA
BRANCH   9  11
HETATM   11  C4  UNL     1      -5.313   9.763   9.723  1.00  0.00     0.084 C 
HETATM   12  C2  UNL     1      -6.221  10.193  10.568  1.00  0.00    -0.082 C 
HETATM   13  C1  UNL     1      -7.015   9.307  11.413  1.00  0.00     0.043 C 
HETATM   14  C3  UNL     1      -6.440  11.702  10.654  1.00  0.00     0.043 C 
ENDBRANCH   9  11
ENDBRANCH   8   9
ENDBRANCH   1   8
BRANCH   7  15
HETATM   15  O8  UNL     1      -4.558   3.673  10.104  1.00  0.00    -0.386 OA
ATOM     16  H8  UNL     1      -3.882   3.050   9.865  1.00  0.00     0.210 HD
ENDBRANCH   7  15
BRANCH   4  17
HETATM   17  C9  UNL     1      -3.610   6.104  14.357  1.00  0.00     0.199 C 
BRANCH  17  18
HETATM   18  O4  UNL     1      -2.507   5.600  13.724  1.00  0.00    -0.398 OA
ATOM     19  H4  UNL     1      -2.245   6.122  12.975  1.00  0.00     0.209 HD
ENDBRANCH  17  18
ENDBRANCH   4  17
BRANCH   6  20
HETATM   20  O7  UNL     1      -4.898   2.221  12.471  1.00  0.00    -0.390 OA
ATOM     21  H7  UNL     1      -4.801   1.822  11.615  1.00  0.00     0.210 HD
ENDBRANCH   6  20
BRANCH   5  22
HETATM   22  O5  UNL     1      -4.211   3.689  14.584  1.00  0.00    -0.310 OA
BRANCH  22  23
HETATM   23  C11 UNL     1      -4.610   3.001  15.719  1.00  0.00     0.262 C 
HETATM   24  O6  UNL     1      -3.752   2.264  16.268  1.00  0.00    -0.265 OA
BRANCH  23  25
HETATM   25  C12 UNL     1      -5.947   3.080  16.306  1.00  0.00     0.077 C 
HETATM   26  C13 UNL     1      -6.270   4.437  16.884  1.00  0.00     0.020 C 
HETATM   27  C14 UNL     1      -6.146   2.046  17.408  1.00  0.00     0.020 C 
ENDBRANCH  23  25
ENDBRANCH  22  23
ENDBRANCH   5  22
TORSDOF 10
ENDMDL
MODEL 4
REMARK VINA RESULT: -7.253442236      2.520      7.464
REMARK  10 active torsions:
REMARK  status: ('A' for Active; 'I' for Inactive)
REMARK    1  A    between atoms: C4_4  and  C5_5 
REMARK    2  A    between atoms: C5_5  and  O2_7 
REMARK    3  A    between atoms: O2_7  and  C6_8 
REMARK    4  A    between atoms: C8_11  and  C9_12 
REMARK    5  A    between atoms: C9_12  and  O4_13 
REMARK    6  A    between atoms: C10_15  and  O5_16 
REMARK    7  A    between atoms: O5_16  and  C11_17 
REMARK    8  A    between atoms: C11_17  and  C12_19 
REMARK    9  A    between atoms: C15_22  and  O7_23 
REMARK   10  A    between atoms: C16_25  and  O8_26 
ROOT
HETATM    1  C6  UNL     1      -4.531   2.689  13.123  1.00  0.00     0.181 C 
HETATM    2  C7  UNL     1      -3.731   3.336  12.322  1.00  0.00     0.100 C 
HETATM    3  O3  UNL     1      -3.306   4.605  12.669  1.00  0.00    -0.341 OA
HETATM    4  C8  UNL     1      -2.918   5.550  11.706  1.00  0.00     0.184 C 
HETATM    5  C10 UNL     1      -2.097   4.998  10.584  1.00  0.00     0.195 C 
HETATM    6  C15 UNL     1      -1.973   3.503  10.587  1.00  0.00     0.185 C 
HETATM    7  C16 UNL     1      -3.231   2.796  11.033  1.00  0.00     0.208 C 
ENDROOT
BRANCH   1   8
HETATM    8  O2  UNL     1      -4.969   3.241  14.316  1.00  0.00    -0.285 OA
BRANCH   8   9
HETATM    9  C5  UNL     1      -5.006   2.541  15.499  1.00  0.00     0.287 C 
HETATM   10  O1  UNL     1      -4.916   1.263  15.453  1.00  0.00    -0.260 OA
BRANCH   9  11
HETATM   11  C4  UNL     1      -5.141   3.181  16.777  1.00  0.00     0.084 C 
HETATM   12  C2  UNL     1      -6.302   3.341  17.368  1.00  0.00    -0.082 C 
HETATM   13  C1  UNL     1      -7.565   2.889  16.794  1.00  0.00     0.043 C 
HETATM   14  C3  UNL     1      -6.307   4.040  18.727  1.00  0.00     0.043 C 
ENDBRANCH   9  11
ENDBRANCH   8   9
ENDBRANCH   1   8
BRANCH   7  15
HETATM   15  O8  UNL     1      -2.863   1.454  11.297  1.00  0.00    -0.386 OA
ATOM     16  H8  UNL     1      -3.234   0.942  10.588  1.00  0.00     0.210 HD
ENDBRANCH   7  15
BRANCH   4  17
HETATM   17  C9  UNL     1      -4.168   6.269  11.183  1.00  0.00     0.199 C 
BRANCH  17  18
HETATM   18  O4  UNL     1      -5.063   5.414  10.600  1.00  0.00    -0.398 OA
ATOM     19  H4  UNL     1      -5.470   4.827  11.227  1.00  0.00     0.209 HD
ENDBRANCH  17  18
ENDBRANCH   4  17
BRANCH   6  20
HETATM   20  O7  UNL     1      -1.668   3.022   9.312  1.00  0.00    -0.390 OA
ATOM     21  H7  UNL     1      -0.998   2.350   9.352  1.00  0.00     0.210 HD
ENDBRANCH   6  20
BRANCH   5  22
HETATM   22  O5  UNL     1      -2.618   5.509   9.377  1.00  0.00    -0.310 OA
BRANCH  22  23
HETATM   23  C11 UNL     1      -1.800   6.155   8.464  1.00  0.00     0.262 C 
HETATM   24  O6  UNL     1      -0.582   5.842   8.470  1.00  0.00    -0.265 OA
BRANCH  23  25
HETATM   25  C12 UNL     1      -2.260   7.163   7.509  1.00  0.00     0.077 C 
HETATM   26  C13 UNL     1      -3.726   7.044   7.171  1.00  0.00     0.020 C 
HETATM   27  C14 UNL     1      -1.476   7.110   6.204  1.00  0.00     0.020 C 
ENDBRANCH  23  25
ENDBRANCH  22  23
ENDBRANCH   5  22
TORSDOF 10
ENDMDL
MODEL 5
REMARK VINA RESULT: -7.162548606      2.464      7.510
REMARK  10 active torsions:
REMARK  status: ('A' for Active; 'I' for Inactive)
REMARK    1  A    between atoms: C4_4  and  C5_5 
REMARK    2  A    between atoms: C5_5  and  O2_7 
REMARK    3  A    between atoms: O2_7  and  C6_8 
REMARK    4  A    between atoms: C8_11  and  C9_12 
REMARK    5  A    between atoms: C9_12  and  O4_13 
REMARK    6  A    between atoms: C10_15  and  O5_16 
REMARK    7  A    between atoms: O5_16  and  C11_17 
REMARK    8  A    between atoms: C11_17  and  C12_19 
REMARK    9  A    between atoms: C15_22  and  O7_23 
REMARK   10  A    between atoms: C16_25  and  O8_26 
ROOT
HETATM    1  C6  UNL     1      -4.573   2.693  13.137  1.00  0.00     0.181 C 
HETATM    2  C7  UNL     1      -3.725   3.302  12.355  1.00  0.00     0.100 C 
HETATM    3  O3  UNL     1      -3.225   4.536  12.728  1.00  0.00    -0.341 OA
HETATM    4  C8  UNL     1      -2.769   5.470  11.786  1.00  0.00     0.184 C 
HETATM    5  C10 UNL     1      -1.971   4.887  10.663  1.00  0.00     0.195 C 
HETATM    6  C15 UNL     1      -1.942   3.388  10.640  1.00  0.00     0.185 C 
HETATM    7  C16 UNL     1      -3.247   2.754  11.062  1.00  0.00     0.208 C 
ENDROOT
BRANCH   1   8
HETATM    8  O2  UNL     1      -4.988   3.251  14.335  1.00  0.00    -0.285 OA
BRANCH   8   9
HETATM    9  C5  UNL     1      -5.034   2.547  15.515  1.00  0.00     0.287 C 
HETATM   10  O1  UNL     1      -4.958   1.268  15.465  1.00  0.00    -0.260 OA
BRANCH   9  11
HETATM   11  C4  UNL     1      -5.163   3.185  16.795  1.00  0.00     0.084 C 
HETATM   12  C2  UNL     1      -6.319   3.322  17.403  1.00  0.00    -0.082 C 
HETATM   13  C1  UNL     1      -7.580   2.846  16.847  1.00  0.00     0.043 C 
HETATM   14  C3  UNL     1      -6.318   4.020  18.762  1.00  0.00     0.043 C 
ENDBRANCH   9  11
ENDBRANCH   8   9
ENDBRANCH   1   8
BRANCH   7  15
HETATM   15  O8  UNL     1      -2.966   1.387  11.305  1.00  0.00    -0.386 OA
ATOM     16  H8  UNL     1      -3.657   1.081  11.880  1.00  0.00     0.210 HD
ENDBRANCH   7  15
BRANCH   4  17
HETATM   17  C9  UNL     1      -3.965   6.275  11.264  1.00  0.00     0.199 C 
BRANCH  17  18
HETATM   18  O4  UNL     1      -3.699   7.614  11.171  1.00  0.00    -0.398 OA
ATOM     19  H4  UNL     1      -4.074   8.113  11.887  1.00  0.00     0.209 HD
ENDBRANCH  17  18
ENDBRANCH   4  17
BRANCH   6  20
HETATM   20  O7  UNL     1      -1.654   2.911   9.360  1.00  0.00    -0.390 OA
ATOM     21  H7  UNL     1      -1.201   2.077   9.400  1.00  0.00     0.210 HD
ENDBRANCH   6  20
BRANCH   5  22
HETATM   22  O5  UNL     1      -2.446   5.451   9.460  1.00  0.00    -0.310 OA
BRANCH  22  23
HETATM   23  C11 UNL     1      -1.629   6.248   8.675  1.00  0.00     0.262 C 
HETATM   24  O6  UNL     1      -1.669   7.487   8.886  1.00  0.00    -0.265 OA
BRANCH  23  25
HETATM   25  C12 UNL     1      -0.738   5.744   7.630  1.00  0.00     0.077 C 
HETATM   26  C13 UNL     1       0.682   5.538   8.101  1.00  0.00     0.020 C 
HETATM   27  C14 UNL     1      -0.697   6.669   6.420  1.00  0.00     0.020 C 
ENDBRANCH  23  25
ENDBRANCH  22  23
ENDBRANCH   5  22
TORSDOF 10
ENDMDL
