MODEL 1
REMARK VINA RESULT: -7.489601993      0.000      0.000
REMARK  7 active torsions:
REMARK  status: ('A' for Active; 'I' for Inactive)
REMARK    1  A    between atoms: C2_2  and  S1_3 
REMARK    2  A    between atoms: S1_3  and  C3_4 
REMARK    3  A    between atoms: C4_5  and  O1_6 
REMARK    4  A    between atoms: C5_8  and  C6_9 
REMARK    5  A    between atoms: C7_11  and  C8_12 
REMARK    6  A    between atoms: C8_12  and  C9_13 
REMARK    7  A    between atoms: C12_18  and  O5_19 
ROOT
HETATM    1  C3  UNL     1      -1.158   5.795  10.086  1.00  0.00     0.112 C 
HETATM    2  C4  UNL     1      -1.988   4.663  10.713  1.00  0.00     0.166 C 
HETATM    3  C5  UNL     1      -3.200   5.454  11.084  1.00  0.00     0.184 C 
HETATM    4  O6  UNL     1      -2.639   6.556  11.723  1.00  0.00    -0.369 OA
HETATM    5  C13 UNL     1      -1.520   6.926  10.996  1.00  0.00     0.069 C 
HETATM    6  C14 UNL     1      -1.925   8.167  10.201  1.00  0.00     0.047 C 
HETATM    7  C15 UNL     1      -0.439   7.283  11.976  1.00  0.00     0.047 C 
ENDROOT
BRANCH   3   8
HETATM    8  C6  UNL     1      -4.178   4.743  11.956  1.00  0.00     0.187 C 
HETATM    9  O2  UNL     1      -3.719   4.593  13.267  1.00  0.00    -0.350 OA
HETATM   10  C7  UNL     1      -4.737   3.916  13.938  1.00  0.00     0.267 C 
HETATM   11  O4  UNL     1      -4.584   2.578  13.687  1.00  0.00    -0.358 OA
HETATM   12  C11 UNL     1      -4.493   2.283  12.362  1.00  0.00     0.205 C 
HETATM   13  C12 UNL     1      -4.656   3.441  11.428  1.00  0.00     0.173 C 
BRANCH  10  14
HETATM   14  C8  UNL     1      -4.751   4.230  15.409  1.00  0.00     0.138 C 
BRANCH  14  15
HETATM   15  C9  UNL     1      -4.748   2.983  16.203  1.00  0.00     0.127 C 
HETATM   16  C10 UNL     1      -5.984   2.507  16.858  1.00  0.00     0.091 C 
HETATM   17  O3  UNL     1      -3.717   2.357  16.307  1.00  0.00    -0.298 OA
ENDBRANCH  14  15
ENDBRANCH  10  14
BRANCH  13  18
HETATM   18  O5  UNL     1      -5.999   3.475  11.019  1.00  0.00    -0.391 OA
ATOM     19  H5  UNL     1      -6.283   2.667  10.609  1.00  0.00     0.210 HD
ENDBRANCH  13  18
ENDBRANCH   3   8
BRANCH   2  20
HETATM   20  O1  UNL     1      -1.302   4.196  11.829  1.00  0.00    -0.392 OA
ATOM     21  H1  UNL     1      -0.593   3.640  11.526  1.00  0.00     0.210 HD
ENDBRANCH   2  20
BRANCH   1  22
HETATM   22  S1  UNL     1       0.574   5.422   9.973  1.00  0.00    -0.159 SA
BRANCH  22  23
HETATM   23  C2  UNL     1       1.089   5.643   8.236  1.00  0.00     0.070 C 
HETATM   24  C1  UNL     1      -0.020   5.314   7.276  1.00  0.00     0.016 C 
ENDBRANCH  22  23
ENDBRANCH   1  22
TORSDOF 7
ENDMDL
MODEL 2
REMARK VINA RESULT: -7.445296632      1.760      2.022
REMARK  7 active torsions:
REMARK  status: ('A' for Active; 'I' for Inactive)
REMARK    1  A    between atoms: C2_2  and  S1_3 
REMARK    2  A    between atoms: S1_3  and  C3_4 
REMARK    3  A    between atoms: C4_5  and  O1_6 
REMARK    4  A    between atoms: C5_8  and  C6_9 
REMARK    5  A    between atoms: C7_11  and  C8_12 
REMARK    6  A    between atoms: C8_12  and  C9_13 
REMARK    7  A    between atoms: C12_18  and  O5_19 
ROOT
HETATM    1  C3  UNL     1      -1.956   7.125  11.735  1.00  0.00     0.112 C 
HETATM    2  C4  UNL     1      -2.374   5.661  11.946  1.00  0.00     0.166 C 
HETATM    3  C5  UNL     1      -3.815   5.884  12.268  1.00  0.00     0.184 C 
HETATM    4  O6  UNL     1      -3.742   6.896  13.221  1.00  0.00    -0.369 OA
HETATM    5  C13 UNL     1      -2.774   7.791  12.795  1.00  0.00     0.069 C 
HETATM    6  C14 UNL     1      -3.530   8.996  12.236  1.00  0.00     0.047 C 
HETATM    7  C15 UNL     1      -1.979   8.207  14.000  1.00  0.00     0.047 C 
ENDROOT
BRANCH   3   8
HETATM    8  C6  UNL     1      -4.542   4.688  12.782  1.00  0.00     0.187 C 
HETATM    9  O2  UNL     1      -4.018   4.218  13.989  1.00  0.00    -0.350 OA
HETATM   10  C7  UNL     1      -4.799   3.112  14.324  1.00  0.00     0.267 C 
HETATM   11  O4  UNL     1      -4.304   2.032  13.641  1.00  0.00    -0.358 OA
HETATM   12  C11 UNL     1      -4.180   2.248  12.304  1.00  0.00     0.205 C 
HETATM   13  C12 UNL     1      -4.674   3.572  11.813  1.00  0.00     0.173 C 
BRANCH  10  14
HETATM   14  C8  UNL     1      -4.849   2.883  15.810  1.00  0.00     0.138 C 
BRANCH  14  15
HETATM   15  C9  UNL     1      -6.233   3.027  16.308  1.00  0.00     0.127 C 
HETATM   16  C10 UNL     1      -6.841   4.366  16.458  1.00  0.00     0.091 C 
HETATM   17  O3  UNL     1      -6.861   2.031  16.590  1.00  0.00    -0.298 OA
ENDBRANCH  14  15
ENDBRANCH  10  14
BRANCH  13  18
HETATM   18  O5  UNL     1      -5.991   3.396  11.356  1.00  0.00    -0.391 OA
ATOM     19  H5  UNL     1      -6.214   2.484  11.210  1.00  0.00     0.210 HD
ENDBRANCH  13  18
ENDBRANCH   3   8
BRANCH   2  20
HETATM   20  O1  UNL     1      -1.661   5.164  13.031  1.00  0.00    -0.392 OA
ATOM     21  H1  UNL     1      -1.010   4.556  12.701  1.00  0.00     0.210 HD
ENDBRANCH   2  20
BRANCH   1  22
HETATM   22  S1  UNL     1      -0.203   7.382  11.840  1.00  0.00    -0.159 SA
BRANCH  22  23
HETATM   23  C2  UNL     1       0.601   6.312  10.597  1.00  0.00     0.070 C 
HETATM   24  C1  UNL     1       2.076   6.174  10.847  1.00  0.00     0.016 C 
ENDBRANCH  22  23
ENDBRANCH   1  22
TORSDOF 7
ENDMDL
MODEL 3
REMARK VINA RESULT: -7.298641368      1.735      2.500
REMARK  7 active torsions:
REMARK  status: ('A' for Active; 'I' for Inactive)
REMARK    1  A    between atoms: C2_2  and  S1_3 
REMARK    2  A    between atoms: S1_3  and  C3_4 
REMARK    3  A    between atoms: C4_5  and  O1_6 
REMARK    4  A    between atoms: C5_8  and  C6_9 
REMARK    5  A    between atoms: C7_11  and  C8_12 
REMARK    6  A    between atoms: C8_12  and  C9_13 
REMARK    7  A    between atoms: C12_18  and  O5_19 
ROOT
HETATM    1  C3  UNL     1      -2.393   6.357  10.405  1.00  0.00     0.112 C 
HETATM    2  C4  UNL     1      -3.727   5.812  10.940  1.00  0.00     0.166 C 
HETATM    3  C5  UNL     1      -3.223   5.180  12.196  1.00  0.00     0.184 C 
HETATM    4  O6  UNL     1      -2.129   4.454  11.733  1.00  0.00    -0.369 OA
HETATM    5  C13 UNL     1      -1.473   5.249  10.808  1.00  0.00     0.069 C 
HETATM    6  C14 UNL     1      -0.234   5.789  11.521  1.00  0.00     0.047 C 
HETATM    7  C15 UNL     1      -1.055   4.365   9.667  1.00  0.00     0.047 C 
ENDROOT
BRANCH   3   8
HETATM    8  C6  UNL     1      -4.206   4.313  12.908  1.00  0.00     0.187 C 
HETATM    9  O2  UNL     1      -3.842   4.064  14.233  1.00  0.00    -0.350 OA
HETATM   10  C7  UNL     1      -4.851   3.249  14.746  1.00  0.00     0.267 C 
HETATM   11  O4  UNL     1      -4.568   1.958  14.382  1.00  0.00    -0.358 OA
HETATM   12  C11 UNL     1      -4.348   1.809  13.048  1.00  0.00     0.205 C 
HETATM   13  C12 UNL     1      -4.531   3.041  12.218  1.00  0.00     0.173 C 
BRANCH  10  14
HETATM   14  C8  UNL     1      -5.008   3.409  16.233  1.00  0.00     0.138 C 
BRANCH  14  15
HETATM   15  C9  UNL     1      -6.114   2.563  16.729  1.00  0.00     0.127 C 
HETATM   16  C10 UNL     1      -7.488   3.101  16.818  1.00  0.00     0.091 C 
HETATM   17  O3  UNL     1      -5.877   1.424  17.061  1.00  0.00    -0.298 OA
ENDBRANCH  14  15
ENDBRANCH  10  14
BRANCH  13  18
HETATM   18  O5  UNL     1      -5.836   3.017  11.698  1.00  0.00    -0.391 OA
ATOM     19  H5  UNL     1      -5.995   2.274  11.128  1.00  0.00     0.210 HD
ENDBRANCH  13  18
ENDBRANCH   3   8
BRANCH   2  20
HETATM   20  O1  UNL     1      -4.202   4.873  10.031  1.00  0.00    -0.392 OA
ATOM     21  H1  UNL     1      -3.904   4.016  10.312  1.00  0.00     0.210 HD
ENDBRANCH   2  20
BRANCH   1  22
HETATM   22  S1  UNL     1      -2.429   6.736   8.672  1.00  0.00    -0.159 SA
BRANCH  22  23
HETATM   23  C2  UNL     1      -3.791   7.916   8.379  1.00  0.00     0.070 C 
HETATM   24  C1  UNL     1      -4.437   7.705   7.039  1.00  0.00     0.016 C 
ENDBRANCH  22  23
ENDBRANCH   1  22
TORSDOF 7
ENDMDL
MODEL 4
REMARK VINA RESULT: -7.285385830      2.597      3.687
REMARK  7 active torsions:
REMARK  status: ('A' for Active; 'I' for Inactive)
REMARK    1  A    between atoms: C2_2  and  S1_3 
REMARK    2  A    between atoms: S1_3  and  C3_4 
REMARK    3  A    between atoms: C4_5  and  O1_6 
REMARK    4  A    between atoms: C5_8  and  C6_9 
REMARK    5  A    between atoms: C7_11  and  C8_12 
REMARK    6  A    between atoms: C8_12  and  C9_13 
REMARK    7  A    between atoms: C12_18  and  O5_19 
ROOT
HETATM    1  C3  UNL     1      -2.883   7.872  12.285  1.00  0.00     0.112 C 
HETATM    2  C4  UNL     1      -3.288   6.820  13.331  1.00  0.00     0.166 C 
HETATM    3  C5  UNL     1      -3.810   5.772  12.404  1.00  0.00     0.184 C 
HETATM    4  O6  UNL     1      -4.645   6.514  11.573  1.00  0.00    -0.369 OA
HETATM    5  C13 UNL     1      -3.994   7.706  11.298  1.00  0.00     0.069 C 
HETATM    6  C14 UNL     1      -3.453   7.572   9.874  1.00  0.00     0.047 C 
HETATM    7  C15 UNL     1      -5.017   8.804  11.349  1.00  0.00     0.047 C 
ENDROOT
BRANCH   3   8
HETATM    8  C6  UNL     1      -4.537   4.649  13.062  1.00  0.00     0.187 C 
HETATM    9  O2  UNL     1      -4.014   4.333  14.319  1.00  0.00    -0.350 OA
HETATM   10  C7  UNL     1      -4.795   3.278  14.789  1.00  0.00     0.267 C 
HETATM   11  O4  UNL     1      -4.299   2.121  14.246  1.00  0.00    -0.358 OA
HETATM   12  C11 UNL     1      -4.175   2.168  12.892  1.00  0.00     0.205 C 
HETATM   13  C12 UNL     1      -4.669   3.421  12.239  1.00  0.00     0.173 C 
BRANCH  10  14
HETATM   14  C8  UNL     1      -4.845   3.236  16.291  1.00  0.00     0.138 C 
BRANCH  14  15
HETATM   15  C9  UNL     1      -6.070   2.544  16.747  1.00  0.00     0.127 C 
HETATM   16  C10 UNL     1      -7.368   3.251  16.766  1.00  0.00     0.091 C 
HETATM   17  O3  UNL     1      -5.993   1.390  17.104  1.00  0.00    -0.298 OA
ENDBRANCH  14  15
ENDBRANCH  10  14
BRANCH  13  18
HETATM   18  O5  UNL     1      -5.985   3.189  11.807  1.00  0.00    -0.391 OA
ATOM     19  H5  UNL     1      -6.533   2.803  12.480  1.00  0.00     0.210 HD
ENDBRANCH  13  18
ENDBRANCH   3   8
BRANCH   2  20
HETATM   20  O1  UNL     1      -4.290   7.368  14.125  1.00  0.00    -0.392 OA
ATOM     21  H1  UNL     1      -4.632   6.679  14.683  1.00  0.00     0.210 HD
ENDBRANCH   2  20
BRANCH   1  22
HETATM   22  S1  UNL     1      -2.690   9.501  12.961  1.00  0.00    -0.159 SA
BRANCH  22  23
HETATM   23  C2  UNL     1      -1.527   9.398  14.365  1.00  0.00     0.070 C 
HETATM   24  C1  UNL     1      -1.871  10.377  15.451  1.00  0.00     0.016 C 
ENDBRANCH  22  23
ENDBRANCH   1  22
TORSDOF 7
ENDMDL
MODEL 5
REMARK VINA RESULT: -7.254038489      2.235      3.417
REMARK  7 active torsions:
REMARK  status: ('A' for Active; 'I' for Inactive)
REMARK    1  A    between atoms: C2_2  and  S1_3 
REMARK    2  A    between atoms: S1_3  and  C3_4 
REMARK    3  A    between atoms: C4_5  and  O1_6 
REMARK    4  A    between atoms: C5_8  and  C6_9 
REMARK    5  A    between atoms: C7_11  and  C8_12 
REMARK    6  A    between atoms: C8_12  and  C9_13 
REMARK    7  A    between atoms: C12_18  and  O5_19 
ROOT
HETATM    1  C3  UNL     1      -3.316   7.589  11.342  1.00  0.00     0.112 C 
HETATM    2  C4  UNL     1      -4.466   6.771  11.951  1.00  0.00     0.166 C 
HETATM    3  C5  UNL     1      -3.666   5.637  12.503  1.00  0.00     0.184 C 
HETATM    4  O6  UNL     1      -2.861   5.300  11.419  1.00  0.00    -0.369 OA
HETATM    5  C13 UNL     1      -2.444   6.484  10.834  1.00  0.00     0.069 C 
HETATM    6  C14 UNL     1      -0.992   6.681  11.269  1.00  0.00     0.047 C 
HETATM    7  C15 UNL     1      -2.506   6.302   9.345  1.00  0.00     0.047 C 
ENDROOT
BRANCH   3   8
HETATM    8  C6  UNL     1      -4.465   4.474  12.986  1.00  0.00     0.187 C 
HETATM    9  O2  UNL     1      -4.015   3.986  14.215  1.00  0.00    -0.350 OA
HETATM   10  C7  UNL     1      -4.856   2.915  14.516  1.00  0.00     0.267 C 
HETATM   11  O4  UNL     1      -4.380   1.813  13.856  1.00  0.00    -0.358 OA
HETATM   12  C11 UNL     1      -4.189   2.020  12.526  1.00  0.00     0.205 C 
HETATM   13  C12 UNL     1      -4.603   3.363  12.012  1.00  0.00     0.173 C 
BRANCH  10  14
HETATM   14  C8  UNL     1      -4.981   2.692  15.999  1.00  0.00     0.138 C 
BRANCH  14  15
HETATM   15  C9  UNL     1      -6.361   2.972  16.449  1.00  0.00     0.127 C 
HETATM   16  C10 UNL     1      -6.816   4.364  16.650  1.00  0.00     0.091 C 
HETATM   17  O3  UNL     1      -7.111   2.044  16.649  1.00  0.00    -0.298 OA
ENDBRANCH  14  15
ENDBRANCH  10  14
BRANCH  13  18
HETATM   18  O5  UNL     1      -5.905   3.242  11.499  1.00  0.00    -0.391 OA
ATOM     19  H5  UNL     1      -5.922   3.104  10.560  1.00  0.00     0.210 HD
ENDBRANCH  13  18
ENDBRANCH   3   8
BRANCH   2  20
HETATM   20  O1  UNL     1      -5.304   6.371  10.915  1.00  0.00    -0.392 OA
ATOM     21  H1  UNL     1      -5.336   5.422  10.915  1.00  0.00     0.210 HD
ENDBRANCH   2  20
BRANCH   1  22
HETATM   22  S1  UNL     1      -3.852   8.766  10.127  1.00  0.00    -0.159 SA
BRANCH  22  23
HETATM   23  C2  UNL     1      -4.744  10.105  10.992  1.00  0.00     0.070 C 
HETATM   24  C1  UNL     1      -6.227   9.864  11.020  1.00  0.00     0.016 C 
ENDBRANCH  22  23
ENDBRANCH   1  22
TORSDOF 7
ENDMDL
