MODEL 1
REMARK VINA RESULT: -6.905472767      0.000      0.000
REMARK  7 active torsions:
REMARK  status: ('A' for Active; 'I' for Inactive)
REMARK    1  A    between atoms: C7_9  and  C8_10 
REMARK    2  A    between atoms: C8_10  and  O3_11 
REMARK    3  A    between atoms: O3_11  and  C9_12 
REMARK    4  A    between atoms: C9_12  and  C10_13 
REMARK    5  A    between atoms: C10_13  and  C11_14 
REMARK    6  A    between atoms: N1_15  and  O4_17 
REMARK    7  A    between atoms: C15_25  and  O5_26 
ROOT
HETATM    1  C1  UNL     1      -1.199   3.179  10.161  1.00  0.00     0.078 C 
HETATM    2  C2  UNL     1      -1.516   4.648  10.319  1.00  0.00     0.159 C 
HETATM    3  C3  UNL     1      -1.221   5.300   8.963  1.00  0.00     0.078 C 
HETATM    4  O1  UNL     1      -2.826   4.787  10.679  1.00  0.00    -0.337 OA
HETATM    5  C4  UNL     1      -2.775   4.713  12.076  1.00  0.00     0.225 C 
HETATM    6  C5  UNL     1      -3.734   5.399  12.834  1.00  0.00    -0.115 C 
HETATM    7  C6  UNL     1      -4.950   5.774  13.420  1.00  0.00     0.227 C 
HETATM    8  O2  UNL     1      -5.469   4.976  14.429  1.00  0.00    -0.338 OA
HETATM    9  C7  UNL     1      -6.308   5.846  15.078  1.00  0.00     0.347 C 
HETATM   10  N2  UNL     1      -5.492   7.004  15.309  1.00  0.00    -0.036 N 
ATOM     11  H21 UNL     1      -5.001   6.983  16.203  1.00  0.00     0.281 HD
ATOM     12  H22 UNL     1      -6.031   7.853  15.484  1.00  0.00     0.281 HD
HETATM   13  C12 UNL     1      -4.611   7.107  14.173  1.00  0.00     0.251 C 
HETATM   14  C13 UNL     1      -3.229   7.228  14.658  1.00  0.00     0.008 C 
HETATM   15  C14 UNL     1      -2.053   7.557  13.869  1.00  0.00     0.005 C 
HETATM   16  C15 UNL     1      -1.570   6.901  12.674  1.00  0.00     0.173 C 
HETATM   17  C16 UNL     1      -1.445   5.481  12.386  1.00  0.00     0.197 C 
HETATM   18  O6  UNL     1      -0.718   5.285  11.246  1.00  0.00    -0.344 OA
ENDROOT
BRANCH   9  19
HETATM   19  C8  UNL     1      -6.841   5.241  16.356  1.00  0.00     0.229 C 
BRANCH  19  20
HETATM   20  O3  UNL     1      -7.216   3.931  16.211  1.00  0.00    -0.387 OA
BRANCH  20  21
HETATM   21  C9  UNL     1      -7.141   3.233  17.388  1.00  0.00     0.173 C 
BRANCH  21  22
HETATM   22  C10 UNL     1      -5.851   2.522  17.632  1.00  0.00     0.073 C 
BRANCH  22  23
HETATM   23  C11 UNL     1      -5.360   2.016  16.309  1.00  0.00     0.089 C 
HETATM   24  N1  UNL     1      -4.283   2.459  15.753  1.00  0.00    -0.284 N 
ATOM     25  H1  UNL     1      -4.017   2.062  14.852  1.00  0.00     0.192 HD
BRANCH  24  26
HETATM   26  O4  UNL     1      -3.477   3.418  16.281  1.00  0.00    -0.291 OA
ATOM     27  H4  UNL     1      -2.760   3.836  15.819  1.00  0.00     0.244 HD
ENDBRANCH  24  26
ENDBRANCH  22  23
ENDBRANCH  21  22
ENDBRANCH  20  21
ENDBRANCH  19  20
ENDBRANCH   9  19
BRANCH  16  28
HETATM   28  O5  UNL     1      -0.212   7.368  12.514  1.00  0.00    -0.389 OA
ATOM     29  H5  UNL     1       0.309   6.807  13.077  1.00  0.00     0.210 HD
ENDBRANCH  16  28
TORSDOF 7
ENDMDL
MODEL 2
REMARK VINA RESULT: -6.799735139      2.073      6.238
REMARK  7 active torsions:
REMARK  status: ('A' for Active; 'I' for Inactive)
REMARK    1  A    between atoms: C7_9  and  C8_10 
REMARK    2  A    between atoms: C8_10  and  O3_11 
REMARK    3  A    between atoms: O3_11  and  C9_12 
REMARK    4  A    between atoms: C9_12  and  C10_13 
REMARK    5  A    between atoms: C10_13  and  C11_14 
REMARK    6  A    between atoms: N1_15  and  O4_17 
REMARK    7  A    between atoms: C15_25  and  O5_26 
ROOT
HETATM    1  C1  UNL     1      -7.110   2.569  17.029  1.00  0.00     0.078 C 
HETATM    2  C2  UNL     1      -6.432   3.914  17.146  1.00  0.00     0.159 C 
HETATM    3  C3  UNL     1      -6.397   4.249  18.642  1.00  0.00     0.078 C 
HETATM    4  O1  UNL     1      -5.177   3.830  16.611  1.00  0.00    -0.337 OA
HETATM    5  C4  UNL     1      -5.394   4.129  15.261  1.00  0.00     0.225 C 
HETATM    6  C5  UNL     1      -4.373   4.743  14.523  1.00  0.00    -0.115 C 
HETATM    7  C6  UNL     1      -3.170   4.960  13.838  1.00  0.00     0.227 C 
HETATM    8  O2  UNL     1      -2.993   4.348  12.606  1.00  0.00    -0.338 OA
HETATM    9  C7  UNL     1      -2.025   5.135  12.033  1.00  0.00     0.347 C 
HETATM   10  N2  UNL     1      -2.523   6.470  12.201  1.00  0.00    -0.036 N 
ATOM     11  H21 UNL     1      -3.094   6.793  11.420  1.00  0.00     0.281 HD
ATOM     12  H22 UNL     1      -1.799   7.186  12.129  1.00  0.00     0.281 HD
HETATM   13  C12 UNL     1      -3.219   6.483  13.464  1.00  0.00     0.251 C 
HETATM   14  C13 UNL     1      -4.562   7.042  13.255  1.00  0.00     0.008 C 
HETATM   15  C14 UNL     1      -5.517   7.424  14.283  1.00  0.00     0.005 C 
HETATM   16  C15 UNL     1      -6.028   6.616  15.368  1.00  0.00     0.173 C 
HETATM   17  C16 UNL     1      -6.496   5.239  15.354  1.00  0.00     0.197 C 
HETATM   18  O6  UNL     1      -7.124   4.933  16.529  1.00  0.00    -0.344 OA
ENDROOT
BRANCH   9  19
HETATM   19  C8  UNL     1      -1.812   4.768  10.582  1.00  0.00     0.229 C 
BRANCH  19  20
HETATM   20  O3  UNL     1      -2.738   3.871  10.117  1.00  0.00    -0.387 OA
BRANCH  20  21
HETATM   21  C9  UNL     1      -2.351   2.571  10.318  1.00  0.00     0.173 C 
BRANCH  21  22
HETATM   22  C10 UNL     1      -3.450   1.561  10.288  1.00  0.00     0.073 C 
BRANCH  22  23
HETATM   23  C11 UNL     1      -4.250   1.732  11.544  1.00  0.00     0.089 C 
HETATM   24  N1  UNL     1      -5.124   2.670  11.689  1.00  0.00    -0.284 N 
ATOM     25  H1  UNL     1      -5.627   2.717  12.575  1.00  0.00     0.192 HD
BRANCH  24  26
HETATM   26  O4  UNL     1      -5.425   3.600  10.744  1.00  0.00    -0.291 OA
ATOM     27  H4  UNL     1      -6.211   4.133  10.741  1.00  0.00     0.244 HD
ENDBRANCH  24  26
ENDBRANCH  22  23
ENDBRANCH  21  22
ENDBRANCH  20  21
ENDBRANCH  19  20
ENDBRANCH   9  19
BRANCH  16  28
HETATM   28  O5  UNL     1      -7.188   7.330  15.852  1.00  0.00    -0.389 OA
ATOM     29  H5  UNL     1      -7.896   7.067  15.276  1.00  0.00     0.210 HD
ENDBRANCH  16  28
TORSDOF 7
ENDMDL
MODEL 3
REMARK VINA RESULT: -6.778037042      3.421      4.576
REMARK  7 active torsions:
REMARK  status: ('A' for Active; 'I' for Inactive)
REMARK    1  A    between atoms: C7_9  and  C8_10 
REMARK    2  A    between atoms: C8_10  and  O3_11 
REMARK    3  A    between atoms: O3_11  and  C9_12 
REMARK    4  A    between atoms: C9_12  and  C10_13 
REMARK    5  A    between atoms: C10_13  and  C11_14 
REMARK    6  A    between atoms: N1_15  and  O4_17 
REMARK    7  A    between atoms: C15_25  and  O5_26 
ROOT
HETATM    1  C1  UNL     1      -5.844   9.494   9.020  1.00  0.00     0.078 C 
HETATM    2  C2  UNL     1      -5.452   9.860  10.433  1.00  0.00     0.159 C 
HETATM    3  C3  UNL     1      -5.967  11.285  10.667  1.00  0.00     0.078 C 
HETATM    4  O1  UNL     1      -6.013   8.964  11.299  1.00  0.00    -0.337 OA
HETATM    5  C4  UNL     1      -5.052   7.949  11.362  1.00  0.00     0.225 C 
HETATM    6  C5  UNL     1      -4.930   7.194  12.537  1.00  0.00    -0.115 C 
HETATM    7  C6  UNL     1      -5.196   6.289  13.573  1.00  0.00     0.227 C 
HETATM    8  O2  UNL     1      -5.112   4.932  13.301  1.00  0.00    -0.338 OA
HETATM    9  C7  UNL     1      -4.925   4.401  14.552  1.00  0.00     0.347 C 
HETATM   10  N2  UNL     1      -3.849   5.178  15.099  1.00  0.00    -0.036 N 
ATOM     11  H21 UNL     1      -2.927   4.784  14.913  1.00  0.00     0.281 HD
ATOM     12  H22 UNL     1      -3.797   5.140  16.117  1.00  0.00     0.281 HD
HETATM   13  C12 UNL     1      -4.017   6.513  14.583  1.00  0.00     0.251 C 
HETATM   14  C13 UNL     1      -2.747   6.950  13.987  1.00  0.00     0.008 C 
HETATM   15  C14 UNL     1      -2.409   8.291  13.536  1.00  0.00     0.005 C 
HETATM   16  C15 UNL     1      -3.129   9.122  12.597  1.00  0.00     0.173 C 
HETATM   17  C16 UNL     1      -3.718   8.770  11.315  1.00  0.00     0.197 C 
HETATM   18  O6  UNL     1      -4.089   9.894  10.632  1.00  0.00    -0.344 OA
ENDROOT
BRANCH   9  19
HETATM   19  C8  UNL     1      -4.602   2.926  14.477  1.00  0.00     0.229 C 
BRANCH  19  20
HETATM   20  O3  UNL     1      -3.926   2.585  13.334  1.00  0.00    -0.387 OA
BRANCH  20  21
HETATM   21  C9  UNL     1      -4.268   1.339  12.878  1.00  0.00     0.173 C 
BRANCH  21  22
HETATM   22  C10 UNL     1      -4.464   1.226  11.402  1.00  0.00     0.073 C 
BRANCH  22  23
HETATM   23  C11 UNL     1      -4.002   2.513  10.788  1.00  0.00     0.089 C 
HETATM   24  N1  UNL     1      -4.774   3.541  10.667  1.00  0.00    -0.284 N 
ATOM     25  H1  UNL     1      -4.382   4.379  10.238  1.00  0.00     0.192 HD
BRANCH  24  26
HETATM   26  O4  UNL     1      -6.071   3.587  11.069  1.00  0.00    -0.291 OA
ATOM     27  H4  UNL     1      -6.740   4.135  10.677  1.00  0.00     0.244 HD
ENDBRANCH  24  26
ENDBRANCH  22  23
ENDBRANCH  21  22
ENDBRANCH  20  21
ENDBRANCH  19  20
ENDBRANCH   9  19
BRANCH  16  28
HETATM   28  O5  UNL     1      -2.198  10.166  12.232  1.00  0.00    -0.389 OA
ATOM     29  H5  UNL     1      -2.708  10.779  11.715  1.00  0.00     0.210 HD
ENDBRANCH  16  28
TORSDOF 7
ENDMDL
MODEL 4
REMARK VINA RESULT: -6.766050303      2.378      3.570
REMARK  7 active torsions:
REMARK  status: ('A' for Active; 'I' for Inactive)
REMARK    1  A    between atoms: C7_9  and  C8_10 
REMARK    2  A    between atoms: C8_10  and  O3_11 
REMARK    3  A    between atoms: O3_11  and  C9_12 
REMARK    4  A    between atoms: C9_12  and  C10_13 
REMARK    5  A    between atoms: C10_13  and  C11_14 
REMARK    6  A    between atoms: N1_15  and  O4_17 
REMARK    7  A    between atoms: C15_25  and  O5_26 
ROOT
HETATM    1  C1  UNL     1       1.648   5.419   9.246  1.00  0.00     0.078 C 
HETATM    2  C2  UNL     1       0.250   5.454   8.673  1.00  0.00     0.159 C 
HETATM    3  C3  UNL     1       0.411   5.582   7.153  1.00  0.00     0.078 C 
HETATM    4  O1  UNL     1      -0.406   4.308   9.023  1.00  0.00    -0.337 OA
HETATM    5  C4  UNL     1      -0.973   4.638  10.259  1.00  0.00     0.225 C 
HETATM    6  C5  UNL     1      -2.172   4.026  10.649  1.00  0.00    -0.115 C 
HETATM    7  C6  UNL     1      -3.103   3.066  11.067  1.00  0.00     0.227 C 
HETATM    8  O2  UNL     1      -3.045   2.621  12.379  1.00  0.00    -0.338 OA
HETATM    9  C7  UNL     1      -4.315   2.137  12.573  1.00  0.00     0.347 C 
HETATM   10  N2  UNL     1      -5.163   3.205  12.124  1.00  0.00    -0.036 N 
ATOM     11  H21 UNL     1      -5.417   3.860  12.864  1.00  0.00     0.281 HD
ATOM     12  H22 UNL     1      -6.110   2.904  11.895  1.00  0.00     0.281 HD
HETATM   13  C12 UNL     1      -4.475   3.826  11.020  1.00  0.00     0.251 C 
HETATM   14  C13 UNL     1      -4.406   5.274  11.262  1.00  0.00     0.008 C 
HETATM   15  C14 UNL     1      -3.984   6.298  10.320  1.00  0.00     0.005 C 
HETATM   16  C15 UNL     1      -2.744   6.369   9.578  1.00  0.00     0.173 C 
HETATM   17  C16 UNL     1      -1.383   6.134  10.031  1.00  0.00     0.197 C 
HETATM   18  O6  UNL     1      -0.485   6.544   9.086  1.00  0.00    -0.344 OA
ENDROOT
BRANCH   9  19
HETATM   19  C8  UNL     1      -4.547   1.775  14.022  1.00  0.00     0.229 C 
BRANCH  19  20
HETATM   20  O3  UNL     1      -4.521   2.864  14.854  1.00  0.00    -0.387 OA
BRANCH  20  21
HETATM   21  C9  UNL     1      -5.039   2.585  16.093  1.00  0.00     0.173 C 
BRANCH  21  22
HETATM   22  C10 UNL     1      -6.443   3.040  16.320  1.00  0.00     0.073 C 
BRANCH  22  23
HETATM   23  C11 UNL     1      -6.408   4.525  16.519  1.00  0.00     0.089 C 
HETATM   24  N1  UNL     1      -6.397   5.357  15.533  1.00  0.00    -0.284 N 
ATOM     25  H1  UNL     1      -6.372   6.353  15.754  1.00  0.00     0.192 HD
BRANCH  24  26
HETATM   26  O4  UNL     1      -6.416   5.004  14.221  1.00  0.00    -0.291 OA
ATOM     27  H4  UNL     1      -6.814   4.212  13.880  1.00  0.00     0.244 HD
ENDBRANCH  24  26
ENDBRANCH  22  23
ENDBRANCH  21  22
ENDBRANCH  20  21
ENDBRANCH  19  20
ENDBRANCH   9  19
BRANCH  16  28
HETATM   28  O5  UNL     1      -2.677   7.729   9.094  1.00  0.00    -0.389 OA
ATOM     29  H5  UNL     1      -2.473   8.253   9.860  1.00  0.00     0.210 HD
ENDBRANCH  16  28
TORSDOF 7
ENDMDL
MODEL 5
REMARK VINA RESULT: -6.684219144      4.646      6.689
REMARK  7 active torsions:
REMARK  status: ('A' for Active; 'I' for Inactive)
REMARK    1  A    between atoms: C7_9  and  C8_10 
REMARK    2  A    between atoms: C8_10  and  O3_11 
REMARK    3  A    between atoms: O3_11  and  C9_12 
REMARK    4  A    between atoms: C9_12  and  C10_13 
REMARK    5  A    between atoms: C10_13  and  C11_14 
REMARK    6  A    between atoms: N1_15  and  O4_17 
REMARK    7  A    between atoms: C15_25  and  O5_26 
ROOT
HETATM    1  C1  UNL     1      -3.802   2.014  10.596  1.00  0.00     0.078 C 
HETATM    2  C2  UNL     1      -3.041   3.217  11.102  1.00  0.00     0.159 C 
HETATM    3  C3  UNL     1      -1.555   2.846  11.033  1.00  0.00     0.078 C 
HETATM    4  O1  UNL     1      -3.336   4.295  10.316  1.00  0.00    -0.337 OA
HETATM    5  C4  UNL     1      -4.470   4.832  10.936  1.00  0.00     0.225 C 
HETATM    6  C5  UNL     1      -4.711   6.210  10.850  1.00  0.00    -0.115 C 
HETATM    7  C6  UNL     1      -5.029   7.478  10.346  1.00  0.00     0.227 C 
HETATM    8  O2  UNL     1      -6.351   7.745  10.023  1.00  0.00    -0.338 OA
HETATM    9  C7  UNL     1      -6.383   9.116  10.065  1.00  0.00     0.347 C 
HETATM   10  N2  UNL     1      -5.786   9.436  11.331  1.00  0.00    -0.036 N 
ATOM     11  H21 UNL     1      -6.461   9.505  12.093  1.00  0.00     0.281 HD
ATOM     12  H22 UNL     1      -5.439  10.394  11.386  1.00  0.00     0.281 HD
HETATM   13  C12 UNL     1      -4.767   8.441  11.556  1.00  0.00     0.251 C 
HETATM   14  C13 UNL     1      -4.967   7.855  12.888  1.00  0.00     0.008 C 
HETATM   15  C14 UNL     1      -4.058   6.970  13.598  1.00  0.00     0.005 C 
HETATM   16  C15 UNL     1      -3.493   5.720  13.140  1.00  0.00     0.173 C 
HETATM   17  C16 UNL     1      -4.137   4.612  12.452  1.00  0.00     0.197 C 
HETATM   18  O6  UNL     1      -3.312   3.524  12.418  1.00  0.00    -0.344 OA
ENDROOT
BRANCH   9  19
HETATM   19  C8  UNL     1      -7.798   9.634   9.939  1.00  0.00     0.229 C 
BRANCH  19  20
HETATM   20  O3  UNL     1      -8.242   9.662   8.643  1.00  0.00    -0.387 OA
BRANCH  20  21
HETATM   21  C9  UNL     1      -7.748  10.735   7.946  1.00  0.00     0.173 C 
BRANCH  21  22
HETATM   22  C10 UNL     1      -7.402  10.470   6.518  1.00  0.00     0.073 C 
BRANCH  22  23
HETATM   23  C11 UNL     1      -6.151   9.645   6.505  1.00  0.00     0.089 C 
HETATM   24  N1  UNL     1      -6.159   8.370   6.711  1.00  0.00    -0.284 N 
ATOM     25  H1  UNL     1      -5.264   7.881   6.685  1.00  0.00     0.192 HD
BRANCH  24  26
HETATM   26  O4  UNL     1      -7.272   7.633   6.960  1.00  0.00    -0.291 OA
ATOM     27  H4  UNL     1      -8.066   7.969   7.360  1.00  0.00     0.244 HD
ENDBRANCH  24  26
ENDBRANCH  22  23
ENDBRANCH  21  22
ENDBRANCH  20  21
ENDBRANCH  19  20
ENDBRANCH   9  19
BRANCH  16  28
HETATM   28  O5  UNL     1      -2.976   5.085  14.330  1.00  0.00    -0.389 OA
ATOM     29  H5  UNL     1      -2.686   4.227  14.044  1.00  0.00     0.210 HD
ENDBRANCH  16  28
TORSDOF 7
ENDMDL
