MODEL 1
REMARK VINA RESULT: -4.874019072      0.000      0.000
REMARK  1 active torsions:
REMARK  status: ('A' for Active; 'I' for Inactive)
REMARK    1  A    between atoms: C2_2  and  N1_3 
ROOT
HETATM    1  N1  UNL     1      -4.980   3.321  16.333  1.00  0.00     0.118 N 
HETATM    2  C3  UNL     1      -5.633   4.588  16.212  1.00  0.00     0.310 C 
HETATM    3  C4  UNL     1      -5.437   4.979  14.769  1.00  0.00     0.257 C 
HETATM    4  C5  UNL     1      -4.130   5.721  14.618  1.00  0.00     0.018 C 
HETATM    5  C6  UNL     1      -4.229   7.167  14.969  1.00  0.00     0.012 C 
HETATM    6  C7  UNL     1      -3.869   5.496  13.124  1.00  0.00     0.037 C 
HETATM    7  C8  UNL     1      -4.206   4.007  13.036  1.00  0.00     0.275 C 
HETATM    8  N2  UNL     1      -5.188   3.753  14.072  1.00  0.00     0.123 N 
HETATM    9  C9  UNL     1      -4.691   2.802  15.039  1.00  0.00     0.543 C 
ENDROOT
BRANCH   1  10
HETATM   10  C2  UNL     1      -5.815   2.484  17.147  1.00  0.00     0.270 C 
HETATM   11  C1  UNL     1      -7.271   2.840  17.071  1.00  0.00     0.037 C 
ENDBRANCH   1  10
TORSDOF 1
ENDMDL
MODEL 2
REMARK VINA RESULT: -4.717890370      1.270      3.598
REMARK  1 active torsions:
REMARK  status: ('A' for Active; 'I' for Inactive)
REMARK    1  A    between atoms: C2_2  and  N1_3 
ROOT
HETATM    1  N1  UNL     1      -4.788   3.286  13.843  1.00  0.00     0.118 N 
HETATM    2  C3  UNL     1      -4.599   4.617  14.329  1.00  0.00     0.310 C 
HETATM    3  C4  UNL     1      -4.729   4.497  15.826  1.00  0.00     0.257 C 
HETATM    4  C5  UNL     1      -6.181   4.637  16.221  1.00  0.00     0.018 C 
HETATM    5  C6  UNL     1      -6.629   6.055  16.323  1.00  0.00     0.012 C 
HETATM    6  C7  UNL     1      -6.153   3.930  17.582  1.00  0.00     0.037 C 
HETATM    7  C8  UNL     1      -5.318   2.705  17.207  1.00  0.00     0.275 C 
HETATM    8  N2  UNL     1      -4.451   3.123  16.124  1.00  0.00     0.123 N 
HETATM    9  C9  UNL     1      -4.713   2.362  14.923  1.00  0.00     0.543 C 
ENDROOT
BRANCH   1  10
HETATM   10  C2  UNL     1      -3.829   3.071  12.796  1.00  0.00     0.270 C 
HETATM   11  C1  UNL     1      -3.935   1.715  12.161  1.00  0.00     0.037 C 
ENDBRANCH   1  10
TORSDOF 1
ENDMDL
MODEL 3
REMARK VINA RESULT: -4.585639458      2.569      4.322
REMARK  1 active torsions:
REMARK  status: ('A' for Active; 'I' for Inactive)
REMARK    1  A    between atoms: C2_2  and  N1_3 
ROOT
HETATM    1  N1  UNL     1      -3.965   4.919  13.274  1.00  0.00     0.118 N 
HETATM    2  C3  UNL     1      -3.619   5.162  11.907  1.00  0.00     0.310 C 
HETATM    3  C4  UNL     1      -3.760   3.820  11.235  1.00  0.00     0.257 C 
HETATM    4  C5  UNL     1      -2.461   3.057  11.351  1.00  0.00     0.018 C 
HETATM    5  C6  UNL     1      -1.458   3.440  10.317  1.00  0.00     0.012 C 
HETATM    6  C7  UNL     1      -2.979   1.626  11.167  1.00  0.00     0.037 C 
HETATM    7  C8  UNL     1      -4.204   1.686  12.079  1.00  0.00     0.275 C 
HETATM    8  N2  UNL     1      -4.646   3.066  12.071  1.00  0.00     0.123 N 
HETATM    9  C9  UNL     1      -4.581   3.642  13.396  1.00  0.00     0.543 C 
ENDROOT
BRANCH   1  10
HETATM   10  C2  UNL     1      -4.769   6.023  13.716  1.00  0.00     0.270 C 
HETATM   11  C1  UNL     1      -4.176   6.762  14.880  1.00  0.00     0.037 C 
ENDBRANCH   1  10
TORSDOF 1
ENDMDL
MODEL 4
REMARK VINA RESULT: -4.585083956      1.310      2.348
REMARK  1 active torsions:
REMARK  status: ('A' for Active; 'I' for Inactive)
REMARK    1  A    between atoms: C2_2  and  N1_3 
ROOT
HETATM    1  N1  UNL     1      -6.584   3.688  16.158  1.00  0.00     0.118 N 
HETATM    2  C3  UNL     1      -5.383   3.065  15.696  1.00  0.00     0.310 C 
HETATM    3  C4  UNL     1      -4.590   4.185  15.071  1.00  0.00     0.257 C 
HETATM    4  C5  UNL     1      -4.983   4.335  13.620  1.00  0.00     0.018 C 
HETATM    5  C6  UNL     1      -4.286   3.374  12.718  1.00  0.00     0.012 C 
HETATM    6  C7  UNL     1      -4.551   5.787  13.379  1.00  0.00     0.037 C 
HETATM    7  C8  UNL     1      -5.108   6.426  14.652  1.00  0.00     0.275 C 
HETATM    8  N2  UNL     1      -5.096   5.387  15.663  1.00  0.00     0.123 N 
HETATM    9  C9  UNL     1      -6.433   5.104  16.134  1.00  0.00     0.543 C 
ENDROOT
BRANCH   1  10
HETATM   10  C2  UNL     1      -6.887   3.135  17.447  1.00  0.00     0.270 C 
HETATM   11  C1  UNL     1      -6.217   3.858  18.578  1.00  0.00     0.037 C 
ENDBRANCH   1  10
TORSDOF 1
ENDMDL
MODEL 5
REMARK VINA RESULT: -4.564661104      1.722      3.492
REMARK  1 active torsions:
REMARK  status: ('A' for Active; 'I' for Inactive)
REMARK    1  A    between atoms: C2_2  and  N1_3 
ROOT
HETATM    1  N1  UNL     1      -4.554   2.724  15.460  1.00  0.00     0.118 N 
HETATM    2  C3  UNL     1      -5.570   2.301  16.373  1.00  0.00     0.310 C 
HETATM    3  C4  UNL     1      -6.516   3.471  16.459  1.00  0.00     0.257 C 
HETATM    4  C5  UNL     1      -6.049   4.423  17.534  1.00  0.00     0.018 C 
HETATM    5  C6  UNL     1      -6.471   4.016  18.905  1.00  0.00     0.012 C 
HETATM    6  C7  UNL     1      -6.737   5.710  17.065  1.00  0.00     0.037 C 
HETATM    7  C8  UNL     1      -6.418   5.632  15.572  1.00  0.00     0.275 C 
HETATM    8  N2  UNL     1      -6.304   4.221  15.257  1.00  0.00     0.123 N 
HETATM    9  C9  UNL     1      -4.978   3.900  14.778  1.00  0.00     0.543 C 
ENDROOT
BRANCH   1  10
HETATM   10  C2  UNL     1      -4.250   1.609  14.609  1.00  0.00     0.270 C 
HETATM   11  C1  UNL     1      -4.243   1.959  13.149  1.00  0.00     0.037 C 
ENDBRANCH   1  10
TORSDOF 1
ENDMDL
