MODEL 1
REMARK VINA RESULT: -5.763553960      0.000      0.000
REMARK  2 active torsions:
REMARK  status: ('A' for Active; 'I' for Inactive)
REMARK    1  A    between atoms: O1_1  and  C1_3 
REMARK    2  A    between atoms: C1_3  and  C2_4 
ROOT
HETATM    1  C2  UNL     1      -4.990   3.333  15.698  1.00  0.00     0.246 C 
HETATM    2  C3  UNL     1      -5.958   2.736  16.673  1.00  0.00     0.038 C 
HETATM    3  C4  UNL     1      -7.184   3.546  16.907  1.00  0.00     0.004 C 
HETATM    4  C5  UNL     1      -6.951   5.031  16.914  1.00  0.00     0.036 C 
HETATM    5  C6  UNL     1      -5.829   5.461  16.037  1.00  0.00     0.223 C 
HETATM    6  C7  UNL     1      -6.085   6.687  15.233  1.00  0.00     0.037 C 
HETATM    7  C8  UNL     1      -5.078   6.525  14.086  1.00  0.00     0.032 C 
HETATM    8  C9  UNL     1      -4.832   5.032  13.996  1.00  0.00     0.273 C 
HETATM    9  N1  UNL     1      -5.660   4.422  15.008  1.00  0.00     0.099 N 
ENDROOT
BRANCH   1  10
HETATM   10  C1  UNL     1      -4.446   2.305  14.733  1.00  0.00     0.199 C 
BRANCH  10  11
HETATM   11  O1  UNL     1      -4.685   1.049  15.309  1.00  0.00    -0.399 OA
ATOM     12  H1  UNL     1      -4.350   0.403  14.699  1.00  0.00     0.209 HD
ENDBRANCH  10  11
ENDBRANCH   1  10
TORSDOF 2
ENDMDL
MODEL 2
REMARK VINA RESULT: -5.487340920      1.044      1.518
REMARK  2 active torsions:
REMARK  status: ('A' for Active; 'I' for Inactive)
REMARK    1  A    between atoms: O1_1  and  C1_3 
REMARK    2  A    between atoms: C1_3  and  C2_4 
ROOT
HETATM    1  C2  UNL     1      -4.888   4.013  15.719  1.00  0.00     0.246 C 
HETATM    2  C3  UNL     1      -5.914   4.286  16.775  1.00  0.00     0.038 C 
HETATM    3  C4  UNL     1      -6.801   5.447  16.493  1.00  0.00     0.004 C 
HETATM    4  C5  UNL     1      -6.114   6.600  15.816  1.00  0.00     0.036 C 
HETATM    5  C6  UNL     1      -4.987   6.187  14.938  1.00  0.00     0.223 C 
HETATM    6  C7  UNL     1      -4.907   6.894  13.631  1.00  0.00     0.037 C 
HETATM    7  C8  UNL     1      -4.094   5.902  12.787  1.00  0.00     0.032 C 
HETATM    8  C9  UNL     1      -4.338   4.554  13.435  1.00  0.00     0.273 C 
HETATM    9  N1  UNL     1      -5.233   4.791  14.541  1.00  0.00     0.099 N 
ENDROOT
BRANCH   1  10
HETATM   10  C1  UNL     1      -4.772   2.539  15.405  1.00  0.00     0.199 C 
BRANCH  10  11
HETATM   11  O1  UNL     1      -3.641   2.071  16.090  1.00  0.00    -0.399 OA
ATOM     12  H1  UNL     1      -2.922   2.644  15.850  1.00  0.00     0.209 HD
ENDBRANCH  10  11
ENDBRANCH   1  10
TORSDOF 2
ENDMDL
MODEL 3
REMARK VINA RESULT: -5.397643812      1.621      3.217
REMARK  2 active torsions:
REMARK  status: ('A' for Active; 'I' for Inactive)
REMARK    1  A    between atoms: O1_1  and  C1_3 
REMARK    2  A    between atoms: C1_3  and  C2_4 
ROOT
HETATM    1  C2  UNL     1      -5.713   4.519  14.532  1.00  0.00     0.246 C 
HETATM    2  C3  UNL     1      -5.922   6.002  14.527  1.00  0.00     0.038 C 
HETATM    3  C4  UNL     1      -6.091   6.610  15.875  1.00  0.00     0.004 C 
HETATM    4  C5  UNL     1      -6.865   5.759  16.843  1.00  0.00     0.036 C 
HETATM    5  C6  UNL     1      -6.708   4.299  16.608  1.00  0.00     0.223 C 
HETATM    6  C7  UNL     1      -6.534   3.473  17.833  1.00  0.00     0.037 C 
HETATM    7  C8  UNL     1      -5.843   2.222  17.271  1.00  0.00     0.032 C 
HETATM    8  C9  UNL     1      -5.154   2.697  16.007  1.00  0.00     0.273 C 
HETATM    9  N1  UNL     1      -5.433   4.107  15.898  1.00  0.00     0.099 N 
ENDROOT
BRANCH   1  10
HETATM   10  C1  UNL     1      -4.618   4.095  13.581  1.00  0.00     0.199 C 
BRANCH  10  11
HETATM   11  O1  UNL     1      -5.162   4.155  12.291  1.00  0.00    -0.399 OA
ATOM     12  H1  UNL     1      -5.132   3.272  11.941  1.00  0.00     0.209 HD
ENDBRANCH  10  11
ENDBRANCH   1  10
TORSDOF 2
ENDMDL
MODEL 4
REMARK VINA RESULT: -5.203789962      1.214      1.880
REMARK  2 active torsions:
REMARK  status: ('A' for Active; 'I' for Inactive)
REMARK    1  A    between atoms: O1_1  and  C1_3 
REMARK    2  A    between atoms: C1_3  and  C2_4 
ROOT
HETATM    1  C2  UNL     1      -5.346   3.803  16.513  1.00  0.00     0.246 C 
HETATM    2  C3  UNL     1      -6.332   4.525  17.378  1.00  0.00     0.038 C 
HETATM    3  C4  UNL     1      -6.998   5.685  16.726  1.00  0.00     0.004 C 
HETATM    4  C5  UNL     1      -6.106   6.473  15.808  1.00  0.00     0.036 C 
HETATM    5  C6  UNL     1      -5.049   5.653  15.159  1.00  0.00     0.223 C 
HETATM    6  C7  UNL     1      -4.818   5.938  13.717  1.00  0.00     0.037 C 
HETATM    7  C8  UNL     1      -4.172   4.631  13.238  1.00  0.00     0.032 C 
HETATM    8  C9  UNL     1      -4.660   3.579  14.213  1.00  0.00     0.273 C 
HETATM    9  N1  UNL     1      -5.525   4.260  15.146  1.00  0.00     0.099 N 
ENDROOT
BRANCH   1  10
HETATM   10  C1  UNL     1      -5.480   2.301  16.627  1.00  0.00     0.199 C 
BRANCH  10  11
HETATM   11  O1  UNL     1      -6.854   2.022  16.648  1.00  0.00    -0.399 OA
ATOM     12  H1  UNL     1      -6.967   1.181  16.221  1.00  0.00     0.209 HD
ENDBRANCH  10  11
ENDBRANCH   1  10
TORSDOF 2
ENDMDL
MODEL 5
REMARK VINA RESULT: -5.185460776      0.966      2.806
REMARK  2 active torsions:
REMARK  status: ('A' for Active; 'I' for Inactive)
REMARK    1  A    between atoms: O1_1  and  C1_3 
REMARK    2  A    between atoms: C1_3  and  C2_4 
ROOT
HETATM    1  C2  UNL     1      -5.128   3.316  15.121  1.00  0.00     0.246 C 
HETATM    2  C3  UNL     1      -4.640   4.254  14.061  1.00  0.00     0.038 C 
HETATM    3  C4  UNL     1      -4.706   5.695  14.428  1.00  0.00     0.004 C 
HETATM    4  C5  UNL     1      -5.910   6.069  15.246  1.00  0.00     0.036 C 
HETATM    5  C6  UNL     1      -6.399   4.969  16.120  1.00  0.00     0.223 C 
HETATM    6  C7  UNL     1      -6.794   5.377  17.495  1.00  0.00     0.037 C 
HETATM    7  C8  UNL     1      -6.672   4.053  18.262  1.00  0.00     0.032 C 
HETATM    8  C9  UNL     1      -5.671   3.238  17.468  1.00  0.00     0.273 C 
HETATM    9  N1  UNL     1      -5.262   4.065  16.359  1.00  0.00     0.099 N 
ENDROOT
BRANCH   1  10
HETATM   10  C1  UNL     1      -4.220   2.118  15.284  1.00  0.00     0.199 C 
BRANCH  10  11
HETATM   11  O1  UNL     1      -4.599   1.192  14.302  1.00  0.00    -0.399 OA
ATOM     12  H1  UNL     1      -4.232   1.501  13.481  1.00  0.00     0.209 HD
ENDBRANCH  10  11
ENDBRANCH   1  10
TORSDOF 2
ENDMDL
