MODEL 1
REMARK VINA RESULT: -5.121366542      0.000      0.000
REMARK  1 active torsions:
REMARK  status: ('A' for Active; 'I' for Inactive)
REMARK    1  A    between atoms: N1_5  and  C5_6 
ROOT
HETATM    1  C1  UNL     1      -3.080   7.557  13.595  1.00  0.00     0.032 C 
HETATM    2  C2  UNL     1      -4.071   6.445  13.936  1.00  0.00     0.074 C 
HETATM    3  C3  UNL     1      -3.558   5.761  15.161  1.00  0.00     0.054 C 
HETATM    4  C4  UNL     1      -4.160   4.393  15.383  1.00  0.00     0.275 C 
HETATM    5  N1  UNL     1      -5.447   4.517  16.000  1.00  0.00     0.094 N 
HETATM    6  C8  UNL     1      -6.412   5.097  15.115  1.00  0.00     0.292 C 
HETATM    7  C9  UNL     1      -6.162   6.607  15.132  1.00  0.00     0.144 C 
HETATM    8  N2  UNL     1      -5.357   7.022  14.033  1.00  0.00    -0.416 N 
ATOM      9  H2  UNL     1      -5.692   7.702  13.351  1.00  0.00     0.153 HD
ENDROOT
BRANCH   5  10
HETATM   10  C5  UNL     1      -5.850   3.300  16.626  1.00  0.00     0.223 A 
HETATM   11  C6  UNL     1      -7.211   3.011  17.080  1.00  0.00     0.038 A 
HETATM   12  C7  UNL     1      -6.235   3.478  18.102  1.00  0.00     0.038 A 
ENDBRANCH   5  10
TORSDOF 1
ENDMDL
MODEL 2
REMARK VINA RESULT: -4.973405225      1.226      1.945
REMARK  1 active torsions:
REMARK  status: ('A' for Active; 'I' for Inactive)
REMARK    1  A    between atoms: N1_5  and  C5_6 
ROOT
HETATM    1  C1  UNL     1      -4.721   7.620  12.767  1.00  0.00     0.032 C 
HETATM    2  C2  UNL     1      -4.669   6.692  13.981  1.00  0.00     0.074 C 
HETATM    3  C3  UNL     1      -6.063   6.577  14.504  1.00  0.00     0.054 C 
HETATM    4  C4  UNL     1      -6.132   6.066  15.925  1.00  0.00     0.275 C 
HETATM    5  N1  UNL     1      -6.017   4.638  15.939  1.00  0.00     0.094 N 
HETATM    6  C8  UNL     1      -4.708   4.201  15.557  1.00  0.00     0.292 C 
HETATM    7  C9  UNL     1      -4.656   4.278  14.029  1.00  0.00     0.144 C 
HETATM    8  N2  UNL     1      -4.050   5.486  13.580  1.00  0.00    -0.416 N 
ATOM      9  H2  UNL     1      -3.212   5.482  13.000  1.00  0.00     0.153 HD
ENDROOT
BRANCH   5  10
HETATM   10  C5  UNL     1      -6.514   4.083  17.156  1.00  0.00     0.223 A 
HETATM   11  C6  UNL     1      -6.180   2.748  17.655  1.00  0.00     0.038 A 
HETATM   12  C7  UNL     1      -7.473   2.904  16.936  1.00  0.00     0.038 A 
ENDBRANCH   5  10
TORSDOF 1
ENDMDL
MODEL 3
REMARK VINA RESULT: -4.732629011      1.027      4.667
REMARK  1 active torsions:
REMARK  status: ('A' for Active; 'I' for Inactive)
REMARK    1  A    between atoms: N1_5  and  C5_6 
ROOT
HETATM    1  C1  UNL     1      -7.270   2.946  17.383  1.00  0.00     0.032 C 
HETATM    2  C2  UNL     1      -6.509   3.597  16.229  1.00  0.00     0.074 C 
HETATM    3  C3  UNL     1      -6.605   5.075  16.418  1.00  0.00     0.054 C 
HETATM    4  C4  UNL     1      -6.293   5.863  15.167  1.00  0.00     0.275 C 
HETATM    5  N1  UNL     1      -4.876   5.984  15.003  1.00  0.00     0.094 N 
HETATM    6  C8  UNL     1      -4.263   4.727  14.691  1.00  0.00     0.292 C 
HETATM    7  C9  UNL     1      -4.133   3.970  16.015  1.00  0.00     0.144 C 
HETATM    8  N2  UNL     1      -5.205   3.052  16.206  1.00  0.00    -0.416 N 
ATOM      9  H2  UNL     1      -5.040   2.053  16.321  1.00  0.00     0.153 HD
ENDROOT
BRANCH   5  10
HETATM   10  C5  UNL     1      -4.537   7.060  14.129  1.00  0.00     0.223 A 
HETATM   11  C6  UNL     1      -3.302   7.136  13.347  1.00  0.00     0.038 A 
HETATM   12  C7  UNL     1      -3.347   7.892  14.628  1.00  0.00     0.038 A 
ENDBRANCH   5  10
TORSDOF 1
ENDMDL
MODEL 4
REMARK VINA RESULT: -4.660575888      1.720      2.305
REMARK  1 active torsions:
REMARK  status: ('A' for Active; 'I' for Inactive)
REMARK    1  A    between atoms: N1_5  and  C5_6 
ROOT
HETATM    1  C1  UNL     1      -3.653   6.009  12.015  1.00  0.00     0.032 C 
HETATM    2  C2  UNL     1      -3.772   5.184  13.296  1.00  0.00     0.074 C 
HETATM    3  C3  UNL     1      -5.019   5.625  13.988  1.00  0.00     0.054 C 
HETATM    4  C4  UNL     1      -5.066   5.240  15.448  1.00  0.00     0.275 C 
HETATM    5  N1  UNL     1      -5.483   3.877  15.583  1.00  0.00     0.094 N 
HETATM    6  C8  UNL     1      -4.494   2.963  15.094  1.00  0.00     0.292 C 
HETATM    7  C9  UNL     1      -4.638   2.947  13.570  1.00  0.00     0.144 C 
HETATM    8  N2  UNL     1      -3.702   3.818  12.942  1.00  0.00    -0.416 N 
ATOM      9  H2  UNL     1      -3.017   3.473  12.270  1.00  0.00     0.153 HD
ENDROOT
BRANCH   5  10
HETATM   10  C5  UNL     1      -5.968   3.602  16.897  1.00  0.00     0.223 A 
HETATM   11  C6  UNL     1      -6.188   2.259  17.436  1.00  0.00     0.038 A 
HETATM   12  C7  UNL     1      -7.374   2.984  16.905  1.00  0.00     0.038 A 
ENDBRANCH   5  10
TORSDOF 1
ENDMDL
MODEL 5
REMARK VINA RESULT: -4.523854730      2.062      4.286
REMARK  1 active torsions:
REMARK  status: ('A' for Active; 'I' for Inactive)
REMARK    1  A    between atoms: N1_5  and  C5_6 
ROOT
HETATM    1  C1  UNL     1      -6.433   3.716  18.152  1.00  0.00     0.032 C 
HETATM    2  C2  UNL     1      -5.652   4.175  16.921  1.00  0.00     0.074 C 
HETATM    3  C3  UNL     1      -5.606   3.021  15.975  1.00  0.00     0.054 C 
HETATM    4  C4  UNL     1      -4.528   3.148  14.923  1.00  0.00     0.275 C 
HETATM    5  N1  UNL     1      -4.978   3.994  13.859  1.00  0.00     0.094 N 
HETATM    6  C8  UNL     1      -5.110   5.358  14.277  1.00  0.00     0.292 C 
HETATM    7  C9  UNL     1      -6.439   5.451  15.029  1.00  0.00     0.144 C 
HETATM    8  N2  UNL     1      -6.257   5.357  16.439  1.00  0.00    -0.416 N 
ATOM      9  H2  UNL     1      -6.548   6.106  17.067  1.00  0.00     0.153 HD
ENDROOT
BRANCH   5  10
HETATM   10  C5  UNL     1      -4.215   3.793  12.669  1.00  0.00     0.223 A 
HETATM   11  C6  UNL     1      -4.338   4.606  11.458  1.00  0.00     0.038 A 
HETATM   12  C7  UNL     1      -5.061   3.305  11.484  1.00  0.00     0.038 A 
ENDBRANCH   5  10
TORSDOF 1
ENDMDL
