MODEL 1
REMARK VINA RESULT: -4.407054511      0.000      0.000
REMARK  2 active torsions:
REMARK  status: ('A' for Active; 'I' for Inactive)
REMARK    1  A    between atoms: C3_3  and  C4_4 
REMARK    2  A    between atoms: C4_4  and  N1_5 
ROOT
HETATM    1  C1  UNL     1      -7.204   2.643  17.239  1.00  0.00     0.112 C 
HETATM    2  C2  UNL     1      -6.808   3.916  16.609  1.00  0.00    -0.109 C 
HETATM    3  C3  UNL     1      -6.454   4.954  16.060  1.00  0.00    -0.077 C 
ENDROOT
BRANCH   3   4
HETATM    4  C4  UNL     1      -5.999   6.140  15.364  1.00  0.00     0.365 C 
BRANCH   4   5
HETATM    5  N1  UNL     1      -4.661   5.964  14.826  1.00  0.00     0.102 N 
HETATM    6  C5  UNL     1      -4.715   5.025  13.700  1.00  0.00     0.303 C 
HETATM    7  C6  UNL     1      -3.529   5.211  12.810  1.00  0.00     0.302 C 
HETATM    8  N2  UNL     1      -3.579   6.487  12.111  1.00  0.00     0.087 N 
HETATM    9  C7  UNL     1      -4.204   6.341  10.811  1.00  0.00     0.310 C 
HETATM   10  C8  UNL     1      -4.200   7.507  12.932  1.00  0.00     0.302 C 
HETATM   11  C9  UNL     1      -4.088   7.224  14.395  1.00  0.00     0.303 C 
ENDBRANCH   4   5
ENDBRANCH   3   4
TORSDOF 2
ENDMDL
MODEL 2
REMARK VINA RESULT: -4.377418428      1.954      2.771
REMARK  2 active torsions:
REMARK  status: ('A' for Active; 'I' for Inactive)
REMARK    1  A    between atoms: C3_3  and  C4_4 
REMARK    2  A    between atoms: C4_4  and  N1_5 
ROOT
HETATM    1  C1  UNL     1      -7.201   3.389  16.910  1.00  0.00     0.112 C 
HETATM    2  C2  UNL     1      -6.136   4.034  16.119  1.00  0.00    -0.109 C 
HETATM    3  C3  UNL     1      -5.226   4.540  15.474  1.00  0.00    -0.077 C 
ENDROOT
BRANCH   3   4
HETATM    4  C4  UNL     1      -4.107   5.084  14.731  1.00  0.00     0.365 C 
BRANCH   4   5
HETATM    5  N1  UNL     1      -4.356   5.065  13.300  1.00  0.00     0.102 N 
HETATM    6  C5  UNL     1      -3.099   5.329  12.588  1.00  0.00     0.303 C 
HETATM    7  C6  UNL     1      -3.175   4.812  11.189  1.00  0.00     0.302 C 
HETATM    8  N2  UNL     1      -3.213   3.357  11.157  1.00  0.00     0.087 N 
HETATM    9  C7  UNL     1      -1.880   2.807  11.010  1.00  0.00     0.310 C 
HETATM   10  C8  UNL     1      -3.926   2.828  12.302  1.00  0.00     0.302 C 
HETATM   11  C9  UNL     1      -4.912   3.796  12.871  1.00  0.00     0.303 C 
ENDBRANCH   4   5
ENDBRANCH   3   4
TORSDOF 2
ENDMDL
MODEL 3
REMARK VINA RESULT: -4.362816423      1.208      1.881
REMARK  2 active torsions:
REMARK  status: ('A' for Active; 'I' for Inactive)
REMARK    1  A    between atoms: C3_3  and  C4_4 
REMARK    2  A    between atoms: C4_4  and  N1_5 
ROOT
HETATM    1  C1  UNL     1      -7.186   2.760  17.217  1.00  0.00     0.112 C 
HETATM    2  C2  UNL     1      -6.783   4.032  16.587  1.00  0.00    -0.109 C 
HETATM    3  C3  UNL     1      -6.442   5.068  16.028  1.00  0.00    -0.077 C 
ENDROOT
BRANCH   3   4
HETATM    4  C4  UNL     1      -6.033   6.256  15.307  1.00  0.00     0.365 C 
BRANCH   4   5
HETATM    5  N1  UNL     1      -5.205   5.927  14.160  1.00  0.00     0.102 N 
HETATM    6  C5  UNL     1      -4.895   7.156  13.420  1.00  0.00     0.303 C 
HETATM    7  C6  UNL     1      -3.669   6.968  12.588  1.00  0.00     0.302 C 
HETATM    8  N2  UNL     1      -2.477   6.832  13.413  1.00  0.00     0.087 N 
HETATM    9  C7  UNL     1      -1.833   8.117  13.607  1.00  0.00     0.310 C 
HETATM   10  C8  UNL     1      -2.779   6.152  14.657  1.00  0.00     0.302 C 
HETATM   11  C9  UNL     1      -3.978   5.265  14.559  1.00  0.00     0.303 C 
ENDBRANCH   4   5
ENDBRANCH   3   4
TORSDOF 2
ENDMDL
MODEL 4
REMARK VINA RESULT: -4.341886343      2.775      4.635
REMARK  2 active torsions:
REMARK  status: ('A' for Active; 'I' for Inactive)
REMARK    1  A    between atoms: C3_3  and  C4_4 
REMARK    2  A    between atoms: C4_4  and  N1_5 
ROOT
HETATM    1  C1  UNL     1      -3.083  -0.316  11.245  1.00  0.00     0.112 C 
HETATM    2  C2  UNL     1      -3.747   0.979  11.487  1.00  0.00    -0.109 C 
HETATM    3  C3  UNL     1      -4.267   2.065  11.712  1.00  0.00    -0.077 C 
ENDROOT
BRANCH   3   4
HETATM    4  C4  UNL     1      -4.825   3.367  12.018  1.00  0.00     0.365 C 
BRANCH   4   5
HETATM    5  N1  UNL     1      -4.139   3.993  13.134  1.00  0.00     0.102 N 
HETATM    6  C5  UNL     1      -4.278   5.451  13.030  1.00  0.00     0.303 C 
HETATM    7  C6  UNL     1      -4.073   6.091  14.364  1.00  0.00     0.302 C 
HETATM    8  N2  UNL     1      -5.156   5.773  15.283  1.00  0.00     0.087 N 
HETATM    9  C7  UNL     1      -6.185   6.794  15.243  1.00  0.00     0.310 C 
HETATM   10  C8  UNL     1      -5.667   4.438  15.045  1.00  0.00     0.302 C 
HETATM   11  C9  UNL     1      -4.661   3.535  14.408  1.00  0.00     0.303 C 
ENDBRANCH   4   5
ENDBRANCH   3   4
TORSDOF 2
ENDMDL
MODEL 5
REMARK VINA RESULT: -4.329761011      2.475      3.462
REMARK  2 active torsions:
REMARK  status: ('A' for Active; 'I' for Inactive)
REMARK    1  A    between atoms: C3_3  and  C4_4 
REMARK    2  A    between atoms: C4_4  and  N1_5 
ROOT
HETATM    1  C1  UNL     1      -6.829   5.587  16.865  1.00  0.00     0.112 C 
HETATM    2  C2  UNL     1      -6.039   4.748  15.943  1.00  0.00    -0.109 C 
HETATM    3  C3  UNL     1      -5.374   4.027  15.209  1.00  0.00    -0.077 C 
ENDROOT
BRANCH   3   4
HETATM    4  C4  UNL     1      -4.579   3.129  14.396  1.00  0.00     0.365 C 
BRANCH   4   5
HETATM    5  N1  UNL     1      -4.663   3.469  12.986  1.00  0.00     0.102 N 
HETATM    6  C5  UNL     1      -3.658   4.493  12.677  1.00  0.00     0.303 C 
HETATM    7  C6  UNL     1      -3.345   4.490  11.216  1.00  0.00     0.302 C 
HETATM    8  N2  UNL     1      -2.639   3.280  10.822  1.00  0.00     0.087 N 
HETATM    9  C7  UNL     1      -1.204   3.480  10.864  1.00  0.00     0.310 C 
HETATM   10  C8  UNL     1      -3.080   2.142  11.604  1.00  0.00     0.302 C 
HETATM   11  C9  UNL     1      -4.463   2.306  12.143  1.00  0.00     0.303 C 
ENDBRANCH   4   5
ENDBRANCH   3   4
TORSDOF 2
ENDMDL
