MODEL 1
REMARK VINA RESULT: -9.052310162      0.000      0.000
REMARK  9 active torsions:
REMARK  status: ('A' for Active; 'I' for Inactive)
REMARK    1  A    between atoms: C3_3  and  C4_4 
REMARK    2  A    between atoms: C18_20  and  C19_21 
REMARK    3  A    between atoms: C19_21  and  O2_22 
REMARK    4  A    between atoms: C19_21  and  C20_24 
REMARK    5  A    between atoms: C20_24  and  N2_25 
REMARK    6  A    between atoms: N2_25  and  C21_26 
REMARK    7  A    between atoms: C21_26  and  O3_27 
REMARK    8  A    between atoms: C21_26  and  O4_29 
REMARK    9  A    between atoms: C24_32  and  O5_33 
ROOT
HETATM    1  C4  UNL     1      -0.216  34.700  21.022  1.00  0.00     0.163 C 
HETATM    2  C5  UNL     1      -0.133  33.552  21.986  1.00  0.00     0.063 C 
HETATM    3  N1  UNL     1      -0.079  32.657  22.733  1.00  0.00    -0.197 NA
ENDROOT
BRANCH   1   4
HETATM    4  C3  UNL     1       0.366  35.879  21.760  1.00  0.00    -0.032 C 
HETATM    5  C2  UNL     1       0.648  37.157  21.098  1.00  0.00    -0.035 C 
HETATM    6  C1  UNL     1       0.719  37.118  19.813  1.00  0.00     0.024 C 
HETATM    7  C26 UNL     1       0.830  38.327  21.955  1.00  0.00    -0.053 C 
HETATM    8  C8  UNL     1       1.631  38.035  23.221  1.00  0.00     0.090 C 
HETATM    9  C13 UNL     1       1.222  39.621  21.334  1.00  0.00     0.025 C 
HETATM   10  C7  UNL     1       1.140  36.826  23.848  1.00  0.00     0.158 C 
HETATM   11  C9  UNL     1       3.048  37.947  22.776  1.00  0.00     0.018 C 
HETATM   12  C6  UNL     1       0.608  35.738  23.067  1.00  0.00     0.059 C 
HETATM   13  O1  UNL     1       1.185  36.729  25.142  1.00  0.00    -0.292 OA
HETATM   14  C10 UNL     1       3.477  39.420  22.523  1.00  0.00     0.011 C 
HETATM   15  C11 UNL     1       2.663  40.045  21.450  1.00  0.00    -0.030 C 
HETATM   16  C12 UNL     1       3.361  39.490  20.174  1.00  0.00     0.016 C 
HETATM   17  C25 UNL     1       2.739  41.494  21.286  1.00  0.00     0.032 C 
HETATM   18  C16 UNL     1       1.943  42.407  22.140  1.00  0.00    -0.031 C 
HETATM   19  C24 UNL     1       4.042  42.208  21.160  1.00  0.00     0.124 C 
HETATM   20  C15 UNL     1       0.515  42.027  21.981  1.00  0.00     0.011 C 
HETATM   21  C17 UNL     1       2.290  42.461  23.609  1.00  0.00     0.016 C 
HETATM   22  C18 UNL     1       2.273  43.799  21.583  1.00  0.00     0.028 C 
HETATM   23  C14 UNL     1       0.257  40.610  21.944  1.00  0.00     0.010 C 
HETATM   24  C23 UNL     1       3.532  43.627  20.829  1.00  0.00     0.040 C 
BRANCH  22  25
HETATM   25  C19 UNL     1       1.191  44.411  20.834  1.00  0.00     0.153 C 
BRANCH  25  26
HETATM   26  O2  UNL     1       1.112  43.939  19.616  1.00  0.00    -0.392 OA
ATOM     27  H2  UNL     1       0.738  44.572  19.014  1.00  0.00     0.210 HD
ENDBRANCH  25  26
BRANCH  25  28
HETATM   28  C20 UNL     1       0.183  45.388  21.159  1.00  0.00     0.255 C 
BRANCH  28  29
HETATM   29  N2  UNL     1      -1.141  45.055  20.663  1.00  0.00    -0.401 NA
BRANCH  29  30
HETATM   30  C21 UNL     1      -2.299  44.762  20.229  1.00  0.00     0.335 C 
BRANCH  30  31
HETATM   31  O3  UNL     1      -2.707  44.867  18.996  1.00  0.00    -0.316 OA
ATOM     32  H3  UNL     1      -2.919  44.149  18.413  1.00  0.00     0.222 HD
ENDBRANCH  30  31
BRANCH  30  33
HETATM   33  O4  UNL     1      -3.377  44.254  21.102  1.00  0.00    -0.311 OA
HETATM   34  C22 UNL     1      -4.231  45.173  21.771  1.00  0.00     0.215 C 
ENDBRANCH  30  33
ENDBRANCH  29  30
ENDBRANCH  28  29
ENDBRANCH  25  28
ENDBRANCH  22  25
BRANCH  19  35
HETATM   35  O5  UNL     1       4.878  42.268  22.205  1.00  0.00    -0.395 OA
ATOM     36  H5  UNL     1       4.560  41.697  22.895  1.00  0.00     0.210 HD
ENDBRANCH  19  35
ENDBRANCH   1   4
TORSDOF 9
ENDMDL
MODEL 2
REMARK VINA RESULT: -8.890967576      2.067      8.282
REMARK  9 active torsions:
REMARK  status: ('A' for Active; 'I' for Inactive)
REMARK    1  A    between atoms: C3_3  and  C4_4 
REMARK    2  A    between atoms: C18_20  and  C19_21 
REMARK    3  A    between atoms: C19_21  and  O2_22 
REMARK    4  A    between atoms: C19_21  and  C20_24 
REMARK    5  A    between atoms: C20_24  and  N2_25 
REMARK    6  A    between atoms: N2_25  and  C21_26 
REMARK    7  A    between atoms: C21_26  and  O3_27 
REMARK    8  A    between atoms: C21_26  and  O4_29 
REMARK    9  A    between atoms: C24_32  and  O5_33 
ROOT
HETATM    1  C4  UNL     1      -2.363  45.275  22.854  1.00  0.00     0.163 C 
HETATM    2  C5  UNL     1      -3.508  45.233  21.884  1.00  0.00     0.063 C 
HETATM    3  N1  UNL     1      -4.406  45.200  21.139  1.00  0.00    -0.197 NA
ENDROOT
BRANCH   1   4
HETATM    4  C3  UNL     1      -1.337  44.324  22.295  1.00  0.00    -0.032 C 
HETATM    5  C2  UNL     1      -1.030  43.038  22.930  1.00  0.00    -0.035 C 
HETATM    6  C1  UNL     1      -1.400  42.919  24.158  1.00  0.00     0.024 C 
HETATM    7  C26 UNL     1      -0.333  42.041  22.120  1.00  0.00    -0.053 C 
HETATM    8  C8  UNL     1       0.763  42.633  21.238  1.00  0.00     0.090 C 
HETATM    9  C13 UNL     1       0.091  40.765  22.755  1.00  0.00     0.025 C 
HETATM   10  C7  UNL     1       0.267  43.809  20.557  1.00  0.00     0.158 C 
HETATM   11  C9  UNL     1       1.900  42.907  22.158  1.00  0.00     0.018 C 
HETATM   12  C6  UNL     1      -0.709  44.676  21.168  1.00  0.00     0.059 C 
HETATM   13  O1  UNL     1       0.719  44.083  19.370  1.00  0.00    -0.292 OA
HETATM   14  C10 UNL     1       2.518  41.511  22.452  1.00  0.00     0.011 C 
HETATM   15  C11 UNL     1       1.544  40.617  23.127  1.00  0.00    -0.030 C 
HETATM   16  C12 UNL     1       1.646  41.112  24.600  1.00  0.00     0.016 C 
HETATM   17  C25 UNL     1       1.862  39.195  23.215  1.00  0.00     0.032 C 
HETATM   18  C16 UNL     1       1.605  38.278  22.080  1.00  0.00    -0.031 C 
HETATM   19  C24 UNL     1       3.169  38.709  23.746  1.00  0.00     0.124 C 
HETATM   20  C15 UNL     1       0.159  38.379  21.750  1.00  0.00     0.011 C 
HETATM   21  C17 UNL     1       2.424  38.480  20.826  1.00  0.00     0.016 C 
HETATM   22  C18 UNL     1       2.015  36.904  22.628  1.00  0.00     0.028 C 
HETATM   23  C14 UNL     1      -0.387  39.712  21.784  1.00  0.00     0.010 C 
HETATM   24  C23 UNL     1       2.886  37.191  23.786  1.00  0.00     0.040 C 
BRANCH  22  25
HETATM   25  C19 UNL     1       0.899  36.019  22.908  1.00  0.00     0.153 C 
BRANCH  25  26
HETATM   26  O2  UNL     1       0.318  36.308  24.044  1.00  0.00    -0.392 OA
ATOM     27  H2  UNL     1       0.708  35.838  24.772  1.00  0.00     0.210 HD
ENDBRANCH  25  26
BRANCH  25  28
HETATM   28  C20 UNL     1       0.287  34.929  22.189  1.00  0.00     0.255 C 
BRANCH  28  29
HETATM   29  N2  UNL     1      -0.243  33.884  23.047  1.00  0.00    -0.401 NA
BRANCH  29  30
HETATM   30  C21 UNL     1      -0.707  32.969  23.798  1.00  0.00     0.335 C 
BRANCH  30  31
HETATM   31  O3  UNL     1      -1.964  32.765  24.073  1.00  0.00    -0.316 OA
ATOM     32  H3  UNL     1      -2.304  32.164  24.726  1.00  0.00     0.222 HD
ENDBRANCH  30  31
BRANCH  30  33
HETATM   33  O4  UNL     1       0.153  31.990  24.492  1.00  0.00    -0.311 OA
HETATM   34  C22 UNL     1       1.565  32.068  24.350  1.00  0.00     0.215 C 
ENDBRANCH  30  33
ENDBRANCH  29  30
ENDBRANCH  28  29
ENDBRANCH  25  28
ENDBRANCH  22  25
BRANCH  19  35
HETATM   35  O5  UNL     1       4.297  38.933  23.061  1.00  0.00    -0.395 OA
ATOM     36  H5  UNL     1       4.447  39.869  22.999  1.00  0.00     0.210 HD
ENDBRANCH  19  35
ENDBRANCH   1   4
TORSDOF 9
ENDMDL
MODEL 3
REMARK VINA RESULT: -8.789246534      6.159     11.242
REMARK  9 active torsions:
REMARK  status: ('A' for Active; 'I' for Inactive)
REMARK    1  A    between atoms: C3_3  and  C4_4 
REMARK    2  A    between atoms: C18_20  and  C19_21 
REMARK    3  A    between atoms: C19_21  and  O2_22 
REMARK    4  A    between atoms: C19_21  and  C20_24 
REMARK    5  A    between atoms: C20_24  and  N2_25 
REMARK    6  A    between atoms: N2_25  and  C21_26 
REMARK    7  A    between atoms: C21_26  and  O3_27 
REMARK    8  A    between atoms: C21_26  and  O4_29 
REMARK    9  A    between atoms: C24_32  and  O5_33 
ROOT
HETATM    1  C4  UNL     1       5.660  42.101  22.880  1.00  0.00     0.163 C 
HETATM    2  C5  UNL     1       4.350  42.799  23.103  1.00  0.00     0.063 C 
HETATM    3  N1  UNL     1       3.335  43.351  23.275  1.00  0.00    -0.197 NA
ENDROOT
BRANCH   1   4
HETATM    4  C3  UNL     1       5.705  41.005  23.913  1.00  0.00    -0.032 C 
HETATM    5  C2  UNL     1       5.765  39.585  23.548  1.00  0.00    -0.035 C 
HETATM    6  C1  UNL     1       5.416  39.303  22.341  1.00  0.00     0.024 C 
HETATM    7  C26 UNL     1       6.195  38.647  24.582  1.00  0.00    -0.053 C 
HETATM    8  C8  UNL     1       5.627  38.962  25.964  1.00  0.00     0.090 C 
HETATM    9  C13 UNL     1       6.169  37.189  24.289  1.00  0.00     0.025 C 
HETATM   10  C7  UNL     1       5.775  40.374  26.248  1.00  0.00     0.158 C 
HETATM   11  C9  UNL     1       4.212  38.505  25.919  1.00  0.00     0.018 C 
HETATM   12  C6  UNL     1       5.708  41.362  25.202  1.00  0.00     0.059 C 
HETATM   13  O1  UNL     1       5.971  40.748  27.476  1.00  0.00    -0.292 OA
HETATM   14  C10 UNL     1       4.293  36.955  26.011  1.00  0.00     0.011 C 
HETATM   15  C11 UNL     1       5.031  36.381  24.858  1.00  0.00    -0.030 C 
HETATM   16  C12 UNL     1       3.931  36.384  23.757  1.00  0.00     0.016 C 
HETATM   17  C25 UNL     1       5.444  34.982  24.934  1.00  0.00     0.032 C 
HETATM   18  C16 UNL     1       6.673  34.581  25.658  1.00  0.00    -0.031 C 
HETATM   19  C24 UNL     1       4.484  33.893  25.277  1.00  0.00     0.124 C 
HETATM   20  C15 UNL     1       7.805  35.334  25.058  1.00  0.00     0.011 C 
HETATM   21  C17 UNL     1       6.684  34.763  27.158  1.00  0.00     0.016 C 
HETATM   22  C18 UNL     1       6.751  33.066  25.423  1.00  0.00     0.028 C 
HETATM   23  C14 UNL     1       7.528  36.714  24.746  1.00  0.00     0.010 C 
HETATM   24  C23 UNL     1       5.385  32.664  25.028  1.00  0.00     0.040 C 
BRANCH  22  25
HETATM   25  C19 UNL     1       7.797  32.661  24.502  1.00  0.00     0.153 C 
BRANCH  25  26
HETATM   26  O2  UNL     1       8.973  33.098  24.875  1.00  0.00    -0.392 OA
ATOM     27  H2  UNL     1       9.048  33.153  25.820  1.00  0.00     0.210 HD
ENDBRANCH  25  26
BRANCH  25  28
HETATM   28  C20 UNL     1       7.813  31.863  23.301  1.00  0.00     0.255 C 
BRANCH  28  29
HETATM   29  N2  UNL     1       9.112  31.800  22.655  1.00  0.00    -0.401 NA
BRANCH  29  30
HETATM   30  C21 UNL     1      10.249  31.744  22.089  1.00  0.00     0.335 C 
BRANCH  30  31
HETATM   31  O3  UNL     1      10.553  32.245  20.925  1.00  0.00    -0.316 OA
ATOM     32  H3  UNL     1      10.793  31.753  20.149  1.00  0.00     0.222 HD
ENDBRANCH  30  31
BRANCH  30  33
HETATM   33  O4  UNL     1      11.414  31.068  22.694  1.00  0.00    -0.311 OA
HETATM   34  C22 UNL     1      11.370  29.666  22.928  1.00  0.00     0.215 C 
ENDBRANCH  30  33
ENDBRANCH  29  30
ENDBRANCH  28  29
ENDBRANCH  25  28
ENDBRANCH  22  25
BRANCH  19  35
HETATM   35  O5  UNL     1       3.965  33.821  26.509  1.00  0.00    -0.395 OA
ATOM     36  H5  UNL     1       3.025  33.695  26.448  1.00  0.00     0.210 HD
ENDBRANCH  19  35
ENDBRANCH   1   4
TORSDOF 9
ENDMDL
MODEL 4
REMARK VINA RESULT: -8.764908225      2.479      8.202
REMARK  9 active torsions:
REMARK  status: ('A' for Active; 'I' for Inactive)
REMARK    1  A    between atoms: C3_3  and  C4_4 
REMARK    2  A    between atoms: C18_20  and  C19_21 
REMARK    3  A    between atoms: C19_21  and  O2_22 
REMARK    4  A    between atoms: C19_21  and  C20_24 
REMARK    5  A    between atoms: C20_24  and  N2_25 
REMARK    6  A    between atoms: N2_25  and  C21_26 
REMARK    7  A    between atoms: C21_26  and  O3_27 
REMARK    8  A    between atoms: C21_26  and  O4_29 
REMARK    9  A    between atoms: C24_32  and  O5_33 
ROOT
HETATM    1  C4  UNL     1       2.095  44.778  24.385  1.00  0.00     0.163 C 
HETATM    2  C5  UNL     1       0.697  45.211  24.721  1.00  0.00     0.063 C 
HETATM    3  N1  UNL     1      -0.388  45.546  24.992  1.00  0.00    -0.197 NA
ENDROOT
BRANCH   1   4
HETATM    4  C3  UNL     1       1.951  43.859  23.200  1.00  0.00    -0.032 C 
HETATM    5  C2  UNL     1       2.049  42.401  23.320  1.00  0.00    -0.035 C 
HETATM    6  C1  UNL     1       2.614  41.965  24.392  1.00  0.00     0.024 C 
HETATM    7  C26 UNL     1       1.514  41.601  22.219  1.00  0.00    -0.053 C 
HETATM    8  C8  UNL     1       1.819  42.183  20.842  1.00  0.00     0.090 C 
HETATM    9  C13 UNL     1       1.688  40.124  22.251  1.00  0.00     0.025 C 
HETATM   10  C7  UNL     1       1.530  43.602  20.830  1.00  0.00     0.158 C 
HETATM   11  C9  UNL     1       3.249  41.861  20.588  1.00  0.00     0.018 C 
HETATM   12  C6  UNL     1       1.706  44.413  22.007  1.00  0.00     0.059 C 
HETATM   13  O1  UNL     1       1.106  44.146  19.730  1.00  0.00    -0.292 OA
HETATM   14  C10 UNL     1       3.258  40.344  20.245  1.00  0.00     0.011 C 
HETATM   15  C11 UNL     1       2.765  39.528  21.382  1.00  0.00    -0.030 C 
HETATM   16  C12 UNL     1       4.033  39.460  22.283  1.00  0.00     0.016 C 
HETATM   17  C25 UNL     1       2.441  38.126  21.132  1.00  0.00     0.032 C 
HETATM   18  C16 UNL     1       1.137  37.731  20.549  1.00  0.00    -0.031 C 
HETATM   19  C24 UNL     1       3.400  37.200  20.462  1.00  0.00     0.124 C 
HETATM   20  C15 UNL     1       0.075  38.269  21.438  1.00  0.00     0.011 C 
HETATM   21  C17 UNL     1       0.861  38.146  19.123  1.00  0.00     0.016 C 
HETATM   22  C18 UNL     1       1.203  36.196  20.530  1.00  0.00     0.028 C 
HETATM   23  C14 UNL     1       0.307  39.601  21.935  1.00  0.00     0.010 C 
HETATM   24  C23 UNL     1       2.639  35.868  20.633  1.00  0.00     0.040 C 
BRANCH  22  25
HETATM   25  C19 UNL     1       0.356  35.554  21.519  1.00  0.00     0.153 C 
BRANCH  25  26
HETATM   26  O2  UNL     1      -0.602  34.857  20.964  1.00  0.00    -0.392 OA
ATOM     27  H2  UNL     1      -0.493  33.925  21.108  1.00  0.00     0.210 HD
ENDBRANCH  25  26
BRANCH  25  28
HETATM   28  C20 UNL     1       0.374  35.498  22.959  1.00  0.00     0.255 C 
BRANCH  28  29
HETATM   29  N2  UNL     1      -0.289  34.329  23.510  1.00  0.00    -0.401 NA
BRANCH  29  30
HETATM   30  C21 UNL     1      -0.870  33.305  23.991  1.00  0.00     0.335 C 
BRANCH  30  31
HETATM   31  O3  UNL     1      -2.015  32.818  23.604  1.00  0.00    -0.316 OA
ATOM     32  H3  UNL     1      -2.405  32.920  22.744  1.00  0.00     0.222 HD
ENDBRANCH  30  31
BRANCH  30  33
HETATM   33  O4  UNL     1      -0.305  32.511  25.101  1.00  0.00    -0.311 OA
HETATM   34  C22 UNL     1      -1.165  31.708  25.899  1.00  0.00     0.215 C 
ENDBRANCH  30  33
ENDBRANCH  29  30
ENDBRANCH  28  29
ENDBRANCH  25  28
ENDBRANCH  22  25
BRANCH  19  35
HETATM   35  O5  UNL     1       3.708  37.373  19.171  1.00  0.00    -0.395 OA
ATOM     36  H5  UNL     1       3.827  38.300  18.997  1.00  0.00     0.210 HD
ENDBRANCH  19  35
ENDBRANCH   1   4
TORSDOF 9
ENDMDL
MODEL 5
REMARK VINA RESULT: -8.740688691      1.021      1.236
REMARK  9 active torsions:
REMARK  status: ('A' for Active; 'I' for Inactive)
REMARK    1  A    between atoms: C3_3  and  C4_4 
REMARK    2  A    between atoms: C18_20  and  C19_21 
REMARK    3  A    between atoms: C19_21  and  O2_22 
REMARK    4  A    between atoms: C19_21  and  C20_24 
REMARK    5  A    between atoms: C20_24  and  N2_25 
REMARK    6  A    between atoms: N2_25  and  C21_26 
REMARK    7  A    between atoms: C21_26  and  O3_27 
REMARK    8  A    between atoms: C21_26  and  O4_29 
REMARK    9  A    between atoms: C24_32  and  O5_33 
ROOT
HETATM    1  C4  UNL     1      -0.179  34.846  23.026  1.00  0.00     0.163 C 
HETATM    2  C5  UNL     1       0.756  33.749  23.447  1.00  0.00     0.063 C 
HETATM    3  N1  UNL     1       1.474  32.891  23.779  1.00  0.00    -0.197 NA
ENDROOT
BRANCH   1   4
HETATM    4  C3  UNL     1       0.531  36.127  23.378  1.00  0.00    -0.032 C 
HETATM    5  C2  UNL     1       0.607  37.262  22.452  1.00  0.00    -0.035 C 
HETATM    6  C1  UNL     1       0.365  36.992  21.216  1.00  0.00     0.024 C 
HETATM    7  C26 UNL     1       0.959  38.563  23.016  1.00  0.00    -0.053 C 
HETATM    8  C8  UNL     1       2.052  38.489  24.079  1.00  0.00     0.090 C 
HETATM    9  C13 UNL     1       1.152  39.718  22.099  1.00  0.00     0.025 C 
HETATM   10  C7  UNL     1       1.763  37.421  25.011  1.00  0.00     0.158 C 
HETATM   11  C9  UNL     1       3.320  38.300  23.324  1.00  0.00     0.018 C 
HETATM   12  C6  UNL     1       1.088  36.219  24.590  1.00  0.00     0.059 C 
HETATM   13  O1  UNL     1       2.124  37.556  26.251  1.00  0.00    -0.292 OA
HETATM   14  C10 UNL     1       3.633  39.696  22.717  1.00  0.00     0.011 C 
HETATM   15  C11 UNL     1       2.565  40.133  21.782  1.00  0.00    -0.030 C 
HETATM   16  C12 UNL     1       2.947  39.347  20.493  1.00  0.00     0.016 C 
HETATM   17  C25 UNL     1       2.558  41.528  21.350  1.00  0.00     0.032 C 
HETATM   18  C16 UNL     1       1.968  42.591  22.196  1.00  0.00    -0.031 C 
HETATM   19  C24 UNL     1       3.771  42.186  20.784  1.00  0.00     0.124 C 
HETATM   20  C15 UNL     1       0.556  42.213  22.461  1.00  0.00     0.011 C 
HETATM   21  C17 UNL     1       2.661  42.902  23.503  1.00  0.00     0.016 C 
HETATM   22  C18 UNL     1       2.114  43.856  21.337  1.00  0.00     0.028 C 
HETATM   23  C14 UNL     1       0.336  40.816  22.740  1.00  0.00     0.010 C 
HETATM   24  C23 UNL     1       3.156  43.531  20.342  1.00  0.00     0.040 C 
BRANCH  22  25
HETATM   25  C19 UNL     1       0.866  44.341  20.779  1.00  0.00     0.153 C 
BRANCH  25  26
HETATM   26  O2  UNL     1       0.607  43.800  19.616  1.00  0.00    -0.392 OA
ATOM     27  H2  UNL     1      -0.092  44.255  19.160  1.00  0.00     0.210 HD
ENDBRANCH  25  26
BRANCH  25  28
HETATM   28  C20 UNL     1      -0.147  45.254  21.248  1.00  0.00     0.255 C 
BRANCH  28  29
HETATM   29  N2  UNL     1      -1.445  44.636  21.456  1.00  0.00    -0.401 NA
BRANCH  29  30
HETATM   30  C21 UNL     1      -2.580  44.094  21.638  1.00  0.00     0.335 C 
BRANCH  30  31
HETATM   31  O3  UNL     1      -2.812  43.005  22.315  1.00  0.00    -0.316 OA
ATOM     32  H3  UNL     1      -2.323  42.193  22.254  1.00  0.00     0.222 HD
ENDBRANCH  30  31
BRANCH  30  33
HETATM   33  O4  UNL     1      -3.830  44.643  21.076  1.00  0.00    -0.311 OA
HETATM   34  C22 UNL     1      -4.626  45.523  21.859  1.00  0.00     0.215 C 
ENDBRANCH  30  33
ENDBRANCH  29  30
ENDBRANCH  28  29
ENDBRANCH  25  28
ENDBRANCH  22  25
BRANCH  19  35
HETATM   35  O5  UNL     1       4.833  42.419  21.566  1.00  0.00    -0.395 OA
ATOM     36  H5  UNL     1       5.045  43.345  21.542  1.00  0.00     0.210 HD
ENDBRANCH  19  35
ENDBRANCH   1   4
TORSDOF 9
ENDMDL
