MODEL 1
REMARK VINA RESULT: -8.652804463      0.000      0.000
REMARK  8 active torsions:
REMARK  status: ('A' for Active; 'I' for Inactive)
REMARK    1  A    between atoms: C4_4  and  O1_5 
REMARK    2  A    between atoms: O1_5  and  C5_6 
REMARK    3  A    between atoms: C5_6  and  C6_7 
REMARK    4  A    between atoms: C6_7  and  C7_8 
REMARK    5  A    between atoms: C7_8  and  O2_9 
REMARK    6  A    between atoms: O2_9  and  C8_10 
REMARK    7  A    between atoms: C14_17  and  O4_18 
REMARK    8  A    between atoms: C27_33  and  O5_34 
ROOT
HETATM    1  C1  UNL     1       4.890  29.456  24.114  1.00  0.00     0.027 C 
HETATM    2  C2  UNL     1       5.427  30.486  24.475  1.00  0.00    -0.024 C 
HETATM    3  C3  UNL     1       6.040  31.697  24.878  1.00  0.00     0.015 C 
HETATM    4  C4  UNL     1       6.546  32.738  25.215  1.00  0.00     0.068 C 
ENDROOT
BRANCH   4   5
HETATM    5  O1  UNL     1       7.109  33.947  25.590  1.00  0.00    -0.303 OA
BRANCH   5   6
HETATM    6  C5  UNL     1       6.643  35.139  24.976  1.00  0.00     0.190 C 
BRANCH   6   7
HETATM    7  C6  UNL     1       6.259  36.171  26.040  1.00  0.00     0.054 C 
BRANCH   7   8
HETATM    8  C7  UNL     1       5.099  36.957  25.488  1.00  0.00     0.174 C 
BRANCH   8   9
HETATM    9  O2  UNL     1       4.706  36.549  24.239  1.00  0.00    -0.350 OA
BRANCH   9  10
HETATM   10  C8  UNL     1       3.322  36.518  24.185  1.00  0.00     0.230 A 
HETATM   11  O3  UNL     1       2.768  36.233  25.479  1.00  0.00    -0.333 OA
HETATM   12  C9  UNL     1       2.530  35.342  24.466  1.00  0.00     0.128 A 
HETATM   13  C10 UNL     1       3.138  33.959  24.486  1.00  0.00     0.045 C 
HETATM   14  C19 UNL     1       1.264  35.480  23.736  1.00  0.00     0.037 C 
HETATM   15  C11 UNL     1       2.701  33.189  25.669  1.00  0.00     0.016 C 
HETATM   16  C12 UNL     1       1.862  31.995  25.469  1.00  0.00    -0.007 A 
HETATM   17  C13 UNL     1       2.019  30.947  26.590  1.00  0.00     0.019 C 
HETATM   18  C14 UNL     1       1.482  31.430  24.169  1.00  0.00     0.136 A 
HETATM   19  C15 UNL     1       0.511  32.191  24.926  1.00  0.00    -0.008 A 
HETATM   20  C16 UNL     1      -0.592  31.357  25.613  1.00  0.00     0.019 C 
HETATM   21  C17 UNL     1       0.088  33.587  24.674  1.00  0.00     0.013 C 
HETATM   22  C18 UNL     1       0.538  34.210  23.391  1.00  0.00     0.009 C 
HETATM   23  C20 UNL     1       1.619  36.338  22.573  1.00  0.00     0.003 C 
HETATM   24  C21 UNL     1       2.434  35.631  21.528  1.00  0.00     0.019 C 
HETATM   25  C22 UNL     1       0.474  37.115  21.997  1.00  0.00     0.041 C 
HETATM   26  C27 UNL     1       2.522  37.369  23.278  1.00  0.00     0.129 C 
HETATM   27  C23 UNL     1       0.990  38.282  21.234  1.00  0.00    -0.008 C 
HETATM   28  C24 UNL     1       2.223  38.742  21.329  1.00  0.00     0.021 C 
HETATM   29  C25 UNL     1       2.638  39.882  20.550  1.00  0.00     0.095 C 
HETATM   30  C26 UNL     1       3.251  38.124  22.235  1.00  0.00     0.094 C 
HETATM   31  N1  UNL     1       2.971  40.791  19.911  1.00  0.00    -0.192 NA
BRANCH  18  32
HETATM   32  O4  UNL     1       1.290  30.025  24.071  1.00  0.00    -0.394 OA
ATOM     33  H4  UNL     1       0.992  29.666  23.244  1.00  0.00     0.210 HD
ENDBRANCH  18  32
BRANCH  26  34
HETATM   34  O5  UNL     1       1.741  38.231  24.043  1.00  0.00    -0.383 OA
ATOM     35  H5  UNL     1       0.988  38.500  23.530  1.00  0.00     0.210 HD
ENDBRANCH  26  34
ENDBRANCH   9  10
ENDBRANCH   8   9
ENDBRANCH   7   8
ENDBRANCH   6   7
ENDBRANCH   5   6
ENDBRANCH   4   5
TORSDOF 8
ENDMDL
MODEL 2
REMARK VINA RESULT: -8.603300360      1.822      4.789
REMARK  8 active torsions:
REMARK  status: ('A' for Active; 'I' for Inactive)
REMARK    1  A    between atoms: C4_4  and  O1_5 
REMARK    2  A    between atoms: O1_5  and  C5_6 
REMARK    3  A    between atoms: C5_6  and  C6_7 
REMARK    4  A    between atoms: C6_7  and  C7_8 
REMARK    5  A    between atoms: C7_8  and  O2_9 
REMARK    6  A    between atoms: O2_9  and  C8_10 
REMARK    7  A    between atoms: C14_17  and  O4_18 
REMARK    8  A    between atoms: C27_33  and  O5_34 
ROOT
HETATM    1  C1  UNL     1       4.948  29.569  24.102  1.00  0.00     0.027 C 
HETATM    2  C2  UNL     1       3.911  30.167  24.318  1.00  0.00    -0.024 C 
HETATM    3  C3  UNL     1       2.694  30.851  24.550  1.00  0.00     0.015 C 
HETATM    4  C4  UNL     1       1.648  31.419  24.740  1.00  0.00     0.068 C 
ENDROOT
BRANCH   4   5
HETATM    5  O1  UNL     1       0.434  32.054  24.946  1.00  0.00    -0.303 OA
BRANCH   5   6
HETATM    6  C5  UNL     1       0.261  33.377  24.460  1.00  0.00     0.190 C 
BRANCH   6   7
HETATM    7  C6  UNL     1       0.294  33.391  22.930  1.00  0.00     0.054 C 
BRANCH   7   8
HETATM    8  C7  UNL     1       0.642  34.796  22.513  1.00  0.00     0.174 C 
BRANCH   8   9
HETATM    9  O2  UNL     1       0.943  35.620  23.566  1.00  0.00    -0.350 OA
BRANCH   9  10
HETATM   10  C8  UNL     1       2.088  36.341  23.267  1.00  0.00     0.230 A 
HETATM   11  O3  UNL     1       3.060  35.505  22.619  1.00  0.00    -0.333 OA
HETATM   12  C9  UNL     1       3.389  36.057  23.829  1.00  0.00     0.128 A 
HETATM   13  C10 UNL     1       3.554  35.195  25.058  1.00  0.00     0.045 C 
HETATM   14  C19 UNL     1       4.159  37.306  23.808  1.00  0.00     0.037 C 
HETATM   15  C11 UNL     1       4.629  34.196  24.884  1.00  0.00     0.016 C 
HETATM   16  C12 UNL     1       5.838  34.300  25.719  1.00  0.00    -0.007 A 
HETATM   17  C13 UNL     1       6.537  32.944  25.950  1.00  0.00     0.019 C 
HETATM   18  C14 UNL     1       6.044  35.272  26.800  1.00  0.00     0.136 A 
HETATM   19  C15 UNL     1       6.705  35.471  25.527  1.00  0.00    -0.008 A 
HETATM   20  C16 UNL     1       8.217  35.163  25.511  1.00  0.00     0.019 C 
HETATM   21  C17 UNL     1       6.313  36.425  24.464  1.00  0.00     0.013 C 
HETATM   22  C18 UNL     1       5.268  37.437  24.814  1.00  0.00     0.009 C 
HETATM   23  C20 UNL     1       3.115  38.365  23.882  1.00  0.00     0.003 C 
HETATM   24  C21 UNL     1       2.475  38.488  25.235  1.00  0.00     0.019 C 
HETATM   25  C22 UNL     1       3.523  39.686  23.304  1.00  0.00     0.041 C 
HETATM   26  C27 UNL     1       2.079  37.775  22.906  1.00  0.00     0.129 C 
HETATM   27  C23 UNL     1       2.315  40.476  22.950  1.00  0.00    -0.008 C 
HETATM   28  C24 UNL     1       1.102  39.969  22.850  1.00  0.00     0.021 C 
HETATM   29  C25 UNL     1      -0.015  40.811  22.501  1.00  0.00     0.095 C 
HETATM   30  C26 UNL     1       0.810  38.513  23.088  1.00  0.00     0.094 C 
HETATM   31  N1  UNL     1      -0.912  41.496  22.234  1.00  0.00    -0.192 NA
BRANCH  18  32
HETATM   32  O4  UNL     1       6.848  34.892  27.908  1.00  0.00    -0.394 OA
ATOM     33  H4  UNL     1       6.774  35.392  28.713  1.00  0.00     0.210 HD
ENDBRANCH  18  32
BRANCH  26  34
HETATM   34  O5  UNL     1       2.535  37.911  21.598  1.00  0.00    -0.383 OA
ATOM     35  H5  UNL     1       3.467  38.100  21.616  1.00  0.00     0.210 HD
ENDBRANCH  26  34
ENDBRANCH   9  10
ENDBRANCH   8   9
ENDBRANCH   7   8
ENDBRANCH   6   7
ENDBRANCH   5   6
ENDBRANCH   4   5
TORSDOF 8
ENDMDL
MODEL 3
REMARK VINA RESULT: -8.442401422      3.173      6.953
REMARK  8 active torsions:
REMARK  status: ('A' for Active; 'I' for Inactive)
REMARK    1  A    between atoms: C4_4  and  O1_5 
REMARK    2  A    between atoms: O1_5  and  C5_6 
REMARK    3  A    between atoms: C5_6  and  C6_7 
REMARK    4  A    between atoms: C6_7  and  C7_8 
REMARK    5  A    between atoms: C7_8  and  O2_9 
REMARK    6  A    between atoms: O2_9  and  C8_10 
REMARK    7  A    between atoms: C14_17  and  O4_18 
REMARK    8  A    between atoms: C27_33  and  O5_34 
ROOT
HETATM    1  C1  UNL     1       5.506  28.712  23.574  1.00  0.00     0.027 C 
HETATM    2  C2  UNL     1       4.769  29.535  24.084  1.00  0.00    -0.024 C 
HETATM    3  C3  UNL     1       3.931  30.500  24.690  1.00  0.00     0.015 C 
HETATM    4  C4  UNL     1       3.232  31.334  25.210  1.00  0.00     0.068 C 
ENDROOT
BRANCH   4   5
HETATM    5  O1  UNL     1       2.450  32.305  25.813  1.00  0.00    -0.303 OA
BRANCH   5   6
HETATM    6  C5  UNL     1       1.340  32.832  25.100  1.00  0.00     0.190 C 
BRANCH   6   7
HETATM    7  C6  UNL     1       1.777  33.307  23.712  1.00  0.00     0.054 C 
BRANCH   7   8
HETATM    8  C7  UNL     1       2.019  34.790  23.814  1.00  0.00     0.174 C 
BRANCH   8   9
HETATM    9  O2  UNL     1       3.330  35.145  23.635  1.00  0.00    -0.350 OA
BRANCH   9  10
HETATM   10  C8  UNL     1       3.871  35.524  24.854  1.00  0.00     0.230 A 
HETATM   11  O3  UNL     1       2.857  36.075  25.709  1.00  0.00    -0.333 OA
HETATM   12  C9  UNL     1       3.897  36.886  25.335  1.00  0.00     0.128 A 
HETATM   13  C10 UNL     1       3.674  38.061  24.412  1.00  0.00     0.045 C 
HETATM   14  C19 UNL     1       5.025  37.002  26.266  1.00  0.00     0.037 C 
HETATM   15  C11 UNL     1       2.728  39.038  24.990  1.00  0.00     0.016 C 
HETATM   16  C12 UNL     1       3.220  40.379  25.348  1.00  0.00    -0.007 A 
HETATM   17  C13 UNL     1       2.124  41.463  25.294  1.00  0.00     0.019 C 
HETATM   18  C14 UNL     1       4.575  40.883  25.094  1.00  0.00     0.136 A 
HETATM   19  C15 UNL     1       4.204  40.480  26.434  1.00  0.00    -0.008 A 
HETATM   20  C16 UNL     1       3.957  41.636  27.427  1.00  0.00     0.019 C 
HETATM   21  C17 UNL     1       4.577  39.220  27.117  1.00  0.00     0.013 C 
HETATM   22  C18 UNL     1       5.615  38.372  26.452  1.00  0.00     0.009 C 
HETATM   23  C20 UNL     1       5.981  35.965  25.792  1.00  0.00     0.003 C 
HETATM   24  C21 UNL     1       6.677  36.326  24.511  1.00  0.00     0.019 C 
HETATM   25  C22 UNL     1       6.918  35.451  26.844  1.00  0.00     0.041 C 
HETATM   26  C27 UNL     1       4.995  34.816  25.503  1.00  0.00     0.129 C 
HETATM   27  C23 UNL     1       7.440  34.118  26.445  1.00  0.00    -0.008 C 
HETATM   28  C24 UNL     1       6.912  33.369  25.496  1.00  0.00     0.021 C 
HETATM   29  C25 UNL     1       7.486  32.086  25.175  1.00  0.00     0.095 C 
HETATM   30  C26 UNL     1       5.707  33.795  24.705  1.00  0.00     0.094 C 
HETATM   31  N1  UNL     1       7.959  31.060  24.912  1.00  0.00    -0.192 NA
BRANCH  18  32
HETATM   32  O4  UNL     1       4.745  42.271  24.844  1.00  0.00    -0.394 OA
ATOM     33  H4  UNL     1       4.712  42.871  25.580  1.00  0.00     0.210 HD
ENDBRANCH  18  32
BRANCH  26  34
HETATM   34  O5  UNL     1       4.547  34.268  26.703  1.00  0.00    -0.383 OA
ATOM     35  H5  UNL     1       5.249  33.755  27.086  1.00  0.00     0.210 HD
ENDBRANCH  26  34
ENDBRANCH   9  10
ENDBRANCH   8   9
ENDBRANCH   7   8
ENDBRANCH   6   7
ENDBRANCH   5   6
ENDBRANCH   4   5
TORSDOF 8
ENDMDL
MODEL 4
REMARK VINA RESULT: -8.339938004      1.974      2.573
REMARK  8 active torsions:
REMARK  status: ('A' for Active; 'I' for Inactive)
REMARK    1  A    between atoms: C4_4  and  O1_5 
REMARK    2  A    between atoms: O1_5  and  C5_6 
REMARK    3  A    between atoms: C5_6  and  C6_7 
REMARK    4  A    between atoms: C6_7  and  C7_8 
REMARK    5  A    between atoms: C7_8  and  O2_9 
REMARK    6  A    between atoms: O2_9  and  C8_10 
REMARK    7  A    between atoms: C14_17  and  O4_18 
REMARK    8  A    between atoms: C27_33  and  O5_34 
ROOT
HETATM    1  C1  UNL     1       5.618  28.710  23.608  1.00  0.00     0.027 C 
HETATM    2  C2  UNL     1       5.702  29.823  24.092  1.00  0.00    -0.024 C 
HETATM    3  C3  UNL     1       5.814  31.108  24.674  1.00  0.00     0.015 C 
HETATM    4  C4  UNL     1       5.927  32.198  25.176  1.00  0.00     0.068 C 
ENDROOT
BRANCH   4   5
HETATM    5  O1  UNL     1       6.078  33.443  25.765  1.00  0.00    -0.303 OA
BRANCH   5   6
HETATM    6  C5  UNL     1       7.383  33.882  26.115  1.00  0.00     0.190 C 
BRANCH   6   7
HETATM    7  C6  UNL     1       7.754  35.135  25.319  1.00  0.00     0.054 C 
BRANCH   7   8
HETATM    8  C7  UNL     1       6.623  36.114  25.494  1.00  0.00     0.174 C 
BRANCH   8   9
HETATM    9  O2  UNL     1       5.905  36.331  24.347  1.00  0.00    -0.350 OA
BRANCH   9  10
HETATM   10  C8  UNL     1       4.652  36.822  24.679  1.00  0.00     0.230 A 
HETATM   11  O3  UNL     1       4.064  36.042  25.731  1.00  0.00    -0.333 OA
HETATM   12  C9  UNL     1       3.425  36.075  24.519  1.00  0.00     0.128 A 
HETATM   13  C10 UNL     1       3.350  34.845  23.646  1.00  0.00     0.045 C 
HETATM   14  C19 UNL     1       2.337  37.046  24.362  1.00  0.00     0.037 C 
HETATM   15  C11 UNL     1       2.646  33.737  24.323  1.00  0.00     0.016 C 
HETATM   16  C12 UNL     1       1.356  33.277  23.781  1.00  0.00    -0.007 A 
HETATM   17  C13 UNL     1       1.056  31.797  24.096  1.00  0.00     0.019 C 
HETATM   18  C14 UNL     1       0.730  33.765  22.546  1.00  0.00     0.136 A 
HETATM   19  C15 UNL     1       0.222  34.210  23.827  1.00  0.00    -0.008 A 
HETATM   20  C16 UNL     1      -1.119  33.580  24.261  1.00  0.00     0.019 C 
HETATM   21  C17 UNL     1       0.463  35.522  24.469  1.00  0.00     0.013 C 
HETATM   22  C18 UNL     1       1.110  36.578  23.630  1.00  0.00     0.009 C 
HETATM   23  C20 UNL     1       3.008  38.235  23.768  1.00  0.00     0.003 C 
HETATM   24  C21 UNL     1       3.392  38.054  22.327  1.00  0.00     0.019 C 
HETATM   25  C22 UNL     1       2.317  39.539  24.031  1.00  0.00     0.041 C 
HETATM   26  C27 UNL     1       4.294  38.256  24.616  1.00  0.00     0.129 C 
HETATM   27  C23 UNL     1       3.281  40.660  23.876  1.00  0.00    -0.008 C 
HETATM   28  C24 UNL     1       4.591  40.511  23.842  1.00  0.00     0.021 C 
HETATM   29  C25 UNL     1       5.452  41.657  23.688  1.00  0.00     0.095 C 
HETATM   30  C26 UNL     1       5.257  39.168  23.960  1.00  0.00     0.094 C 
HETATM   31  N1  UNL     1       6.139  42.580  23.550  1.00  0.00    -0.192 NA
BRANCH  18  32
HETATM   32  O4  UNL     1      -0.073  32.867  21.793  1.00  0.00    -0.394 OA
ATOM     33  H4  UNL     1      -0.873  33.196  21.401  1.00  0.00     0.210 HD
ENDBRANCH  18  32
BRANCH  26  34
HETATM   34  O5  UNL     1       4.002  38.702  25.902  1.00  0.00    -0.383 OA
ATOM     35  H5  UNL     1       3.681  39.595  25.851  1.00  0.00     0.210 HD
ENDBRANCH  26  34
ENDBRANCH   9  10
ENDBRANCH   8   9
ENDBRANCH   7   8
ENDBRANCH   6   7
ENDBRANCH   5   6
ENDBRANCH   4   5
TORSDOF 8
ENDMDL
MODEL 5
REMARK VINA RESULT: -8.327789765      3.039      6.164
REMARK  8 active torsions:
REMARK  status: ('A' for Active; 'I' for Inactive)
REMARK    1  A    between atoms: C4_4  and  O1_5 
REMARK    2  A    between atoms: O1_5  and  C5_6 
REMARK    3  A    between atoms: C5_6  and  C6_7 
REMARK    4  A    between atoms: C6_7  and  C7_8 
REMARK    5  A    between atoms: C7_8  and  O2_9 
REMARK    6  A    between atoms: O2_9  and  C8_10 
REMARK    7  A    between atoms: C14_17  and  O4_18 
REMARK    8  A    between atoms: C27_33  and  O5_34 
ROOT
HETATM    1  C1  UNL     1       5.438  28.692  23.706  1.00  0.00     0.027 C 
HETATM    2  C2  UNL     1       6.087  29.638  24.109  1.00  0.00    -0.024 C 
HETATM    3  C3  UNL     1       6.830  30.754  24.563  1.00  0.00     0.015 C 
HETATM    4  C4  UNL     1       7.449  31.716  24.945  1.00  0.00     0.068 C 
ENDROOT
BRANCH   4   5
HETATM    5  O1  UNL     1       8.141  32.836  25.375  1.00  0.00    -0.303 OA
BRANCH   5   6
HETATM    6  C5  UNL     1       7.493  34.100  25.333  1.00  0.00     0.190 C 
BRANCH   6   7
HETATM    7  C6  UNL     1       6.457  34.203  26.454  1.00  0.00     0.054 C 
BRANCH   7   8
HETATM    8  C7  UNL     1       5.105  34.281  25.793  1.00  0.00     0.174 C 
BRANCH   8   9
HETATM    9  O2  UNL     1       4.339  35.328  26.236  1.00  0.00    -0.350 OA
BRANCH   9  10
HETATM   10  C8  UNL     1       3.990  36.125  25.157  1.00  0.00     0.230 A 
HETATM   11  O3  UNL     1       5.162  36.600  24.476  1.00  0.00    -0.333 OA
HETATM   12  C9  UNL     1       4.329  37.526  25.047  1.00  0.00     0.128 A 
HETATM   13  C10 UNL     1       4.769  38.335  26.244  1.00  0.00     0.045 C 
HETATM   14  C19 UNL     1       3.328  38.153  24.177  1.00  0.00     0.037 C 
HETATM   15  C11 UNL     1       5.962  39.154  25.940  1.00  0.00     0.016 C 
HETATM   16  C12 UNL     1       5.836  40.621  25.944  1.00  0.00    -0.007 A 
HETATM   17  C13 UNL     1       7.157  41.344  26.278  1.00  0.00     0.019 C 
HETATM   18  C14 UNL     1       4.631  41.371  26.319  1.00  0.00     0.136 A 
HETATM   19  C15 UNL     1       4.981  41.238  24.920  1.00  0.00    -0.008 A 
HETATM   20  C16 UNL     1       5.568  42.505  24.262  1.00  0.00     0.019 C 
HETATM   21  C17 UNL     1       4.358  40.327  23.933  1.00  0.00     0.013 C 
HETATM   22  C18 UNL     1       3.103  39.629  24.353  1.00  0.00     0.009 C 
HETATM   23  C20 UNL     1       2.118  37.306  24.364  1.00  0.00     0.003 C 
HETATM   24  C21 UNL     1       1.448  37.497  25.694  1.00  0.00     0.019 C 
HETATM   25  C22 UNL     1       1.156  37.328  23.214  1.00  0.00     0.041 C 
HETATM   26  C27 UNL     1       2.773  35.912  24.345  1.00  0.00     0.129 C 
HETATM   27  C23 UNL     1       0.299  36.114  23.251  1.00  0.00    -0.008 C 
HETATM   28  C24 UNL     1       0.565  35.042  23.974  1.00  0.00     0.021 C 
HETATM   29  C25 UNL     1      -0.324  33.907  23.949  1.00  0.00     0.095 C 
HETATM   30  C26 UNL     1       1.782  34.936  24.850  1.00  0.00     0.094 C 
HETATM   31  N1  UNL     1      -1.049  33.003  23.936  1.00  0.00    -0.192 NA
BRANCH  18  32
HETATM   32  O4  UNL     1       4.787  42.648  26.920  1.00  0.00    -0.394 OA
ATOM     33  H4  UNL     1       5.664  43.005  27.002  1.00  0.00     0.210 HD
ENDBRANCH  18  32
BRANCH  26  34
HETATM   34  O5  UNL     1       3.152  35.588  23.045  1.00  0.00    -0.383 OA
ATOM     35  H5  UNL     1       3.069  34.649  22.925  1.00  0.00     0.210 HD
ENDBRANCH  26  34
ENDBRANCH   9  10
ENDBRANCH   8   9
ENDBRANCH   7   8
ENDBRANCH   6   7
ENDBRANCH   5   6
ENDBRANCH   4   5
TORSDOF 8
ENDMDL
