MODEL 1
REMARK VINA RESULT: -9.236310875      0.000      0.000
REMARK  7 active torsions:
REMARK  status: ('A' for Active; 'I' for Inactive)
REMARK    1  A    between atoms: C2_2  and  C3_3 
REMARK    2  A    between atoms: C10_12  and  N1_13 
REMARK    3  A    between atoms: N1_13  and  C11_15 
REMARK    4  A    between atoms: C11_15  and  O3_19 
REMARK    5  A    between atoms: C18_27  and  C19_28 
REMARK    6  A    between atoms: C19_28  and  O5_30 
REMARK    7  A    between atoms: O5_30  and  C20_31 
ROOT
HETATM    1  C3  UNL     1       3.107  41.521  21.455  1.00  0.00     0.088 C 
HETATM    2  C4  UNL     1       1.729  41.313  20.881  1.00  0.00     0.051 C 
HETATM    3  O1  UNL     1       2.978  41.755  22.831  1.00  0.00    -0.306 OA
HETATM    4  C5  UNL     1       3.178  40.960  23.948  1.00  0.00     0.265 C 
HETATM    5  O2  UNL     1       2.639  41.376  24.986  1.00  0.00    -0.265 OA
HETATM    6  C6  UNL     1       3.969  39.697  23.950  1.00  0.00     0.100 C 
HETATM    7  C7  UNL     1       3.377  38.847  22.918  1.00  0.00     0.006 C 
HETATM    8  C8  UNL     1       3.427  37.378  23.009  1.00  0.00     0.008 C 
HETATM    9  C9  UNL     1       2.818  36.965  21.658  1.00  0.00     0.026 C 
HETATM   10  C10 UNL     1       2.755  38.249  20.812  1.00  0.00     0.089 C 
HETATM   11  C12 UNL     1       3.809  39.075  21.502  1.00  0.00     0.021 C 
HETATM   12  C13 UNL     1       4.040  40.441  21.066  1.00  0.00     0.031 C 
HETATM   13  C14 UNL     1       5.483  40.787  21.428  1.00  0.00     0.009 C 
HETATM   14  C15 UNL     1       5.701  41.174  22.834  1.00  0.00     0.013 C 
HETATM   15  C16 UNL     1       5.375  40.099  23.869  1.00  0.00     0.002 C 
HETATM   16  C17 UNL     1       6.399  39.004  23.843  1.00  0.00     0.058 C 
HETATM   17  C18 UNL     1       6.395  38.504  25.262  1.00  0.00     0.322 C 
HETATM   18  N3  UNL     1       6.304  39.680  26.018  1.00  0.00     0.099 N 
HETATM   19  C24 UNL     1       7.481  40.163  26.646  1.00  0.00     0.311 C 
HETATM   20  C25 UNL     1       5.737  40.738  25.203  1.00  0.00     0.283 C 
ENDROOT
BRANCH  17  21
HETATM   21  C19 UNL     1       7.479  37.584  25.572  1.00  0.00     0.297 C 
HETATM   22  O4  UNL     1       8.658  37.954  25.247  1.00  0.00    -0.262 OA
BRANCH  21  23
HETATM   23  O5  UNL     1       7.398  36.364  26.173  1.00  0.00    -0.282 OA
BRANCH  23  24
HETATM   24  C20 UNL     1       6.688  35.274  25.750  1.00  0.00     0.049 C 
HETATM   25  C21 UNL     1       5.203  35.200  25.754  1.00  0.00     0.076 C 
HETATM   26  C22 UNL     1       7.360  34.220  25.314  1.00  0.00     0.001 C 
HETATM   27  C23 UNL     1       8.845  34.182  25.266  1.00  0.00     0.038 C 
ENDBRANCH  23  24
ENDBRANCH  21  23
ENDBRANCH  17  21
BRANCH   1  28
HETATM   28  C2  UNL     1       3.618  42.806  20.866  1.00  0.00     0.001 C 
HETATM   29  C1  UNL     1       3.455  43.929  21.557  1.00  0.00     0.010 C 
ENDBRANCH   1  28
BRANCH  10  30
HETATM   30  N1  UNL     1       3.095  37.965  19.439  1.00  0.00    -0.352 N 
ATOM     31  H1  UNL     1       4.056  38.090  19.120  1.00  0.00     0.163 HD
BRANCH  30  32
HETATM   32  C11 UNL     1       2.107  37.514  18.529  1.00  0.00     0.210 C 
HETATM   33  N2  UNL     1       1.742  36.290  18.520  1.00  0.00    -0.366 N 
ATOM     34  H22 UNL     1       2.176  35.646  19.181  1.00  0.00     0.159 HD
ATOM     35  H21 UNL     1       1.031  35.966  17.865  1.00  0.00     0.159 HD
BRANCH  32  36
HETATM   36  O3  UNL     1       1.516  38.391  17.630  1.00  0.00    -0.333 OA
ATOM     37  H3  UNL     1       1.053  38.066  16.867  1.00  0.00     0.220 HD
ENDBRANCH  32  36
ENDBRANCH  30  32
ENDBRANCH  10  30
TORSDOF 7
ENDMDL
MODEL 2
REMARK VINA RESULT: -9.124319082      4.016      6.896
REMARK  7 active torsions:
REMARK  status: ('A' for Active; 'I' for Inactive)
REMARK    1  A    between atoms: C2_2  and  C3_3 
REMARK    2  A    between atoms: C10_12  and  N1_13 
REMARK    3  A    between atoms: N1_13  and  C11_15 
REMARK    4  A    between atoms: C11_15  and  O3_19 
REMARK    5  A    between atoms: C18_27  and  C19_28 
REMARK    6  A    between atoms: C19_28  and  O5_30 
REMARK    7  A    between atoms: O5_30  and  C20_31 
ROOT
HETATM    1  C3  UNL     1       2.962  38.985  22.157  1.00  0.00     0.088 C 
HETATM    2  C4  UNL     1       4.381  39.483  22.247  1.00  0.00     0.051 C 
HETATM    3  O1  UNL     1       2.899  38.025  21.136  1.00  0.00    -0.306 OA
HETATM    4  C5  UNL     1       2.855  36.640  21.143  1.00  0.00     0.265 C 
HETATM    5  O2  UNL     1       3.154  36.106  20.064  1.00  0.00    -0.265 OA
HETATM    6  C6  UNL     1       2.486  35.816  22.328  1.00  0.00     0.100 C 
HETATM    7  C7  UNL     1       3.391  36.223  23.402  1.00  0.00     0.006 C 
HETATM    8  C8  UNL     1       3.779  35.291  24.475  1.00  0.00     0.008 C 
HETATM    9  C9  UNL     1       4.595  36.210  25.399  1.00  0.00     0.026 C 
HETATM   10  C10 UNL     1       4.338  37.644  24.905  1.00  0.00     0.089 C 
HETATM   11  C12 UNL     1       3.030  37.448  24.184  1.00  0.00     0.021 C 
HETATM   12  C13 UNL     1       2.435  38.566  23.474  1.00  0.00     0.031 C 
HETATM   13  C14 UNL     1       0.930  38.311  23.422  1.00  0.00     0.009 C 
HETATM   14  C15 UNL     1       0.488  37.377  22.370  1.00  0.00     0.013 C 
HETATM   15  C16 UNL     1       1.036  35.955  22.482  1.00  0.00     0.002 C 
HETATM   16  C17 UNL     1       0.395  35.225  23.625  1.00  0.00     0.058 C 
HETATM   17  C18 UNL     1       0.431  33.791  23.172  1.00  0.00     0.322 C 
HETATM   18  N3  UNL     1       0.099  33.874  21.813  1.00  0.00     0.099 N 
HETATM   19  C24 UNL     1      -1.217  33.515  21.425  1.00  0.00     0.311 C 
HETATM   20  C25 UNL     1       0.387  35.209  21.324  1.00  0.00     0.283 C 
ENDROOT
BRANCH  17  21
HETATM   21  C19 UNL     1      -0.346  32.884  24.003  1.00  0.00     0.297 C 
HETATM   22  O4  UNL     1      -1.551  33.226  24.255  1.00  0.00    -0.262 OA
BRANCH  21  23
HETATM   23  O5  UNL     1       0.050  31.703  24.553  1.00  0.00    -0.282 OA
BRANCH  23  24
HETATM   24  C20 UNL     1       0.257  31.429  25.877  1.00  0.00     0.049 C 
HETATM   25  C21 UNL     1      -0.837  31.212  26.860  1.00  0.00     0.076 C 
HETATM   26  C22 UNL     1       1.506  31.353  26.312  1.00  0.00     0.001 C 
HETATM   27  C23 UNL     1       2.677  31.552  25.421  1.00  0.00     0.038 C 
ENDBRANCH  23  24
ENDBRANCH  21  23
ENDBRANCH  17  21
BRANCH   1  28
HETATM   28  C2  UNL     1       2.138  40.147  21.679  1.00  0.00     0.001 C 
HETATM   29  C1  UNL     1       2.646  40.940  20.742  1.00  0.00     0.010 C 
ENDBRANCH   1  28
BRANCH  10  30
HETATM   30  N1  UNL     1       4.217  38.549  26.023  1.00  0.00    -0.352 N 
ATOM     31  H1  UNL     1       4.651  39.471  25.976  1.00  0.00     0.163 HD
BRANCH  30  32
HETATM   32  C11 UNL     1       3.502  38.168  27.185  1.00  0.00     0.210 C 
HETATM   33  N2  UNL     1       4.123  37.842  28.252  1.00  0.00    -0.366 N 
ATOM     34  H22 UNL     1       5.143  37.862  28.249  1.00  0.00     0.159 HD
ATOM     35  H21 UNL     1       3.609  37.568  29.089  1.00  0.00     0.159 HD
BRANCH  32  36
HETATM   36  O3  UNL     1       2.114  38.142  27.189  1.00  0.00    -0.333 OA
ATOM     37  H3  UNL     1       1.623  38.227  26.381  1.00  0.00     0.220 HD
ENDBRANCH  32  36
ENDBRANCH  30  32
ENDBRANCH  10  30
TORSDOF 7
ENDMDL
MODEL 3
REMARK VINA RESULT: -9.119736532      3.948      6.907
REMARK  7 active torsions:
REMARK  status: ('A' for Active; 'I' for Inactive)
REMARK    1  A    between atoms: C2_2  and  C3_3 
REMARK    2  A    between atoms: C10_12  and  N1_13 
REMARK    3  A    between atoms: N1_13  and  C11_15 
REMARK    4  A    between atoms: C11_15  and  O3_19 
REMARK    5  A    between atoms: C18_27  and  C19_28 
REMARK    6  A    between atoms: C19_28  and  O5_30 
REMARK    7  A    between atoms: O5_30  and  C20_31 
ROOT
HETATM    1  C3  UNL     1       2.787  39.149  21.720  1.00  0.00     0.088 C 
HETATM    2  C4  UNL     1       4.192  39.690  21.798  1.00  0.00     0.051 C 
HETATM    3  O1  UNL     1       2.760  38.138  20.748  1.00  0.00    -0.306 OA
HETATM    4  C5  UNL     1       2.753  36.755  20.824  1.00  0.00     0.265 C 
HETATM    5  O2  UNL     1       3.078  36.175  19.776  1.00  0.00    -0.265 OA
HETATM    6  C6  UNL     1       2.394  35.982  22.046  1.00  0.00     0.100 C 
HETATM    7  C7  UNL     1       3.276  36.466  23.106  1.00  0.00     0.006 C 
HETATM    8  C8  UNL     1       3.678  35.600  24.228  1.00  0.00     0.008 C 
HETATM    9  C9  UNL     1       4.459  36.586  25.112  1.00  0.00     0.026 C 
HETATM   10  C10 UNL     1       4.170  37.986  24.544  1.00  0.00     0.089 C 
HETATM   11  C12 UNL     1       2.875  37.718  23.822  1.00  0.00     0.021 C 
HETATM   12  C13 UNL     1       2.257  38.783  23.052  1.00  0.00     0.031 C 
HETATM   13  C14 UNL     1       0.761  38.485  22.998  1.00  0.00     0.009 C 
HETATM   14  C15 UNL     1       0.355  37.487  21.991  1.00  0.00     0.013 C 
HETATM   15  C16 UNL     1       0.939  36.089  22.179  1.00  0.00     0.002 C 
HETATM   16  C17 UNL     1       0.306  35.400  23.352  1.00  0.00     0.058 C 
HETATM   17  C18 UNL     1       0.385  33.946  22.971  1.00  0.00     0.322 C 
HETATM   18  N3  UNL     1       0.066  33.952  21.607  1.00  0.00     0.099 N 
HETATM   19  C24 UNL     1      -1.236  33.538  21.225  1.00  0.00     0.311 C 
HETATM   20  C25 UNL     1       0.322  35.268  21.054  1.00  0.00     0.283 C 
ENDROOT
BRANCH  17  21
HETATM   21  C19 UNL     1      -0.377  33.061  23.840  1.00  0.00     0.297 C 
HETATM   22  O4  UNL     1      -1.535  33.465  24.199  1.00  0.00    -0.262 OA
BRANCH  21  23
HETATM   23  O5  UNL     1      -0.010  31.843  24.325  1.00  0.00    -0.282 OA
BRANCH  23  24
HETATM   24  C20 UNL     1       0.960  31.573  25.251  1.00  0.00     0.049 C 
HETATM   25  C21 UNL     1       2.417  31.600  24.957  1.00  0.00     0.076 C 
HETATM   26  C22 UNL     1       0.581  31.267  26.482  1.00  0.00     0.001 C 
HETATM   27  C23 UNL     1      -0.846  31.209  26.889  1.00  0.00     0.038 C 
ENDBRANCH  23  24
ENDBRANCH  21  23
ENDBRANCH  17  21
BRANCH   1  28
HETATM   28  C2  UNL     1       1.938  40.264  21.176  1.00  0.00     0.001 C 
HETATM   29  C1  UNL     1       2.528  41.407  20.845  1.00  0.00     0.010 C 
ENDBRANCH   1  28
BRANCH  10  30
HETATM   30  N1  UNL     1       4.012  38.942  25.614  1.00  0.00    -0.352 N 
ATOM     31  H1  UNL     1       4.203  39.929  25.441  1.00  0.00     0.163 HD
BRANCH  30  32
HETATM   32  C11 UNL     1       3.596  38.522  26.901  1.00  0.00     0.210 C 
HETATM   33  N2  UNL     1       4.431  38.460  27.866  1.00  0.00    -0.366 N 
ATOM     34  H22 UNL     1       5.402  38.718  27.689  1.00  0.00     0.159 HD
ATOM     35  H21 UNL     1       4.132  38.158  28.793  1.00  0.00     0.159 HD
BRANCH  32  36
HETATM   36  O3  UNL     1       2.275  38.172  27.142  1.00  0.00    -0.333 OA
ATOM     37  H3  UNL     1       1.744  38.667  27.754  1.00  0.00     0.220 HD
ENDBRANCH  32  36
ENDBRANCH  30  32
ENDBRANCH  10  30
TORSDOF 7
ENDMDL
MODEL 4
REMARK VINA RESULT: -8.879241832      3.169      6.273
REMARK  7 active torsions:
REMARK  status: ('A' for Active; 'I' for Inactive)
REMARK    1  A    between atoms: C2_2  and  C3_3 
REMARK    2  A    between atoms: C10_12  and  N1_13 
REMARK    3  A    between atoms: N1_13  and  C11_15 
REMARK    4  A    between atoms: C11_15  and  O3_19 
REMARK    5  A    between atoms: C18_27  and  C19_28 
REMARK    6  A    between atoms: C19_28  and  O5_30 
REMARK    7  A    between atoms: O5_30  and  C20_31 
ROOT
HETATM    1  C3  UNL     1       2.844  39.360  24.123  1.00  0.00     0.088 C 
HETATM    2  C4  UNL     1       3.806  40.437  23.693  1.00  0.00     0.051 C 
HETATM    3  O1  UNL     1       2.544  38.569  23.005  1.00  0.00    -0.306 OA
HETATM    4  C5  UNL     1       2.975  37.320  22.588  1.00  0.00     0.265 C 
HETATM    5  O2  UNL     1       2.777  37.075  21.388  1.00  0.00    -0.265 OA
HETATM    6  C6  UNL     1       3.632  36.318  23.474  1.00  0.00     0.100 C 
HETATM    7  C7  UNL     1       4.785  36.995  24.066  1.00  0.00     0.006 C 
HETATM    8  C8  UNL     1       5.990  36.251  24.471  1.00  0.00     0.008 C 
HETATM    9  C9  UNL     1       6.821  37.355  25.145  1.00  0.00     0.026 C 
HETATM   10  C10 UNL     1       5.872  38.555  25.316  1.00  0.00     0.089 C 
HETATM   11  C12 UNL     1       4.541  37.850  25.271  1.00  0.00     0.021 C 
HETATM   12  C13 UNL     1       3.320  38.635  25.321  1.00  0.00     0.031 C 
HETATM   13  C14 UNL     1       2.233  37.731  25.900  1.00  0.00     0.009 C 
HETATM   14  C15 UNL     1       1.620  36.794  24.941  1.00  0.00     0.013 C 
HETATM   15  C16 UNL     1       2.571  35.771  24.323  1.00  0.00     0.002 C 
HETATM   16  C17 UNL     1       2.968  34.734  25.331  1.00  0.00     0.058 C 
HETATM   17  C18 UNL     1       3.219  33.517  24.482  1.00  0.00     0.322 C 
HETATM   18  N3  UNL     1       2.179  33.559  23.544  1.00  0.00     0.099 N 
HETATM   19  C24 UNL     1       1.082  32.677  23.724  1.00  0.00     0.311 C 
HETATM   20  C25 UNL     1       1.679  34.916  23.433  1.00  0.00     0.283 C 
ENDROOT
BRANCH  17  21
HETATM   21  C19 UNL     1       3.395  32.288  25.240  1.00  0.00     0.297 C 
HETATM   22  O4  UNL     1       2.759  32.197  26.345  1.00  0.00    -0.262 OA
BRANCH  21  23
HETATM   23  O5  UNL     1       4.160  31.208  24.921  1.00  0.00    -0.282 OA
BRANCH  23  24
HETATM   24  C20 UNL     1       5.522  31.158  24.801  1.00  0.00     0.049 C 
HETATM   25  C21 UNL     1       6.431  32.262  25.208  1.00  0.00     0.076 C 
HETATM   26  C22 UNL     1       6.066  30.063  24.292  1.00  0.00     0.001 C 
HETATM   27  C23 UNL     1       5.255  28.898  23.852  1.00  0.00     0.038 C 
ENDBRANCH  23  24
ENDBRANCH  21  23
ENDBRANCH  17  21
BRANCH   1  28
HETATM   28  C2  UNL     1       1.564  40.060  24.486  1.00  0.00     0.001 C 
HETATM   29  C1  UNL     1       1.515  41.383  24.382  1.00  0.00     0.010 C 
ENDBRANCH   1  28
BRANCH  10  30
HETATM   30  N1  UNL     1       6.105  39.205  26.584  1.00  0.00    -0.352 N 
ATOM     31  H1  UNL     1       5.654  38.846  27.425  1.00  0.00     0.163 HD
BRANCH  30  32
HETATM   32  C11 UNL     1       6.952  40.337  26.670  1.00  0.00     0.210 C 
HETATM   33  N2  UNL     1       6.519  41.497  26.357  1.00  0.00    -0.366 N 
ATOM     34  H22 UNL     1       5.552  41.590  26.045  1.00  0.00     0.159 HD
ATOM     35  H21 UNL     1       7.128  42.312  26.419  1.00  0.00     0.159 HD
BRANCH  32  36
HETATM   36  O3  UNL     1       8.266  40.210  27.096  1.00  0.00    -0.333 OA
ATOM     37  H3  UNL     1       8.658  40.860  27.667  1.00  0.00     0.220 HD
ENDBRANCH  32  36
ENDBRANCH  30  32
ENDBRANCH  10  30
TORSDOF 7
ENDMDL
MODEL 5
REMARK VINA RESULT: -8.845286589      2.943      6.138
REMARK  7 active torsions:
REMARK  status: ('A' for Active; 'I' for Inactive)
REMARK    1  A    between atoms: C2_2  and  C3_3 
REMARK    2  A    between atoms: C10_12  and  N1_13 
REMARK    3  A    between atoms: N1_13  and  C11_15 
REMARK    4  A    between atoms: C11_15  and  O3_19 
REMARK    5  A    between atoms: C18_27  and  C19_28 
REMARK    6  A    between atoms: C19_28  and  O5_30 
REMARK    7  A    between atoms: O5_30  and  C20_31 
ROOT
HETATM    1  C3  UNL     1       4.252  40.711  24.986  1.00  0.00     0.088 C 
HETATM    2  C4  UNL     1       5.242  41.781  24.603  1.00  0.00     0.051 C 
HETATM    3  O1  UNL     1       3.798  40.094  23.812  1.00  0.00    -0.306 OA
HETATM    4  C5  UNL     1       4.103  38.889  23.199  1.00  0.00     0.265 C 
HETATM    5  O2  UNL     1       3.779  38.817  22.003  1.00  0.00    -0.265 OA
HETATM    6  C6  UNL     1       4.768  37.744  23.882  1.00  0.00     0.100 C 
HETATM    7  C7  UNL     1       6.014  38.271  24.437  1.00  0.00     0.006 C 
HETATM    8  C8  UNL     1       7.196  37.413  24.623  1.00  0.00     0.008 C 
HETATM    9  C9  UNL     1       8.159  38.370  25.346  1.00  0.00     0.026 C 
HETATM   10  C10 UNL     1       7.315  39.587  25.761  1.00  0.00     0.089 C 
HETATM   11  C12 UNL     1       5.940  38.971  25.759  1.00  0.00     0.021 C 
HETATM   12  C13 UNL     1       4.785  39.808  26.029  1.00  0.00     0.031 C 
HETATM   13  C14 UNL     1       3.696  38.898  26.594  1.00  0.00     0.009 C 
HETATM   14  C15 UNL     1       2.935  38.132  25.590  1.00  0.00     0.013 C 
HETATM   15  C16 UNL     1       3.754  37.149  24.756  1.00  0.00     0.002 C 
HETATM   16  C17 UNL     1       4.169  35.966  25.580  1.00  0.00     0.058 C 
HETATM   17  C18 UNL     1       4.257  34.861  24.563  1.00  0.00     0.322 C 
HETATM   18  N3  UNL     1       3.142  35.085  23.745  1.00  0.00     0.099 N 
HETATM   19  C24 UNL     1       2.008  34.250  23.920  1.00  0.00     0.311 C 
HETATM   20  C25 UNL     1       2.728  36.470  23.858  1.00  0.00     0.283 C 
ENDROOT
BRANCH  17  21
HETATM   21  C19 UNL     1       4.418  33.534  25.138  1.00  0.00     0.297 C 
HETATM   22  O4  UNL     1       4.139  33.408  26.378  1.00  0.00    -0.262 OA
BRANCH  21  23
HETATM   23  O5  UNL     1       4.832  32.395  24.516  1.00  0.00    -0.282 OA
BRANCH  23  24
HETATM   24  C20 UNL     1       5.985  31.695  24.743  1.00  0.00     0.049 C 
HETATM   25  C21 UNL     1       7.258  32.318  25.192  1.00  0.00     0.076 C 
HETATM   26  C22 UNL     1       5.970  30.385  24.549  1.00  0.00     0.001 C 
HETATM   27  C23 UNL     1       4.755  29.657  24.101  1.00  0.00     0.038 C 
ENDBRANCH  23  24
ENDBRANCH  21  23
ENDBRANCH  17  21
BRANCH   1  28
HETATM   28  C2  UNL     1       3.062  41.428  25.560  1.00  0.00     0.001 C 
HETATM   29  C1  UNL     1       2.017  41.654  24.770  1.00  0.00     0.010 C 
ENDBRANCH   1  28
BRANCH  10  30
HETATM   30  N1  UNL     1       7.705  40.049  27.071  1.00  0.00    -0.352 N 
ATOM     31  H1  UNL     1       7.029  40.034  27.834  1.00  0.00     0.163 HD
BRANCH  30  32
HETATM   32  C11 UNL     1       9.019  40.523  27.307  1.00  0.00     0.210 C 
HETATM   33  N2  UNL     1       9.790  39.917  28.125  1.00  0.00    -0.366 N 
ATOM     34  H22 UNL     1       9.441  39.087  28.603  1.00  0.00     0.159 HD
ATOM     35  H21 UNL     1      10.736  40.258  28.296  1.00  0.00     0.159 HD
BRANCH  32  36
HETATM   36  O3  UNL     1       9.495  41.653  26.657  1.00  0.00    -0.333 OA
ATOM     37  H3  UNL     1      10.283  42.091  26.957  1.00  0.00     0.220 HD
ENDBRANCH  32  36
ENDBRANCH  30  32
ENDBRANCH  10  30
TORSDOF 7
ENDMDL
