MODEL 1
REMARK VINA RESULT: -6.425230370      0.000      0.000
REMARK  9 active torsions:
REMARK  status: ('A' for Active; 'I' for Inactive)
REMARK    1  A    between atoms: N1_2  and  C3_4 
REMARK    2  A    between atoms: C3_4  and  C4_5 
REMARK    3  A    between atoms: C5_6  and  C6_7 
REMARK    4  A    between atoms: C9_10  and  N2_11 
REMARK    5  A    between atoms: N2_11  and  C10_13 
REMARK    6  A    between atoms: C10_13  and  C11_14 
REMARK    7  A    between atoms: C11_14  and  C12_15 
REMARK    8  A    between atoms: C12_15  and  C13_16 
REMARK    9  A    between atoms: C13_16  and  N3_17 
ROOT
HETATM    1  C6  UNL     1     -28.863 -53.232  17.469  1.00  0.00     0.033 A 
HETATM    2  C7  UNL     1     -30.153 -52.852  17.173  1.00  0.00     0.026 A 
HETATM    3  C8  UNL     1     -30.966 -52.374  18.191  1.00  0.00     0.050 A 
HETATM    4  C9  UNL     1     -30.518 -52.270  19.487  1.00  0.00     0.100 A 
HETATM    5  N6  UNL     1     -29.257 -52.648  19.746  1.00  0.00    -0.351 N 
ATOM      6  H6  UNL     1     -28.905 -52.578  20.701  1.00  0.00     0.166 HD
HETATM    7  C15 UNL     1     -28.444 -53.115  18.781  1.00  0.00     0.110 A 
ENDROOT
BRANCH   4   8
HETATM    8  N2  UNL     1     -31.277 -51.826  20.415  1.00  0.00    -0.376 N 
ATOM      9  H2  UNL     1     -31.147 -50.855  20.699  1.00  0.00     0.161 HD
BRANCH   8  10
HETATM   10  C10 UNL     1     -32.303 -52.581  21.095  1.00  0.00     0.121 C 
BRANCH  10  11
HETATM   11  C11 UNL     1     -32.112 -54.075  20.903  1.00  0.00     0.021 C 
BRANCH  11  12
HETATM   12  C12 UNL     1     -31.640 -54.749  22.149  1.00  0.00     0.021 C 
BRANCH  12  13
HETATM   13  C13 UNL     1     -30.494 -55.655  21.830  1.00  0.00     0.122 C 
BRANCH  13  14
HETATM   14  N3  UNL     1     -30.429 -56.851  22.619  1.00  0.00    -0.367 N 
HETATM   15  C14 UNL     1     -29.595 -57.024  23.580  1.00  0.00     0.196 C 
HETATM   16  N4  UNL     1     -28.672 -55.995  23.905  1.00  0.00    -0.067 NA
HETATM   17  N5  UNL     1     -29.548 -58.215  24.355  1.00  0.00    -0.067 NA
ATOM     18  H3  UNL     1     -31.081 -57.605  22.406  1.00  0.00     0.161 HD
ENDBRANCH  13  14
ENDBRANCH  12  13
ENDBRANCH  11  12
ENDBRANCH  10  11
ENDBRANCH   8  10
ENDBRANCH   4   8
BRANCH   1  19
HETATM   19  C5  UNL     1     -27.970 -53.737  16.444  1.00  0.00    -0.064 C 
HETATM   20  C4  UNL     1     -27.219 -54.140  15.585  1.00  0.00    -0.071 C 
BRANCH  20  21
HETATM   21  C3  UNL     1     -26.309 -54.606  14.536  1.00  0.00     0.365 C 
BRANCH  21  22
HETATM   22  N1  UNL     1     -26.912 -55.728  13.844  1.00  0.00     0.090 N 
HETATM   23  C1  UNL     1     -26.124 -56.062  12.675  1.00  0.00     0.310 C 
HETATM   24  C2  UNL     1     -27.132 -56.862  14.698  1.00  0.00     0.310 C 
ENDBRANCH  21  22
ENDBRANCH  20  21
ENDBRANCH   1  19
TORSDOF 9
ENDMDL
MODEL 2
REMARK VINA RESULT: -6.364060874      2.300      4.196
REMARK  9 active torsions:
REMARK  status: ('A' for Active; 'I' for Inactive)
REMARK    1  A    between atoms: N1_2  and  C3_4 
REMARK    2  A    between atoms: C3_4  and  C4_5 
REMARK    3  A    between atoms: C5_6  and  C6_7 
REMARK    4  A    between atoms: C9_10  and  N2_11 
REMARK    5  A    between atoms: N2_11  and  C10_13 
REMARK    6  A    between atoms: C10_13  and  C11_14 
REMARK    7  A    between atoms: C11_14  and  C12_15 
REMARK    8  A    between atoms: C12_15  and  C13_16 
REMARK    9  A    between atoms: C13_16  and  N3_17 
ROOT
HETATM    1  C6  UNL     1     -27.550 -53.931  17.223  1.00  0.00     0.033 A 
HETATM    2  C7  UNL     1     -27.086 -53.132  18.243  1.00  0.00     0.026 A 
HETATM    3  C8  UNL     1     -27.821 -53.039  19.416  1.00  0.00     0.050 A 
HETATM    4  C9  UNL     1     -29.004 -53.722  19.586  1.00  0.00     0.100 A 
HETATM    5  N6  UNL     1     -29.433 -54.492  18.575  1.00  0.00    -0.351 N 
ATOM      6  H6  UNL     1     -30.307 -55.007  18.680  1.00  0.00     0.166 HD
HETATM    7  C15 UNL     1     -28.741 -54.604  17.425  1.00  0.00     0.110 A 
ENDROOT
BRANCH   4   8
HETATM    8  N2  UNL     1     -29.671 -53.627  20.672  1.00  0.00    -0.376 N 
ATOM      9  H2  UNL     1     -29.681 -52.718  21.136  1.00  0.00     0.161 HD
BRANCH   8  10
HETATM   10  C10 UNL     1     -30.412 -54.696  21.299  1.00  0.00     0.121 C 
BRANCH  10  11
HETATM   11  C11 UNL     1     -31.867 -54.317  21.505  1.00  0.00     0.021 C 
BRANCH  11  12
HETATM   12  C12 UNL     1     -32.122 -52.875  21.211  1.00  0.00     0.021 C 
BRANCH  12  13
HETATM   13  C13 UNL     1     -33.095 -52.754  20.080  1.00  0.00     0.122 C 
BRANCH  13  14
HETATM   14  N3  UNL     1     -32.658 -51.929  18.991  1.00  0.00    -0.367 N 
HETATM   15  C14 UNL     1     -32.242 -52.395  17.870  1.00  0.00     0.196 C 
HETATM   16  N4  UNL     1     -32.197 -53.799  17.663  1.00  0.00    -0.067 NA
HETATM   17  N5  UNL     1     -31.817 -51.561  16.799  1.00  0.00    -0.067 NA
ATOM     18  H3  UNL     1     -32.680 -50.917  19.115  1.00  0.00     0.161 HD
ENDBRANCH  13  14
ENDBRANCH  12  13
ENDBRANCH  11  12
ENDBRANCH  10  11
ENDBRANCH   8  10
ENDBRANCH   4   8
BRANCH   1  19
HETATM   19  C5  UNL     1     -26.821 -54.067  15.977  1.00  0.00    -0.064 C 
HETATM   20  C4  UNL     1     -26.200 -54.165  14.942  1.00  0.00    -0.071 C 
BRANCH  20  21
HETATM   21  C3  UNL     1     -25.440 -54.262  13.694  1.00  0.00     0.365 C 
BRANCH  21  22
HETATM   22  N1  UNL     1     -24.735 -55.528  13.662  1.00  0.00     0.090 N 
HETATM   23  C1  UNL     1     -25.685 -56.613  13.534  1.00  0.00     0.310 C 
HETATM   24  C2  UNL     1     -23.711 -55.575  12.656  1.00  0.00     0.310 C 
ENDBRANCH  21  22
ENDBRANCH  20  21
ENDBRANCH   1  19
TORSDOF 9
ENDMDL
MODEL 3
REMARK VINA RESULT: -6.327655679      0.787      1.307
REMARK  9 active torsions:
REMARK  status: ('A' for Active; 'I' for Inactive)
REMARK    1  A    between atoms: N1_2  and  C3_4 
REMARK    2  A    between atoms: C3_4  and  C4_5 
REMARK    3  A    between atoms: C5_6  and  C6_7 
REMARK    4  A    between atoms: C9_10  and  N2_11 
REMARK    5  A    between atoms: N2_11  and  C10_13 
REMARK    6  A    between atoms: C10_13  and  C11_14 
REMARK    7  A    between atoms: C11_14  and  C12_15 
REMARK    8  A    between atoms: C12_15  and  C13_16 
REMARK    9  A    between atoms: C13_16  and  N3_17 
ROOT
HETATM    1  C6  UNL     1     -28.631 -53.248  17.311  1.00  0.00     0.033 A 
HETATM    2  C7  UNL     1     -28.173 -53.104  18.601  1.00  0.00     0.026 A 
HETATM    3  C8  UNL     1     -29.046 -52.658  19.582  1.00  0.00     0.050 A 
HETATM    4  C9  UNL     1     -30.358 -52.352  19.299  1.00  0.00     0.100 A 
HETATM    5  N6  UNL     1     -30.776 -52.501  18.034  1.00  0.00    -0.351 N 
ATOM      6  H6  UNL     1     -31.745 -52.280  17.803  1.00  0.00     0.166 HD
HETATM    7  C15 UNL     1     -29.953 -52.933  17.060  1.00  0.00     0.110 A 
ENDROOT
BRANCH   4   8
HETATM    8  N2  UNL     1     -31.152 -51.943  20.213  1.00  0.00    -0.376 N 
ATOM      9  H2  UNL     1     -30.870 -51.117  20.741  1.00  0.00     0.161 HD
BRANCH   8  10
HETATM   10  C10 UNL     1     -32.415 -52.549  20.562  1.00  0.00     0.121 C 
BRANCH  10  11
HETATM   11  C11 UNL     1     -32.281 -54.050  20.739  1.00  0.00     0.021 C 
BRANCH  11  12
HETATM   12  C12 UNL     1     -31.569 -54.408  22.002  1.00  0.00     0.021 C 
BRANCH  12  13
HETATM   13  C13 UNL     1     -30.607 -55.523  21.741  1.00  0.00     0.122 C 
BRANCH  13  14
HETATM   14  N3  UNL     1     -30.770 -56.674  22.581  1.00  0.00    -0.367 N 
HETATM   15  C14 UNL     1     -29.995 -56.949  23.567  1.00  0.00     0.196 C 
HETATM   16  N4  UNL     1     -28.907 -56.089  23.869  1.00  0.00    -0.067 NA
HETATM   17  N5  UNL     1     -30.174 -58.093  24.392  1.00  0.00    -0.067 NA
ATOM     18  H3  UNL     1     -31.544 -57.308  22.385  1.00  0.00     0.161 HD
ENDBRANCH  13  14
ENDBRANCH  12  13
ENDBRANCH  11  12
ENDBRANCH  10  11
ENDBRANCH   8  10
ENDBRANCH   4   8
BRANCH   1  19
HETATM   19  C5  UNL     1     -27.761 -53.712  16.247  1.00  0.00    -0.064 C 
HETATM   20  C4  UNL     1     -27.028 -54.081  15.358  1.00  0.00    -0.071 C 
BRANCH  20  21
HETATM   21  C3  UNL     1     -26.135 -54.506  14.277  1.00  0.00     0.365 C 
BRANCH  21  22
HETATM   22  N1  UNL     1     -25.880 -55.927  14.398  1.00  0.00     0.090 N 
HETATM   23  C1  UNL     1     -27.094 -56.667  14.118  1.00  0.00     0.310 C 
HETATM   24  C2  UNL     1     -24.773 -56.370  13.598  1.00  0.00     0.310 C 
ENDBRANCH  21  22
ENDBRANCH  20  21
ENDBRANCH   1  19
TORSDOF 9
ENDMDL
MODEL 4
REMARK VINA RESULT: -6.272923333      2.039      3.961
REMARK  9 active torsions:
REMARK  status: ('A' for Active; 'I' for Inactive)
REMARK    1  A    between atoms: N1_2  and  C3_4 
REMARK    2  A    between atoms: C3_4  and  C4_5 
REMARK    3  A    between atoms: C5_6  and  C6_7 
REMARK    4  A    between atoms: C9_10  and  N2_11 
REMARK    5  A    between atoms: N2_11  and  C10_13 
REMARK    6  A    between atoms: C10_13  and  C11_14 
REMARK    7  A    between atoms: C11_14  and  C12_15 
REMARK    8  A    between atoms: C12_15  and  C13_16 
REMARK    9  A    between atoms: C13_16  and  N3_17 
ROOT
HETATM    1  C6  UNL     1     -27.723 -54.136  17.598  1.00  0.00     0.033 A 
HETATM    2  C7  UNL     1     -28.756 -55.009  17.858  1.00  0.00     0.026 A 
HETATM    3  C8  UNL     1     -29.361 -54.985  19.107  1.00  0.00     0.050 A 
HETATM    4  C9  UNL     1     -28.955 -54.114  20.092  1.00  0.00     0.100 A 
HETATM    5  N6  UNL     1     -27.946 -53.277  19.810  1.00  0.00    -0.351 N 
ATOM      6  H6  UNL     1     -27.631 -52.623  20.527  1.00  0.00     0.166 HD
HETATM    7  C15 UNL     1     -27.340 -53.275  18.609  1.00  0.00     0.110 A 
ENDROOT
BRANCH   4   8
HETATM    8  N2  UNL     1     -29.522 -54.103  21.237  1.00  0.00    -0.376 N 
ATOM      9  H2  UNL     1     -29.025 -53.641  21.999  1.00  0.00     0.161 HD
BRANCH   8  10
HETATM   10  C10 UNL     1     -30.806 -54.687  21.546  1.00  0.00     0.121 C 
BRANCH  10  11
HETATM   11  C11 UNL     1     -31.920 -53.661  21.453  1.00  0.00     0.021 C 
BRANCH  11  12
HETATM   12  C12 UNL     1     -32.744 -53.832  20.220  1.00  0.00     0.021 C 
BRANCH  12  13
HETATM   13  C13 UNL     1     -32.684 -52.586  19.395  1.00  0.00     0.122 C 
BRANCH  13  14
HETATM   14  N3  UNL     1     -31.634 -51.675  19.749  1.00  0.00    -0.367 N 
HETATM   15  C14 UNL     1     -30.692 -51.332  18.947  1.00  0.00     0.196 C 
HETATM   16  N4  UNL     1     -30.657 -51.865  17.632  1.00  0.00    -0.067 NA
HETATM   17  N5  UNL     1     -29.661 -50.424  19.313  1.00  0.00    -0.067 NA
ATOM     18  H3  UNL     1     -31.636 -51.278  20.688  1.00  0.00     0.161 HD
ENDBRANCH  13  14
ENDBRANCH  12  13
ENDBRANCH  11  12
ENDBRANCH  10  11
ENDBRANCH   8  10
ENDBRANCH   4   8
BRANCH   1  19
HETATM   19  C5  UNL     1     -27.056 -54.117  16.310  1.00  0.00    -0.064 C 
HETATM   20  C4  UNL     1     -26.491 -54.118  15.240  1.00  0.00    -0.071 C 
BRANCH  20  21
HETATM   21  C3  UNL     1     -25.791 -54.136  13.953  1.00  0.00     0.365 C 
BRANCH  21  22
HETATM   22  N1  UNL     1     -25.254 -55.461  13.720  1.00  0.00     0.090 N 
HETATM   23  C1  UNL     1     -26.272 -56.304  13.129  1.00  0.00     0.310 C 
HETATM   24  C2  UNL     1     -24.040 -55.448  12.952  1.00  0.00     0.310 C 
ENDBRANCH  21  22
ENDBRANCH  20  21
ENDBRANCH   1  19
TORSDOF 9
ENDMDL
MODEL 5
REMARK VINA RESULT: -6.145038326      1.518      1.862
REMARK  9 active torsions:
REMARK  status: ('A' for Active; 'I' for Inactive)
REMARK    1  A    between atoms: N1_2  and  C3_4 
REMARK    2  A    between atoms: C3_4  and  C4_5 
REMARK    3  A    between atoms: C5_6  and  C6_7 
REMARK    4  A    between atoms: C9_10  and  N2_11 
REMARK    5  A    between atoms: N2_11  and  C10_13 
REMARK    6  A    between atoms: C10_13  and  C11_14 
REMARK    7  A    between atoms: C11_14  and  C12_15 
REMARK    8  A    between atoms: C12_15  and  C13_16 
REMARK    9  A    between atoms: C13_16  and  N3_17 
ROOT
HETATM    1  C6  UNL     1     -27.727 -53.613  16.905  1.00  0.00     0.033 A 
HETATM    2  C7  UNL     1     -29.083 -53.408  16.782  1.00  0.00     0.026 A 
HETATM    3  C8  UNL     1     -29.809 -53.007  17.894  1.00  0.00     0.050 A 
HETATM    4  C9  UNL     1     -29.210 -52.812  19.118  1.00  0.00     0.100 A 
HETATM    5  N6  UNL     1     -27.889 -53.021  19.208  1.00  0.00    -0.351 N 
ATOM      6  H6  UNL     1     -27.426 -52.881  20.106  1.00  0.00     0.166 HD
HETATM    7  C15 UNL     1     -27.157 -53.408  18.147  1.00  0.00     0.110 A 
ENDROOT
BRANCH   4   8
HETATM    8  N2  UNL     1     -29.891 -52.442  20.134  1.00  0.00    -0.376 N 
ATOM      9  H2  UNL     1     -29.405 -52.397  21.030  1.00  0.00     0.161 HD
BRANCH   8  10
HETATM   10  C10 UNL     1     -31.290 -52.084  20.124  1.00  0.00     0.121 C 
BRANCH  10  11
HETATM   11  C11 UNL     1     -32.057 -52.810  21.214  1.00  0.00     0.021 C 
BRANCH  11  12
HETATM   12  C12 UNL     1     -32.154 -54.277  20.955  1.00  0.00     0.021 C 
BRANCH  12  13
HETATM   13  C13 UNL     1     -31.251 -55.016  21.891  1.00  0.00     0.122 C 
BRANCH  13  14
HETATM   14  N3  UNL     1     -30.328 -55.915  21.260  1.00  0.00    -0.367 N 
HETATM   15  C14 UNL     1     -29.053 -55.778  21.316  1.00  0.00     0.196 C 
HETATM   16  N4  UNL     1     -28.492 -54.689  22.033  1.00  0.00    -0.067 NA
HETATM   17  N5  UNL     1     -28.152 -56.681  20.687  1.00  0.00    -0.067 NA
ATOM     18  H3  UNL     1     -30.705 -56.705  20.738  1.00  0.00     0.161 HD
ENDBRANCH  13  14
ENDBRANCH  12  13
ENDBRANCH  11  12
ENDBRANCH  10  11
ENDBRANCH   8  10
ENDBRANCH   4   8
BRANCH   1  19
HETATM   19  C5  UNL     1     -26.920 -54.030  15.775  1.00  0.00    -0.064 C 
HETATM   20  C4  UNL     1     -26.231 -54.365  14.837  1.00  0.00    -0.071 C 
BRANCH  20  21
HETATM   21  C3  UNL     1     -25.385 -54.751  13.705  1.00  0.00     0.365 C 
BRANCH  21  22
HETATM   22  N1  UNL     1     -25.364 -56.195  13.596  1.00  0.00     0.090 N 
HETATM   23  C1  UNL     1     -26.336 -56.625  12.612  1.00  0.00     0.310 C 
HETATM   24  C2  UNL     1     -24.052 -56.720  13.335  1.00  0.00     0.310 C 
ENDBRANCH  21  22
ENDBRANCH  20  21
ENDBRANCH   1  19
TORSDOF 9
ENDMDL
