MODEL 1
REMARK VINA RESULT: -7.534675222      0.000      0.000
REMARK  7 active torsions:
REMARK  status: ('A' for Active; 'I' for Inactive)
REMARK    1  A    between atoms: C2_2  and  C3_3 
REMARK    2  A    between atoms: C3_3  and  N1_4 
REMARK    3  A    between atoms: N1_4  and  C4_6 
REMARK    4  A    between atoms: C6_8  and  C7_9 
REMARK    5  A    between atoms: N3_11  and  C8_13 
REMARK    6  A    between atoms: C8_13  and  C9_14 
REMARK    7  A    between atoms: C9_14  and  C10_15 
ROOT
HETATM    1  C4  UNL     1     -27.043 -53.480  18.443  1.00  0.00     0.107 A 
HETATM    2  C5  UNL     1     -28.330 -53.700  18.934  1.00  0.00     0.081 A 
HETATM    3  C6  UNL     1     -28.558 -53.621  20.286  1.00  0.00     0.081 A 
HETATM    4  N5  UNL     1     -27.504 -53.329  21.068  1.00  0.00    -0.305 N 
ATOM      5  H5  UNL     1     -27.662 -53.268  22.074  1.00  0.00     0.171 HD
HETATM    6  C14 UNL     1     -26.268 -53.114  20.623  1.00  0.00     0.326 A 
HETATM    7  O1  UNL     1     -25.327 -52.843  21.429  1.00  0.00    -0.247 OA
HETATM    8  N6  UNL     1     -26.042 -53.193  19.285  1.00  0.00    -0.295 N 
ATOM      9  H6  UNL     1     -25.103 -53.033  18.919  1.00  0.00     0.172 HD
ENDROOT
BRANCH   3  10
HETATM   10  C7  UNL     1     -29.881 -53.840  20.873  1.00  0.00     0.139 C 
HETATM   11  N2  UNL     1     -30.119 -55.002  21.656  1.00  0.00    -0.081 NA
HETATM   12  N3  UNL     1     -30.840 -53.014  20.704  1.00  0.00    -0.376 N 
ATOM     13  H3  UNL     1     -30.658 -52.184  20.141  1.00  0.00     0.160 HD
BRANCH  12  14
HETATM   14  C8  UNL     1     -32.159 -53.176  21.255  1.00  0.00     0.127 C 
BRANCH  14  15
HETATM   15  C9  UNL     1     -33.196 -53.353  20.141  1.00  0.00     0.076 C 
BRANCH  15  16
HETATM   16  C10 UNL     1     -32.644 -52.833  18.888  1.00  0.00     0.010 A 
HETATM   17  C11 UNL     1     -32.060 -53.543  17.860  1.00  0.00     0.026 A 
HETATM   18  C12 UNL     1     -31.672 -52.664  16.862  1.00  0.00     0.019 A 
HETATM   19  C13 UNL     1     -32.037 -51.408  17.316  1.00  0.00     0.088 A 
HETATM   20  N4  UNL     1     -32.604 -51.544  18.507  1.00  0.00    -0.369 N 
ATOM     21  H4  UNL     1     -32.964 -50.769  19.063  1.00  0.00     0.165 HD
ENDBRANCH  15  16
ENDBRANCH  14  15
ENDBRANCH  12  14
ENDBRANCH   3  10
BRANCH   1  22
HETATM   22  N1  UNL     1     -26.828 -53.553  17.182  1.00  0.00    -0.373 N 
ATOM     23  H1  UNL     1     -25.870 -53.391  16.871  1.00  0.00     0.161 HD
BRANCH  22  24
HETATM   24  C3  UNL     1     -27.800 -53.840  16.159  1.00  0.00     0.147 C 
BRANCH  24  25
HETATM   25  C2  UNL     1     -27.269 -54.670  15.070  1.00  0.00    -0.018 C 
HETATM   26  C1  UNL     1     -26.157 -54.316  14.448  1.00  0.00     0.008 C 
ENDBRANCH  24  25
ENDBRANCH  22  24
ENDBRANCH   1  22
TORSDOF 7
ENDMDL
MODEL 2
REMARK VINA RESULT: -7.316847096      2.881      3.874
REMARK  7 active torsions:
REMARK  status: ('A' for Active; 'I' for Inactive)
REMARK    1  A    between atoms: C2_2  and  C3_3 
REMARK    2  A    between atoms: C3_3  and  N1_4 
REMARK    3  A    between atoms: N1_4  and  C4_6 
REMARK    4  A    between atoms: C6_8  and  C7_9 
REMARK    5  A    between atoms: N3_11  and  C8_13 
REMARK    6  A    between atoms: C8_13  and  C9_14 
REMARK    7  A    between atoms: C9_14  and  C10_15 
ROOT
HETATM    1  C4  UNL     1     -28.659 -55.456  21.642  1.00  0.00     0.107 A 
HETATM    2  C5  UNL     1     -29.683 -54.697  21.078  1.00  0.00     0.081 A 
HETATM    3  C6  UNL     1     -30.919 -54.681  21.677  1.00  0.00     0.081 A 
HETATM    4  N5  UNL     1     -31.066 -55.415  22.794  1.00  0.00    -0.305 N 
ATOM      5  H5  UNL     1     -31.980 -55.411  23.247  1.00  0.00     0.171 HD
HETATM    6  C14 UNL     1     -30.103 -56.146  23.351  1.00  0.00     0.326 A 
HETATM    7  O1  UNL     1     -30.325 -56.812  24.408  1.00  0.00    -0.247 OA
HETATM    8  N6  UNL     1     -28.881 -56.162  22.758  1.00  0.00    -0.295 N 
ATOM      9  H6  UNL     1     -28.127 -56.716  23.165  1.00  0.00     0.172 HD
ENDROOT
BRANCH   3  10
HETATM   10  C7  UNL     1     -32.041 -53.908  21.142  1.00  0.00     0.139 C 
HETATM   11  N2  UNL     1     -32.184 -52.540  21.495  1.00  0.00    -0.081 NA
HETATM   12  N3  UNL     1     -32.905 -54.428  20.359  1.00  0.00    -0.376 N 
ATOM     13  H3  UNL     1     -32.793 -55.410  20.111  1.00  0.00     0.160 HD
BRANCH  12  14
HETATM   14  C8  UNL     1     -34.027 -53.719  19.802  1.00  0.00     0.127 C 
BRANCH  14  15
HETATM   15  C9  UNL     1     -33.890 -53.593  18.280  1.00  0.00     0.076 C 
BRANCH  15  16
HETATM   16  C10 UNL     1     -32.713 -52.777  17.973  1.00  0.00     0.010 A 
HETATM   17  C11 UNL     1     -31.624 -53.118  17.198  1.00  0.00     0.026 A 
HETATM   18  C12 UNL     1     -30.735 -52.055  17.168  1.00  0.00     0.019 A 
HETATM   19  C13 UNL     1     -31.317 -51.068  17.945  1.00  0.00     0.088 A 
HETATM   20  N4  UNL     1     -32.475 -51.524  18.401  1.00  0.00    -0.369 N 
ATOM     21  H4  UNL     1     -33.106 -50.993  19.000  1.00  0.00     0.165 HD
ENDBRANCH  15  16
ENDBRANCH  14  15
ENDBRANCH  12  14
ENDBRANCH   3  10
BRANCH   1  22
HETATM   22  N1  UNL     1     -27.505 -55.472  21.085  1.00  0.00    -0.373 N 
ATOM     23  H1  UNL     1     -26.868 -56.215  21.372  1.00  0.00     0.161 HD
BRANCH  22  24
HETATM   24  C3  UNL     1     -27.015 -54.548  20.094  1.00  0.00     0.147 C 
BRANCH  24  25
HETATM   25  C2  UNL     1     -26.029 -53.597  20.625  1.00  0.00    -0.018 C 
HETATM   26  C1  UNL     1     -26.421 -52.412  21.063  1.00  0.00     0.008 C 
ENDBRANCH  24  25
ENDBRANCH  22  24
ENDBRANCH   1  22
TORSDOF 7
ENDMDL
MODEL 3
REMARK VINA RESULT: -7.136317566      4.186      6.612
REMARK  7 active torsions:
REMARK  status: ('A' for Active; 'I' for Inactive)
REMARK    1  A    between atoms: C2_2  and  C3_3 
REMARK    2  A    between atoms: C3_3  and  N1_4 
REMARK    3  A    between atoms: N1_4  and  C4_6 
REMARK    4  A    between atoms: C6_8  and  C7_9 
REMARK    5  A    between atoms: N3_11  and  C8_13 
REMARK    6  A    between atoms: C8_13  and  C9_14 
REMARK    7  A    between atoms: C9_14  and  C10_15 
ROOT
HETATM    1  C4  UNL     1     -31.836 -52.313  19.443  1.00  0.00     0.107 A 
HETATM    2  C5  UNL     1     -31.092 -53.163  20.261  1.00  0.00     0.081 A 
HETATM    3  C6  UNL     1     -31.722 -54.197  20.909  1.00  0.00     0.081 A 
HETATM    4  N5  UNL     1     -33.045 -54.328  20.710  1.00  0.00    -0.305 N 
ATOM      5  H5  UNL     1     -33.523 -55.093  21.187  1.00  0.00     0.171 HD
HETATM    6  C14 UNL     1     -33.776 -53.531  19.934  1.00  0.00     0.326 A 
HETATM    7  O1  UNL     1     -35.022 -53.723  19.799  1.00  0.00    -0.247 OA
HETATM    8  N6  UNL     1     -33.153 -52.507  19.293  1.00  0.00    -0.295 N 
ATOM      9  H6  UNL     1     -33.691 -51.882  18.694  1.00  0.00     0.172 HD
ENDROOT
BRANCH   3  10
HETATM   10  C7  UNL     1     -31.006 -55.128  21.783  1.00  0.00     0.139 C 
HETATM   11  N2  UNL     1     -31.581 -55.511  23.024  1.00  0.00    -0.081 NA
HETATM   12  N3  UNL     1     -29.869 -55.613  21.464  1.00  0.00    -0.376 N 
ATOM     13  H3  UNL     1     -29.465 -55.332  20.571  1.00  0.00     0.160 HD
BRANCH  12  14
HETATM   14  C8  UNL     1     -29.119 -56.531  22.281  1.00  0.00     0.127 C 
BRANCH  14  15
HETATM   15  C9  UNL     1     -29.132 -57.937  21.671  1.00  0.00     0.076 C 
BRANCH  15  16
HETATM   16  C10 UNL     1     -30.123 -58.754  22.376  1.00  0.00     0.010 A 
HETATM   17  C11 UNL     1     -29.895 -59.744  23.309  1.00  0.00     0.026 A 
HETATM   18  C12 UNL     1     -31.109 -60.265  23.726  1.00  0.00     0.019 A 
HETATM   19  C13 UNL     1     -32.071 -59.564  23.020  1.00  0.00     0.088 A 
HETATM   20  N4  UNL     1     -31.458 -58.686  22.238  1.00  0.00    -0.369 N 
ATOM     21  H4  UNL     1     -31.939 -58.040  21.612  1.00  0.00     0.165 HD
ENDBRANCH  15  16
ENDBRANCH  14  15
ENDBRANCH  12  14
ENDBRANCH   3  10
BRANCH   1  22
HETATM   22  N1  UNL     1     -31.251 -51.347  18.838  1.00  0.00    -0.373 N 
ATOM     23  H1  UNL     1     -31.819 -50.802  18.190  1.00  0.00     0.161 HD
BRANCH  22  24
HETATM   24  C3  UNL     1     -29.872 -50.955  18.978  1.00  0.00     0.147 C 
BRANCH  24  25
HETATM   25  C2  UNL     1     -29.702 -49.674  19.678  1.00  0.00    -0.018 C 
HETATM   26  C1  UNL     1     -28.523 -49.076  19.687  1.00  0.00     0.008 C 
ENDBRANCH  24  25
ENDBRANCH  22  24
ENDBRANCH   1  22
TORSDOF 7
ENDMDL
MODEL 4
REMARK VINA RESULT: -7.086079830      1.028      1.028
REMARK  7 active torsions:
REMARK  status: ('A' for Active; 'I' for Inactive)
REMARK    1  A    between atoms: C2_2  and  C3_3 
REMARK    2  A    between atoms: C3_3  and  N1_4 
REMARK    3  A    between atoms: N1_4  and  C4_6 
REMARK    4  A    between atoms: C6_8  and  C7_9 
REMARK    5  A    between atoms: N3_11  and  C8_13 
REMARK    6  A    between atoms: C8_13  and  C9_14 
REMARK    7  A    between atoms: C9_14  and  C10_15 
ROOT
HETATM    1  C4  UNL     1     -27.196 -54.151  18.469  1.00  0.00     0.107 A 
HETATM    2  C5  UNL     1     -28.457 -53.961  19.033  1.00  0.00     0.081 A 
HETATM    3  C6  UNL     1     -28.713 -54.445  20.292  1.00  0.00     0.081 A 
HETATM    4  N5  UNL     1     -27.709 -55.085  20.916  1.00  0.00    -0.305 N 
ATOM      5  H5  UNL     1     -27.887 -55.450  21.852  1.00  0.00     0.171 HD
HETATM    6  C14 UNL     1     -26.497 -55.278  20.399  1.00  0.00     0.326 A 
HETATM    7  O1  UNL     1     -25.603 -55.894  21.055  1.00  0.00    -0.247 OA
HETATM    8  N6  UNL     1     -26.244 -54.800  19.153  1.00  0.00    -0.295 N 
ATOM      9  H6  UNL     1     -25.324 -54.935  18.734  1.00  0.00     0.172 HD
ENDROOT
BRANCH   3  10
HETATM   10  C7  UNL     1     -30.012 -54.284  20.947  1.00  0.00     0.139 C 
HETATM   11  N2  UNL     1     -30.458 -55.262  21.875  1.00  0.00    -0.081 NA
HETATM   12  N3  UNL     1     -30.767 -53.282  20.709  1.00  0.00    -0.376 N 
ATOM     13  H3  UNL     1     -30.438 -52.586  20.041  1.00  0.00     0.160 HD
BRANCH  12  14
HETATM   14  C8  UNL     1     -32.052 -53.070  21.321  1.00  0.00     0.127 C 
BRANCH  14  15
HETATM   15  C9  UNL     1     -33.174 -53.172  20.281  1.00  0.00     0.076 C 
BRANCH  15  16
HETATM   16  C10 UNL     1     -32.661 -52.732  18.982  1.00  0.00     0.010 A 
HETATM   17  C11 UNL     1     -32.247 -53.515  17.924  1.00  0.00     0.026 A 
HETATM   18  C12 UNL     1     -31.834 -52.697  16.886  1.00  0.00     0.019 A 
HETATM   19  C13 UNL     1     -32.009 -51.403  17.345  1.00  0.00     0.088 A 
HETATM   20  N4  UNL     1     -32.495 -51.460  18.577  1.00  0.00    -0.369 N 
ATOM     21  H4  UNL     1     -32.716 -50.643  19.146  1.00  0.00     0.165 HD
ENDBRANCH  15  16
ENDBRANCH  14  15
ENDBRANCH  12  14
ENDBRANCH   3  10
BRANCH   1  22
HETATM   22  N1  UNL     1     -26.955 -53.700  17.294  1.00  0.00    -0.373 N 
ATOM     23  H1  UNL     1     -26.061 -53.230  17.158  1.00  0.00     0.161 HD
BRANCH  22  24
HETATM   24  C3  UNL     1     -27.820 -53.790  16.145  1.00  0.00     0.147 C 
BRANCH  24  25
HETATM   25  C2  UNL     1     -27.248 -54.583  15.048  1.00  0.00    -0.018 C 
HETATM   26  C1  UNL     1     -26.056 -54.279  14.563  1.00  0.00     0.008 C 
ENDBRANCH  24  25
ENDBRANCH  22  24
ENDBRANCH   1  22
TORSDOF 7
ENDMDL
MODEL 5
REMARK VINA RESULT: -6.977385787      2.933      3.702
REMARK  7 active torsions:
REMARK  status: ('A' for Active; 'I' for Inactive)
REMARK    1  A    between atoms: C2_2  and  C3_3 
REMARK    2  A    between atoms: C3_3  and  N1_4 
REMARK    3  A    between atoms: N1_4  and  C4_6 
REMARK    4  A    between atoms: C6_8  and  C7_9 
REMARK    5  A    between atoms: N3_11  and  C8_13 
REMARK    6  A    between atoms: C8_13  and  C9_14 
REMARK    7  A    between atoms: C9_14  and  C10_15 
ROOT
HETATM    1  C4  UNL     1     -27.311 -56.254  20.837  1.00  0.00     0.107 A 
HETATM    2  C5  UNL     1     -28.435 -55.465  21.073  1.00  0.00     0.081 A 
HETATM    3  C6  UNL     1     -29.627 -56.067  21.393  1.00  0.00     0.081 A 
HETATM    4  N5  UNL     1     -29.634 -57.410  21.462  1.00  0.00    -0.305 N 
ATOM      5  H5  UNL     1     -30.514 -57.868  21.698  1.00  0.00     0.171 HD
HETATM    6  C14 UNL     1     -28.574 -58.184  21.242  1.00  0.00     0.326 A 
HETATM    7  O1  UNL     1     -28.665 -59.447  21.327  1.00  0.00    -0.247 OA
HETATM    8  N6  UNL     1     -27.395 -57.588  20.924  1.00  0.00    -0.295 N 
ATOM      9  H6  UNL     1     -26.568 -58.160  20.750  1.00  0.00     0.172 HD
ENDROOT
BRANCH   3  10
HETATM   10  C7  UNL     1     -30.848 -55.303  21.653  1.00  0.00     0.139 C 
HETATM   11  N2  UNL     1     -31.495 -55.417  22.912  1.00  0.00    -0.081 NA
HETATM   12  N3  UNL     1     -31.358 -54.527  20.776  1.00  0.00    -0.376 N 
ATOM     13  H3  UNL     1     -30.886 -54.453  19.875  1.00  0.00     0.160 HD
BRANCH  12  14
HETATM   14  C8  UNL     1     -32.554 -53.752  20.973  1.00  0.00     0.127 C 
BRANCH  14  15
HETATM   15  C9  UNL     1     -33.406 -53.732  19.699  1.00  0.00     0.076 C 
BRANCH  15  16
HETATM   16  C10 UNL     1     -32.705 -52.962  18.669  1.00  0.00     0.010 A 
HETATM   17  C11 UNL     1     -32.021 -53.442  17.571  1.00  0.00     0.026 A 
HETATM   18  C12 UNL     1     -31.505 -52.375  16.853  1.00  0.00     0.019 A 
HETATM   19  C13 UNL     1     -31.895 -51.243  17.548  1.00  0.00     0.088 A 
HETATM   20  N4  UNL     1     -32.596 -51.623  18.606  1.00  0.00    -0.369 N 
ATOM     21  H4  UNL     1     -33.003 -50.982  19.287  1.00  0.00     0.165 HD
ENDBRANCH  15  16
ENDBRANCH  14  15
ENDBRANCH  12  14
ENDBRANCH   3  10
BRANCH   1  22
HETATM   22  N1  UNL     1     -26.197 -55.694  20.538  1.00  0.00    -0.373 N 
ATOM     23  H1  UNL     1     -25.349 -56.161  20.858  1.00  0.00     0.161 HD
BRANCH  22  24
HETATM   24  C3  UNL     1     -26.022 -54.473  19.795  1.00  0.00     0.147 C 
BRANCH  24  25
HETATM   25  C2  UNL     1     -25.526 -53.360  20.616  1.00  0.00    -0.018 C 
HETATM   26  C1  UNL     1     -26.361 -52.431  21.048  1.00  0.00     0.008 C 
ENDBRANCH  24  25
ENDBRANCH  22  24
ENDBRANCH   1  22
TORSDOF 7
ENDMDL
