MODEL 1
REMARK VINA RESULT: -7.203976042      0.000      0.000
REMARK  6 active torsions:
REMARK  status: ('A' for Active; 'I' for Inactive)
REMARK    1  A    between atoms: C3_5  and  C4_6 
REMARK    2  A    between atoms: C4_6  and  C5_7 
REMARK    3  A    between atoms: C5_7  and  C6_8 
REMARK    4  A    between atoms: N4_14  and  C8_16 
REMARK    5  A    between atoms: C8_16  and  C9_17 
REMARK    6  A    between atoms: C9_17  and  C10_18 
ROOT
HETATM    1  C1  UNL     1     -34.899 -53.697  19.771  1.00  0.00     0.064 C 
HETATM    2  C2  UNL     1     -33.616 -53.477  19.939  1.00  0.00     0.112 A 
HETATM    3  N1  UNL     1     -32.853 -54.384  20.708  1.00  0.00    -0.332 N 
ATOM      4  H1  UNL     1     -33.321 -55.192  21.117  1.00  0.00     0.168 HD
HETATM    5  C3  UNL     1     -31.452 -54.215  20.937  1.00  0.00     0.099 A 
HETATM    6  N3  UNL     1     -30.903 -53.178  20.402  1.00  0.00    -0.181 N 
ATOM      7  H3  UNL     1     -29.904 -53.043  20.557  1.00  0.00     0.185 HD
HETATM    8  C7  UNL     1     -31.570 -52.220  19.623  1.00  0.00     0.680 A 
HETATM    9  N4  UNL     1     -30.990 -51.187  19.097  1.00  0.00    -0.226 N 
ATOM     10  H4  UNL     1     -31.531 -50.525  18.540  1.00  0.00     0.177 HD
HETATM   11  N5  UNL     1     -32.980 -52.352  19.367  1.00  0.00    -0.178 N 
ATOM     12  H5  UNL     1     -33.491 -51.672  18.804  1.00  0.00     0.185 HD
ENDROOT
BRANCH   9  13
HETATM   13  C8  UNL     1     -29.585 -50.975  19.298  1.00  0.00     0.142 C 
BRANCH  13  14
HETATM   14  C9  UNL     1     -28.762 -51.864  18.396  1.00  0.00     0.058 C 
BRANCH  14  15
HETATM   15  C10 UNL     1     -27.654 -52.452  19.207  1.00  0.00    -0.057 A 
HETATM   16  C11 UNL     1     -26.965 -53.583  18.756  1.00  0.00     0.007 A 
HETATM   17  C12 UNL     1     -25.941 -54.135  19.495  1.00  0.00     0.001 A 
HETATM   18  C13 UNL     1     -25.578 -53.579  20.694  1.00  0.00     0.000 A 
HETATM   19  C14 UNL     1     -26.243 -52.452  21.173  1.00  0.00     0.001 A 
HETATM   20  C15 UNL     1     -27.264 -51.918  20.415  1.00  0.00     0.007 A 
ENDBRANCH  14  15
ENDBRANCH  13  14
ENDBRANCH   9  13
BRANCH   5  21
HETATM   21  C4  UNL     1     -30.718 -55.213  21.759  1.00  0.00     0.086 C 
BRANCH  21  22
HETATM   22  C5  UNL     1     -29.239 -55.115  21.367  1.00  0.00     0.107 C 
BRANCH  22  23
HETATM   23  C6  UNL     1     -28.402 -55.938  22.274  1.00  0.00     0.231 C 
HETATM   24  N2  UNL     1     -28.770 -55.997  23.635  1.00  0.00    -0.062 NA
HETATM   25  O1  UNL     1     -27.411 -56.541  21.790  1.00  0.00    -0.277 OA
ENDBRANCH  22  23
ENDBRANCH  21  22
ENDBRANCH   5  21
TORSDOF 6
ENDMDL
MODEL 2
REMARK VINA RESULT: -7.200501096      3.132      6.021
REMARK  6 active torsions:
REMARK  status: ('A' for Active; 'I' for Inactive)
REMARK    1  A    between atoms: C3_5  and  C4_6 
REMARK    2  A    between atoms: C4_6  and  C5_7 
REMARK    3  A    between atoms: C5_7  and  C6_8 
REMARK    4  A    between atoms: N4_14  and  C8_16 
REMARK    5  A    between atoms: C8_16  and  C9_17 
REMARK    6  A    between atoms: C9_17  and  C10_18 
ROOT
HETATM    1  C1  UNL     1     -25.483 -53.128  20.727  1.00  0.00     0.064 C 
HETATM    2  C2  UNL     1     -26.680 -53.543  20.385  1.00  0.00     0.112 A 
HETATM    3  N1  UNL     1     -26.901 -54.011  19.070  1.00  0.00    -0.332 N 
ATOM      4  H1  UNL     1     -26.119 -54.014  18.414  1.00  0.00     0.168 HD
HETATM    5  C3  UNL     1     -28.174 -54.480  18.620  1.00  0.00     0.099 A 
HETATM    6  N3  UNL     1     -29.133 -54.457  19.482  1.00  0.00    -0.181 N 
ATOM      7  H3  UNL     1     -30.047 -54.787  19.175  1.00  0.00     0.185 HD
HETATM    8  C7  UNL     1     -29.018 -54.013  20.808  1.00  0.00     0.680 A 
HETATM    9  N4  UNL     1     -30.001 -54.002  21.653  1.00  0.00    -0.226 N 
ATOM     10  H4  UNL     1     -29.854 -53.666  22.605  1.00  0.00     0.177 HD
HETATM   11  N5  UNL     1     -27.754 -53.534  21.303  1.00  0.00    -0.178 N 
ATOM     12  H5  UNL     1     -27.641 -53.205  22.262  1.00  0.00     0.185 HD
ENDROOT
BRANCH   9  13
HETATM   13  C8  UNL     1     -31.298 -54.463  21.248  1.00  0.00     0.142 C 
BRANCH  13  14
HETATM   14  C9  UNL     1     -32.244 -53.308  21.019  1.00  0.00     0.058 C 
BRANCH  14  15
HETATM   15  C10 UNL     1     -32.053 -52.819  19.622  1.00  0.00    -0.057 A 
HETATM   16  C11 UNL     1     -32.574 -53.536  18.538  1.00  0.00     0.007 A 
HETATM   17  C12 UNL     1     -32.405 -53.094  17.244  1.00  0.00     0.001 A 
HETATM   18  C13 UNL     1     -31.716 -51.935  16.995  1.00  0.00     0.000 A 
HETATM   19  C14 UNL     1     -31.183 -51.197  18.050  1.00  0.00     0.001 A 
HETATM   20  C15 UNL     1     -31.367 -51.660  19.336  1.00  0.00     0.007 A 
ENDBRANCH  14  15
ENDBRANCH  13  14
ENDBRANCH   9  13
BRANCH   5  21
HETATM   21  C4  UNL     1     -28.326 -54.957  17.220  1.00  0.00     0.086 C 
BRANCH  21  22
HETATM   22  C5  UNL     1     -27.816 -53.836  16.306  1.00  0.00     0.107 C 
BRANCH  22  23
HETATM   23  C6  UNL     1     -27.261 -54.397  15.051  1.00  0.00     0.231 C 
HETATM   24  N2  UNL     1     -27.815 -55.601  14.566  1.00  0.00    -0.062 NA
HETATM   25  O1  UNL     1     -26.328 -53.776  14.480  1.00  0.00    -0.277 OA
ENDBRANCH  22  23
ENDBRANCH  21  22
ENDBRANCH   5  21
TORSDOF 6
ENDMDL
MODEL 3
REMARK VINA RESULT: -7.188458712      3.133      6.089
REMARK  6 active torsions:
REMARK  status: ('A' for Active; 'I' for Inactive)
REMARK    1  A    between atoms: C3_5  and  C4_6 
REMARK    2  A    between atoms: C4_6  and  C5_7 
REMARK    3  A    between atoms: C5_7  and  C6_8 
REMARK    4  A    between atoms: N4_14  and  C8_16 
REMARK    5  A    between atoms: C8_16  and  C9_17 
REMARK    6  A    between atoms: C9_17  and  C10_18 
ROOT
HETATM    1  C1  UNL     1     -25.478 -53.130  20.721  1.00  0.00     0.064 C 
HETATM    2  C2  UNL     1     -26.676 -53.545  20.380  1.00  0.00     0.112 A 
HETATM    3  N1  UNL     1     -26.898 -54.012  19.065  1.00  0.00    -0.332 N 
ATOM      4  H1  UNL     1     -26.118 -54.014  18.409  1.00  0.00     0.168 HD
HETATM    5  C3  UNL     1     -28.172 -54.480  18.616  1.00  0.00     0.099 A 
HETATM    6  N3  UNL     1     -29.130 -54.457  19.480  1.00  0.00    -0.181 N 
ATOM      7  H3  UNL     1     -30.045 -54.787  19.174  1.00  0.00     0.185 HD
HETATM    8  C7  UNL     1     -29.013 -54.014  20.806  1.00  0.00     0.680 A 
HETATM    9  N4  UNL     1     -29.996 -54.004  21.652  1.00  0.00    -0.226 N 
ATOM     10  H4  UNL     1     -29.847 -53.668  22.604  1.00  0.00     0.177 HD
HETATM   11  N5  UNL     1     -27.749 -53.536  21.299  1.00  0.00    -0.178 N 
ATOM     12  H5  UNL     1     -27.634 -53.208  22.259  1.00  0.00     0.185 HD
ENDROOT
BRANCH   9  13
HETATM   13  C8  UNL     1     -31.293 -54.464  21.248  1.00  0.00     0.142 C 
BRANCH  13  14
HETATM   14  C9  UNL     1     -32.239 -53.308  21.022  1.00  0.00     0.058 C 
BRANCH  14  15
HETATM   15  C10 UNL     1     -32.064 -52.830  19.619  1.00  0.00    -0.057 A 
HETATM   16  C11 UNL     1     -31.357 -51.652  19.350  1.00  0.00     0.007 A 
HETATM   17  C12 UNL     1     -31.189 -51.201  18.060  1.00  0.00     0.001 A 
HETATM   18  C13 UNL     1     -31.717 -51.905  17.008  1.00  0.00     0.000 A 
HETATM   19  C14 UNL     1     -32.427 -53.081  17.239  1.00  0.00     0.001 A 
HETATM   20  C15 UNL     1     -32.581 -53.512  18.541  1.00  0.00     0.007 A 
ENDBRANCH  14  15
ENDBRANCH  13  14
ENDBRANCH   9  13
BRANCH   5  21
HETATM   21  C4  UNL     1     -28.326 -54.955  17.216  1.00  0.00     0.086 C 
BRANCH  21  22
HETATM   22  C5  UNL     1     -27.812 -53.837  16.303  1.00  0.00     0.107 C 
BRANCH  22  23
HETATM   23  C6  UNL     1     -27.258 -54.399  15.047  1.00  0.00     0.231 C 
HETATM   24  N2  UNL     1     -27.818 -55.600  14.562  1.00  0.00    -0.062 NA
HETATM   25  O1  UNL     1     -26.322 -53.782  14.478  1.00  0.00    -0.277 OA
ENDBRANCH  22  23
ENDBRANCH  21  22
ENDBRANCH   5  21
TORSDOF 6
ENDMDL
MODEL 4
REMARK VINA RESULT: -7.143505716      2.144      5.081
REMARK  6 active torsions:
REMARK  status: ('A' for Active; 'I' for Inactive)
REMARK    1  A    between atoms: C3_5  and  C4_6 
REMARK    2  A    between atoms: C4_6  and  C5_7 
REMARK    3  A    between atoms: C5_7  and  C6_8 
REMARK    4  A    between atoms: N4_14  and  C8_16 
REMARK    5  A    between atoms: C8_16  and  C9_17 
REMARK    6  A    between atoms: C9_17  and  C10_18 
ROOT
HETATM    1  C1  UNL     1     -28.630 -58.014  21.509  1.00  0.00     0.064 C 
HETATM    2  C2  UNL     1     -29.000 -56.755  21.462  1.00  0.00     0.112 A 
HETATM    3  N1  UNL     1     -28.018 -55.751  21.303  1.00  0.00    -0.332 N 
ATOM      4  H1  UNL     1     -27.040 -56.031  21.230  1.00  0.00     0.168 HD
HETATM    5  C3  UNL     1     -28.338 -54.359  21.242  1.00  0.00     0.099 A 
HETATM    6  N3  UNL     1     -29.587 -54.052  21.341  1.00  0.00    -0.181 N 
ATOM      7  H3  UNL     1     -29.831 -53.063  21.300  1.00  0.00     0.185 HD
HETATM    8  C7  UNL     1     -30.636 -54.970  21.500  1.00  0.00     0.680 A 
HETATM    9  N4  UNL     1     -31.884 -54.630  21.596  1.00  0.00    -0.226 N 
ATOM     10  H4  UNL     1     -32.601 -55.346  21.712  1.00  0.00     0.177 HD
HETATM   11  N5  UNL     1     -30.358 -56.380  21.565  1.00  0.00    -0.178 N 
ATOM     12  H5  UNL     1     -31.100 -57.071  21.680  1.00  0.00     0.185 HD
ENDROOT
BRANCH   9  13
HETATM   13  C8  UNL     1     -32.255 -53.246  21.540  1.00  0.00     0.142 C 
BRANCH  13  14
HETATM   14  C9  UNL     1     -33.215 -52.981  20.405  1.00  0.00     0.058 C 
BRANCH  14  15
HETATM   15  C10 UNL     1     -32.420 -52.598  19.201  1.00  0.00    -0.057 A 
HETATM   16  C11 UNL     1     -32.726 -53.134  17.945  1.00  0.00     0.007 A 
HETATM   17  C12 UNL     1     -32.000 -52.788  16.826  1.00  0.00     0.001 A 
HETATM   18  C13 UNL     1     -30.956 -51.905  16.927  1.00  0.00     0.000 A 
HETATM   19  C14 UNL     1     -30.624 -51.352  18.162  1.00  0.00     0.001 A 
HETATM   20  C15 UNL     1     -31.367 -51.714  19.267  1.00  0.00     0.007 A 
ENDBRANCH  14  15
ENDBRANCH  13  14
ENDBRANCH   9  13
BRANCH   5  21
HETATM   21  C4  UNL     1     -27.248 -53.363  21.074  1.00  0.00     0.086 C 
BRANCH  21  22
HETATM   22  C5  UNL     1     -27.622 -52.488  19.872  1.00  0.00     0.107 C 
BRANCH  22  23
HETATM   23  C6  UNL     1     -27.418 -53.228  18.603  1.00  0.00     0.231 C 
HETATM   24  N2  UNL     1     -28.389 -54.184  18.237  1.00  0.00    -0.062 NA
HETATM   25  O1  UNL     1     -26.397 -52.968  17.917  1.00  0.00    -0.277 OA
ENDBRANCH  22  23
ENDBRANCH  21  22
ENDBRANCH   5  21
TORSDOF 6
ENDMDL
MODEL 5
REMARK VINA RESULT: -7.002703202      2.166      4.830
REMARK  6 active torsions:
REMARK  status: ('A' for Active; 'I' for Inactive)
REMARK    1  A    between atoms: C3_5  and  C4_6 
REMARK    2  A    between atoms: C4_6  and  C5_7 
REMARK    3  A    between atoms: C5_7  and  C6_8 
REMARK    4  A    between atoms: N4_14  and  C8_16 
REMARK    5  A    between atoms: C8_16  and  C9_17 
REMARK    6  A    between atoms: C9_17  and  C10_18 
ROOT
HETATM    1  C1  UNL     1     -29.379 -57.575  23.519  1.00  0.00     0.064 C 
HETATM    2  C2  UNL     1     -29.655 -56.490  22.833  1.00  0.00     0.112 A 
HETATM    3  N1  UNL     1     -28.597 -55.718  22.303  1.00  0.00    -0.332 N 
ATOM      4  H1  UNL     1     -27.638 -56.024  22.469  1.00  0.00     0.168 HD
HETATM    5  C3  UNL     1     -28.814 -54.525  21.546  1.00  0.00     0.099 A 
HETATM    6  N3  UNL     1     -30.042 -54.176  21.363  1.00  0.00    -0.181 N 
ATOM      7  H3  UNL     1     -30.213 -53.327  20.825  1.00  0.00     0.185 HD
HETATM    8  C7  UNL     1     -31.162 -54.872  21.845  1.00  0.00     0.680 A 
HETATM    9  N4  UNL     1     -32.386 -54.496  21.643  1.00  0.00    -0.226 N 
ATOM     10  H4  UNL     1     -33.158 -55.045  22.022  1.00  0.00     0.177 HD
HETATM   11  N5  UNL     1     -30.988 -56.078  22.611  1.00  0.00    -0.178 N 
ATOM     12  H5  UNL     1     -31.783 -56.604  22.974  1.00  0.00     0.185 HD
ENDROOT
BRANCH   9  13
HETATM   13  C8  UNL     1     -32.654 -53.306  20.889  1.00  0.00     0.142 C 
BRANCH  13  14
HETATM   14  C9  UNL     1     -33.210 -53.636  19.524  1.00  0.00     0.058 C 
BRANCH  14  15
HETATM   15  C10 UNL     1     -32.220 -53.193  18.497  1.00  0.00    -0.057 A 
HETATM   16  C11 UNL     1     -32.468 -52.062  17.710  1.00  0.00     0.007 A 
HETATM   17  C12 UNL     1     -31.562 -51.644  16.761  1.00  0.00     0.001 A 
HETATM   18  C13 UNL     1     -30.393 -52.335  16.570  1.00  0.00     0.000 A 
HETATM   19  C14 UNL     1     -30.115 -53.465  17.335  1.00  0.00     0.001 A 
HETATM   20  C15 UNL     1     -31.038 -53.863  18.280  1.00  0.00     0.007 A 
ENDBRANCH  14  15
ENDBRANCH  13  14
ENDBRANCH   9  13
BRANCH   5  21
HETATM   21  C4  UNL     1     -27.647 -53.767  21.022  1.00  0.00     0.086 C 
BRANCH  21  22
HETATM   22  C5  UNL     1     -27.289 -54.379  19.663  1.00  0.00     0.107 C 
BRANCH  22  23
HETATM   23  C6  UNL     1     -26.247 -55.423  19.817  1.00  0.00     0.231 C 
HETATM   24  N2  UNL     1     -25.964 -56.239  18.701  1.00  0.00    -0.062 NA
HETATM   25  O1  UNL     1     -25.667 -55.529  20.928  1.00  0.00    -0.277 OA
ENDBRANCH  22  23
ENDBRANCH  21  22
ENDBRANCH   5  21
TORSDOF 6
ENDMDL
