MODEL 1
REMARK VINA RESULT: -7.281732245      0.000      0.000
REMARK  9 active torsions:
REMARK  status: ('A' for Active; 'I' for Inactive)
REMARK    1  A    between atoms: C3_6  and  N3_7 
REMARK    2  A    between atoms: N3_7  and  C4_9 
REMARK    3  A    between atoms: C4_9  and  C5_10 
REMARK    4  A    between atoms: C5_10  and  C6_11 
REMARK    5  A    between atoms: C6_11  and  O1_12 
REMARK    6  A    between atoms: C7_16  and  N5_17 
REMARK    7  A    between atoms: N5_17  and  C8_19 
REMARK    8  A    between atoms: C8_19  and  C9_20 
REMARK    9  A    between atoms: C9_20  and  C10_21 
ROOT
HETATM    1  C1  UNL     1     -32.071 -51.389  18.362  1.00  0.00     0.176 C 
HETATM    2  N1  UNL     1     -31.817 -52.149  19.569  1.00  0.00    -0.182 N 
HETATM    3  C2  UNL     1     -32.617 -53.217  19.865  1.00  0.00     0.217 A 
HETATM    4  N2  UNL     1     -32.433 -53.948  20.955  1.00  0.00    -0.187 N 
ATOM      5  H2  UNL     1     -33.039 -54.741  21.162  1.00  0.00     0.185 HD
HETATM    6  C3  UNL     1     -31.439 -53.620  21.771  1.00  0.00     0.693 A 
HETATM    7  N4  UNL     1     -30.659 -52.584  21.491  1.00  0.00    -0.022 N 
ATOM      8  H4  UNL     1     -29.905 -52.360  22.141  1.00  0.00     0.203 HD
HETATM    9  C7  UNL     1     -30.807 -51.797  20.379  1.00  0.00     0.699 A 
ENDROOT
BRANCH   9  10
HETATM   10  N5  UNL     1     -29.992 -50.863  20.261  1.00  0.00    -0.204 N 
ATOM     11  H5  UNL     1     -30.145 -50.143  20.967  1.00  0.00     0.183 HD
BRANCH  10  12
HETATM   12  C8  UNL     1     -28.924 -50.536  19.419  1.00  0.00     0.083 C 
BRANCH  12  13
HETATM   13  C9  UNL     1     -27.638 -50.500  20.230  1.00  0.00     0.083 C 
BRANCH  13  14
HETATM   14  C10 UNL     1     -26.876 -51.733  20.178  1.00  0.00    -0.053 A 
HETATM   15  C11 UNL     1     -27.162 -52.698  19.247  1.00  0.00     0.007 A 
HETATM   16  C12 UNL     1     -26.466 -53.885  19.160  1.00  0.00     0.001 A 
HETATM   17  C13 UNL     1     -25.429 -54.082  20.077  1.00  0.00     0.000 A 
HETATM   18  C14 UNL     1     -25.113 -53.137  21.026  1.00  0.00     0.001 A 
HETATM   19  C15 UNL     1     -25.850 -51.962  21.063  1.00  0.00     0.007 A 
ENDBRANCH  13  14
ENDBRANCH  12  13
ENDBRANCH  10  12
ENDBRANCH   9  10
BRANCH   6  20
HETATM   20  N3  UNL     1     -31.234 -54.314  22.844  1.00  0.00    -0.225 N 
ATOM     21  H3  UNL     1     -31.528 -53.922  23.738  1.00  0.00     0.177 HD
BRANCH  20  22
HETATM   22  C4  UNL     1     -30.613 -55.611  22.837  1.00  0.00     0.140 C 
BRANCH  22  23
HETATM   23  C5  UNL     1     -29.531 -55.590  21.751  1.00  0.00     0.046 C 
BRANCH  23  24
HETATM   24  C6  UNL     1     -28.175 -55.381  22.395  1.00  0.00     0.165 C 
BRANCH  24  25
HETATM   25  O1  UNL     1     -28.042 -53.990  22.586  1.00  0.00    -0.401 OA
ATOM     26  H1  UNL     1     -28.411 -53.804  23.441  1.00  0.00     0.209 HD
ENDBRANCH  24  25
ENDBRANCH  23  24
ENDBRANCH  22  23
ENDBRANCH  20  22
ENDBRANCH   6  20
TORSDOF 9
ENDMDL
MODEL 2
REMARK VINA RESULT: -7.272492405      0.041      1.044
REMARK  9 active torsions:
REMARK  status: ('A' for Active; 'I' for Inactive)
REMARK    1  A    between atoms: C3_6  and  N3_7 
REMARK    2  A    between atoms: N3_7  and  C4_9 
REMARK    3  A    between atoms: C4_9  and  C5_10 
REMARK    4  A    between atoms: C5_10  and  C6_11 
REMARK    5  A    between atoms: C6_11  and  O1_12 
REMARK    6  A    between atoms: C7_16  and  N5_17 
REMARK    7  A    between atoms: N5_17  and  C8_19 
REMARK    8  A    between atoms: C8_19  and  C9_20 
REMARK    9  A    between atoms: C9_20  and  C10_21 
ROOT
HETATM    1  C1  UNL     1     -32.104 -51.419  18.315  1.00  0.00     0.176 C 
HETATM    2  N1  UNL     1     -31.843 -52.161  19.531  1.00  0.00    -0.182 N 
HETATM    3  C2  UNL     1     -32.638 -53.228  19.846  1.00  0.00     0.217 A 
HETATM    4  N2  UNL     1     -32.446 -53.943  20.945  1.00  0.00    -0.187 N 
ATOM      5  H2  UNL     1     -33.049 -54.736  21.166  1.00  0.00     0.185 HD
HETATM    6  C3  UNL     1     -31.449 -53.602  21.751  1.00  0.00     0.693 A 
HETATM    7  N4  UNL     1     -30.674 -52.567  21.453  1.00  0.00    -0.022 N 
ATOM      8  H4  UNL     1     -29.918 -52.332  22.097  1.00  0.00     0.203 HD
HETATM    9  C7  UNL     1     -30.830 -51.796  20.331  1.00  0.00     0.699 A 
ENDROOT
BRANCH   9  10
HETATM   10  N5  UNL     1     -30.019 -50.862  20.197  1.00  0.00    -0.204 N 
ATOM     11  H5  UNL     1     -30.192 -50.117  20.873  1.00  0.00     0.183 HD
BRANCH  10  12
HETATM   12  C8  UNL     1     -28.933 -50.558  19.368  1.00  0.00     0.083 C 
BRANCH  12  13
HETATM   13  C9  UNL     1     -27.661 -50.514  20.200  1.00  0.00     0.083 C 
BRANCH  13  14
HETATM   14  C10 UNL     1     -26.890 -51.741  20.159  1.00  0.00    -0.053 A 
HETATM   15  C11 UNL     1     -25.866 -51.958  21.045  1.00  0.00     0.007 A 
HETATM   16  C12 UNL     1     -25.105 -53.107  21.044  1.00  0.00     0.001 A 
HETATM   17  C13 UNL     1     -25.416 -54.075  20.084  1.00  0.00     0.000 A 
HETATM   18  C14 UNL     1     -26.436 -53.893  19.178  1.00  0.00     0.001 A 
HETATM   19  C15 UNL     1     -27.166 -52.714  19.229  1.00  0.00     0.007 A 
ENDBRANCH  13  14
ENDBRANCH  12  13
ENDBRANCH  10  12
ENDBRANCH   9  10
BRANCH   6  20
HETATM   20  N3  UNL     1     -31.238 -54.281  22.832  1.00  0.00    -0.225 N 
ATOM     21  H3  UNL     1     -31.503 -53.865  23.726  1.00  0.00     0.177 HD
BRANCH  20  22
HETATM   22  C4  UNL     1     -30.647 -55.591  22.837  1.00  0.00     0.140 C 
BRANCH  22  23
HETATM   23  C5  UNL     1     -29.561 -55.603  21.755  1.00  0.00     0.046 C 
BRANCH  23  24
HETATM   24  C6  UNL     1     -28.202 -55.417  22.403  1.00  0.00     0.165 C 
BRANCH  24  25
HETATM   25  O1  UNL     1     -28.048 -54.028  22.598  1.00  0.00    -0.401 OA
ATOM     26  H1  UNL     1     -28.383 -53.845  23.468  1.00  0.00     0.209 HD
ENDBRANCH  24  25
ENDBRANCH  23  24
ENDBRANCH  22  23
ENDBRANCH  20  22
ENDBRANCH   6  20
TORSDOF 9
ENDMDL
MODEL 3
REMARK VINA RESULT: -6.949941022      2.362      4.645
REMARK  9 active torsions:
REMARK  status: ('A' for Active; 'I' for Inactive)
REMARK    1  A    between atoms: C3_6  and  N3_7 
REMARK    2  A    between atoms: N3_7  and  C4_9 
REMARK    3  A    between atoms: C4_9  and  C5_10 
REMARK    4  A    between atoms: C5_10  and  C6_11 
REMARK    5  A    between atoms: C6_11  and  O1_12 
REMARK    6  A    between atoms: C7_16  and  N5_17 
REMARK    7  A    between atoms: N5_17  and  C8_19 
REMARK    8  A    between atoms: C8_19  and  C9_20 
REMARK    9  A    between atoms: C9_20  and  C10_21 
ROOT
HETATM    1  C1  UNL     1     -26.415 -56.225  21.091  1.00  0.00     0.176 C 
HETATM    2  N1  UNL     1     -27.697 -55.644  21.433  1.00  0.00    -0.182 N 
HETATM    3  C2  UNL     1     -28.753 -56.469  21.701  1.00  0.00     0.217 A 
HETATM    4  N2  UNL     1     -29.949 -55.994  22.019  1.00  0.00    -0.187 N 
ATOM      5  H2  UNL     1     -30.727 -56.624  22.215  1.00  0.00     0.185 HD
HETATM    6  C3  UNL     1     -30.108 -54.679  22.075  1.00  0.00     0.693 A 
HETATM    7  N4  UNL     1     -29.088 -53.871  21.815  1.00  0.00    -0.022 N 
ATOM      8  H4  UNL     1     -29.246 -52.864  21.867  1.00  0.00     0.203 HD
HETATM    9  C7  UNL     1     -27.834 -54.310  21.483  1.00  0.00     0.699 A 
ENDROOT
BRANCH   9  10
HETATM   10  N5  UNL     1     -26.986 -53.424  21.269  1.00  0.00    -0.204 N 
ATOM     11  H5  UNL     1     -26.217 -53.474  21.938  1.00  0.00     0.183 HD
BRANCH  10  12
HETATM   12  C8  UNL     1     -26.804 -52.378  20.357  1.00  0.00     0.083 C 
BRANCH  12  13
HETATM   13  C9  UNL     1     -27.298 -52.814  18.987  1.00  0.00     0.083 C 
BRANCH  13  14
HETATM   14  C10 UNL     1     -28.575 -52.238  18.612  1.00  0.00    -0.053 A 
HETATM   15  C11 UNL     1     -29.124 -51.213  19.337  1.00  0.00     0.007 A 
HETATM   16  C12 UNL     1     -30.334 -50.635  19.019  1.00  0.00     0.001 A 
HETATM   17  C13 UNL     1     -31.006 -51.140  17.902  1.00  0.00     0.000 A 
HETATM   18  C14 UNL     1     -30.487 -52.169  17.149  1.00  0.00     0.001 A 
HETATM   19  C15 UNL     1     -29.264 -52.710  17.520  1.00  0.00     0.007 A 
ENDBRANCH  13  14
ENDBRANCH  12  13
ENDBRANCH  10  12
ENDBRANCH   9  10
BRANCH   6  20
HETATM   20  N3  UNL     1     -31.264 -54.185  22.382  1.00  0.00    -0.225 N 
ATOM     21  H3  UNL     1     -31.804 -54.637  23.119  1.00  0.00     0.177 HD
BRANCH  20  22
HETATM   22  C4  UNL     1     -31.824 -53.029  21.735  1.00  0.00     0.140 C 
BRANCH  22  23
HETATM   23  C5  UNL     1     -32.248 -53.459  20.326  1.00  0.00     0.046 C 
BRANCH  23  24
HETATM   24  C6  UNL     1     -33.707 -53.105  20.109  1.00  0.00     0.165 C 
BRANCH  24  25
HETATM   25  O1  UNL     1     -34.449 -54.232  20.519  1.00  0.00    -0.401 OA
ATOM     26  H1  UNL     1     -35.003 -53.939  21.233  1.00  0.00     0.209 HD
ENDBRANCH  24  25
ENDBRANCH  23  24
ENDBRANCH  22  23
ENDBRANCH  20  22
ENDBRANCH   6  20
TORSDOF 9
ENDMDL
MODEL 4
REMARK VINA RESULT: -6.795117965      1.334      2.042
REMARK  9 active torsions:
REMARK  status: ('A' for Active; 'I' for Inactive)
REMARK    1  A    between atoms: C3_6  and  N3_7 
REMARK    2  A    between atoms: N3_7  and  C4_9 
REMARK    3  A    between atoms: C4_9  and  C5_10 
REMARK    4  A    between atoms: C5_10  and  C6_11 
REMARK    5  A    between atoms: C6_11  and  O1_12 
REMARK    6  A    between atoms: C7_16  and  N5_17 
REMARK    7  A    between atoms: N5_17  and  C8_19 
REMARK    8  A    between atoms: C8_19  and  C9_20 
REMARK    9  A    between atoms: C9_20  and  C10_21 
ROOT
HETATM    1  C1  UNL     1     -31.717 -51.779  18.816  1.00  0.00     0.176 C 
HETATM    2  N1  UNL     1     -31.465 -52.659  19.939  1.00  0.00    -0.182 N 
HETATM    3  C2  UNL     1     -31.959 -52.328  21.170  1.00  0.00     0.217 A 
HETATM    4  N2  UNL     1     -31.760 -53.094  22.233  1.00  0.00    -0.187 N 
ATOM      5  H2  UNL     1     -32.135 -52.831  23.145  1.00  0.00     0.185 HD
HETATM    6  C3  UNL     1     -31.059 -54.210  22.081  1.00  0.00     0.693 A 
HETATM    7  N4  UNL     1     -30.575 -54.538  20.890  1.00  0.00    -0.022 N 
ATOM      8  H4  UNL     1     -30.040 -55.402  20.809  1.00  0.00     0.203 HD
HETATM    9  C7  UNL     1     -30.753 -53.782  19.761  1.00  0.00     0.699 A 
ENDROOT
BRANCH   9  10
HETATM   10  N5  UNL     1     -30.235 -54.228  18.721  1.00  0.00    -0.204 N 
ATOM     11  H5  UNL     1     -30.942 -54.543  18.057  1.00  0.00     0.183 HD
BRANCH  10  12
HETATM   12  C8  UNL     1     -28.942 -54.413  18.218  1.00  0.00     0.083 C 
BRANCH  12  13
HETATM   13  C9  UNL     1     -28.212 -53.080  18.204  1.00  0.00     0.083 C 
BRANCH  13  14
HETATM   14  C10 UNL     1     -27.192 -52.958  19.227  1.00  0.00    -0.053 A 
HETATM   15  C11 UNL     1     -27.199 -51.905  20.105  1.00  0.00     0.007 A 
HETATM   16  C12 UNL     1     -26.250 -51.747  21.093  1.00  0.00     0.001 A 
HETATM   17  C13 UNL     1     -25.250 -52.720  21.174  1.00  0.00     0.000 A 
HETATM   18  C14 UNL     1     -25.209 -53.790  20.310  1.00  0.00     0.001 A 
HETATM   19  C15 UNL     1     -26.192 -53.894  19.337  1.00  0.00     0.007 A 
ENDBRANCH  13  14
ENDBRANCH  12  13
ENDBRANCH  10  12
ENDBRANCH   9  10
BRANCH   6  20
HETATM   20  N3  UNL     1     -30.847 -54.978  23.100  1.00  0.00    -0.225 N 
ATOM     21  H3  UNL     1     -31.055 -54.617  24.031  1.00  0.00     0.177 HD
BRANCH  20  22
HETATM   22  C4  UNL     1     -30.332 -56.316  22.985  1.00  0.00     0.140 C 
BRANCH  22  23
HETATM   23  C5  UNL     1     -28.996 -56.354  23.736  1.00  0.00     0.046 C 
BRANCH  23  24
HETATM   24  C6  UNL     1     -27.865 -56.076  22.765  1.00  0.00     0.165 C 
BRANCH  24  25
HETATM   25  O1  UNL     1     -27.833 -54.676  22.590  1.00  0.00    -0.401 OA
ATOM     26  H1  UNL     1     -28.640 -54.345  22.966  1.00  0.00     0.209 HD
ENDBRANCH  24  25
ENDBRANCH  23  24
ENDBRANCH  22  23
ENDBRANCH  20  22
ENDBRANCH   6  20
TORSDOF 9
ENDMDL
MODEL 5
REMARK VINA RESULT: -6.783957099      1.341      1.990
REMARK  9 active torsions:
REMARK  status: ('A' for Active; 'I' for Inactive)
REMARK    1  A    between atoms: C3_6  and  N3_7 
REMARK    2  A    between atoms: N3_7  and  C4_9 
REMARK    3  A    between atoms: C4_9  and  C5_10 
REMARK    4  A    between atoms: C5_10  and  C6_11 
REMARK    5  A    between atoms: C6_11  and  O1_12 
REMARK    6  A    between atoms: C7_16  and  N5_17 
REMARK    7  A    between atoms: N5_17  and  C8_19 
REMARK    8  A    between atoms: C8_19  and  C9_20 
REMARK    9  A    between atoms: C9_20  and  C10_21 
ROOT
HETATM    1  C1  UNL     1     -31.548 -51.703  18.948  1.00  0.00     0.176 C 
HETATM    2  N1  UNL     1     -31.355 -52.632  20.042  1.00  0.00    -0.182 N 
HETATM    3  C2  UNL     1     -31.831 -52.309  21.283  1.00  0.00     0.217 A 
HETATM    4  N2  UNL     1     -31.683 -53.120  22.321  1.00  0.00    -0.187 N 
ATOM      5  H2  UNL     1     -32.043 -52.863  23.240  1.00  0.00     0.185 HD
HETATM    6  C3  UNL     1     -31.054 -54.273  22.134  1.00  0.00     0.693 A 
HETATM    7  N4  UNL     1     -30.588 -54.592  20.933  1.00  0.00    -0.022 N 
ATOM      8  H4  UNL     1     -30.109 -55.486  20.825  1.00  0.00     0.203 HD
HETATM    9  C7  UNL     1     -30.715 -53.791  19.829  1.00  0.00     0.699 A 
ENDROOT
BRANCH   9  10
HETATM   10  N5  UNL     1     -30.223 -54.236  18.775  1.00  0.00    -0.204 N 
ATOM     11  H5  UNL     1     -30.948 -54.539  18.124  1.00  0.00     0.183 HD
BRANCH  10  12
HETATM   12  C8  UNL     1     -28.944 -54.431  18.244  1.00  0.00     0.083 C 
BRANCH  12  13
HETATM   13  C9  UNL     1     -28.209 -53.101  18.199  1.00  0.00     0.083 C 
BRANCH  13  14
HETATM   14  C10 UNL     1     -27.197 -52.954  19.227  1.00  0.00    -0.053 A 
HETATM   15  C11 UNL     1     -26.193 -53.877  19.363  1.00  0.00     0.007 A 
HETATM   16  C12 UNL     1     -25.210 -53.779  20.325  1.00  0.00     0.001 A 
HETATM   17  C13 UNL     1     -25.270 -52.678  21.184  1.00  0.00     0.000 A 
HETATM   18  C14 UNL     1     -26.263 -51.731  21.080  1.00  0.00     0.001 A 
HETATM   19  C15 UNL     1     -27.224 -51.885  20.091  1.00  0.00     0.007 A 
ENDBRANCH  13  14
ENDBRANCH  12  13
ENDBRANCH  10  12
ENDBRANCH   9  10
BRANCH   6  20
HETATM   20  N3  UNL     1     -30.893 -55.084  23.128  1.00  0.00    -0.225 N 
ATOM     21  H3  UNL     1     -31.204 -54.787  24.053  1.00  0.00     0.177 HD
BRANCH  20  22
HETATM   22  C4  UNL     1     -30.297 -56.386  22.994  1.00  0.00     0.140 C 
BRANCH  22  23
HETATM   23  C5  UNL     1     -28.943 -56.341  23.713  1.00  0.00     0.046 C 
BRANCH  23  24
HETATM   24  C6  UNL     1     -27.851 -56.023  22.710  1.00  0.00     0.165 C 
BRANCH  24  25
HETATM   25  O1  UNL     1     -27.833 -54.619  22.583  1.00  0.00    -0.401 OA
ATOM     26  H1  UNL     1     -28.439 -54.286  23.235  1.00  0.00     0.209 HD
ENDBRANCH  24  25
ENDBRANCH  23  24
ENDBRANCH  22  23
ENDBRANCH  20  22
ENDBRANCH   6  20
TORSDOF 9
ENDMDL
