MODEL 1
REMARK VINA RESULT: -6.819263381      0.000      0.000
REMARK  8 active torsions:
REMARK  status: ('A' for Active; 'I' for Inactive)
REMARK    1  A    between atoms: N1_1  and  C1_5 
REMARK    2  A    between atoms: C1_5  and  C2_6 
REMARK    3  A    between atoms: C1_5  and  C9_13 
REMARK    4  A    between atoms: C2_6  and  C3_7 
REMARK    5  A    between atoms: C9_13  and  S1_14 
REMARK    6  A    between atoms: S1_14  and  C10_16 
REMARK    7  A    between atoms: C10_16  and  C11_17 
REMARK    8  A    between atoms: N3_22  and  O2_23 
ROOT
HETATM    1  C1  UNL     1     -29.282 -50.302  19.864  1.00  0.00     0.199 C 
ENDROOT
BRANCH   1   2
HETATM    2  N1  UNL     1     -29.635 -48.918  19.929  1.00  0.00    -0.074 N 
ATOM      3  H13 UNL     1     -29.060 -48.435  20.620  1.00  0.00     0.274 HD
ATOM      4  H12 UNL     1     -29.334 -48.433  19.084  1.00  0.00     0.274 HD
ATOM      5  H11 UNL     1     -30.625 -48.745  20.105  1.00  0.00     0.274 HD
ENDBRANCH   1   2
BRANCH   1   6
HETATM    6  C2  UNL     1     -29.967 -51.055  18.794  1.00  0.00     0.072 C 
BRANCH   6   7
HETATM    7  C3  UNL     1     -31.108 -51.877  19.109  1.00  0.00    -0.056 A 
HETATM    8  C4  UNL     1     -31.895 -52.495  18.128  1.00  0.00     0.007 A 
HETATM    9  C5  UNL     1     -32.986 -53.263  18.444  1.00  0.00     0.001 A 
HETATM   10  C6  UNL     1     -33.338 -53.447  19.757  1.00  0.00     0.000 A 
HETATM   11  C7  UNL     1     -32.593 -52.857  20.755  1.00  0.00     0.001 A 
HETATM   12  C8  UNL     1     -31.485 -52.078  20.414  1.00  0.00     0.007 A 
ENDBRANCH   6   7
ENDBRANCH   1   6
BRANCH   1  13
HETATM   13  C9  UNL     1     -27.812 -50.499  19.942  1.00  0.00     0.142 C 
BRANCH  13  14
HETATM   14  S1  UNL     1     -27.308 -52.197  19.750  1.00  0.00     0.024 S 
HETATM   15  O1  UNL     1     -25.980 -52.297  18.714  1.00  0.00    -0.258 OA
BRANCH  14  16
HETATM   16  C10 UNL     1     -26.845 -52.929  21.300  1.00  0.00     0.187 C 
BRANCH  16  17
HETATM   17  C11 UNL     1     -27.766 -54.045  21.606  1.00  0.00     0.120 A 
HETATM   18  N2  UNL     1     -29.058 -53.996  21.874  1.00  0.00    -0.352 N 
HETATM   19  C12 UNL     1     -29.526 -55.254  22.100  1.00  0.00     0.109 A 
ATOM     20  H2  UNL     1     -29.620 -53.145  21.906  1.00  0.00     0.166 HD
HETATM   21  C13 UNL     1     -28.464 -56.114  21.962  1.00  0.00     0.141 A 
HETATM   22  N3  UNL     1     -27.393 -55.352  21.659  1.00  0.00    -0.221 N 
BRANCH  22  23
HETATM   23  O2  UNL     1     -26.142 -55.845  21.444  1.00  0.00    -0.282 OA
ATOM     24  H2  UNL     1     -25.926 -56.708  21.110  1.00  0.00     0.245 HD
ENDBRANCH  22  23
ENDBRANCH  16  17
ENDBRANCH  14  16
ENDBRANCH  13  14
ENDBRANCH   1  13
TORSDOF 8
ENDMDL
MODEL 2
REMARK VINA RESULT: -6.735043728      3.108      4.481
REMARK  8 active torsions:
REMARK  status: ('A' for Active; 'I' for Inactive)
REMARK    1  A    between atoms: N1_1  and  C1_5 
REMARK    2  A    between atoms: C1_5  and  C2_6 
REMARK    3  A    between atoms: C1_5  and  C9_13 
REMARK    4  A    between atoms: C2_6  and  C3_7 
REMARK    5  A    between atoms: C9_13  and  S1_14 
REMARK    6  A    between atoms: S1_14  and  C10_16 
REMARK    7  A    between atoms: C10_16  and  C11_17 
REMARK    8  A    between atoms: N3_22  and  O2_23 
ROOT
HETATM    1  C1  UNL     1     -31.105 -54.153  21.866  1.00  0.00     0.199 C 
ENDROOT
BRANCH   1   2
HETATM    2  N1  UNL     1     -31.482 -52.971  22.579  1.00  0.00    -0.074 N 
ATOM      3  H13 UNL     1     -31.252 -53.063  23.568  1.00  0.00     0.274 HD
ATOM      4  H12 UNL     1     -30.871 -52.194  22.329  1.00  0.00     0.274 HD
ATOM      5  H11 UNL     1     -32.461 -52.707  22.464  1.00  0.00     0.274 HD
ENDBRANCH   1   2
BRANCH   1   6
HETATM    6  C2  UNL     1     -30.198 -53.910  20.726  1.00  0.00     0.072 C 
BRANCH   6   7
HETATM    7  C3  UNL     1     -30.580 -52.990  19.685  1.00  0.00    -0.056 A 
HETATM    8  C4  UNL     1     -30.027 -51.708  19.561  1.00  0.00     0.007 A 
HETATM    9  C5  UNL     1     -30.412 -50.839  18.573  1.00  0.00     0.001 A 
HETATM   10  C6  UNL     1     -31.369 -51.215  17.665  1.00  0.00     0.000 A 
HETATM   11  C7  UNL     1     -31.941 -52.465  17.749  1.00  0.00     0.001 A 
HETATM   12  C8  UNL     1     -31.536 -53.337  18.762  1.00  0.00     0.007 A 
ENDBRANCH   6   7
ENDBRANCH   1   6
BRANCH   1  13
HETATM   13  C9  UNL     1     -30.695 -55.243  22.787  1.00  0.00     0.142 C 
BRANCH  13  14
HETATM   14  S1  UNL     1     -28.985 -55.713  22.621  1.00  0.00     0.024 S 
HETATM   15  O1  UNL     1     -28.180 -55.516  24.090  1.00  0.00    -0.258 OA
BRANCH  14  16
HETATM   16  C10 UNL     1     -28.811 -57.411  22.129  1.00  0.00     0.187 C 
BRANCH  16  17
HETATM   17  C11 UNL     1     -29.789 -58.236  22.872  1.00  0.00     0.120 A 
HETATM   18  N2  UNL     1     -30.930 -58.744  22.444  1.00  0.00    -0.352 N 
HETATM   19  C12 UNL     1     -31.527 -59.440  23.450  1.00  0.00     0.109 A 
ATOM     20  H2  UNL     1     -31.308 -58.632  21.503  1.00  0.00     0.166 HD
HETATM   21  C13 UNL     1     -30.704 -59.353  24.547  1.00  0.00     0.141 A 
HETATM   22  N3  UNL     1     -29.644 -58.610  24.172  1.00  0.00    -0.221 N 
BRANCH  22  23
HETATM   23  O2  UNL     1     -28.602 -58.298  24.991  1.00  0.00    -0.282 OA
ATOM     24  H2  UNL     1     -28.654 -57.828  25.815  1.00  0.00     0.245 HD
ENDBRANCH  22  23
ENDBRANCH  16  17
ENDBRANCH  14  16
ENDBRANCH  13  14
ENDBRANCH   1  13
TORSDOF 8
ENDMDL
MODEL 3
REMARK VINA RESULT: -6.662197679      3.131      4.567
REMARK  8 active torsions:
REMARK  status: ('A' for Active; 'I' for Inactive)
REMARK    1  A    between atoms: N1_1  and  C1_5 
REMARK    2  A    between atoms: C1_5  and  C2_6 
REMARK    3  A    between atoms: C1_5  and  C9_13 
REMARK    4  A    between atoms: C2_6  and  C3_7 
REMARK    5  A    between atoms: C9_13  and  S1_14 
REMARK    6  A    between atoms: S1_14  and  C10_16 
REMARK    7  A    between atoms: C10_16  and  C11_17 
REMARK    8  A    between atoms: N3_22  and  O2_23 
ROOT
HETATM    1  C1  UNL     1     -29.452 -54.346  21.328  1.00  0.00     0.199 C 
ENDROOT
BRANCH   1   2
HETATM    2  N1  UNL     1     -28.429 -53.591  21.984  1.00  0.00    -0.074 N 
ATOM      3  H13 UNL     1     -27.618 -53.484  21.374  1.00  0.00     0.274 HD
ATOM      4  H12 UNL     1     -28.709 -52.614  22.074  1.00  0.00     0.274 HD
ATOM      5  H11 UNL     1     -28.146 -53.966  22.890  1.00  0.00     0.274 HD
ENDBRANCH   1   2
BRANCH   1   6
HETATM    6  C2  UNL     1     -29.420 -54.261  19.854  1.00  0.00     0.072 C 
BRANCH   6   7
HETATM    7  C3  UNL     1     -30.144 -53.215  19.178  1.00  0.00    -0.056 A 
HETATM    8  C4  UNL     1     -29.760 -51.867  19.229  1.00  0.00     0.007 A 
HETATM    9  C5  UNL     1     -30.468 -50.881  18.592  1.00  0.00     0.001 A 
HETATM   10  C6  UNL     1     -31.593 -51.200  17.874  1.00  0.00     0.000 A 
HETATM   11  C7  UNL     1     -32.008 -52.512  17.797  1.00  0.00     0.001 A 
HETATM   12  C8  UNL     1     -31.274 -53.502  18.453  1.00  0.00     0.007 A 
ENDBRANCH   6   7
ENDBRANCH   1   6
BRANCH   1  13
HETATM   13  C9  UNL     1     -29.566 -55.718  21.886  1.00  0.00     0.142 C 
BRANCH  13  14
HETATM   14  S1  UNL     1     -28.142 -56.225  22.830  1.00  0.00     0.024 S 
HETATM   15  O1  UNL     1     -28.239 -55.621  24.402  1.00  0.00    -0.258 OA
BRANCH  14  16
HETATM   16  C10 UNL     1     -28.014 -57.993  22.934  1.00  0.00     0.187 C 
BRANCH  16  17
HETATM   17  C11 UNL     1     -29.370 -58.583  22.898  1.00  0.00     0.120 A 
HETATM   18  N2  UNL     1     -29.946 -59.263  21.923  1.00  0.00    -0.352 N 
HETATM   19  C12 UNL     1     -31.203 -59.625  22.299  1.00  0.00     0.109 A 
ATOM     20  H2  UNL     1     -29.515 -59.484  21.026  1.00  0.00     0.166 HD
HETATM   21  C13 UNL     1     -31.402 -59.141  23.569  1.00  0.00     0.141 A 
HETATM   22  N3  UNL     1     -30.266 -58.505  23.919  1.00  0.00    -0.221 N 
BRANCH  22  23
HETATM   23  O2  UNL     1     -30.074 -57.888  25.117  1.00  0.00    -0.282 OA
ATOM     24  H2  UNL     1     -30.248 -56.975  25.315  1.00  0.00     0.245 HD
ENDBRANCH  22  23
ENDBRANCH  16  17
ENDBRANCH  14  16
ENDBRANCH  13  14
ENDBRANCH   1  13
TORSDOF 8
ENDMDL
MODEL 4
REMARK VINA RESULT: -6.603007866      1.969      2.844
REMARK  8 active torsions:
REMARK  status: ('A' for Active; 'I' for Inactive)
REMARK    1  A    between atoms: N1_1  and  C1_5 
REMARK    2  A    between atoms: C1_5  and  C2_6 
REMARK    3  A    between atoms: C1_5  and  C9_13 
REMARK    4  A    between atoms: C2_6  and  C3_7 
REMARK    5  A    between atoms: C9_13  and  S1_14 
REMARK    6  A    between atoms: S1_14  and  C10_16 
REMARK    7  A    between atoms: C10_16  and  C11_17 
REMARK    8  A    between atoms: N3_22  and  O2_23 
ROOT
HETATM    1  C1  UNL     1     -27.578 -51.862  20.184  1.00  0.00     0.199 C 
ENDROOT
BRANCH   1   2
HETATM    2  N1  UNL     1     -27.331 -50.453  20.221  1.00  0.00    -0.074 N 
ATOM      3  H13 UNL     1     -26.566 -50.209  19.592  1.00  0.00     0.274 HD
ATOM      4  H12 UNL     1     -28.093 -49.945  19.774  1.00  0.00     0.274 HD
ATOM      5  H11 UNL     1     -27.155 -50.083  21.156  1.00  0.00     0.274 HD
ENDBRANCH   1   2
BRANCH   1   6
HETATM    6  C2  UNL     1     -28.056 -52.360  18.877  1.00  0.00     0.072 C 
BRANCH   6   7
HETATM    7  C3  UNL     1     -29.469 -52.478  18.626  1.00  0.00    -0.056 A 
HETATM    8  C4  UNL     1     -30.308 -53.318  19.373  1.00  0.00     0.007 A 
HETATM    9  C5  UNL     1     -31.649 -53.430  19.111  1.00  0.00     0.001 A 
HETATM   10  C6  UNL     1     -32.211 -52.706  18.090  1.00  0.00     0.000 A 
HETATM   11  C7  UNL     1     -31.425 -51.869  17.329  1.00  0.00     0.001 A 
HETATM   12  C8  UNL     1     -30.061 -51.768  17.611  1.00  0.00     0.007 A 
ENDBRANCH   6   7
ENDBRANCH   1   6
BRANCH   1  13
HETATM   13  C9  UNL     1     -26.464 -52.633  20.792  1.00  0.00     0.142 C 
BRANCH  13  14
HETATM   14  S1  UNL     1     -26.749 -54.390  20.831  1.00  0.00     0.024 S 
HETATM   15  O1  UNL     1     -25.378 -55.192  21.400  1.00  0.00    -0.258 OA
BRANCH  14  16
HETATM   16  C10 UNL     1     -28.107 -54.817  21.892  1.00  0.00     0.187 C 
BRANCH  16  17
HETATM   17  C11 UNL     1     -27.897 -56.179  22.430  1.00  0.00     0.120 A 
HETATM   18  N2  UNL     1     -27.567 -57.279  21.778  1.00  0.00    -0.352 N 
HETATM   19  C12 UNL     1     -27.477 -58.318  22.653  1.00  0.00     0.109 A 
ATOM     20  H2  UNL     1     -27.404 -57.341  20.773  1.00  0.00     0.166 HD
HETATM   21  C13 UNL     1     -27.766 -57.825  23.902  1.00  0.00     0.141 A 
HETATM   22  N3  UNL     1     -28.022 -56.510  23.743  1.00  0.00    -0.221 N 
BRANCH  22  23
HETATM   23  O2  UNL     1     -28.351 -55.668  24.762  1.00  0.00    -0.282 OA
ATOM     24  H2  UNL     1     -28.837 -55.895  25.545  1.00  0.00     0.245 HD
ENDBRANCH  22  23
ENDBRANCH  16  17
ENDBRANCH  14  16
ENDBRANCH  13  14
ENDBRANCH   1  13
TORSDOF 8
ENDMDL
MODEL 5
REMARK VINA RESULT: -6.592799566      1.969      2.704
REMARK  8 active torsions:
REMARK  status: ('A' for Active; 'I' for Inactive)
REMARK    1  A    between atoms: N1_1  and  C1_5 
REMARK    2  A    between atoms: C1_5  and  C2_6 
REMARK    3  A    between atoms: C1_5  and  C9_13 
REMARK    4  A    between atoms: C2_6  and  C3_7 
REMARK    5  A    between atoms: C9_13  and  S1_14 
REMARK    6  A    between atoms: S1_14  and  C10_16 
REMARK    7  A    between atoms: C10_16  and  C11_17 
REMARK    8  A    between atoms: N3_22  and  O2_23 
ROOT
HETATM    1  C1  UNL     1     -27.548 -51.825  20.101  1.00  0.00     0.199 C 
ENDROOT
BRANCH   1   2
HETATM    2  N1  UNL     1     -27.288 -50.418  20.071  1.00  0.00    -0.074 N 
ATOM      3  H13 UNL     1     -26.491 -50.216  19.466  1.00  0.00     0.274 HD
ATOM      4  H12 UNL     1     -28.023 -49.931  19.559  1.00  0.00     0.274 HD
ATOM      5  H11 UNL     1     -27.154 -49.996  20.990  1.00  0.00     0.274 HD
ENDBRANCH   1   2
BRANCH   1   6
HETATM    6  C2  UNL     1     -28.015 -52.384  18.816  1.00  0.00     0.072 C 
BRANCH   6   7
HETATM    7  C3  UNL     1     -29.427 -52.503  18.554  1.00  0.00    -0.056 A 
HETATM    8  C4  UNL     1     -30.077 -51.785  17.541  1.00  0.00     0.007 A 
HETATM    9  C5  UNL     1     -31.425 -51.900  17.314  1.00  0.00     0.001 A 
HETATM   10  C6  UNL     1     -32.182 -52.739  18.092  1.00  0.00     0.000 A 
HETATM   11  C7  UNL     1     -31.585 -53.464  19.100  1.00  0.00     0.001 A 
HETATM   12  C8  UNL     1     -30.211 -53.334  19.316  1.00  0.00     0.007 A 
ENDBRANCH   6   7
ENDBRANCH   1   6
BRANCH   1  13
HETATM   13  C9  UNL     1     -26.448 -52.573  20.760  1.00  0.00     0.142 C 
BRANCH  13  14
HETATM   14  S1  UNL     1     -26.718 -54.333  20.820  1.00  0.00     0.024 S 
HETATM   15  O1  UNL     1     -25.331 -55.118  21.375  1.00  0.00    -0.258 OA
BRANCH  14  16
HETATM   16  C10 UNL     1     -28.056 -54.760  21.906  1.00  0.00     0.187 C 
BRANCH  16  17
HETATM   17  C11 UNL     1     -27.852 -56.135  22.413  1.00  0.00     0.120 A 
HETATM   18  N2  UNL     1     -27.513 -57.219  21.740  1.00  0.00    -0.352 N 
HETATM   19  C12 UNL     1     -27.433 -58.279  22.591  1.00  0.00     0.109 A 
ATOM     20  H2  UNL     1     -27.337 -57.257  20.736  1.00  0.00     0.166 HD
HETATM   21  C13 UNL     1     -27.738 -57.816  23.847  1.00  0.00     0.141 A 
HETATM   22  N3  UNL     1     -27.992 -56.498  23.717  1.00  0.00    -0.221 N 
BRANCH  22  23
HETATM   23  O2  UNL     1     -28.334 -55.681  24.751  1.00  0.00    -0.282 OA
ATOM     24  H2  UNL     1     -28.641 -55.954  25.608  1.00  0.00     0.245 HD
ENDBRANCH  22  23
ENDBRANCH  16  17
ENDBRANCH  14  16
ENDBRANCH  13  14
ENDBRANCH   1  13
TORSDOF 8
ENDMDL
