MODEL 1
REMARK VINA RESULT: -6.595524973      0.000      0.000
REMARK  7 active torsions:
REMARK  status: ('A' for Active; 'I' for Inactive)
REMARK    1  A    between atoms: N1_2  and  C2_4 
REMARK    2  A    between atoms: N3_10  and  C6_12 
REMARK    3  A    between atoms: C6_12  and  C7_13 
REMARK    4  A    between atoms: C7_13  and  O1_14 
REMARK    5  A    between atoms: O1_14  and  C8_15 
REMARK    6  A    between atoms: C9_16  and  C10_17 
REMARK    7  A    between atoms: C10_17  and  C11_18 
ROOT
HETATM    1  C2  UNL     1      44.157  -0.053  18.048  1.00  0.00     0.679 A 
HETATM    2  N2  UNL     1      44.860  -0.817  18.916  1.00  0.00    -0.202 N 
ATOM      3  H2  UNL     1      45.627  -1.389  18.564  1.00  0.00     0.183 HD
HETATM    4  C3  UNL     1      44.574  -0.843  20.229  1.00  0.00     0.110 A 
HETATM    5  C4  UNL     1      43.515  -0.043  20.672  1.00  0.00     0.066 A 
HETATM    6  C5  UNL     1      42.811   0.728  19.781  1.00  0.00     0.118 A 
HETATM    7  N3  UNL     1      41.836   1.468  20.165  1.00  0.00    -0.374 N 
ATOM      8  H3  UNL     1      41.344   2.023  19.465  1.00  0.00     0.161 HD
HETATM    9  N6  UNL     1      43.137   0.722  18.453  1.00  0.00    -0.177 N 
ATOM     10  H6  UNL     1      42.617   1.292  17.785  1.00  0.00     0.185 HD
ENDROOT
BRANCH   7  11
HETATM   11  C6  UNL     1      41.407   1.555  21.518  1.00  0.00     0.148 C 
BRANCH  11  12
HETATM   12  C7  UNL     1      41.835   2.919  22.067  1.00  0.00     0.194 C 
BRANCH  12  13
HETATM   13  O1  UNL     1      42.552   2.758  23.277  1.00  0.00    -0.362 OA
BRANCH  13  14
HETATM   14  C8  UNL     1      43.936   2.687  23.189  1.00  0.00     0.131 C 
HETATM   15  C9  UNL     1      44.560   1.826  23.990  1.00  0.00     0.002 C 
BRANCH  15  16
HETATM   16  C10 UNL     1      43.822   0.966  24.949  1.00  0.00     0.070 C 
BRANCH  16  17
HETATM   17  C11 UNL     1      43.712  -0.382  24.332  1.00  0.00    -0.021 A 
HETATM   18  C12 UNL     1      42.538  -1.000  23.974  1.00  0.00     0.116 A 
HETATM   19  N4  UNL     1      42.857  -2.198  23.454  1.00  0.00    -0.310 N 
HETATM   20  N5  UNL     1      44.164  -2.388  23.456  1.00  0.00    -0.308 N 
ATOM     21  H4  UNL     1      42.177  -2.872  23.104  1.00  0.00     0.186 HD
HETATM   22  C13 UNL     1      44.881  -3.575  22.967  1.00  0.00     0.177 C 
HETATM   23  C14 UNL     1      44.701  -1.279  23.993  1.00  0.00     0.118 A 
ENDBRANCH  16  17
ENDBRANCH  15  16
ENDBRANCH  13  14
ENDBRANCH  12  13
ENDBRANCH  11  12
ENDBRANCH   7  11
BRANCH   1  24
HETATM   24  N1  UNL     1      44.480  -0.076  16.819  1.00  0.00    -0.230 N 
HETATM   25  C1  UNL     1      45.576   0.712  16.313  1.00  0.00     0.165 C 
ATOM     26  H1  UNL     1      43.952  -0.666  16.176  1.00  0.00     0.177 HD
ENDBRANCH   1  24
TORSDOF 7
ENDMDL
MODEL 2
REMARK VINA RESULT: -6.478982171      3.918      5.769
REMARK  7 active torsions:
REMARK  status: ('A' for Active; 'I' for Inactive)
REMARK    1  A    between atoms: N1_2  and  C2_4 
REMARK    2  A    between atoms: N3_10  and  C6_12 
REMARK    3  A    between atoms: C6_12  and  C7_13 
REMARK    4  A    between atoms: C7_13  and  O1_14 
REMARK    5  A    between atoms: O1_14  and  C8_15 
REMARK    6  A    between atoms: C9_16  and  C10_17 
REMARK    7  A    between atoms: C10_17  and  C11_18 
ROOT
HETATM    1  C2  UNL     1      42.329   2.403  22.866  1.00  0.00     0.679 A 
HETATM    2  N2  UNL     1      42.390   2.337  24.215  1.00  0.00    -0.202 N 
ATOM      3  H2  UNL     1      42.244   3.187  24.760  1.00  0.00     0.183 HD
HETATM    4  C3  UNL     1      42.637   1.183  24.859  1.00  0.00     0.110 A 
HETATM    5  C4  UNL     1      42.831   0.040  24.075  1.00  0.00     0.066 A 
HETATM    6  C5  UNL     1      42.765   0.120  22.706  1.00  0.00     0.118 A 
HETATM    7  N3  UNL     1      42.940  -0.915  21.969  1.00  0.00    -0.374 N 
ATOM      8  H3  UNL     1      42.881  -0.804  20.957  1.00  0.00     0.161 HD
HETATM    9  N6  UNL     1      42.512   1.317  22.095  1.00  0.00    -0.177 N 
ATOM     10  H6  UNL     1      42.462   1.384  21.079  1.00  0.00     0.185 HD
ENDROOT
BRANCH   7  11
HETATM   11  C6  UNL     1      43.210  -2.209  22.491  1.00  0.00     0.148 C 
BRANCH  11  12
HETATM   12  C7  UNL     1      44.466  -2.749  21.799  1.00  0.00     0.194 C 
BRANCH  12  13
HETATM   13  O1  UNL     1      45.492  -2.970  22.748  1.00  0.00    -0.362 OA
BRANCH  13  14
HETATM   14  C8  UNL     1      45.212  -2.654  24.071  1.00  0.00     0.131 C 
HETATM   15  C9  UNL     1      46.238  -2.577  24.916  1.00  0.00     0.002 C 
BRANCH  15  16
HETATM   16  C10 UNL     1      47.636  -2.816  24.480  1.00  0.00     0.070 C 
BRANCH  16  17
HETATM   17  C11 UNL     1      48.266  -3.699  25.497  1.00  0.00    -0.021 A 
HETATM   18  C12 UNL     1      47.752  -3.974  26.741  1.00  0.00     0.116 A 
HETATM   19  N4  UNL     1      48.609  -4.806  27.356  1.00  0.00    -0.310 N 
HETATM   20  N5  UNL     1      49.644  -5.084  26.583  1.00  0.00    -0.308 N 
ATOM     21  H4  UNL     1      48.477  -5.175  28.297  1.00  0.00     0.186 HD
HETATM   22  C13 UNL     1      50.780  -5.956  26.915  1.00  0.00     0.177 C 
HETATM   23  C14 UNL     1      49.445  -4.410  25.437  1.00  0.00     0.118 A 
ENDBRANCH  16  17
ENDBRANCH  15  16
ENDBRANCH  13  14
ENDBRANCH  12  13
ENDBRANCH  11  12
ENDBRANCH   7  11
BRANCH   1  24
HETATM   24  N1  UNL     1      42.091   3.527  22.322  1.00  0.00    -0.230 N 
HETATM   25  C1  UNL     1      43.122   4.267  21.638  1.00  0.00     0.165 C 
ATOM     26  H1  UNL     1      41.149   3.915  22.371  1.00  0.00     0.177 HD
ENDBRANCH   1  24
TORSDOF 7
ENDMDL
MODEL 3
REMARK VINA RESULT: -6.310949917      2.600      5.351
REMARK  7 active torsions:
REMARK  status: ('A' for Active; 'I' for Inactive)
REMARK    1  A    between atoms: N1_2  and  C2_4 
REMARK    2  A    between atoms: N3_10  and  C6_12 
REMARK    3  A    between atoms: C6_12  and  C7_13 
REMARK    4  A    between atoms: C7_13  and  O1_14 
REMARK    5  A    between atoms: O1_14  and  C8_15 
REMARK    6  A    between atoms: C9_16  and  C10_17 
REMARK    7  A    between atoms: C10_17  and  C11_18 
ROOT
HETATM    1  C2  UNL     1      43.049   1.724  22.189  1.00  0.00     0.679 A 
HETATM    2  N2  UNL     1      41.973   1.451  22.961  1.00  0.00    -0.202 N 
ATOM      3  H2  UNL     1      41.118   1.990  22.829  1.00  0.00     0.183 HD
HETATM    4  C3  UNL     1      42.000   0.487  23.898  1.00  0.00     0.110 A 
HETATM    5  C4  UNL     1      43.191  -0.231  24.048  1.00  0.00     0.066 A 
HETATM    6  C5  UNL     1      44.276   0.056  23.256  1.00  0.00     0.118 A 
HETATM    7  N3  UNL     1      45.378  -0.589  23.376  1.00  0.00    -0.374 N 
ATOM      8  H3  UNL     1      46.155  -0.338  22.765  1.00  0.00     0.161 HD
HETATM    9  N6  UNL     1      44.203   1.046  22.316  1.00  0.00    -0.177 N 
ATOM     10  H6  UNL     1      45.005   1.265  21.725  1.00  0.00     0.185 HD
ENDROOT
BRANCH   7  11
HETATM   11  C6  UNL     1      45.571  -1.636  24.318  1.00  0.00     0.148 C 
BRANCH  11  12
HETATM   12  C7  UNL     1      46.990  -2.185  24.136  1.00  0.00     0.194 C 
BRANCH  12  13
HETATM   13  O1  UNL     1      46.948  -3.462  23.526  1.00  0.00    -0.362 OA
BRANCH  13  14
HETATM   14  C8  UNL     1      47.432  -3.561  22.229  1.00  0.00     0.131 C 
HETATM   15  C9  UNL     1      46.580  -3.946  21.281  1.00  0.00     0.002 C 
BRANCH  15  16
HETATM   16  C10 UNL     1      45.161  -4.262  21.580  1.00  0.00     0.070 C 
BRANCH  16  17
HETATM   17  C11 UNL     1      44.341  -3.143  21.046  1.00  0.00    -0.021 A 
HETATM   18  C12 UNL     1      43.060  -2.838  21.435  1.00  0.00     0.116 A 
HETATM   19  N4  UNL     1      42.668  -1.767  20.724  1.00  0.00    -0.310 N 
HETATM   20  N5  UNL     1      43.620  -1.364  19.901  1.00  0.00    -0.308 N 
ATOM     21  H4  UNL     1      41.754  -1.323  20.809  1.00  0.00     0.186 HD
HETATM   22  C13 UNL     1      43.554  -0.227  18.970  1.00  0.00     0.177 C 
HETATM   23  C14 UNL     1      44.654  -2.202  20.089  1.00  0.00     0.118 A 
ENDBRANCH  16  17
ENDBRANCH  15  16
ENDBRANCH  13  14
ENDBRANCH  12  13
ENDBRANCH  11  12
ENDBRANCH   7  11
BRANCH   1  24
HETATM   24  N1  UNL     1      42.955   2.649  21.322  1.00  0.00    -0.230 N 
HETATM   25  C1  UNL     1      43.190   4.030  21.664  1.00  0.00     0.165 C 
ATOM     26  H1  UNL     1      42.708   2.409  20.362  1.00  0.00     0.177 HD
ENDBRANCH   1  24
TORSDOF 7
ENDMDL
MODEL 4
REMARK VINA RESULT: -6.182329817      2.348      6.348
REMARK  7 active torsions:
REMARK  status: ('A' for Active; 'I' for Inactive)
REMARK    1  A    between atoms: N1_2  and  C2_4 
REMARK    2  A    between atoms: N3_10  and  C6_12 
REMARK    3  A    between atoms: C6_12  and  C7_13 
REMARK    4  A    between atoms: C7_13  and  O1_14 
REMARK    5  A    between atoms: O1_14  and  C8_15 
REMARK    6  A    between atoms: C9_16  and  C10_17 
REMARK    7  A    between atoms: C10_17  and  C11_18 
ROOT
HETATM    1  C2  UNL     1      42.155  -0.435  24.084  1.00  0.00     0.679 A 
HETATM    2  N2  UNL     1      43.164   0.402  24.418  1.00  0.00    -0.202 N 
ATOM      3  H2  UNL     1      42.940   1.315  24.814  1.00  0.00     0.183 HD
HETATM    4  C3  UNL     1      44.453   0.064  24.243  1.00  0.00     0.110 A 
HETATM    5  C4  UNL     1      44.718  -1.197  23.699  1.00  0.00     0.066 A 
HETATM    6  C5  UNL     1      43.685  -2.038  23.365  1.00  0.00     0.118 A 
HETATM    7  N3  UNL     1      43.905  -3.198  22.864  1.00  0.00    -0.374 N 
ATOM      8  H3  UNL     1      43.105  -3.785  22.633  1.00  0.00     0.161 HD
HETATM    9  N6  UNL     1      42.389  -1.650  23.560  1.00  0.00    -0.177 N 
ATOM     10  H6  UNL     1      41.616  -2.270  23.314  1.00  0.00     0.185 HD
ENDROOT
BRANCH   7  11
HETATM   11  C6  UNL     1      45.209  -3.707  22.616  1.00  0.00     0.148 C 
BRANCH  11  12
HETATM   12  C7  UNL     1      45.117  -4.710  21.462  1.00  0.00     0.194 C 
BRANCH  12  13
HETATM   13  O1  UNL     1      45.046  -4.027  20.223  1.00  0.00    -0.362 OA
BRANCH  13  14
HETATM   14  C8  UNL     1      45.922  -2.967  20.033  1.00  0.00     0.131 C 
HETATM   15  C9  UNL     1      45.469  -1.906  19.368  1.00  0.00     0.002 C 
BRANCH  15  16
HETATM   16  C10 UNL     1      44.082  -1.840  18.842  1.00  0.00     0.070 C 
BRANCH  16  17
HETATM   17  C11 UNL     1      43.535  -0.511  19.217  1.00  0.00    -0.021 A 
HETATM   18  C12 UNL     1      43.146   0.468  18.334  1.00  0.00     0.116 A 
HETATM   19  N4  UNL     1      42.711   1.513  19.059  1.00  0.00    -0.310 N 
HETATM   20  N5  UNL     1      42.796   1.267  20.354  1.00  0.00    -0.308 N 
ATOM     21  H4  UNL     1      42.360   2.384  18.660  1.00  0.00     0.186 HD
HETATM   22  C13 UNL     1      42.413   2.171  21.449  1.00  0.00     0.177 C 
HETATM   23  C14 UNL     1      43.301   0.026  20.464  1.00  0.00     0.118 A 
ENDBRANCH  16  17
ENDBRANCH  15  16
ENDBRANCH  13  14
ENDBRANCH  12  13
ENDBRANCH  11  12
ENDBRANCH   7  11
BRANCH   1  24
HETATM   24  N1  UNL     1      40.959  -0.052  24.276  1.00  0.00    -0.230 N 
HETATM   25  C1  UNL     1      40.036  -0.827  25.067  1.00  0.00     0.165 C 
ATOM     26  H1  UNL     1      40.643   0.825  23.860  1.00  0.00     0.177 HD
ENDBRANCH   1  24
TORSDOF 7
ENDMDL
MODEL 5
REMARK VINA RESULT: -6.171277866      2.424      4.946
REMARK  7 active torsions:
REMARK  status: ('A' for Active; 'I' for Inactive)
REMARK    1  A    between atoms: N1_2  and  C2_4 
REMARK    2  A    between atoms: N3_10  and  C6_12 
REMARK    3  A    between atoms: C6_12  and  C7_13 
REMARK    4  A    between atoms: C7_13  and  O1_14 
REMARK    5  A    between atoms: O1_14  and  C8_15 
REMARK    6  A    between atoms: C9_16  and  C10_17 
REMARK    7  A    between atoms: C10_17  and  C11_18 
ROOT
HETATM    1  C2  UNL     1      41.912   1.068  24.082  1.00  0.00     0.679 A 
HETATM    2  N2  UNL     1      42.907   1.955  24.311  1.00  0.00    -0.202 N 
ATOM      3  H2  UNL     1      43.080   2.271  25.265  1.00  0.00     0.183 HD
HETATM    4  C3  UNL     1      43.675   2.432  23.315  1.00  0.00     0.110 A 
HETATM    5  C4  UNL     1      43.406   1.973  22.021  1.00  0.00     0.066 A 
HETATM    6  C5  UNL     1      42.393   1.072  21.803  1.00  0.00     0.118 A 
HETATM    7  N3  UNL     1      42.129   0.638  20.625  1.00  0.00    -0.374 N 
ATOM      8  H3  UNL     1      41.367  -0.030  20.514  1.00  0.00     0.161 HD
HETATM    9  N6  UNL     1      41.638   0.615  22.847  1.00  0.00    -0.177 N 
ATOM     10  H6  UNL     1      40.884  -0.055  22.692  1.00  0.00     0.185 HD
ENDROOT
BRANCH   7  11
HETATM   11  C6  UNL     1      42.845   1.042  19.465  1.00  0.00     0.148 C 
BRANCH  11  12
HETATM   12  C7  UNL     1      43.586  -0.179  18.913  1.00  0.00     0.194 C 
BRANCH  12  13
HETATM   13  O1  UNL     1      43.155  -1.355  19.573  1.00  0.00    -0.362 OA
BRANCH  13  14
HETATM   14  C8  UNL     1      44.070  -2.395  19.677  1.00  0.00     0.131 C 
HETATM   15  C9  UNL     1      44.244  -2.945  20.876  1.00  0.00     0.002 C 
BRANCH  15  16
HETATM   16  C10 UNL     1      43.498  -2.477  22.072  1.00  0.00     0.070 C 
BRANCH  16  17
HETATM   17  C11 UNL     1      44.490  -2.299  23.164  1.00  0.00    -0.021 A 
HETATM   18  C12 UNL     1      44.868  -1.096  23.709  1.00  0.00     0.116 A 
HETATM   19  N4  UNL     1      45.779  -1.354  24.663  1.00  0.00    -0.310 N 
HETATM   20  N5  UNL     1      46.010  -2.651  24.766  1.00  0.00    -0.308 N 
ATOM     21  H4  UNL     1      46.232  -0.642  25.234  1.00  0.00     0.186 HD
HETATM   22  C13 UNL     1      46.940  -3.308  25.696  1.00  0.00     0.177 C 
HETATM   23  C14 UNL     1      45.224  -3.243  23.850  1.00  0.00     0.118 A 
ENDBRANCH  16  17
ENDBRANCH  15  16
ENDBRANCH  13  14
ENDBRANCH  12  13
ENDBRANCH  11  12
ENDBRANCH   7  11
BRANCH   1  24
HETATM   24  N1  UNL     1      41.225   0.658  25.069  1.00  0.00    -0.230 N 
HETATM   25  C1  UNL     1      40.430  -0.542  24.988  1.00  0.00     0.165 C 
ATOM     26  H1  UNL     1      41.236   1.190  25.939  1.00  0.00     0.177 HD
ENDBRANCH   1  24
TORSDOF 7
ENDMDL
