MODEL 1
REMARK VINA RESULT: -6.392639383      0.000      0.000
REMARK  9 active torsions:
REMARK  status: ('A' for Active; 'I' for Inactive)
REMARK    1  A    between atoms: C2_2  and  C3_3 
REMARK    2  A    between atoms: C3_3  and  N1_4 
REMARK    3  A    between atoms: N2_7  and  C6_8 
REMARK    4  A    between atoms: C6_8  and  C7_9 
REMARK    5  A    between atoms: C10_12  and  C11_13 
REMARK    6  A    between atoms: C11_13  and  N3_14 
REMARK    7  A    between atoms: C11_13  and  N4_18 
REMARK    8  A    between atoms: C15_25  and  C16_26 
REMARK    9  A    between atoms: C16_26  and  O1_27 
ROOT
HETATM    1  C7  UNL     1      44.484  -1.262  23.685  1.00  0.00    -0.040 A 
HETATM    2  C8  UNL     1      44.712  -0.199  24.522  1.00  0.00     0.009 A 
HETATM    3  C9  UNL     1      44.330   1.082  24.159  1.00  0.00     0.011 A 
HETATM    4  C10 UNL     1      43.712   1.318  22.949  1.00  0.00    -0.001 A 
HETATM    5  C12 UNL     1      43.472   0.271  22.095  1.00  0.00     0.011 A 
HETATM    6  C13 UNL     1      43.865  -1.012  22.480  1.00  0.00     0.009 A 
ENDROOT
BRANCH   1   7
HETATM    7  C6  UNL     1      44.871  -2.629  24.029  1.00  0.00     0.166 C 
BRANCH   7   8
HETATM    8  N2  UNL     1      46.293  -2.794  24.244  1.00  0.00    -0.359 N 
HETATM    9  C5  UNL     1      47.240  -2.316  23.419  1.00  0.00     0.108 A 
HETATM   10  C4  UNL     1      48.583  -2.480  23.634  1.00  0.00     0.108 A 
HETATM   11  N1  UNL     1      49.013  -3.152  24.717  1.00  0.00    -0.352 N 
HETATM   12  C15 UNL     1      48.088  -3.654  25.581  1.00  0.00     0.051 A 
HETATM   13  C14 UNL     1      46.727  -3.465  25.325  1.00  0.00     0.118 A 
BRANCH  11  14
HETATM   14  C3  UNL     1      50.434  -3.312  24.927  1.00  0.00     0.155 C 
BRANCH  14  15
HETATM   15  C2  UNL     1      50.988  -2.053  25.503  1.00  0.00    -0.017 C 
HETATM   16  C1  UNL     1      51.605  -2.034  26.675  1.00  0.00     0.008 C 
ENDBRANCH  14  15
ENDBRANCH  11  14
BRANCH  12  17
HETATM   17  C16 UNL     1      48.548  -4.397  26.775  1.00  0.00     0.222 C 
BRANCH  17  18
HETATM   18  O1  UNL     1      47.760  -4.009  27.865  1.00  0.00    -0.395 OA
ATOM     19  H1  UNL     1      47.697  -4.743  28.464  1.00  0.00     0.209 HD
ENDBRANCH  17  18
ENDBRANCH  12  17
ENDBRANCH   7   8
ENDBRANCH   1   7
BRANCH   4  20
HETATM   20  C11 UNL     1      43.318   2.704  22.596  1.00  0.00     0.411 C 
BRANCH  20  21
HETATM   21  N3  UNL     1      42.124   3.017  23.371  1.00  0.00    -0.046 N 
ATOM     22  H33 UNL     1      41.518   2.210  23.518  1.00  0.00     0.277 HD
ATOM     23  H32 UNL     1      42.323   3.209  24.354  1.00  0.00     0.277 HD
ATOM     24  H31 UNL     1      41.657   3.790  22.898  1.00  0.00     0.277 HD
ENDBRANCH  20  21
BRANCH  20  25
HETATM   25  N4  UNL     1      43.072   2.859  21.189  1.00  0.00    -0.046 N 
ATOM     26  H43 UNL     1      42.101   2.646  20.959  1.00  0.00     0.277 HD
ATOM     27  H42 UNL     1      43.091   3.843  20.918  1.00  0.00     0.277 HD
ATOM     28  H41 UNL     1      43.715   2.308  20.620  1.00  0.00     0.277 HD
ENDBRANCH  20  25
ENDBRANCH   4  20
TORSDOF 9
ENDMDL
MODEL 2
REMARK VINA RESULT: -6.392376828      0.773      1.519
REMARK  9 active torsions:
REMARK  status: ('A' for Active; 'I' for Inactive)
REMARK    1  A    between atoms: C2_2  and  C3_3 
REMARK    2  A    between atoms: C3_3  and  N1_4 
REMARK    3  A    between atoms: N2_7  and  C6_8 
REMARK    4  A    between atoms: C6_8  and  C7_9 
REMARK    5  A    between atoms: C10_12  and  C11_13 
REMARK    6  A    between atoms: C11_13  and  N3_14 
REMARK    7  A    between atoms: C11_13  and  N4_18 
REMARK    8  A    between atoms: C15_25  and  C16_26 
REMARK    9  A    between atoms: C16_26  and  O1_27 
ROOT
HETATM    1  C7  UNL     1      44.298  -0.999  23.364  1.00  0.00    -0.040 A 
HETATM    2  C8  UNL     1      43.881  -0.648  22.104  1.00  0.00     0.009 A 
HETATM    3  C9  UNL     1      43.508   0.655  21.819  1.00  0.00     0.011 A 
HETATM    4  C10 UNL     1      43.548   1.630  22.794  1.00  0.00    -0.001 A 
HETATM    5  C12 UNL     1      43.963   1.304  24.061  1.00  0.00     0.011 A 
HETATM    6  C13 UNL     1      44.334  -0.015  24.328  1.00  0.00     0.009 A 
ENDROOT
BRANCH   1   7
HETATM    7  C6  UNL     1      44.700  -2.361  23.707  1.00  0.00     0.166 C 
BRANCH   7   8
HETATM    8  N2  UNL     1      46.107  -2.491  24.021  1.00  0.00    -0.359 N 
HETATM    9  C5  UNL     1      47.101  -2.084  23.213  1.00  0.00     0.108 A 
HETATM   10  C4  UNL     1      48.429  -2.213  23.523  1.00  0.00     0.108 A 
HETATM   11  N1  UNL     1      48.795  -2.776  24.689  1.00  0.00    -0.352 N 
HETATM   12  C15 UNL     1      47.821  -3.204  25.539  1.00  0.00     0.051 A 
HETATM   13  C14 UNL     1      46.478  -3.053  25.185  1.00  0.00     0.118 A 
BRANCH  11  14
HETATM   14  C3  UNL     1      50.201  -2.901  24.997  1.00  0.00     0.155 C 
BRANCH  14  15
HETATM   15  C2  UNL     1      50.806  -3.935  24.109  1.00  0.00    -0.017 C 
HETATM   16  C1  UNL     1      50.864  -5.211  24.460  1.00  0.00     0.008 C 
ENDBRANCH  14  15
ENDBRANCH  11  14
BRANCH  12  17
HETATM   17  C16 UNL     1      48.212  -3.826  26.824  1.00  0.00     0.222 C 
BRANCH  17  18
HETATM   18  O1  UNL     1      47.355  -4.906  27.067  1.00  0.00    -0.395 OA
ATOM     19  H1  UNL     1      47.417  -5.135  27.987  1.00  0.00     0.209 HD
ENDBRANCH  17  18
ENDBRANCH  12  17
ENDBRANCH   7   8
ENDBRANCH   1   7
BRANCH   4  20
HETATM   20  C11 UNL     1      43.142   3.015  22.451  1.00  0.00     0.411 C 
BRANCH  20  21
HETATM   21  N3  UNL     1      41.833   3.235  23.053  1.00  0.00    -0.046 N 
ATOM     22  H33 UNL     1      41.333   2.369  23.253  1.00  0.00     0.277 HD
ATOM     23  H32 UNL     1      41.886   3.577  24.013  1.00  0.00     0.277 HD
ATOM     24  H31 UNL     1      41.321   3.861  22.432  1.00  0.00     0.277 HD
ENDBRANCH  20  21
BRANCH  20  25
HETATM   25  N4  UNL     1      43.098   3.235  21.032  1.00  0.00    -0.046 N 
ATOM     26  H43 UNL     1      43.213   2.360  20.520  1.00  0.00     0.277 HD
ATOM     27  H42 UNL     1      42.156   3.480  20.726  1.00  0.00     0.277 HD
ATOM     28  H41 UNL     1      43.777   3.932  20.727  1.00  0.00     0.277 HD
ENDBRANCH  20  25
ENDBRANCH   4  20
TORSDOF 9
ENDMDL
MODEL 3
REMARK VINA RESULT: -6.375761931      0.786      1.141
REMARK  9 active torsions:
REMARK  status: ('A' for Active; 'I' for Inactive)
REMARK    1  A    between atoms: C2_2  and  C3_3 
REMARK    2  A    between atoms: C3_3  and  N1_4 
REMARK    3  A    between atoms: N2_7  and  C6_8 
REMARK    4  A    between atoms: C6_8  and  C7_9 
REMARK    5  A    between atoms: C10_12  and  C11_13 
REMARK    6  A    between atoms: C11_13  and  N3_14 
REMARK    7  A    between atoms: C11_13  and  N4_18 
REMARK    8  A    between atoms: C15_25  and  C16_26 
REMARK    9  A    between atoms: C16_26  and  O1_27 
ROOT
HETATM    1  C7  UNL     1      44.299  -0.946  23.448  1.00  0.00    -0.040 A 
HETATM    2  C8  UNL     1      44.378   0.066  24.373  1.00  0.00     0.009 A 
HETATM    3  C9  UNL     1      43.994   1.355  24.046  1.00  0.00     0.011 A 
HETATM    4  C10 UNL     1      43.523   1.653  22.784  1.00  0.00    -0.001 A 
HETATM    5  C12 UNL     1      43.434   0.659  21.842  1.00  0.00     0.011 A 
HETATM    6  C13 UNL     1      43.827  -0.634  22.192  1.00  0.00     0.009 A 
ENDROOT
BRANCH   1   7
HETATM    7  C6  UNL     1      44.695  -2.319  23.751  1.00  0.00     0.166 C 
BRANCH   7   8
HETATM    8  N2  UNL     1      46.108  -2.471  24.027  1.00  0.00    -0.359 N 
HETATM    9  C5  UNL     1      47.085  -2.058  23.202  1.00  0.00     0.108 A 
HETATM   10  C4  UNL     1      48.419  -2.207  23.475  1.00  0.00     0.108 A 
HETATM   11  N1  UNL     1      48.808  -2.796  24.619  1.00  0.00    -0.352 N 
HETATM   12  C15 UNL     1      47.852  -3.231  25.485  1.00  0.00     0.051 A 
HETATM   13  C14 UNL     1      46.502  -3.059  25.169  1.00  0.00     0.118 A 
BRANCH  11  14
HETATM   14  C3  UNL     1      50.221  -2.943  24.890  1.00  0.00     0.155 C 
BRANCH  14  15
HETATM   15  C2  UNL     1      50.788  -3.979  23.978  1.00  0.00    -0.017 C 
HETATM   16  C1  UNL     1      50.956  -5.234  24.367  1.00  0.00     0.008 C 
ENDBRANCH  14  15
ENDBRANCH  11  14
BRANCH  12  17
HETATM   17  C16 UNL     1      48.268  -3.883  26.747  1.00  0.00     0.222 C 
BRANCH  17  18
HETATM   18  O1  UNL     1      47.334  -4.879  27.057  1.00  0.00    -0.395 OA
ATOM     19  H1  UNL     1      47.749  -5.725  26.937  1.00  0.00     0.209 HD
ENDBRANCH  17  18
ENDBRANCH  12  17
ENDBRANCH   7   8
ENDBRANCH   1   7
BRANCH   4  20
HETATM   20  C11 UNL     1      43.121   3.046  22.471  1.00  0.00     0.411 C 
BRANCH  20  21
HETATM   21  N3  UNL     1      41.801   3.248  23.055  1.00  0.00    -0.046 N 
ATOM     22  H33 UNL     1      41.205   2.423  22.994  1.00  0.00     0.277 HD
ATOM     23  H32 UNL     1      41.818   3.321  24.073  1.00  0.00     0.277 HD
ATOM     24  H31 UNL     1      41.398   4.069  22.601  1.00  0.00     0.277 HD
ENDBRANCH  20  21
BRANCH  20  25
HETATM   25  N4  UNL     1      43.104   3.305  21.059  1.00  0.00    -0.046 N 
ATOM     26  H43 UNL     1      43.216   2.444  20.525  1.00  0.00     0.277 HD
ATOM     27  H42 UNL     1      42.171   3.572  20.745  1.00  0.00     0.277 HD
ATOM     28  H41 UNL     1      43.798   4.001  20.785  1.00  0.00     0.277 HD
ENDBRANCH  20  25
ENDBRANCH   4  20
TORSDOF 9
ENDMDL
MODEL 4
REMARK VINA RESULT: -6.189875944      2.455      7.308
REMARK  9 active torsions:
REMARK  status: ('A' for Active; 'I' for Inactive)
REMARK    1  A    between atoms: C2_2  and  C3_3 
REMARK    2  A    between atoms: C3_3  and  N1_4 
REMARK    3  A    between atoms: N2_7  and  C6_8 
REMARK    4  A    between atoms: C6_8  and  C7_9 
REMARK    5  A    between atoms: C10_12  and  C11_13 
REMARK    6  A    between atoms: C11_13  and  N3_14 
REMARK    7  A    between atoms: C11_13  and  N4_18 
REMARK    8  A    between atoms: C15_25  and  C16_26 
REMARK    9  A    between atoms: C16_26  and  O1_27 
ROOT
HETATM    1  C7  UNL     1      46.443  -2.966  23.385  1.00  0.00    -0.040 A 
HETATM    2  C8  UNL     1      46.055  -3.156  24.688  1.00  0.00     0.009 A 
HETATM    3  C9  UNL     1      46.978  -3.517  25.656  1.00  0.00     0.011 A 
HETATM    4  C10 UNL     1      48.307  -3.693  25.332  1.00  0.00    -0.001 A 
HETATM    5  C12 UNL     1      48.719  -3.508  24.037  1.00  0.00     0.011 A 
HETATM    6  C13 UNL     1      47.773  -3.145  23.076  1.00  0.00     0.009 A 
ENDROOT
BRANCH   1   7
HETATM    7  C6  UNL     1      45.502  -2.586  22.334  1.00  0.00     0.166 C 
BRANCH   7   8
HETATM    8  N2  UNL     1      44.788  -1.357  22.608  1.00  0.00    -0.359 N 
HETATM    9  C5  UNL     1      45.235  -0.135  22.270  1.00  0.00     0.108 A 
HETATM   10  C4  UNL     1      44.550   1.021  22.536  1.00  0.00     0.108 A 
HETATM   11  N1  UNL     1      43.364   0.969  23.168  1.00  0.00    -0.352 N 
HETATM   12  C15 UNL     1      42.873  -0.249  23.530  1.00  0.00     0.051 A 
HETATM   13  C14 UNL     1      43.603  -1.404  23.240  1.00  0.00     0.118 A 
BRANCH  11  14
HETATM   14  C3  UNL     1      42.656   2.200  23.438  1.00  0.00     0.155 C 
BRANCH  14  15
HETATM   15  C2  UNL     1      42.394   2.905  22.150  1.00  0.00    -0.017 C 
HETATM   16  C1  UNL     1      43.077   3.981  21.792  1.00  0.00     0.008 C 
ENDBRANCH  14  15
ENDBRANCH  11  14
BRANCH  12  17
HETATM   17  C16 UNL     1      41.570  -0.319  24.229  1.00  0.00     0.222 C 
BRANCH  17  18
HETATM   18  O1  UNL     1      41.183  -1.663  24.303  1.00  0.00    -0.395 OA
ATOM     19  H1  UNL     1      40.870  -1.835  25.183  1.00  0.00     0.209 HD
ENDBRANCH  17  18
ENDBRANCH  12  17
ENDBRANCH   7   8
ENDBRANCH   1   7
BRANCH   4  20
HETATM   20  C11 UNL     1      49.266  -4.079  26.396  1.00  0.00     0.411 C 
BRANCH  20  21
HETATM   21  N3  UNL     1      48.488  -4.302  27.608  1.00  0.00    -0.046 N 
ATOM     22  H33 UNL     1      47.575  -3.848  27.588  1.00  0.00     0.277 HD
ATOM     23  H32 UNL     1      48.154  -5.262  27.700  1.00  0.00     0.277 HD
ATOM     24  H31 UNL     1      49.068  -4.003  28.393  1.00  0.00     0.277 HD
ENDBRANCH  20  21
BRANCH  20  25
HETATM   25  N4  UNL     1      50.276  -3.081  26.610  1.00  0.00    -0.046 N 
ATOM     26  H43 UNL     1      50.777  -3.244  27.483  1.00  0.00     0.277 HD
ATOM     27  H42 UNL     1      51.050  -3.193  25.954  1.00  0.00     0.277 HD
ATOM     28  H41 UNL     1      49.898  -2.134  26.573  1.00  0.00     0.277 HD
ENDBRANCH  20  25
ENDBRANCH   4  20
TORSDOF 9
ENDMDL
MODEL 5
REMARK VINA RESULT: -6.187440174      2.437      7.427
REMARK  9 active torsions:
REMARK  status: ('A' for Active; 'I' for Inactive)
REMARK    1  A    between atoms: C2_2  and  C3_3 
REMARK    2  A    between atoms: C3_3  and  N1_4 
REMARK    3  A    between atoms: N2_7  and  C6_8 
REMARK    4  A    between atoms: C6_8  and  C7_9 
REMARK    5  A    between atoms: C10_12  and  C11_13 
REMARK    6  A    between atoms: C11_13  and  N3_14 
REMARK    7  A    between atoms: C11_13  and  N4_18 
REMARK    8  A    between atoms: C15_25  and  C16_26 
REMARK    9  A    between atoms: C16_26  and  O1_27 
ROOT
HETATM    1  C7  UNL     1      46.444  -2.993  23.443  1.00  0.00    -0.040 A 
HETATM    2  C8  UNL     1      47.769  -3.154  23.122  1.00  0.00     0.009 A 
HETATM    3  C9  UNL     1      48.706  -3.431  24.103  1.00  0.00     0.011 A 
HETATM    4  C10 UNL     1      48.331  -3.552  25.424  1.00  0.00    -0.001 A 
HETATM    5  C12 UNL     1      47.012  -3.396  25.770  1.00  0.00     0.011 A 
HETATM    6  C13 UNL     1      46.083  -3.117  24.767  1.00  0.00     0.009 A 
ENDROOT
BRANCH   1   7
HETATM    7  C6  UNL     1      45.423  -2.699  22.440  1.00  0.00     0.166 C 
BRANCH   7   8
HETATM    8  N2  UNL     1      44.732  -1.446  22.662  1.00  0.00    -0.359 N 
HETATM    9  C5  UNL     1      45.203  -0.247  22.278  1.00  0.00     0.108 A 
HETATM   10  C4  UNL     1      44.540   0.931  22.494  1.00  0.00     0.108 A 
HETATM   11  N1  UNL     1      43.352   0.927  23.124  1.00  0.00    -0.352 N 
HETATM   12  C15 UNL     1      42.836  -0.266  23.533  1.00  0.00     0.051 A 
HETATM   13  C14 UNL     1      43.545  -1.445  23.292  1.00  0.00     0.118 A 
BRANCH  11  14
HETATM   14  C3  UNL     1      42.666   2.181  23.342  1.00  0.00     0.155 C 
BRANCH  14  15
HETATM   15  C2  UNL     1      42.498   2.879  22.035  1.00  0.00    -0.017 C 
HETATM   16  C1  UNL     1      43.123   4.015  21.765  1.00  0.00     0.008 C 
ENDBRANCH  14  15
ENDBRANCH  11  14
BRANCH  12  17
HETATM   17  C16 UNL     1      41.530  -0.283  24.229  1.00  0.00     0.222 C 
BRANCH  17  18
HETATM   18  O1  UNL     1      41.120  -1.615  24.360  1.00  0.00    -0.395 OA
ATOM     19  H1  UNL     1      40.976  -1.794  25.282  1.00  0.00     0.209 HD
ENDBRANCH  17  18
ENDBRANCH  12  17
ENDBRANCH   7   8
ENDBRANCH   1   7
BRANCH   4  20
HETATM   20  C11 UNL     1      49.363  -3.850  26.446  1.00  0.00     0.411 C 
BRANCH  20  21
HETATM   21  N3  UNL     1      50.586  -4.187  25.729  1.00  0.00    -0.046 N 
ATOM     22  H33 UNL     1      50.618  -3.799  24.786  1.00  0.00     0.277 HD
ATOM     23  H32 UNL     1      51.410  -3.708  26.093  1.00  0.00     0.277 HD
ATOM     24  H31 UNL     1      50.672  -5.203  25.748  1.00  0.00     0.277 HD
ENDBRANCH  20  21
BRANCH  20  25
HETATM   25  N4  UNL     1      48.971  -4.917  27.324  1.00  0.00    -0.046 N 
ATOM     26  H43 UNL     1      49.668  -5.068  28.054  1.00  0.00     0.277 HD
ATOM     27  H42 UNL     1      48.181  -4.642  27.907  1.00  0.00     0.277 HD
ATOM     28  H41 UNL     1      48.774  -5.781  26.819  1.00  0.00     0.277 HD
ENDBRANCH  20  25
ENDBRANCH   4  20
TORSDOF 9
ENDMDL
