MODEL 1
REMARK VINA RESULT: -7.123585718      0.000      0.000
REMARK  8 active torsions:
REMARK  status: ('A' for Active; 'I' for Inactive)
REMARK    1  A    between atoms: C1_2  and  C2_4 
REMARK    2  A    between atoms: C2_4  and  C3_5 
REMARK    3  A    between atoms: C3_5  and  N2_6 
REMARK    4  A    between atoms: N2_6  and  C4_8 
REMARK    5  A    between atoms: C7_13  and  N4_14 
REMARK    6  A    between atoms: N4_14  and  C8_16 
REMARK    7  A    between atoms: C8_16  and  C9_17 
REMARK    8  A    between atoms: C9_17  and  C10_18 
ROOT
HETATM    1  C4  UNL     1      43.525  -2.153  20.868  1.00  0.00     0.118 A 
HETATM    2  C5  UNL     1      44.690  -2.733  21.326  1.00  0.00     0.066 A 
HETATM    3  C6  UNL     1      44.876  -2.980  22.678  1.00  0.00     0.110 A 
HETATM    4  N3  UNL     1      43.867  -2.628  23.516  1.00  0.00    -0.202 N 
ATOM      5  H3  UNL     1      43.973  -2.798  24.516  1.00  0.00     0.183 HD
HETATM    6  C7  UNL     1      42.734  -2.064  23.066  1.00  0.00     0.679 A 
HETATM    7  N5  UNL     1      42.562  -1.827  21.750  1.00  0.00    -0.177 N 
ATOM      8  H5  UNL     1      41.697  -1.398  21.421  1.00  0.00     0.185 HD
ENDROOT
BRANCH   6   9
HETATM    9  N4  UNL     1      41.808  -1.747  23.889  1.00  0.00    -0.226 N 
ATOM     10  H4  UNL     1      41.266  -2.505  24.306  1.00  0.00     0.177 HD
BRANCH   9  11
HETATM   11  C8  UNL     1      41.475  -0.407  24.270  1.00  0.00     0.142 C 
BRANCH  11  12
HETATM   12  C9  UNL     1      42.714   0.400  24.639  1.00  0.00     0.058 C 
BRANCH  12  13
HETATM   13  C10 UNL     1      42.896   1.520  23.681  1.00  0.00    -0.057 A 
HETATM   14  C11 UNL     1      43.954   2.418  23.803  1.00  0.00     0.007 A 
HETATM   15  C12 UNL     1      44.120   3.458  22.910  1.00  0.00     0.001 A 
HETATM   16  C13 UNL     1      43.232   3.640  21.859  1.00  0.00     0.000 A 
HETATM   17  C14 UNL     1      42.178   2.753  21.730  1.00  0.00     0.001 A 
HETATM   18  C15 UNL     1      42.036   1.729  22.630  1.00  0.00     0.007 A 
ENDBRANCH  12  13
ENDBRANCH  11  12
ENDBRANCH   9  11
ENDBRANCH   6   9
BRANCH   1  19
HETATM   19  N2  UNL     1      43.403  -1.945  19.604  1.00  0.00    -0.375 N 
ATOM     20  H2  UNL     1      42.469  -1.755  19.239  1.00  0.00     0.161 HD
BRANCH  19  21
HETATM   21  C3  UNL     1      44.492  -1.963  18.680  1.00  0.00     0.130 C 
BRANCH  21  22
HETATM   22  C2  UNL     1      44.515  -0.747  17.781  1.00  0.00     0.119 C 
BRANCH  22  23
HETATM   23  C1  UNL     1      43.142  -0.223  17.643  1.00  0.00     0.232 C 
HETATM   24  N1  UNL     1      42.638   0.837  18.437  1.00  0.00    -0.062 NA
HETATM   25  O1  UNL     1      42.384  -0.730  16.790  1.00  0.00    -0.277 OA
ENDBRANCH  22  23
ENDBRANCH  21  22
ENDBRANCH  19  21
ENDBRANCH   1  19
TORSDOF 8
ENDMDL
MODEL 2
REMARK VINA RESULT: -7.041716763      1.251      1.417
REMARK  8 active torsions:
REMARK  status: ('A' for Active; 'I' for Inactive)
REMARK    1  A    between atoms: C1_2  and  C2_4 
REMARK    2  A    between atoms: C2_4  and  C3_5 
REMARK    3  A    between atoms: C3_5  and  N2_6 
REMARK    4  A    between atoms: N2_6  and  C4_8 
REMARK    5  A    between atoms: C7_13  and  N4_14 
REMARK    6  A    between atoms: N4_14  and  C8_16 
REMARK    7  A    between atoms: C8_16  and  C9_17 
REMARK    8  A    between atoms: C9_17  and  C10_18 
ROOT
HETATM    1  C4  UNL     1      44.912  -2.147  20.414  1.00  0.00     0.118 A 
HETATM    2  C5  UNL     1      45.297  -3.471  20.473  1.00  0.00     0.066 A 
HETATM    3  C6  UNL     1      44.652  -4.359  21.321  1.00  0.00     0.110 A 
HETATM    4  N3  UNL     1      43.638  -3.867  22.079  1.00  0.00    -0.202 N 
ATOM      5  H3  UNL     1      43.144  -4.496  22.712  1.00  0.00     0.183 HD
HETATM    6  C7  UNL     1      43.267  -2.578  22.019  1.00  0.00     0.679 A 
HETATM    7  N5  UNL     1      43.899  -1.721  21.191  1.00  0.00    -0.177 N 
ATOM      8  H5  UNL     1      43.607  -0.744  21.154  1.00  0.00     0.185 HD
ENDROOT
BRANCH   6   9
HETATM    9  N4  UNL     1      42.307  -2.155  22.749  1.00  0.00    -0.226 N 
ATOM     10  H4  UNL     1      41.355  -2.363  22.446  1.00  0.00     0.177 HD
BRANCH   9  11
HETATM   11  C8  UNL     1      42.468  -1.410  23.962  1.00  0.00     0.142 C 
BRANCH  11  12
HETATM   12  C9  UNL     1      41.562  -0.185  23.999  1.00  0.00     0.058 C 
BRANCH  12  13
HETATM   13  C10 UNL     1      42.274   0.992  23.441  1.00  0.00    -0.057 A 
HETATM   14  C11 UNL     1      43.402   1.524  24.064  1.00  0.00     0.007 A 
HETATM   15  C12 UNL     1      44.060   2.619  23.542  1.00  0.00     0.001 A 
HETATM   16  C13 UNL     1      43.616   3.226  22.375  1.00  0.00     0.000 A 
HETATM   17  C14 UNL     1      42.498   2.704  21.750  1.00  0.00     0.001 A 
HETATM   18  C15 UNL     1      41.862   1.616  22.288  1.00  0.00     0.007 A 
ENDBRANCH  12  13
ENDBRANCH  11  12
ENDBRANCH   9  11
ENDBRANCH   6   9
BRANCH   1  19
HETATM   19  N2  UNL     1      45.543  -1.364  19.611  1.00  0.00    -0.375 N 
ATOM     20  H2  UNL     1      46.144  -0.646  20.017  1.00  0.00     0.161 HD
BRANCH  19  21
HETATM   21  C3  UNL     1      45.455  -1.436  18.187  1.00  0.00     0.130 C 
BRANCH  21  22
HETATM   22  C2  UNL     1      44.518  -0.401  17.606  1.00  0.00     0.119 C 
BRANCH  22  23
HETATM   23  C1  UNL     1      43.184  -1.006  17.423  1.00  0.00     0.232 C 
HETATM   24  N1  UNL     1      42.851  -2.298  17.902  1.00  0.00    -0.062 NA
HETATM   25  O1  UNL     1      42.303  -0.358  16.821  1.00  0.00    -0.277 OA
ENDBRANCH  22  23
ENDBRANCH  21  22
ENDBRANCH  19  21
ENDBRANCH   1  19
TORSDOF 8
ENDMDL
MODEL 3
REMARK VINA RESULT: -6.911013238      0.767      1.283
REMARK  8 active torsions:
REMARK  status: ('A' for Active; 'I' for Inactive)
REMARK    1  A    between atoms: C1_2  and  C2_4 
REMARK    2  A    between atoms: C2_4  and  C3_5 
REMARK    3  A    between atoms: C3_5  and  N2_6 
REMARK    4  A    between atoms: N2_6  and  C4_8 
REMARK    5  A    between atoms: C7_13  and  N4_14 
REMARK    6  A    between atoms: N4_14  and  C8_16 
REMARK    7  A    between atoms: C8_16  and  C9_17 
REMARK    8  A    between atoms: C9_17  and  C10_18 
ROOT
HETATM    1  C4  UNL     1      43.919  -1.620  21.053  1.00  0.00     0.118 A 
HETATM    2  C5  UNL     1      44.956  -2.407  21.512  1.00  0.00     0.066 A 
HETATM    3  C6  UNL     1      44.934  -2.930  22.796  1.00  0.00     0.110 A 
HETATM    4  N3  UNL     1      43.856  -2.633  23.567  1.00  0.00    -0.202 N 
ATOM      5  H3  UNL     1      43.810  -3.004  24.516  1.00  0.00     0.183 HD
HETATM    6  C7  UNL     1      42.850  -1.867  23.116  1.00  0.00     0.679 A 
HETATM    7  N5  UNL     1      42.879  -1.362  21.866  1.00  0.00    -0.177 N 
ATOM      8  H5  UNL     1      42.108  -0.783  21.535  1.00  0.00     0.185 HD
ENDROOT
BRANCH   6   9
HETATM    9  N4  UNL     1      41.852  -1.611  23.875  1.00  0.00    -0.226 N 
ATOM     10  H4  UNL     1      41.368  -2.402  24.302  1.00  0.00     0.177 HD
BRANCH   9  11
HETATM   11  C8  UNL     1      41.364  -0.298  24.169  1.00  0.00     0.142 C 
BRANCH  11  12
HETATM   12  C9  UNL     1      42.452   0.591  24.760  1.00  0.00     0.058 C 
BRANCH  12  13
HETATM   13  C10 UNL     1      42.790   1.682  23.810  1.00  0.00    -0.057 A 
HETATM   14  C11 UNL     1      41.952   2.008  22.746  1.00  0.00     0.007 A 
HETATM   15  C12 UNL     1      42.270   3.022  21.866  1.00  0.00     0.001 A 
HETATM   16  C13 UNL     1      43.440   3.752  22.017  1.00  0.00     0.000 A 
HETATM   17  C14 UNL     1      44.278   3.437  23.071  1.00  0.00     0.001 A 
HETATM   18  C15 UNL     1      43.940   2.425  23.931  1.00  0.00     0.007 A 
ENDBRANCH  12  13
ENDBRANCH  11  12
ENDBRANCH   9  11
ENDBRANCH   6   9
BRANCH   1  19
HETATM   19  N2  UNL     1      43.989  -1.159  19.853  1.00  0.00    -0.375 N 
ATOM     20  H2  UNL     1      43.196  -0.623  19.500  1.00  0.00     0.161 HD
BRANCH  19  21
HETATM   21  C3  UNL     1      45.107  -1.351  18.984  1.00  0.00     0.130 C 
BRANCH  21  22
HETATM   22  C2  UNL     1      44.724  -1.311  17.522  1.00  0.00     0.119 C 
BRANCH  22  23
HETATM   23  C1  UNL     1      43.254  -1.385  17.406  1.00  0.00     0.232 C 
HETATM   24  N1  UNL     1      42.450  -0.269  17.066  1.00  0.00    -0.062 NA
HETATM   25  O1  UNL     1      42.686  -2.477  17.615  1.00  0.00    -0.277 OA
ENDBRANCH  22  23
ENDBRANCH  21  22
ENDBRANCH  19  21
ENDBRANCH   1  19
TORSDOF 8
ENDMDL
MODEL 4
REMARK VINA RESULT: -6.668702576      2.334      4.336
REMARK  8 active torsions:
REMARK  status: ('A' for Active; 'I' for Inactive)
REMARK    1  A    between atoms: C1_2  and  C2_4 
REMARK    2  A    between atoms: C2_4  and  C3_5 
REMARK    3  A    between atoms: C3_5  and  N2_6 
REMARK    4  A    between atoms: N2_6  and  C4_8 
REMARK    5  A    between atoms: C7_13  and  N4_14 
REMARK    6  A    between atoms: N4_14  and  C8_16 
REMARK    7  A    between atoms: C8_16  and  C9_17 
REMARK    8  A    between atoms: C9_17  and  C10_18 
ROOT
HETATM    1  C4  UNL     1      43.773  -1.980  20.373  1.00  0.00     0.118 A 
HETATM    2  C5  UNL     1      44.715  -2.151  19.379  1.00  0.00     0.066 A 
HETATM    3  C6  UNL     1      44.926  -1.165  18.425  1.00  0.00     0.110 A 
HETATM    4  N3  UNL     1      44.171  -0.040  18.519  1.00  0.00    -0.202 N 
ATOM      5  H3  UNL     1      44.304   0.703  17.834  1.00  0.00     0.183 HD
HETATM    6  C7  UNL     1      43.256   0.121  19.489  1.00  0.00     0.679 A 
HETATM    7  N5  UNL     1      43.057  -0.842  20.412  1.00  0.00    -0.177 N 
ATOM      8  H5  UNL     1      42.359  -0.706  21.143  1.00  0.00     0.185 HD
ENDROOT
BRANCH   6   9
HETATM    9  N4  UNL     1      42.565   1.197  19.542  1.00  0.00    -0.226 N 
ATOM     10  H4  UNL     1      42.523   1.774  18.702  1.00  0.00     0.177 HD
BRANCH   9  11
HETATM   11  C8  UNL     1      41.847   1.651  20.695  1.00  0.00     0.142 C 
BRANCH  11  12
HETATM   12  C9  UNL     1      42.663   2.641  21.516  1.00  0.00     0.058 C 
BRANCH  12  13
HETATM   13  C10 UNL     1      42.969   2.066  22.851  1.00  0.00    -0.057 A 
HETATM   14  C11 UNL     1      42.198   1.043  23.398  1.00  0.00     0.007 A 
HETATM   15  C12 UNL     1      42.485   0.511  24.638  1.00  0.00     0.001 A 
HETATM   16  C13 UNL     1      43.558   0.983  25.382  1.00  0.00     0.000 A 
HETATM   17  C14 UNL     1      44.330   1.998  24.847  1.00  0.00     0.001 A 
HETATM   18  C15 UNL     1      44.023   2.509  23.613  1.00  0.00     0.007 A 
ENDBRANCH  12  13
ENDBRANCH  11  12
ENDBRANCH   9  11
ENDBRANCH   6   9
BRANCH   1  19
HETATM   19  N2  UNL     1      43.616  -2.925  21.232  1.00  0.00    -0.375 N 
ATOM     20  H2  UNL     1      42.750  -3.463  21.198  1.00  0.00     0.161 HD
BRANCH  19  21
HETATM   21  C3  UNL     1      44.578  -3.268  22.232  1.00  0.00     0.130 C 
BRANCH  21  22
HETATM   22  C2  UNL     1      44.444  -2.429  23.483  1.00  0.00     0.119 C 
BRANCH  22  23
HETATM   23  C1  UNL     1      45.502  -1.400  23.489  1.00  0.00     0.232 C 
HETATM   24  N1  UNL     1      45.676  -0.467  22.437  1.00  0.00    -0.062 NA
HETATM   25  O1  UNL     1      46.283  -1.342  24.461  1.00  0.00    -0.277 OA
ENDBRANCH  22  23
ENDBRANCH  21  22
ENDBRANCH  19  21
ENDBRANCH   1  19
TORSDOF 8
ENDMDL
MODEL 5
REMARK VINA RESULT: -6.659153292      2.150      4.258
REMARK  8 active torsions:
REMARK  status: ('A' for Active; 'I' for Inactive)
REMARK    1  A    between atoms: C1_2  and  C2_4 
REMARK    2  A    between atoms: C2_4  and  C3_5 
REMARK    3  A    between atoms: C3_5  and  N2_6 
REMARK    4  A    between atoms: N2_6  and  C4_8 
REMARK    5  A    between atoms: C7_13  and  N4_14 
REMARK    6  A    between atoms: N4_14  and  C8_16 
REMARK    7  A    between atoms: C8_16  and  C9_17 
REMARK    8  A    between atoms: C9_17  and  C10_18 
ROOT
HETATM    1  C4  UNL     1      44.837  -1.488  19.265  1.00  0.00     0.118 A 
HETATM    2  C5  UNL     1      45.419  -1.285  18.030  1.00  0.00     0.066 A 
HETATM    3  C6  UNL     1      45.015  -0.232  17.221  1.00  0.00     0.110 A 
HETATM    4  N3  UNL     1      44.034   0.575  17.699  1.00  0.00    -0.202 N 
ATOM      5  H3  UNL     1      43.716   1.359  17.129  1.00  0.00     0.183 HD
HETATM    6  C7  UNL     1      43.471   0.373  18.901  1.00  0.00     0.679 A 
HETATM    7  N5  UNL     1      43.869  -0.652  19.682  1.00  0.00    -0.177 N 
ATOM      8  H5  UNL     1      43.434  -0.794  20.593  1.00  0.00     0.185 HD
ENDROOT
BRANCH   6   9
HETATM    9  N4  UNL     1      42.549   1.158  19.315  1.00  0.00    -0.226 N 
ATOM     10  H4  UNL     1      42.095   1.759  18.627  1.00  0.00     0.177 HD
BRANCH   9  11
HETATM   11  C8  UNL     1      42.107   1.255  20.674  1.00  0.00     0.142 C 
BRANCH  11  12
HETATM   12  C9  UNL     1      42.871   2.326  21.443  1.00  0.00     0.058 C 
BRANCH  12  13
HETATM   13  C10 UNL     1      43.307   1.794  22.759  1.00  0.00    -0.057 A 
HETATM   14  C11 UNL     1      44.225   0.751  22.857  1.00  0.00     0.007 A 
HETATM   15  C12 UNL     1      44.627   0.260  24.082  1.00  0.00     0.001 A 
HETATM   16  C13 UNL     1      44.125   0.795  25.261  1.00  0.00     0.000 A 
HETATM   17  C14 UNL     1      43.213   1.831  25.174  1.00  0.00     0.001 A 
HETATM   18  C15 UNL     1      42.831   2.300  23.945  1.00  0.00     0.007 A 
ENDBRANCH  12  13
ENDBRANCH  11  12
ENDBRANCH   9  11
ENDBRANCH   6   9
BRANCH   1  19
HETATM   19  N2  UNL     1      45.248  -2.479  19.976  1.00  0.00    -0.375 N 
ATOM     20  H2  UNL     1      45.161  -3.417  19.584  1.00  0.00     0.161 HD
BRANCH  19  21
HETATM   21  C3  UNL     1      45.819  -2.349  21.278  1.00  0.00     0.130 C 
BRANCH  21  22
HETATM   22  C2  UNL     1      45.038  -3.097  22.336  1.00  0.00     0.119 C 
BRANCH  22  23
HETATM   23  C1  UNL     1      43.921  -3.815  21.693  1.00  0.00     0.232 C 
HETATM   24  N1  UNL     1      42.644  -3.233  21.491  1.00  0.00    -0.062 NA
HETATM   25  O1  UNL     1      44.099  -4.989  21.305  1.00  0.00    -0.277 OA
ENDBRANCH  22  23
ENDBRANCH  21  22
ENDBRANCH  19  21
ENDBRANCH   1  19
TORSDOF 8
ENDMDL
