MODEL 1
REMARK VINA RESULT: -7.417853927      0.000      0.000
REMARK  7 active torsions:
REMARK  status: ('A' for Active; 'I' for Inactive)
REMARK    1  A    between atoms: C1_2  and  C2_4 
REMARK    2  A    between atoms: C2_4  and  N2_5 
REMARK    3  A    between atoms: N2_5  and  C3_7 
REMARK    4  A    between atoms: N4_13  and  C7_15 
REMARK    5  A    between atoms: C7_15  and  C8_16 
REMARK    6  A    between atoms: C8_16  and  C9_17 
REMARK    7  A    between atoms: C9_17  and  C10_18 
ROOT
HETATM    1  C3  UNL     1      42.684   0.954  20.055  1.00  0.00     0.679 A 
HETATM    2  N3  UNL     1      41.550   1.432  20.580  1.00  0.00    -0.202 N 
ATOM      3  H3  UNL     1      40.778   1.714  19.977  1.00  0.00     0.183 HD
HETATM    4  C4  UNL     1      41.448   1.532  21.913  1.00  0.00     0.110 A 
HETATM    5  C5  UNL     1      42.524   1.138  22.726  1.00  0.00     0.066 A 
HETATM    6  C6  UNL     1      43.681   0.650  22.182  1.00  0.00     0.118 A 
HETATM    7  N4  UNL     1      44.679   0.282  22.878  1.00  0.00    -0.376 N 
ATOM      8  H4  UNL     1      45.512  -0.072  22.408  1.00  0.00     0.161 HD
HETATM    9  N5  UNL     1      43.725   0.571  20.818  1.00  0.00    -0.177 N 
ATOM     10  H5  UNL     1      44.567   0.213  20.368  1.00  0.00     0.185 HD
ENDROOT
BRANCH   7  11
HETATM   11  C7  UNL     1      44.657   0.356  24.313  1.00  0.00     0.121 C 
BRANCH  11  12
HETATM   12  C8  UNL     1      45.078  -0.927  24.953  1.00  0.00     0.024 C 
BRANCH  12  13
HETATM   13  C9  UNL     1      46.088  -1.640  24.148  1.00  0.00     0.040 C 
BRANCH  13  14
HETATM   14  C10 UNL     1      47.157  -2.337  24.861  1.00  0.00    -0.058 A 
HETATM   15  C11 UNL     1      46.839  -3.272  25.815  1.00  0.00     0.007 A 
HETATM   16  C12 UNL     1      47.816  -3.984  26.526  1.00  0.00     0.001 A 
HETATM   17  C13 UNL     1      49.125  -3.694  26.215  1.00  0.00     0.000 A 
HETATM   18  C14 UNL     1      49.461  -2.760  25.263  1.00  0.00     0.001 A 
HETATM   19  C15 UNL     1      48.500  -2.071  24.575  1.00  0.00     0.007 A 
ENDBRANCH  13  14
ENDBRANCH  12  13
ENDBRANCH  11  12
ENDBRANCH   7  11
BRANCH   1  20
HETATM   20  N2  UNL     1      42.806   0.848  18.792  1.00  0.00    -0.218 N 
ATOM     21  H2  UNL     1      42.090   1.284  18.210  1.00  0.00     0.178 HD
BRANCH  20  22
HETATM   22  C2  UNL     1      43.878   0.159  18.126  1.00  0.00     0.237 C 
BRANCH  22  23
HETATM   23  C1  UNL     1      43.373  -0.868  17.187  1.00  0.00     0.249 C 
HETATM   24  N1  UNL     1      42.728  -2.025  17.648  1.00  0.00    -0.061 NA
HETATM   25  O1  UNL     1      43.533  -0.687  15.957  1.00  0.00    -0.275 OA
ENDBRANCH  22  23
ENDBRANCH  20  22
ENDBRANCH   1  20
TORSDOF 7
ENDMDL
MODEL 2
REMARK VINA RESULT: -7.391676370      0.040      1.049
REMARK  7 active torsions:
REMARK  status: ('A' for Active; 'I' for Inactive)
REMARK    1  A    between atoms: C1_2  and  C2_4 
REMARK    2  A    between atoms: C2_4  and  N2_5 
REMARK    3  A    between atoms: N2_5  and  C3_7 
REMARK    4  A    between atoms: N4_13  and  C7_15 
REMARK    5  A    between atoms: C7_15  and  C8_16 
REMARK    6  A    between atoms: C8_16  and  C9_17 
REMARK    7  A    between atoms: C9_17  and  C10_18 
ROOT
HETATM    1  C3  UNL     1      42.683   0.950  20.056  1.00  0.00     0.679 A 
HETATM    2  N3  UNL     1      41.557   1.447  20.579  1.00  0.00    -0.202 N 
ATOM      3  H3  UNL     1      40.789   1.740  19.975  1.00  0.00     0.183 HD
HETATM    4  C4  UNL     1      41.457   1.553  21.911  1.00  0.00     0.110 A 
HETATM    5  C5  UNL     1      42.526   1.145  22.725  1.00  0.00     0.066 A 
HETATM    6  C6  UNL     1      43.675   0.636  22.183  1.00  0.00     0.118 A 
HETATM    7  N4  UNL     1      44.667   0.255  22.880  1.00  0.00    -0.376 N 
ATOM      8  H4  UNL     1      45.494  -0.114  22.412  1.00  0.00     0.161 HD
HETATM    9  N5  UNL     1      43.719   0.552  20.820  1.00  0.00    -0.177 N 
ATOM     10  H5  UNL     1      44.555   0.179  20.371  1.00  0.00     0.185 HD
ENDROOT
BRANCH   7  11
HETATM   11  C7  UNL     1      44.646   0.333  24.315  1.00  0.00     0.121 C 
BRANCH  11  12
HETATM   12  C8  UNL     1      45.095  -0.938  24.959  1.00  0.00     0.024 C 
BRANCH  12  13
HETATM   13  C9  UNL     1      46.116  -1.634  24.154  1.00  0.00     0.040 C 
BRANCH  13  14
HETATM   14  C10 UNL     1      47.166  -2.360  24.867  1.00  0.00    -0.058 A 
HETATM   15  C11 UNL     1      48.484  -2.063  24.620  1.00  0.00     0.007 A 
HETATM   16  C12 UNL     1      49.538  -2.713  25.278  1.00  0.00     0.001 A 
HETATM   17  C13 UNL     1      49.180  -3.675  26.196  1.00  0.00     0.000 A 
HETATM   18  C14 UNL     1      47.865  -3.984  26.455  1.00  0.00     0.001 A 
HETATM   19  C15 UNL     1      46.844  -3.344  25.807  1.00  0.00     0.007 A 
ENDBRANCH  13  14
ENDBRANCH  12  13
ENDBRANCH  11  12
ENDBRANCH   7  11
BRANCH   1  20
HETATM   20  N2  UNL     1      42.803   0.838  18.792  1.00  0.00    -0.218 N 
ATOM     21  H2  UNL     1      42.084   1.266  18.210  1.00  0.00     0.178 HD
BRANCH  20  22
HETATM   22  C2  UNL     1      43.879   0.151  18.128  1.00  0.00     0.237 C 
BRANCH  22  23
HETATM   23  C1  UNL     1      43.378  -0.871  17.181  1.00  0.00     0.249 C 
HETATM   24  N1  UNL     1      42.731  -2.030  17.632  1.00  0.00    -0.061 NA
HETATM   25  O1  UNL     1      43.544  -0.682  15.952  1.00  0.00    -0.275 OA
ENDBRANCH  22  23
ENDBRANCH  20  22
ENDBRANCH   1  20
TORSDOF 7
ENDMDL
MODEL 3
REMARK VINA RESULT: -7.292192627      1.649      2.463
REMARK  7 active torsions:
REMARK  status: ('A' for Active; 'I' for Inactive)
REMARK    1  A    between atoms: C1_2  and  C2_4 
REMARK    2  A    between atoms: C2_4  and  N2_5 
REMARK    3  A    between atoms: N2_5  and  C3_7 
REMARK    4  A    between atoms: N4_13  and  C7_15 
REMARK    5  A    between atoms: C7_15  and  C8_16 
REMARK    6  A    between atoms: C8_16  and  C9_17 
REMARK    7  A    between atoms: C9_17  and  C10_18 
ROOT
HETATM    1  C3  UNL     1      42.487   1.287  19.959  1.00  0.00     0.679 A 
HETATM    2  N3  UNL     1      41.195   1.337  20.300  1.00  0.00    -0.202 N 
ATOM      3  H3  UNL     1      40.468   1.155  19.608  1.00  0.00     0.183 HD
HETATM    4  C4  UNL     1      40.873   1.630  21.567  1.00  0.00     0.110 A 
HETATM    5  C5  UNL     1      41.889   1.879  22.505  1.00  0.00     0.066 A 
HETATM    6  C6  UNL     1      43.209   1.826  22.150  1.00  0.00     0.118 A 
HETATM    7  N4  UNL     1      44.161   2.043  22.964  1.00  0.00    -0.376 N 
ATOM      8  H4  UNL     1      45.123   1.988  22.632  1.00  0.00     0.161 HD
HETATM    9  N5  UNL     1      43.475   1.522  20.844  1.00  0.00    -0.177 N 
ATOM     10  H5  UNL     1      44.445   1.470  20.533  1.00  0.00     0.185 HD
ENDROOT
BRANCH   7  11
HETATM   11  C7  UNL     1      43.907   2.365  24.341  1.00  0.00     0.121 C 
BRANCH  11  12
HETATM   12  C8  UNL     1      43.826   1.148  25.202  1.00  0.00     0.024 C 
BRANCH  12  13
HETATM   13  C9  UNL     1      45.071   0.358  25.161  1.00  0.00     0.040 C 
BRANCH  13  14
HETATM   14  C10 UNL     1      45.026  -0.949  24.507  1.00  0.00    -0.058 A 
HETATM   15  C11 UNL     1      46.048  -1.844  24.709  1.00  0.00     0.007 A 
HETATM   16  C12 UNL     1      46.060  -3.118  24.122  1.00  0.00     0.001 A 
HETATM   17  C13 UNL     1      44.982  -3.428  23.324  1.00  0.00     0.000 A 
HETATM   18  C14 UNL     1      43.951  -2.543  23.111  1.00  0.00     0.001 A 
HETATM   19  C15 UNL     1      43.950  -1.303  23.688  1.00  0.00     0.007 A 
ENDBRANCH  13  14
ENDBRANCH  12  13
ENDBRANCH  11  12
ENDBRANCH   7  11
BRANCH   1  20
HETATM   20  N2  UNL     1      42.820   1.010  18.761  1.00  0.00    -0.218 N 
ATOM     21  H2  UNL     1      42.369   1.535  18.012  1.00  0.00     0.178 HD
BRANCH  20  22
HETATM   22  C2  UNL     1      43.784   0.009  18.389  1.00  0.00     0.237 C 
BRANCH  22  23
HETATM   23  C1  UNL     1      43.267  -0.886  17.329  1.00  0.00     0.249 C 
HETATM   24  N1  UNL     1      42.667  -2.115  17.640  1.00  0.00    -0.061 NA
HETATM   25  O1  UNL     1      43.375  -0.525  16.133  1.00  0.00    -0.275 OA
ENDBRANCH  22  23
ENDBRANCH  20  22
ENDBRANCH   1  20
TORSDOF 7
ENDMDL
MODEL 4
REMARK VINA RESULT: -7.257729125      3.103      5.214
REMARK  7 active torsions:
REMARK  status: ('A' for Active; 'I' for Inactive)
REMARK    1  A    between atoms: C1_2  and  C2_4 
REMARK    2  A    between atoms: C2_4  and  N2_5 
REMARK    3  A    between atoms: N2_5  and  C3_7 
REMARK    4  A    between atoms: N4_13  and  C7_15 
REMARK    5  A    between atoms: C7_15  and  C8_16 
REMARK    6  A    between atoms: C8_16  and  C9_17 
REMARK    7  A    between atoms: C9_17  and  C10_18 
ROOT
HETATM    1  C3  UNL     1      44.979  -1.329  20.114  1.00  0.00     0.679 A 
HETATM    2  N3  UNL     1      46.063  -0.997  20.824  1.00  0.00    -0.202 N 
ATOM      3  H3  UNL     1      46.957  -0.833  20.361  1.00  0.00     0.183 HD
HETATM    4  C4  UNL     1      45.952  -0.882  22.155  1.00  0.00     0.110 A 
HETATM    5  C5  UNL     1      44.712  -1.111  22.773  1.00  0.00     0.066 A 
HETATM    6  C6  UNL     1      43.606  -1.451  22.041  1.00  0.00     0.118 A 
HETATM    7  N4  UNL     1      42.466  -1.667  22.557  1.00  0.00    -0.376 N 
ATOM      8  H4  UNL     1      41.684  -1.917  21.953  1.00  0.00     0.161 HD
HETATM    9  N5  UNL     1      43.782  -1.552  20.689  1.00  0.00    -0.177 N 
ATOM     10  H5  UNL     1      42.986  -1.802  20.102  1.00  0.00     0.185 HD
ENDROOT
BRANCH   7  11
HETATM   11  C7  UNL     1      42.256  -1.567  23.975  1.00  0.00     0.121 C 
BRANCH  11  12
HETATM   12  C8  UNL     1      41.374  -0.418  24.339  1.00  0.00     0.024 C 
BRANCH  12  13
HETATM   13  C9  UNL     1      42.147   0.735  24.838  1.00  0.00     0.040 C 
BRANCH  13  14
HETATM   14  C10 UNL     1      42.601   1.724  23.862  1.00  0.00    -0.058 A 
HETATM   15  C11 UNL     1      43.775   2.402  24.080  1.00  0.00     0.007 A 
HETATM   16  C12 UNL     1      44.272   3.354  23.178  1.00  0.00     0.001 A 
HETATM   17  C13 UNL     1      43.514   3.576  22.050  1.00  0.00     0.000 A 
HETATM   18  C14 UNL     1      42.336   2.905  21.818  1.00  0.00     0.001 A 
HETATM   19  C15 UNL     1      41.860   1.979  22.704  1.00  0.00     0.007 A 
ENDBRANCH  13  14
ENDBRANCH  12  13
ENDBRANCH  11  12
ENDBRANCH   7  11
BRANCH   1  20
HETATM   20  N2  UNL     1      45.058  -1.444  18.848  1.00  0.00    -0.218 N 
ATOM     21  H2  UNL     1      45.610  -2.217  18.477  1.00  0.00     0.178 HD
BRANCH  20  22
HETATM   22  C2  UNL     1      44.426  -0.562  17.904  1.00  0.00     0.237 C 
BRANCH  22  23
HETATM   23  C1  UNL     1      43.137  -1.107  17.419  1.00  0.00     0.249 C 
HETATM   24  N1  UNL     1      42.795  -2.453  17.612  1.00  0.00    -0.061 NA
HETATM   25  O1  UNL     1      42.346  -0.337  16.824  1.00  0.00    -0.275 OA
ENDBRANCH  22  23
ENDBRANCH  20  22
ENDBRANCH   1  20
TORSDOF 7
ENDMDL
MODEL 5
REMARK VINA RESULT: -7.204729399      3.133      5.214
REMARK  7 active torsions:
REMARK  status: ('A' for Active; 'I' for Inactive)
REMARK    1  A    between atoms: C1_2  and  C2_4 
REMARK    2  A    between atoms: C2_4  and  N2_5 
REMARK    3  A    between atoms: N2_5  and  C3_7 
REMARK    4  A    between atoms: N4_13  and  C7_15 
REMARK    5  A    between atoms: C7_15  and  C8_16 
REMARK    6  A    between atoms: C8_16  and  C9_17 
REMARK    7  A    between atoms: C9_17  and  C10_18 
ROOT
HETATM    1  C3  UNL     1      44.931  -1.604  20.252  1.00  0.00     0.679 A 
HETATM    2  N3  UNL     1      45.976  -1.148  20.951  1.00  0.00    -0.202 N 
ATOM      3  H3  UNL     1      46.869  -0.966  20.491  1.00  0.00     0.183 HD
HETATM    4  C4  UNL     1      45.829  -0.935  22.266  1.00  0.00     0.110 A 
HETATM    5  C5  UNL     1      44.592  -1.192  22.880  1.00  0.00     0.066 A 
HETATM    6  C6  UNL     1      43.527  -1.658  22.158  1.00  0.00     0.118 A 
HETATM    7  N4  UNL     1      42.390  -1.905  22.670  1.00  0.00    -0.376 N 
ATOM      8  H4  UNL     1      41.639  -2.251  22.075  1.00  0.00     0.161 HD
HETATM    9  N5  UNL     1      43.738  -1.856  20.822  1.00  0.00    -0.177 N 
ATOM     10  H5  UNL     1      42.972  -2.201  20.243  1.00  0.00     0.185 HD
ENDROOT
BRANCH   7  11
HETATM   11  C7  UNL     1      42.144  -1.706  24.072  1.00  0.00     0.121 C 
BRANCH  11  12
HETATM   12  C8  UNL     1      41.256  -0.532  24.331  1.00  0.00     0.024 C 
BRANCH  12  13
HETATM   13  C9  UNL     1      42.007   0.620  24.864  1.00  0.00     0.040 C 
BRANCH  13  14
HETATM   14  C10 UNL     1      42.545   1.584  23.905  1.00  0.00    -0.058 A 
HETATM   15  C11 UNL     1      41.875   1.816  22.729  1.00  0.00     0.007 A 
HETATM   16  C12 UNL     1      42.330   2.736  21.772  1.00  0.00     0.001 A 
HETATM   17  C13 UNL     1      43.496   3.401  22.077  1.00  0.00     0.000 A 
HETATM   18  C14 UNL     1      44.179   3.180  23.250  1.00  0.00     0.001 A 
HETATM   19  C15 UNL     1      43.726   2.280  24.176  1.00  0.00     0.007 A 
ENDBRANCH  13  14
ENDBRANCH  12  13
ENDBRANCH  11  12
ENDBRANCH   7  11
BRANCH   1  20
HETATM   20  N2  UNL     1      45.045  -1.813  19.000  1.00  0.00    -0.218 N 
ATOM     21  H2  UNL     1      45.508  -2.673  18.706  1.00  0.00     0.178 HD
BRANCH  20  22
HETATM   22  C2  UNL     1      44.568  -0.927  17.973  1.00  0.00     0.237 C 
BRANCH  22  23
HETATM   23  C1  UNL     1      43.210  -1.296  17.514  1.00  0.00     0.249 C 
HETATM   24  N1  UNL     1      42.406  -0.388  16.810  1.00  0.00    -0.061 NA
HETATM   25  O1  UNL     1      42.783  -2.447  17.768  1.00  0.00    -0.275 OA
ENDBRANCH  22  23
ENDBRANCH  20  22
ENDBRANCH   1  20
TORSDOF 7
ENDMDL
