MODEL 1
REMARK VINA RESULT: -6.945788417      0.000      0.000
REMARK  6 active torsions:
REMARK  status: ('A' for Active; 'I' for Inactive)
REMARK    1  A    between atoms: N3_4  and  C2_6 
REMARK    2  A    between atoms: C2_6  and  C3_7 
REMARK    3  A    between atoms: C3_7  and  C4_8 
REMARK    4  A    between atoms: C8_12  and  C9_13 
REMARK    5  A    between atoms: C9_13  and  C10_14 
REMARK    6  A    between atoms: C10_14  and  N4_15 
ROOT
HETATM    1  C4  UNL     1      43.330   1.927  22.722  1.00  0.00    -0.056 A 
HETATM    2  C5  UNL     1      42.826   2.335  23.955  1.00  0.00     0.007 A 
HETATM    3  C6  UNL     1      43.277   1.819  25.141  1.00  0.00     0.001 A 
HETATM    4  C7  UNL     1      44.260   0.865  25.137  1.00  0.00     0.007 A 
HETATM    5  C8  UNL     1      44.791   0.429  23.942  1.00  0.00    -0.056 A 
HETATM    6  C16 UNL     1      44.325   0.959  22.756  1.00  0.00     0.014 A 
ENDROOT
BRANCH   5   7
HETATM    7  C9  UNL     1      45.854  -0.603  23.932  1.00  0.00     0.068 C 
BRANCH   7   8
HETATM    8  C10 UNL     1      45.254  -1.885  24.430  1.00  0.00     0.277 C 
BRANCH   8   9
HETATM    9  N4  UNL     1      45.039  -2.855  23.371  1.00  0.00     0.090 N 
HETATM   10  C11 UNL     1      45.824  -2.455  22.229  1.00  0.00     0.274 C 
HETATM   11  C12 UNL     1      46.263  -3.564  21.356  1.00  0.00     0.049 C 
HETATM   12  C13 UNL     1      45.479  -4.812  21.410  1.00  0.00     0.115 C 
HETATM   13  N5  UNL     1      44.134  -4.716  21.825  1.00  0.00    -0.419 N 
HETATM   14  C14 UNL     1      43.507  -3.447  21.656  1.00  0.00     0.144 C 
ATOM     15  H5  UNL     1      43.637  -5.512  22.225  1.00  0.00     0.153 HD
HETATM   16  C15 UNL     1      43.631  -2.701  22.967  1.00  0.00     0.291 C 
ENDBRANCH   8   9
ENDBRANCH   7   8
ENDBRANCH   5   7
BRANCH   1  17
HETATM   17  C3  UNL     1      42.832   2.496  21.443  1.00  0.00     0.058 C 
BRANCH  17  18
HETATM   18  C2  UNL     1      42.267   1.361  20.618  1.00  0.00     0.126 C 
BRANCH  18  19
HETATM   19  N3  UNL     1      42.727   1.406  19.250  1.00  0.00    -0.367 N 
HETATM   20  C1  UNL     1      43.319   0.386  18.756  1.00  0.00     0.196 C 
HETATM   21  N1  UNL     1      43.769   0.429  17.421  1.00  0.00    -0.067 NA
HETATM   22  N2  UNL     1      43.515  -0.769  19.549  1.00  0.00    -0.067 NA
ATOM     23  H3  UNL     1      42.582   2.242  18.685  1.00  0.00     0.161 HD
ENDBRANCH  18  19
ENDBRANCH  17  18
ENDBRANCH   1  17
TORSDOF 6
ENDMDL
MODEL 2
REMARK VINA RESULT: -6.936410705      2.026      5.255
REMARK  6 active torsions:
REMARK  status: ('A' for Active; 'I' for Inactive)
REMARK    1  A    between atoms: N3_4  and  C2_6 
REMARK    2  A    between atoms: C2_6  and  C3_7 
REMARK    3  A    between atoms: C3_7  and  C4_8 
REMARK    4  A    between atoms: C8_12  and  C9_13 
REMARK    5  A    between atoms: C9_13  and  C10_14 
REMARK    6  A    between atoms: C10_14  and  N4_15 
ROOT
HETATM    1  C4  UNL     1      45.872  -2.985  20.359  1.00  0.00    -0.056 A 
HETATM    2  C5  UNL     1      45.581  -4.327  20.593  1.00  0.00     0.007 A 
HETATM    3  C6  UNL     1      44.936  -4.753  21.723  1.00  0.00     0.001 A 
HETATM    4  C7  UNL     1      44.556  -3.842  22.673  1.00  0.00     0.007 A 
HETATM    5  C8  UNL     1      44.821  -2.503  22.488  1.00  0.00    -0.056 A 
HETATM    6  C16 UNL     1      45.472  -2.091  21.343  1.00  0.00     0.014 A 
ENDROOT
BRANCH   5   7
HETATM    7  C9  UNL     1      44.412  -1.513  23.512  1.00  0.00     0.068 C 
BRANCH   7   8
HETATM    8  C10 UNL     1      42.988  -1.128  23.236  1.00  0.00     0.277 C 
BRANCH   8   9
HETATM    9  N4  UNL     1      42.795   0.310  23.180  1.00  0.00     0.090 N 
HETATM   10  C11 UNL     1      43.515   0.817  22.037  1.00  0.00     0.274 C 
HETATM   11  C12 UNL     1      42.946   2.042  21.437  1.00  0.00     0.049 C 
HETATM   12  C13 UNL     1      42.094   2.880  22.301  1.00  0.00     0.115 C 
HETATM   13  N5  UNL     1      42.298   2.792  23.694  1.00  0.00    -0.419 N 
HETATM   14  C14 UNL     1      43.581   2.344  24.121  1.00  0.00     0.144 C 
ATOM     15  H5  UNL     1      41.565   3.036  24.360  1.00  0.00     0.153 HD
HETATM   16  C15 UNL     1      43.485   0.853  24.363  1.00  0.00     0.291 C 
ENDBRANCH   8   9
ENDBRANCH   7   8
ENDBRANCH   5   7
BRANCH   1  17
HETATM   17  C3  UNL     1      46.571  -2.537  19.128  1.00  0.00     0.058 C 
BRANCH  17  18
HETATM   18  C2  UNL     1      45.539  -2.398  18.030  1.00  0.00     0.126 C 
BRANCH  18  19
HETATM   19  N3  UNL     1      44.899  -1.105  18.050  1.00  0.00    -0.367 N 
HETATM   20  C1  UNL     1      43.639  -1.028  17.849  1.00  0.00     0.196 C 
HETATM   21  N1  UNL     1      43.012   0.234  17.868  1.00  0.00    -0.067 NA
HETATM   22  N2  UNL     1      42.889  -2.204  17.611  1.00  0.00    -0.067 NA
ATOM     23  H3  UNL     1      45.446  -0.261  18.223  1.00  0.00     0.161 HD
ENDBRANCH  18  19
ENDBRANCH  17  18
ENDBRANCH   1  17
TORSDOF 6
ENDMDL
MODEL 3
REMARK VINA RESULT: -6.870893217      1.044      1.571
REMARK  6 active torsions:
REMARK  status: ('A' for Active; 'I' for Inactive)
REMARK    1  A    between atoms: N3_4  and  C2_6 
REMARK    2  A    between atoms: C2_6  and  C3_7 
REMARK    3  A    between atoms: C3_7  and  C4_8 
REMARK    4  A    between atoms: C8_12  and  C9_13 
REMARK    5  A    between atoms: C9_13  and  C10_14 
REMARK    6  A    between atoms: C10_14  and  N4_15 
ROOT
HETATM    1  C4  UNL     1      43.383   1.836  22.771  1.00  0.00    -0.056 A 
HETATM    2  C5  UNL     1      42.879   2.378  23.952  1.00  0.00     0.007 A 
HETATM    3  C6  UNL     1      43.195   1.874  25.185  1.00  0.00     0.001 A 
HETATM    4  C7  UNL     1      44.036   0.797  25.284  1.00  0.00     0.007 A 
HETATM    5  C8  UNL     1      44.560   0.226  24.145  1.00  0.00    -0.056 A 
HETATM    6  C16 UNL     1      44.231   0.746  22.910  1.00  0.00     0.014 A 
ENDROOT
BRANCH   5   7
HETATM    7  C9  UNL     1      45.470  -0.940  24.246  1.00  0.00     0.068 C 
BRANCH   7   8
HETATM    8  C10 UNL     1      44.773  -2.120  23.634  1.00  0.00     0.277 C 
BRANCH   8   9
HETATM    9  N4  UNL     1      45.431  -2.601  22.433  1.00  0.00     0.090 N 
HETATM   10  C11 UNL     1      45.166  -4.014  22.309  1.00  0.00     0.274 C 
HETATM   11  C12 UNL     1      45.155  -4.526  20.923  1.00  0.00     0.049 C 
HETATM   12  C13 UNL     1      45.889  -3.743  19.912  1.00  0.00     0.115 C 
HETATM   13  N5  UNL     1      46.946  -2.926  20.366  1.00  0.00    -0.419 N 
HETATM   14  C14 UNL     1      47.546  -3.295  21.605  1.00  0.00     0.144 C 
ATOM     15  H5  UNL     1      47.263  -2.114  19.836  1.00  0.00     0.153 HD
HETATM   16  C15 UNL     1      46.876  -2.484  22.694  1.00  0.00     0.291 C 
ENDBRANCH   8   9
ENDBRANCH   7   8
ENDBRANCH   5   7
BRANCH   1  17
HETATM   17  C3  UNL     1      43.031   2.394  21.440  1.00  0.00     0.058 C 
BRANCH  17  18
HETATM   18  C2  UNL     1      42.350   1.303  20.643  1.00  0.00     0.126 C 
BRANCH  18  19
HETATM   19  N3  UNL     1      42.784   1.288  19.267  1.00  0.00    -0.367 N 
HETATM   20  C1  UNL     1      43.349   0.239  18.801  1.00  0.00     0.196 C 
HETATM   21  N1  UNL     1      43.774   0.223  17.457  1.00  0.00    -0.067 NA
HETATM   22  N2  UNL     1      43.541  -0.888  19.634  1.00  0.00    -0.067 NA
ATOM     23  H3  UNL     1      42.643   2.104  18.672  1.00  0.00     0.161 HD
ENDBRANCH  18  19
ENDBRANCH  17  18
ENDBRANCH   1  17
TORSDOF 6
ENDMDL
MODEL 4
REMARK VINA RESULT: -6.818182863      1.419      2.017
REMARK  6 active torsions:
REMARK  status: ('A' for Active; 'I' for Inactive)
REMARK    1  A    between atoms: N3_4  and  C2_6 
REMARK    2  A    between atoms: C2_6  and  C3_7 
REMARK    3  A    between atoms: C3_7  and  C4_8 
REMARK    4  A    between atoms: C8_12  and  C9_13 
REMARK    5  A    between atoms: C9_13  and  C10_14 
REMARK    6  A    between atoms: C10_14  and  N4_15 
ROOT
HETATM    1  C4  UNL     1      43.397   1.279  21.611  1.00  0.00    -0.056 A 
HETATM    2  C5  UNL     1      43.595   2.551  22.143  1.00  0.00     0.007 A 
HETATM    3  C6  UNL     1      44.098   2.751  23.402  1.00  0.00     0.001 A 
HETATM    4  C7  UNL     1      44.423   1.674  24.183  1.00  0.00     0.007 A 
HETATM    5  C8  UNL     1      44.246   0.395  23.700  1.00  0.00    -0.056 A 
HETATM    6  C16 UNL     1      43.738   0.212  22.430  1.00  0.00     0.014 A 
ENDROOT
BRANCH   5   7
HETATM    7  C9  UNL     1      44.596  -0.774  24.540  1.00  0.00     0.068 C 
BRANCH   7   8
HETATM    8  C10 UNL     1      45.957  -1.249  24.122  1.00  0.00     0.277 C 
BRANCH   8   9
HETATM    9  N4  UNL     1      45.922  -2.075  22.929  1.00  0.00     0.090 N 
HETATM   10  C11 UNL     1      45.382  -3.364  23.290  1.00  0.00     0.274 C 
HETATM   11  C12 UNL     1      44.671  -4.068  22.202  1.00  0.00     0.049 C 
HETATM   12  C13 UNL     1      45.013  -3.685  20.819  1.00  0.00     0.115 C 
HETATM   13  N5  UNL     1      46.289  -3.125  20.597  1.00  0.00    -0.419 N 
HETATM   14  C14 UNL     1      47.295  -3.441  21.555  1.00  0.00     0.144 C 
ATOM     15  H5  UNL     1      46.479  -2.525  19.795  1.00  0.00     0.153 HD
HETATM   16  C15 UNL     1      47.329  -2.316  22.567  1.00  0.00     0.291 C 
ENDBRANCH   8   9
ENDBRANCH   7   8
ENDBRANCH   5   7
BRANCH   1  17
HETATM   17  C3  UNL     1      42.851   1.078  20.244  1.00  0.00     0.058 C 
BRANCH  17  18
HETATM   18  C2  UNL     1      43.590  -0.083  19.614  1.00  0.00     0.126 C 
BRANCH  18  19
HETATM   19  N3  UNL     1      43.858   0.144  18.214  1.00  0.00    -0.367 N 
HETATM   20  C1  UNL     1      43.532  -0.752  17.363  1.00  0.00     0.196 C 
HETATM   21  N1  UNL     1      43.793  -0.533  15.995  1.00  0.00    -0.067 NA
HETATM   22  N2  UNL     1      42.915  -1.949  17.798  1.00  0.00    -0.067 NA
ATOM     23  H3  UNL     1      44.303   1.009  17.907  1.00  0.00     0.161 HD
ENDBRANCH  18  19
ENDBRANCH  17  18
ENDBRANCH   1  17
TORSDOF 6
ENDMDL
MODEL 5
REMARK VINA RESULT: -6.815841446      1.013      1.220
REMARK  6 active torsions:
REMARK  status: ('A' for Active; 'I' for Inactive)
REMARK    1  A    between atoms: N3_4  and  C2_6 
REMARK    2  A    between atoms: C2_6  and  C3_7 
REMARK    3  A    between atoms: C3_7  and  C4_8 
REMARK    4  A    between atoms: C8_12  and  C9_13 
REMARK    5  A    between atoms: C9_13  and  C10_14 
REMARK    6  A    between atoms: C10_14  and  N4_15 
ROOT
HETATM    1  C4  UNL     1      43.275   1.671  22.631  1.00  0.00    -0.056 A 
HETATM    2  C5  UNL     1      43.519   2.385  23.802  1.00  0.00     0.007 A 
HETATM    3  C6  UNL     1      43.931   1.779  24.960  1.00  0.00     0.001 A 
HETATM    4  C7  UNL     1      44.117   0.422  24.988  1.00  0.00     0.007 A 
HETATM    5  C8  UNL     1      43.889  -0.327  23.854  1.00  0.00    -0.056 A 
HETATM    6  C16 UNL     1      43.474   0.299  22.696  1.00  0.00     0.014 A 
ENDROOT
BRANCH   5   7
HETATM    7  C9  UNL     1      44.088  -1.796  23.878  1.00  0.00     0.068 C 
BRANCH   7   8
HETATM    8  C10 UNL     1      45.566  -2.059  23.886  1.00  0.00     0.277 C 
BRANCH   8   9
HETATM    9  N4  UNL     1      45.994  -2.893  22.778  1.00  0.00     0.090 N 
HETATM   10  C11 UNL     1      46.234  -2.040  21.639  1.00  0.00     0.274 C 
HETATM   11  C12 UNL     1      47.250  -2.542  20.690  1.00  0.00     0.049 C 
HETATM   12  C13 UNL     1      47.514  -3.992  20.691  1.00  0.00     0.115 C 
HETATM   13  N5  UNL     1      46.482  -4.838  21.149  1.00  0.00    -0.419 N 
HETATM   14  C14 UNL     1      45.157  -4.321  21.074  1.00  0.00     0.144 C 
ATOM     15  H5  UNL     1      46.674  -5.771  21.515  1.00  0.00     0.153 HD
HETATM   16  C15 UNL     1      44.826  -3.719  22.423  1.00  0.00     0.291 C 
ENDBRANCH   8   9
ENDBRANCH   7   8
ENDBRANCH   5   7
BRANCH   1  17
HETATM   17  C3  UNL     1      42.828   2.342  21.383  1.00  0.00     0.058 C 
BRANCH  17  18
HETATM   18  C2  UNL     1      42.232   1.288  20.476  1.00  0.00     0.126 C 
BRANCH  18  19
HETATM   19  N3  UNL     1      42.777   1.352  19.141  1.00  0.00    -0.367 N 
HETATM   20  C1  UNL     1      43.341   0.317  18.647  1.00  0.00     0.196 C 
HETATM   21  N1  UNL     1      43.875   0.377  17.344  1.00  0.00    -0.067 NA
HETATM   22  N2  UNL     1      43.424  -0.873  19.407  1.00  0.00    -0.067 NA
ATOM     23  H3  UNL     1      42.714   2.213  18.599  1.00  0.00     0.161 HD
ENDBRANCH  18  19
ENDBRANCH  17  18
ENDBRANCH   1  17
TORSDOF 6
ENDMDL
