MODEL 1
REMARK VINA RESULT: -6.830707654      0.000      0.000
REMARK  6 active torsions:
REMARK  status: ('A' for Active; 'I' for Inactive)
REMARK    1  A    between atoms: C4_4  and  C5_5 
REMARK    2  A    between atoms: C5_5  and  N1_6 
REMARK    3  A    between atoms: N1_6  and  C6_8 
REMARK    4  A    between atoms: C6_8  and  C7_9 
REMARK    5  A    between atoms: C7_9  and  C8_10 
REMARK    6  A    between atoms: N2_18  and  N3_19 
REMARK       I    between atoms: N3_19  and  C16_20 
ROOT
HETATM    1  C1  UNL     1      46.270  -3.532  18.835  1.00  0.00     0.071 C 
HETATM    2  C2  UNL     1      45.308  -3.152  19.908  1.00  0.00     0.043 A 
HETATM    3  C3  UNL     1      45.603  -3.502  21.217  1.00  0.00     0.040 A 
HETATM    4  C4  UNL     1      44.754  -3.205  22.223  1.00  0.00    -0.018 A 
HETATM    5  C14 UNL     1      43.577  -2.529  21.820  1.00  0.00     0.033 A 
HETATM    6  C15 UNL     1      43.310  -2.201  20.565  1.00  0.00     0.131 A 
HETATM    7  N2  UNL     1      44.187  -2.502  19.528  1.00  0.00    -0.205 N 
ENDROOT
BRANCH   4   8
HETATM    8  C5  UNL     1      44.881  -3.420  23.636  1.00  0.00     0.094 C 
BRANCH   8   9
HETATM    9  N1  UNL     1      45.928  -2.958  24.446  1.00  0.00    -0.395 N 
ATOM     10  H1  UNL     1      46.387  -3.526  25.157  1.00  0.00     0.159 HD
BRANCH   9  11
HETATM   11  C6  UNL     1      46.288  -1.577  24.159  1.00  0.00     0.147 C 
BRANCH  11  12
HETATM   12  C7  UNL     1      45.384  -0.558  24.675  1.00  0.00     0.004 C 
BRANCH  12  13
HETATM   13  C8  UNL     1      44.438   0.160  23.875  1.00  0.00    -0.038 A 
HETATM   14  C9  UNL     1      43.087   0.010  24.283  1.00  0.00     0.011 A 
HETATM   15  C10 UNL     1      42.061   0.607  23.615  1.00  0.00     0.001 A 
HETATM   16  C11 UNL     1      42.294   1.382  22.513  1.00  0.00     0.000 A 
HETATM   17  C12 UNL     1      43.581   1.550  22.090  1.00  0.00     0.001 A 
HETATM   18  C13 UNL     1      44.620   0.944  22.768  1.00  0.00     0.011 A 
ENDBRANCH  12  13
ENDBRANCH  11  12
ENDBRANCH   9  11
ENDBRANCH   8   9
ENDBRANCH   4   8
BRANCH   7  19
HETATM   19  N3  UNL     1      43.879  -2.100  18.309  1.00  0.00    -0.288 NA
HETATM   20  C16 UNL     1      43.614  -1.749  17.225  1.00  0.00     0.299 C 
HETATM   21  N4  UNL     1      42.609  -0.771  16.836  1.00  0.00    -0.051 NA
HETATM   22  N5  UNL     1      44.297  -2.315  16.063  1.00  0.00    -0.051 NA
ENDBRANCH   7  19
TORSDOF 6
ENDMDL
MODEL 2
REMARK VINA RESULT: -6.813815853      2.420      3.293
REMARK  6 active torsions:
REMARK  status: ('A' for Active; 'I' for Inactive)
REMARK    1  A    between atoms: C4_4  and  C5_5 
REMARK    2  A    between atoms: C5_5  and  N1_6 
REMARK    3  A    between atoms: N1_6  and  C6_8 
REMARK    4  A    between atoms: C6_8  and  C7_9 
REMARK    5  A    between atoms: C7_9  and  C8_10 
REMARK    6  A    between atoms: N2_18  and  N3_19 
REMARK       I    between atoms: N3_19  and  C16_20 
ROOT
HETATM    1  C1  UNL     1      44.961  -2.368  18.806  1.00  0.00     0.071 C 
HETATM    2  C2  UNL     1      44.754  -2.885  20.188  1.00  0.00     0.043 A 
HETATM    3  C3  UNL     1      44.182  -2.045  21.131  1.00  0.00     0.040 A 
HETATM    4  C4  UNL     1      43.996  -2.454  22.404  1.00  0.00    -0.018 A 
HETATM    5  C14 UNL     1      44.432  -3.775  22.666  1.00  0.00     0.033 A 
HETATM    6  C15 UNL     1      44.976  -4.566  21.754  1.00  0.00     0.131 A 
HETATM    7  N2  UNL     1      45.163  -4.147  20.440  1.00  0.00    -0.205 N 
ENDROOT
BRANCH   4   8
HETATM    8  C5  UNL     1      43.384  -1.781  23.513  1.00  0.00     0.094 C 
BRANCH   8   9
HETATM    9  N1  UNL     1      42.020  -1.808  23.837  1.00  0.00    -0.395 N 
ATOM     10  H1  UNL     1      41.438  -2.642  23.768  1.00  0.00     0.159 HD
BRANCH   9  11
HETATM   11  C6  UNL     1      41.526  -0.513  24.283  1.00  0.00     0.147 C 
BRANCH  11  12
HETATM   12  C7  UNL     1      42.538   0.481  24.613  1.00  0.00     0.004 C 
BRANCH  12  13
HETATM   13  C8  UNL     1      42.908   1.568  23.757  1.00  0.00    -0.038 A 
HETATM   14  C9  UNL     1      42.084   1.724  22.612  1.00  0.00     0.011 A 
HETATM   15  C10 UNL     1      42.314   2.695  21.685  1.00  0.00     0.001 A 
HETATM   16  C11 UNL     1      43.359   3.566  21.821  1.00  0.00     0.000 A 
HETATM   17  C12 UNL     1      44.174   3.448  22.911  1.00  0.00     0.001 A 
HETATM   18  C13 UNL     1      43.939   2.463  23.850  1.00  0.00     0.011 A 
ENDBRANCH  12  13
ENDBRANCH  11  12
ENDBRANCH   9  11
ENDBRANCH   8   9
ENDBRANCH   4   8
BRANCH   7  19
HETATM   19  N3  UNL     1      45.665  -5.006  19.573  1.00  0.00    -0.288 NA
HETATM   20  C16 UNL     1      46.119  -5.768  18.811  1.00  0.00     0.299 C 
HETATM   21  N4  UNL     1      45.601  -6.112  17.495  1.00  0.00    -0.051 NA
HETATM   22  N5  UNL     1      47.324  -6.529  19.134  1.00  0.00    -0.051 NA
ENDBRANCH   7  19
TORSDOF 6
ENDMDL
MODEL 3
REMARK VINA RESULT: -6.771213004      2.062      3.845
REMARK  6 active torsions:
REMARK  status: ('A' for Active; 'I' for Inactive)
REMARK    1  A    between atoms: C4_4  and  C5_5 
REMARK    2  A    between atoms: C5_5  and  N1_6 
REMARK    3  A    between atoms: N1_6  and  C6_8 
REMARK    4  A    between atoms: C6_8  and  C7_9 
REMARK    5  A    between atoms: C7_9  and  C8_10 
REMARK    6  A    between atoms: N2_18  and  N3_19 
REMARK       I    between atoms: N3_19  and  C16_20 
ROOT
HETATM    1  C1  UNL     1      45.405  -1.270  20.389  1.00  0.00     0.071 C 
HETATM    2  C2  UNL     1      44.424  -0.153  20.487  1.00  0.00     0.043 A 
HETATM    3  C3  UNL     1      44.449   0.654  21.615  1.00  0.00     0.040 A 
HETATM    4  C4  UNL     1      43.566   1.663  21.766  1.00  0.00    -0.018 A 
HETATM    5  C14 UNL     1      42.647   1.805  20.698  1.00  0.00     0.033 A 
HETATM    6  C15 UNL     1      42.636   1.026  19.628  1.00  0.00     0.131 A 
HETATM    7  N2  UNL     1      43.549  -0.012  19.469  1.00  0.00    -0.205 N 
ENDROOT
BRANCH   4   8
HETATM    8  C5  UNL     1      43.447   2.641  22.809  1.00  0.00     0.094 C 
BRANCH   8   9
HETATM    9  N1  UNL     1      42.481   2.641  23.826  1.00  0.00    -0.395 N 
ATOM     10  H1  UNL     1      41.664   3.251  23.830  1.00  0.00     0.159 HD
BRANCH   9  11
HETATM   11  C6  UNL     1      42.773   1.675  24.874  1.00  0.00     0.147 C 
BRANCH  11  12
HETATM   12  C7  UNL     1      42.365   0.301  24.613  1.00  0.00     0.004 C 
BRANCH  12  13
HETATM   13  C8  UNL     1      43.270  -0.761  24.290  1.00  0.00    -0.038 A 
HETATM   14  C9  UNL     1      44.599  -0.562  24.747  1.00  0.00     0.011 A 
HETATM   15  C10 UNL     1      45.588  -1.466  24.503  1.00  0.00     0.001 A 
HETATM   16  C11 UNL     1      45.338  -2.611  23.800  1.00  0.00     0.000 A 
HETATM   17  C12 UNL     1      44.071  -2.838  23.343  1.00  0.00     0.001 A 
HETATM   18  C13 UNL     1      43.069  -1.920  23.592  1.00  0.00     0.011 A 
ENDBRANCH  12  13
ENDBRANCH  11  12
ENDBRANCH   9  11
ENDBRANCH   8   9
ENDBRANCH   4   8
BRANCH   7  19
HETATM   19  N3  UNL     1      43.512  -0.715  18.352  1.00  0.00    -0.288 NA
HETATM   20  C16 UNL     1      43.478  -1.329  17.357  1.00  0.00     0.299 C 
HETATM   21  N4  UNL     1      43.390  -2.775  17.217  1.00  0.00    -0.051 NA
HETATM   22  N5  UNL     1      43.553  -0.663  16.059  1.00  0.00    -0.051 NA
ENDBRANCH   7  19
TORSDOF 6
ENDMDL
MODEL 4
REMARK VINA RESULT: -6.752599245      0.114      1.029
REMARK  6 active torsions:
REMARK  status: ('A' for Active; 'I' for Inactive)
REMARK    1  A    between atoms: C4_4  and  C5_5 
REMARK    2  A    between atoms: C5_5  and  N1_6 
REMARK    3  A    between atoms: N1_6  and  C6_8 
REMARK    4  A    between atoms: C6_8  and  C7_9 
REMARK    5  A    between atoms: C7_9  and  C8_10 
REMARK    6  A    between atoms: N2_18  and  N3_19 
REMARK       I    between atoms: N3_19  and  C16_20 
ROOT
HETATM    1  C1  UNL     1      46.248  -3.557  18.750  1.00  0.00     0.071 C 
HETATM    2  C2  UNL     1      45.295  -3.180  19.832  1.00  0.00     0.043 A 
HETATM    3  C3  UNL     1      45.590  -3.551  21.135  1.00  0.00     0.040 A 
HETATM    4  C4  UNL     1      44.750  -3.257  22.149  1.00  0.00    -0.018 A 
HETATM    5  C14 UNL     1      43.580  -2.561  21.759  1.00  0.00     0.033 A 
HETATM    6  C15 UNL     1      43.311  -2.213  20.510  1.00  0.00     0.131 A 
HETATM    7  N2  UNL     1      44.181  -2.511  19.465  1.00  0.00    -0.205 N 
ENDROOT
BRANCH   4   8
HETATM    8  C5  UNL     1      44.879  -3.494  23.557  1.00  0.00     0.094 C 
BRANCH   8   9
HETATM    9  N1  UNL     1      45.910  -3.015  24.379  1.00  0.00    -0.395 N 
ATOM     10  H1  UNL     1      46.361  -3.572  25.103  1.00  0.00     0.159 HD
BRANCH   9  11
HETATM   11  C6  UNL     1      46.265  -1.635  24.082  1.00  0.00     0.147 C 
BRANCH  11  12
HETATM   12  C7  UNL     1      45.413  -0.612  24.674  1.00  0.00     0.004 C 
BRANCH  12  13
HETATM   13  C8  UNL     1      44.309   0.004  24.003  1.00  0.00    -0.038 A 
HETATM   14  C9  UNL     1      44.667   0.784  22.872  1.00  0.00     0.011 A 
HETATM   15  C10 UNL     1      43.740   1.457  22.136  1.00  0.00     0.001 A 
HETATM   16  C11 UNL     1      42.412   1.408  22.460  1.00  0.00     0.000 A 
HETATM   17  C12 UNL     1      42.028   0.667  23.541  1.00  0.00     0.001 A 
HETATM   18  C13 UNL     1      42.970  -0.014  24.287  1.00  0.00     0.011 A 
ENDBRANCH  12  13
ENDBRANCH  11  12
ENDBRANCH   9  11
ENDBRANCH   8   9
ENDBRANCH   4   8
BRANCH   7  19
HETATM   19  N3  UNL     1      43.873  -2.088  18.253  1.00  0.00    -0.288 NA
HETATM   20  C16 UNL     1      43.609  -1.719  17.175  1.00  0.00     0.299 C 
HETATM   21  N4  UNL     1      42.573  -0.769  16.798  1.00  0.00    -0.051 NA
HETATM   22  N5  UNL     1      44.327  -2.228  16.008  1.00  0.00    -0.051 NA
ENDBRANCH   7  19
TORSDOF 6
ENDMDL
MODEL 5
REMARK VINA RESULT: -6.696099909      0.958      1.100
REMARK  6 active torsions:
REMARK  status: ('A' for Active; 'I' for Inactive)
REMARK    1  A    between atoms: C4_4  and  C5_5 
REMARK    2  A    between atoms: C5_5  and  N1_6 
REMARK    3  A    between atoms: N1_6  and  C6_8 
REMARK    4  A    between atoms: C6_8  and  C7_9 
REMARK    5  A    between atoms: C7_9  and  C8_10 
REMARK    6  A    between atoms: N2_18  and  N3_19 
REMARK       I    between atoms: N3_19  and  C16_20 
ROOT
HETATM    1  C1  UNL     1      46.630  -2.135  18.649  1.00  0.00     0.071 C 
HETATM    2  C2  UNL     1      45.520  -2.367  19.615  1.00  0.00     0.043 A 
HETATM    3  C3  UNL     1      45.779  -3.108  20.758  1.00  0.00     0.040 A 
HETATM    4  C4  UNL     1      44.804  -3.369  21.653  1.00  0.00    -0.018 A 
HETATM    5  C14 UNL     1      43.537  -2.832  21.315  1.00  0.00     0.033 A 
HETATM    6  C15 UNL     1      43.305  -2.127  20.220  1.00  0.00     0.131 A 
HETATM    7  N2  UNL     1      44.312  -1.852  19.299  1.00  0.00    -0.205 N 
ENDROOT
BRANCH   4   8
HETATM    8  C5  UNL     1      44.860  -4.057  22.910  1.00  0.00     0.094 C 
BRANCH   8   9
HETATM    9  N1  UNL     1      44.894  -3.453  24.176  1.00  0.00    -0.395 N 
ATOM     10  H1  UNL     1      44.253  -3.690  24.933  1.00  0.00     0.159 HD
BRANCH   9  11
HETATM   11  C6  UNL     1      45.944  -2.452  24.289  1.00  0.00     0.147 C 
BRANCH  11  12
HETATM   12  C7  UNL     1      45.506  -1.092  24.570  1.00  0.00     0.004 C 
BRANCH  12  13
HETATM   13  C8  UNL     1      44.650  -0.327  23.714  1.00  0.00    -0.038 A 
HETATM   14  C9  UNL     1      43.290  -0.293  24.119  1.00  0.00     0.011 A 
HETATM   15  C10 UNL     1      42.340   0.370  23.402  1.00  0.00     0.001 A 
HETATM   16  C11 UNL     1      42.663   1.036  22.252  1.00  0.00     0.000 A 
HETATM   17  C12 UNL     1      43.962   1.027  21.831  1.00  0.00     0.001 A 
HETATM   18  C13 UNL     1      44.923   0.354  22.559  1.00  0.00     0.011 A 
ENDBRANCH  12  13
ENDBRANCH  11  12
ENDBRANCH   9  11
ENDBRANCH   8   9
ENDBRANCH   4   8
BRANCH   7  19
HETATM   19  N3  UNL     1      44.019  -1.099  18.255  1.00  0.00    -0.288 NA
HETATM   20  C16 UNL     1      43.751  -0.438  17.328  1.00  0.00     0.299 C 
HETATM   21  N4  UNL     1      44.580   0.583  16.706  1.00  0.00    -0.051 NA
HETATM   22  N5  UNL     1      42.453  -0.559  16.668  1.00  0.00    -0.051 NA
ENDBRANCH   7  19
TORSDOF 6
ENDMDL
