MODEL 1
REMARK VINA RESULT: -6.809491595      0.000      0.000
REMARK  9 active torsions:
REMARK  status: ('A' for Active; 'I' for Inactive)
REMARK    1  A    between atoms: C3_3  and  N1_4 
REMARK    2  A    between atoms: N1_4  and  C4_6 
REMARK    3  A    between atoms: C5_9  and  N3_10 
REMARK    4  A    between atoms: C7_15  and  N5_16 
REMARK    5  A    between atoms: N5_16  and  C8_18 
REMARK    6  A    between atoms: C8_18  and  C9_19 
REMARK    7  A    between atoms: C9_19  and  C10_20 
REMARK    8  A    between atoms: C10_20  and  C11_21 
REMARK    9  A    between atoms: C11_21  and  C12_22 
ROOT
HETATM    1  C1  UNL     1      45.137  -3.125  23.946  1.00  0.00     0.014 C 
HETATM    2  C2  UNL     1      44.543  -3.381  22.927  1.00  0.00    -0.097 C 
HETATM    3  C3  UNL     1      43.810  -3.673  21.680  1.00  0.00     0.231 C 
ENDROOT
BRANCH   3   4
HETATM    4  N1  UNL     1      42.889  -2.589  21.423  1.00  0.00    -0.215 N 
ATOM      5  H1  UNL     1      41.980  -2.574  21.884  1.00  0.00     0.178 HD
BRANCH   4   6
HETATM    6  C4  UNL     1      43.213  -1.647  20.619  1.00  0.00     0.708 A 
HETATM    7  N2  UNL     1      43.962  -1.918  19.513  1.00  0.00    -0.022 N 
HETATM    8  C5  UNL     1      44.307  -0.934  18.664  1.00  0.00     0.706 A 
ATOM      9  H2  UNL     1      44.265  -2.874  19.329  1.00  0.00     0.203 HD
HETATM   10  N4  UNL     1      43.877   0.305  18.963  1.00  0.00    -0.022 N 
HETATM   11  C7  UNL     1      43.139   0.585  20.045  1.00  0.00     0.707 A 
ATOM     12  H4  UNL     1      44.125   1.069  18.334  1.00  0.00     0.203 HD
HETATM   13  N6  UNL     1      42.793  -0.399  20.898  1.00  0.00    -0.021 N 
ATOM     14  H6  UNL     1      42.233  -0.205  21.728  1.00  0.00     0.203 HD
BRANCH   8  15
HETATM   15  N3  UNL     1      45.018  -1.135  17.597  1.00  0.00    -0.229 N 
HETATM   16  C6  UNL     1      45.536  -0.086  16.779  1.00  0.00     0.165 C 
ATOM     17  H3  UNL     1      45.219  -2.098  17.327  1.00  0.00     0.177 HD
ENDBRANCH   8  15
BRANCH  11  18
HETATM   18  N5  UNL     1      42.759   1.802  20.271  1.00  0.00    -0.225 N 
ATOM     19  H5  UNL     1      42.759   2.466  19.497  1.00  0.00     0.177 HD
BRANCH  18  20
HETATM   20  C8  UNL     1      42.340   2.253  21.561  1.00  0.00     0.138 C 
BRANCH  20  21
HETATM   21  C9  UNL     1      43.336   3.316  22.027  1.00  0.00     0.020 C 
BRANCH  21  22
HETATM   22  C10 UNL     1      44.116   2.707  23.166  1.00  0.00     0.003 C 
BRANCH  22  23
HETATM   23  C11 UNL     1      43.247   2.329  24.327  1.00  0.00     0.017 C 
BRANCH  23  24
HETATM   24  C12 UNL     1      43.601   0.982  24.908  1.00  0.00     0.060 C 
HETATM   25  C13 UNL     1      44.867   0.474  24.285  1.00  0.00     0.023 C 
HETATM   26  C14 UNL     1      42.517   0.057  24.535  1.00  0.00    -0.113 C 
HETATM   27  C15 UNL     1      41.617  -0.691  24.216  1.00  0.00     0.012 C 
ENDBRANCH  23  24
ENDBRANCH  22  23
ENDBRANCH  21  22
ENDBRANCH  20  21
ENDBRANCH  18  20
ENDBRANCH  11  18
ENDBRANCH   4   6
ENDBRANCH   3   4
TORSDOF 9
ENDMDL
MODEL 2
REMARK VINA RESULT: -6.487984082      0.771      3.889
REMARK  9 active torsions:
REMARK  status: ('A' for Active; 'I' for Inactive)
REMARK    1  A    between atoms: C3_3  and  N1_4 
REMARK    2  A    between atoms: N1_4  and  C4_6 
REMARK    3  A    between atoms: C5_9  and  N3_10 
REMARK    4  A    between atoms: C7_15  and  N5_16 
REMARK    5  A    between atoms: N5_16  and  C8_18 
REMARK    6  A    between atoms: C8_18  and  C9_19 
REMARK    7  A    between atoms: C9_19  and  C10_20 
REMARK    8  A    between atoms: C10_20  and  C11_21 
REMARK    9  A    between atoms: C11_21  and  C12_22 
ROOT
HETATM    1  C1  UNL     1      43.486   3.708  22.029  1.00  0.00     0.014 C 
HETATM    2  C2  UNL     1      42.653   2.875  21.770  1.00  0.00    -0.097 C 
HETATM    3  C3  UNL     1      41.646   1.848  21.436  1.00  0.00     0.231 C 
ENDROOT
BRANCH   3   4
HETATM    4  N1  UNL     1      41.916   1.355  20.105  1.00  0.00    -0.215 N 
ATOM      5  H1  UNL     1      41.448   1.775  19.302  1.00  0.00     0.178 HD
BRANCH   4   6
HETATM    6  C4  UNL     1      42.743   0.393  19.930  1.00  0.00     0.708 A 
HETATM    7  N2  UNL     1      43.685   0.470  18.948  1.00  0.00    -0.022 N 
HETATM    8  C5  UNL     1      44.556  -0.536  18.757  1.00  0.00     0.706 A 
ATOM      9  H2  UNL     1      43.729   1.297  18.352  1.00  0.00     0.203 HD
HETATM   10  N4  UNL     1      44.446  -1.598  19.575  1.00  0.00    -0.022 N 
HETATM   11  C7  UNL     1      43.526  -1.686  20.545  1.00  0.00     0.707 A 
ATOM     12  H4  UNL     1      45.095  -2.375  19.451  1.00  0.00     0.203 HD
HETATM   13  N6  UNL     1      42.651  -0.679  20.737  1.00  0.00    -0.021 N 
ATOM     14  H6  UNL     1      41.943  -0.729  21.469  1.00  0.00     0.203 HD
BRANCH   8  15
HETATM   15  N3  UNL     1      45.472  -0.517  17.838  1.00  0.00    -0.229 N 
HETATM   16  C6  UNL     1      45.399   0.286  16.661  1.00  0.00     0.165 C 
ATOM     17  H3  UNL     1      46.293  -1.110  17.965  1.00  0.00     0.177 HD
ENDBRANCH   8  15
BRANCH  11  18
HETATM   18  N5  UNL     1      43.477  -2.740  21.297  1.00  0.00    -0.225 N 
ATOM     19  H5  UNL     1      42.564  -3.104  21.570  1.00  0.00     0.177 HD
BRANCH  18  20
HETATM   20  C8  UNL     1      44.650  -3.413  21.759  1.00  0.00     0.138 C 
BRANCH  20  21
HETATM   21  C9  UNL     1      44.798  -3.114  23.253  1.00  0.00     0.020 C 
BRANCH  21  22
HETATM   22  C10 UNL     1      45.573  -1.825  23.361  1.00  0.00     0.003 C 
BRANCH  22  23
HETATM   23  C11 UNL     1      45.079  -0.942  24.467  1.00  0.00     0.017 C 
BRANCH  23  24
HETATM   24  C12 UNL     1      44.205   0.183  23.972  1.00  0.00     0.060 C 
HETATM   25  C13 UNL     1      44.404   1.399  24.827  1.00  0.00     0.023 C 
HETATM   26  C14 UNL     1      42.808  -0.256  24.138  1.00  0.00    -0.113 C 
HETATM   27  C15 UNL     1      41.665  -0.632  24.284  1.00  0.00     0.012 C 
ENDBRANCH  23  24
ENDBRANCH  22  23
ENDBRANCH  21  22
ENDBRANCH  20  21
ENDBRANCH  18  20
ENDBRANCH  11  18
ENDBRANCH   4   6
ENDBRANCH   3   4
TORSDOF 9
ENDMDL
MODEL 3
REMARK VINA RESULT: -6.484876468      1.127      1.127
REMARK  9 active torsions:
REMARK  status: ('A' for Active; 'I' for Inactive)
REMARK    1  A    between atoms: C3_3  and  N1_4 
REMARK    2  A    between atoms: N1_4  and  C4_6 
REMARK    3  A    between atoms: C5_9  and  N3_10 
REMARK    4  A    between atoms: C7_15  and  N5_16 
REMARK    5  A    between atoms: N5_16  and  C8_18 
REMARK    6  A    between atoms: C8_18  and  C9_19 
REMARK    7  A    between atoms: C9_19  and  C10_20 
REMARK    8  A    between atoms: C10_20  and  C11_21 
REMARK    9  A    between atoms: C11_21  and  C12_22 
ROOT
HETATM    1  C1  UNL     1      45.740  -2.856  24.365  1.00  0.00     0.014 C 
HETATM    2  C2  UNL     1      45.376  -2.751  23.220  1.00  0.00    -0.097 C 
HETATM    3  C3  UNL     1      44.943  -2.606  21.816  1.00  0.00     0.231 C 
ENDROOT
BRANCH   3   4
HETATM    4  N1  UNL     1      45.387  -1.319  21.330  1.00  0.00    -0.215 N 
ATOM      5  H1  UNL     1      46.253  -0.913  21.683  1.00  0.00     0.178 HD
BRANCH   4   6
HETATM    6  C4  UNL     1      44.696  -0.687  20.457  1.00  0.00     0.708 A 
HETATM    7  N2  UNL     1      45.012  -0.782  19.134  1.00  0.00    -0.022 N 
HETATM    8  C5  UNL     1      44.291  -0.121  18.211  1.00  0.00     0.706 A 
ATOM      9  H2  UNL     1      45.801  -1.359  18.842  1.00  0.00     0.203 HD
HETATM   10  N4  UNL     1      43.264   0.622  18.660  1.00  0.00    -0.022 N 
HETATM   11  C7  UNL     1      42.942   0.723  19.956  1.00  0.00     0.707 A 
ATOM     12  H4  UNL     1      42.702   1.133  17.980  1.00  0.00     0.203 HD
HETATM   13  N6  UNL     1      43.663   0.063  20.883  1.00  0.00    -0.021 N 
ATOM     14  H6  UNL     1      43.434   0.129  21.875  1.00  0.00     0.203 HD
BRANCH   8  15
HETATM   15  N3  UNL     1      44.546  -0.175  16.940  1.00  0.00    -0.229 N 
HETATM   16  C6  UNL     1      45.560   0.600  16.300  1.00  0.00     0.165 C 
ATOM     17  H3  UNL     1      43.991  -0.809  16.364  1.00  0.00     0.177 HD
ENDBRANCH   8  15
BRANCH  11  18
HETATM   18  N5  UNL     1      41.938   1.458  20.318  1.00  0.00    -0.225 N 
ATOM     19  H5  UNL     1      41.318   1.827  19.597  1.00  0.00     0.177 HD
BRANCH  18  20
HETATM   20  C8  UNL     1      41.665   1.771  21.686  1.00  0.00     0.138 C 
BRANCH  20  21
HETATM   21  C9  UNL     1      42.428   3.051  22.030  1.00  0.00     0.020 C 
BRANCH  21  22
HETATM   22  C10 UNL     1      43.416   2.688  23.110  1.00  0.00     0.003 C 
BRANCH  22  23
HETATM   23  C11 UNL     1      42.761   2.097  24.321  1.00  0.00     0.017 C 
BRANCH  23  24
HETATM   24  C12 UNL     1      43.486   0.883  24.846  1.00  0.00     0.060 C 
HETATM   25  C13 UNL     1      44.866   0.821  24.263  1.00  0.00     0.023 C 
HETATM   26  C14 UNL     1      42.745  -0.297  24.366  1.00  0.00    -0.113 C 
HETATM   27  C15 UNL     1      42.125  -1.257  23.960  1.00  0.00     0.012 C 
ENDBRANCH  23  24
ENDBRANCH  22  23
ENDBRANCH  21  22
ENDBRANCH  20  21
ENDBRANCH  18  20
ENDBRANCH  11  18
ENDBRANCH   4   6
ENDBRANCH   3   4
TORSDOF 9
ENDMDL
MODEL 4
REMARK VINA RESULT: -6.447230809      0.796      3.898
REMARK  9 active torsions:
REMARK  status: ('A' for Active; 'I' for Inactive)
REMARK    1  A    between atoms: C3_3  and  N1_4 
REMARK    2  A    between atoms: N1_4  and  C4_6 
REMARK    3  A    between atoms: C5_9  and  N3_10 
REMARK    4  A    between atoms: C7_15  and  N5_16 
REMARK    5  A    between atoms: N5_16  and  C8_18 
REMARK    6  A    between atoms: C8_18  and  C9_19 
REMARK    7  A    between atoms: C9_19  and  C10_20 
REMARK    8  A    between atoms: C10_20  and  C11_21 
REMARK    9  A    between atoms: C11_21  and  C12_22 
ROOT
HETATM    1  C1  UNL     1      45.217  -0.494  14.120  1.00  0.00     0.014 C 
HETATM    2  C2  UNL     1      45.180  -0.207  15.291  1.00  0.00    -0.097 C 
HETATM    3  C3  UNL     1      45.128   0.124  16.729  1.00  0.00     0.231 C 
ENDROOT
BRANCH   3   4
HETATM    4  N1  UNL     1      44.355  -0.892  17.406  1.00  0.00    -0.215 N 
ATOM      5  H1  UNL     1      44.213  -1.800  16.966  1.00  0.00     0.178 HD
BRANCH   4   6
HETATM    6  C4  UNL     1      43.848  -0.654  18.557  1.00  0.00     0.708 A 
HETATM    7  N2  UNL     1      43.621  -1.677  19.430  1.00  0.00    -0.022 N 
HETATM    8  C5  UNL     1      43.088  -1.436  20.640  1.00  0.00     0.706 A 
ATOM      9  H2  UNL     1      43.857  -2.633  19.162  1.00  0.00     0.203 HD
HETATM   10  N4  UNL     1      42.800  -0.155  20.933  1.00  0.00    -0.022 N 
HETATM   11  C7  UNL     1      43.018   0.859  20.086  1.00  0.00     0.707 A 
ATOM     12  H4  UNL     1      42.394   0.053  21.846  1.00  0.00     0.203 HD
HETATM   13  N6  UNL     1      43.551   0.620  18.872  1.00  0.00    -0.021 N 
ATOM     14  H6  UNL     1      43.724   1.379  18.214  1.00  0.00     0.203 HD
BRANCH   8  15
HETATM   15  N3  UNL     1      42.850  -2.370  21.509  1.00  0.00    -0.229 N 
HETATM   16  C6  UNL     1      43.658  -3.537  21.662  1.00  0.00     0.165 C 
ATOM     17  H3  UNL     1      42.040  -2.265  22.120  1.00  0.00     0.177 HD
ENDBRANCH   8  15
BRANCH  11  18
HETATM   18  N5  UNL     1      42.716   2.069  20.435  1.00  0.00    -0.225 N 
ATOM     19  H5  UNL     1      42.747   2.803  19.728  1.00  0.00     0.177 HD
BRANCH  18  20
HETATM   20  C8  UNL     1      42.343   2.417  21.770  1.00  0.00     0.138 C 
BRANCH  20  21
HETATM   21  C9  UNL     1      43.462   3.280  22.355  1.00  0.00     0.020 C 
BRANCH  21  22
HETATM   22  C10 UNL     1      44.339   2.360  23.166  1.00  0.00     0.003 C 
BRANCH  22  23
HETATM   23  C11 UNL     1      43.843   2.173  24.569  1.00  0.00     0.017 C 
BRANCH  23  24
HETATM   24  C12 UNL     1      43.810   0.724  24.989  1.00  0.00     0.060 C 
HETATM   25  C13 UNL     1      44.859  -0.048  24.246  1.00  0.00     0.023 C 
HETATM   26  C14 UNL     1      42.496   0.193  24.587  1.00  0.00    -0.113 C 
HETATM   27  C15 UNL     1      41.410  -0.228  24.247  1.00  0.00     0.012 C 
ENDBRANCH  23  24
ENDBRANCH  22  23
ENDBRANCH  21  22
ENDBRANCH  20  21
ENDBRANCH  18  20
ENDBRANCH  11  18
ENDBRANCH   4   6
ENDBRANCH   3   4
TORSDOF 9
ENDMDL
MODEL 5
REMARK VINA RESULT: -6.399088456      1.189      1.278
REMARK  9 active torsions:
REMARK  status: ('A' for Active; 'I' for Inactive)
REMARK    1  A    between atoms: C3_3  and  N1_4 
REMARK    2  A    between atoms: N1_4  and  C4_6 
REMARK    3  A    between atoms: C5_9  and  N3_10 
REMARK    4  A    between atoms: C7_15  and  N5_16 
REMARK    5  A    between atoms: N5_16  and  C8_18 
REMARK    6  A    between atoms: C8_18  and  C9_19 
REMARK    7  A    between atoms: C9_19  and  C10_20 
REMARK    8  A    between atoms: C10_20  and  C11_21 
REMARK    9  A    between atoms: C11_21  and  C12_22 
ROOT
HETATM    1  C1  UNL     1      46.099  -2.703  24.932  1.00  0.00     0.014 C 
HETATM    2  C2  UNL     1      45.712  -2.802  23.794  1.00  0.00    -0.097 C 
HETATM    3  C3  UNL     1      45.252  -2.908  22.395  1.00  0.00     0.231 C 
ENDROOT
BRANCH   3   4
HETATM    4  N1  UNL     1      45.594  -1.684  21.706  1.00  0.00    -0.215 N 
ATOM      5  H1  UNL     1      46.447  -1.183  21.954  1.00  0.00     0.178 HD
BRANCH   4   6
HETATM    6  C4  UNL     1      44.831  -1.229  20.785  1.00  0.00     0.708 A 
HETATM    7  N2  UNL     1      44.634  -1.946  19.642  1.00  0.00    -0.022 N 
HETATM    8  C5  UNL     1      43.834  -1.475  18.670  1.00  0.00     0.706 A 
ATOM      9  H2  UNL     1      45.097  -2.847  19.524  1.00  0.00     0.203 HD
HETATM   10  N4  UNL     1      43.252  -0.282  18.887  1.00  0.00    -0.022 N 
HETATM   11  C7  UNL     1      43.436   0.432  20.004  1.00  0.00     0.707 A 
ATOM     12  H4  UNL     1      42.641   0.098  18.163  1.00  0.00     0.203 HD
HETATM   13  N6  UNL     1      44.238  -0.037  20.980  1.00  0.00    -0.021 N 
ATOM     14  H6  UNL     1      44.391   0.493  21.837  1.00  0.00     0.203 HD
BRANCH   8  15
HETATM   15  N3  UNL     1      43.611  -2.114  17.562  1.00  0.00    -0.229 N 
HETATM   16  C6  UNL     1      44.634  -2.483  16.638  1.00  0.00     0.165 C 
ATOM     17  H3  UNL     1      42.649  -2.369  17.340  1.00  0.00     0.177 HD
ENDBRANCH   8  15
BRANCH  11  18
HETATM   18  N5  UNL     1      42.844   1.576  20.146  1.00  0.00    -0.225 N 
ATOM     19  H5  UNL     1      42.795   2.204  19.344  1.00  0.00     0.177 HD
BRANCH  18  20
HETATM   20  C8  UNL     1      42.256   1.992  21.381  1.00  0.00     0.138 C 
BRANCH  20  21
HETATM   21  C9  UNL     1      43.039   3.207  21.881  1.00  0.00     0.020 C 
BRANCH  21  22
HETATM   22  C10 UNL     1      43.756   2.774  23.135  1.00  0.00     0.003 C 
BRANCH  22  23
HETATM   23  C11 UNL     1      42.844   2.116  24.126  1.00  0.00     0.017 C 
BRANCH  23  24
HETATM   24  C12 UNL     1      43.476   0.924  24.801  1.00  0.00     0.060 C 
HETATM   25  C13 UNL     1      44.926   0.835  24.429  1.00  0.00     0.023 C 
HETATM   26  C14 UNL     1      42.804  -0.274  24.268  1.00  0.00    -0.113 C 
HETATM   27  C15 UNL     1      42.242  -1.249  23.815  1.00  0.00     0.012 C 
ENDBRANCH  23  24
ENDBRANCH  22  23
ENDBRANCH  21  22
ENDBRANCH  20  21
ENDBRANCH  18  20
ENDBRANCH  11  18
ENDBRANCH   4   6
ENDBRANCH   3   4
TORSDOF 9
ENDMDL
