MODEL 1
REMARK VINA RESULT: -6.774678620      0.000      0.000
REMARK  9 active torsions:
REMARK  status: ('A' for Active; 'I' for Inactive)
REMARK    1  A    between atoms: C2_2  and  O1_3 
REMARK    2  A    between atoms: O1_3  and  C3_4 
REMARK    3  A    between atoms: C3_4  and  O2_5 
REMARK    4  A    between atoms: C3_4  and  N1_7 
REMARK    5  A    between atoms: N1_7  and  C4_8 
REMARK    6  A    between atoms: C5_10  and  C6_11 
REMARK    7  A    between atoms: C6_11  and  O4_12 
REMARK    8  A    between atoms: O4_12  and  C7_13 
REMARK    9  A    between atoms: C9_17  and  O7_18 
ROOT
HETATM    1  C4  UNL     1      -4.978   3.570  13.482  1.00  0.00     0.363 C 
HETATM    2  O3  UNL     1      -5.372   2.660  14.541  1.00  0.00    -0.318 OA
HETATM    3  C5  UNL     1      -4.340   1.743  14.457  1.00  0.00     0.291 C 
HETATM    4  O6  UNL     1      -3.175   2.418  14.012  1.00  0.00    -0.324 OA
HETATM    5  C9  UNL     1      -3.521   3.747  14.044  1.00  0.00     0.324 C 
ENDROOT
BRANCH   1   6
HETATM    6  N1  UNL     1      -4.958   2.800  12.325  1.00  0.00    -0.365 NA
BRANCH   6   7
HETATM    7  C3  UNL     1      -4.939   2.066  11.220  1.00  0.00     0.343 C 
BRANCH   7   8
HETATM    8  O1  UNL     1      -5.020   0.658  11.135  1.00  0.00    -0.276 OA
BRANCH   8   9
HETATM    9  C2  UNL     1      -4.069  -0.234  11.439  1.00  0.00     0.137 C 
HETATM   10  C1  UNL     1      -2.823  -0.040  10.996  1.00  0.00     0.038 C 
ENDBRANCH   8   9
ENDBRANCH   7   8
BRANCH   7  11
HETATM   11  O2  UNL     1      -4.842   2.552   9.992  1.00  0.00    -0.315 OA
ATOM     12  H2  UNL     1      -4.967   3.493  10.032  1.00  0.00     0.222 HD
ENDBRANCH   7  11
ENDBRANCH   6   7
ENDBRANCH   1   6
BRANCH   5  13
HETATM   13  O7  UNL     1      -2.865   4.619  13.283  1.00  0.00    -0.361 OA
HETATM   14  C10 UNL     1      -1.662   4.993  13.923  1.00  0.00     0.205 C 
ENDBRANCH   5  13
BRANCH   3  15
HETATM   15  C6  UNL     1      -4.097   0.896  15.634  1.00  0.00     0.239 C 
BRANCH  15  16
HETATM   16  O4  UNL     1      -4.710   1.289  16.845  1.00  0.00    -0.317 OA
BRANCH  16  17
HETATM   17  C7  UNL     1      -5.909   0.554  17.109  1.00  0.00     0.254 C 
HETATM   18  C8  UNL     1      -7.203   1.247  17.068  1.00  0.00     0.126 C 
HETATM   19  O5  UNL     1      -5.810  -0.639  17.358  1.00  0.00    -0.266 OA
ENDBRANCH  16  17
ENDBRANCH  15  16
ENDBRANCH   3  15
TORSDOF 9
ENDMDL
MODEL 2
REMARK VINA RESULT: -6.658556144      0.941      1.103
REMARK  9 active torsions:
REMARK  status: ('A' for Active; 'I' for Inactive)
REMARK    1  A    between atoms: C2_2  and  O1_3 
REMARK    2  A    between atoms: O1_3  and  C3_4 
REMARK    3  A    between atoms: C3_4  and  O2_5 
REMARK    4  A    between atoms: C3_4  and  N1_7 
REMARK    5  A    between atoms: N1_7  and  C4_8 
REMARK    6  A    between atoms: C5_10  and  C6_11 
REMARK    7  A    between atoms: C6_11  and  O4_12 
REMARK    8  A    between atoms: O4_12  and  C7_13 
REMARK    9  A    between atoms: C9_17  and  O7_18 
ROOT
HETATM    1  C4  UNL     1      -4.913   3.554  13.520  1.00  0.00     0.363 C 
HETATM    2  O3  UNL     1      -5.452   2.406  14.225  1.00  0.00    -0.318 OA
HETATM    3  C5  UNL     1      -4.336   1.591  14.231  1.00  0.00     0.291 C 
HETATM    4  O6  UNL     1      -3.180   2.412  14.262  1.00  0.00    -0.324 OA
HETATM    5  C9  UNL     1      -3.671   3.678  14.474  1.00  0.00     0.324 C 
ENDROOT
BRANCH   1   6
HETATM    6  N1  UNL     1      -4.521   3.071  12.278  1.00  0.00    -0.365 NA
BRANCH   6   7
HETATM    7  C3  UNL     1      -4.146   2.611  11.090  1.00  0.00     0.343 C 
BRANCH   7   8
HETATM    8  O1  UNL     1      -2.863   2.144  10.728  1.00  0.00    -0.276 OA
BRANCH   8   9
HETATM    9  C2  UNL     1      -2.276   0.999  11.100  1.00  0.00     0.137 C 
HETATM   10  C1  UNL     1      -2.989  -0.132  11.104  1.00  0.00     0.038 C 
ENDBRANCH   8   9
ENDBRANCH   7   8
BRANCH   7  11
HETATM   11  O2  UNL     1      -4.939   2.512  10.035  1.00  0.00    -0.315 OA
ATOM     12  H2  UNL     1      -5.840   2.518  10.336  1.00  0.00     0.222 HD
ENDBRANCH   7  11
ENDBRANCH   6   7
ENDBRANCH   1   6
BRANCH   5  13
HETATM   13  O7  UNL     1      -2.949   4.736  14.112  1.00  0.00    -0.361 OA
HETATM   14  C10 UNL     1      -3.631   5.919  14.474  1.00  0.00     0.205 C 
ENDBRANCH   5  13
BRANCH   3  15
HETATM   15  C6  UNL     1      -4.298   0.512  15.229  1.00  0.00     0.239 C 
BRANCH  15  16
HETATM   16  O4  UNL     1      -4.301   0.895  16.589  1.00  0.00    -0.317 OA
BRANCH  16  17
HETATM   17  C7  UNL     1      -5.572   0.676  17.211  1.00  0.00     0.254 C 
HETATM   18  C8  UNL     1      -6.332   1.824  17.722  1.00  0.00     0.126 C 
HETATM   19  O5  UNL     1      -5.983  -0.473  17.290  1.00  0.00    -0.266 OA
ENDBRANCH  16  17
ENDBRANCH  15  16
ENDBRANCH   3  15
TORSDOF 9
ENDMDL
MODEL 3
REMARK VINA RESULT: -6.616739411      2.258      5.191
REMARK  9 active torsions:
REMARK  status: ('A' for Active; 'I' for Inactive)
REMARK    1  A    between atoms: C2_2  and  O1_3 
REMARK    2  A    between atoms: O1_3  and  C3_4 
REMARK    3  A    between atoms: C3_4  and  O2_5 
REMARK    4  A    between atoms: C3_4  and  N1_7 
REMARK    5  A    between atoms: N1_7  and  C4_8 
REMARK    6  A    between atoms: C5_10  and  C6_11 
REMARK    7  A    between atoms: C6_11  and  O4_12 
REMARK    8  A    between atoms: O4_12  and  C7_13 
REMARK    9  A    between atoms: C9_17  and  O7_18 
ROOT
HETATM    1  C4  UNL     1      -4.491   1.178  12.474  1.00  0.00     0.363 C 
HETATM    2  O3  UNL     1      -5.262   2.401  12.347  1.00  0.00    -0.318 OA
HETATM    3  C5  UNL     1      -4.437   3.269  13.037  1.00  0.00     0.291 C 
HETATM    4  O6  UNL     1      -3.096   2.835  12.881  1.00  0.00    -0.324 OA
HETATM    5  C9  UNL     1      -3.172   1.840  11.936  1.00  0.00     0.324 C 
ENDROOT
BRANCH   1   6
HETATM    6  N1  UNL     1      -4.393   0.947  13.840  1.00  0.00    -0.365 NA
BRANCH   6   7
HETATM    7  C3  UNL     1      -4.298   0.724  15.146  1.00  0.00     0.343 C 
BRANCH   7   8
HETATM    8  O1  UNL     1      -5.216   0.016  15.954  1.00  0.00    -0.276 OA
BRANCH   8   9
HETATM    9  C2  UNL     1      -5.829   0.449  17.063  1.00  0.00     0.137 C 
HETATM   10  C1  UNL     1      -6.978   1.124  16.956  1.00  0.00     0.038 C 
ENDBRANCH   8   9
ENDBRANCH   7   8
BRANCH   7  11
HETATM   11  O2  UNL     1      -3.302   1.140  15.912  1.00  0.00    -0.315 OA
ATOM     12  H2  UNL     1      -2.619   1.490  15.352  1.00  0.00     0.222 HD
ENDBRANCH   7  11
ENDBRANCH   6   7
ENDBRANCH   1   6
BRANCH   5  13
HETATM   13  O7  UNL     1      -2.216   0.916  11.873  1.00  0.00    -0.361 OA
HETATM   14  C10 UNL     1      -1.420   1.137  10.727  1.00  0.00     0.205 C 
ENDBRANCH   5  13
BRANCH   3  15
HETATM   15  C6  UNL     1      -4.607   4.707  12.778  1.00  0.00     0.239 C 
BRANCH  15  16
HETATM   16  O4  UNL     1      -5.572   5.075  11.812  1.00  0.00    -0.317 OA
BRANCH  16  17
HETATM   17  C7  UNL     1      -6.512   6.026  12.320  1.00  0.00     0.254 C 
HETATM   18  C8  UNL     1      -6.738   7.278  11.587  1.00  0.00     0.126 C 
HETATM   19  O5  UNL     1      -7.103   5.754  13.356  1.00  0.00    -0.266 OA
ENDBRANCH  16  17
ENDBRANCH  15  16
ENDBRANCH   3  15
TORSDOF 9
ENDMDL
MODEL 4
REMARK VINA RESULT: -6.538235025      1.758      5.184
REMARK  9 active torsions:
REMARK  status: ('A' for Active; 'I' for Inactive)
REMARK    1  A    between atoms: C2_2  and  O1_3 
REMARK    2  A    between atoms: O1_3  and  C3_4 
REMARK    3  A    between atoms: C3_4  and  O2_5 
REMARK    4  A    between atoms: C3_4  and  N1_7 
REMARK    5  A    between atoms: N1_7  and  C4_8 
REMARK    6  A    between atoms: C5_10  and  C6_11 
REMARK    7  A    between atoms: C6_11  and  O4_12 
REMARK    8  A    between atoms: O4_12  and  C7_13 
REMARK    9  A    between atoms: C9_17  and  O7_18 
ROOT
HETATM    1  C4  UNL     1      -4.282   3.200  14.088  1.00  0.00     0.363 C 
HETATM    2  O3  UNL     1      -3.027   3.090  13.367  1.00  0.00    -0.318 OA
HETATM    3  C5  UNL     1      -3.341   2.053  12.509  1.00  0.00     0.291 C 
HETATM    4  O6  UNL     1      -4.730   2.109  12.226  1.00  0.00    -0.324 OA
HETATM    5  C9  UNL     1      -5.138   3.300  12.774  1.00  0.00     0.324 C 
ENDROOT
BRANCH   1   6
HETATM    6  N1  UNL     1      -4.468   1.962  14.691  1.00  0.00    -0.365 NA
BRANCH   6   7
HETATM    7  C3  UNL     1      -4.646   0.779  15.267  1.00  0.00     0.343 C 
BRANCH   7   8
HETATM    8  O1  UNL     1      -4.868   0.528  16.639  1.00  0.00    -0.276 OA
BRANCH   8   9
HETATM    9  C2  UNL     1      -5.777   1.104  17.437  1.00  0.00     0.137 C 
HETATM   10  C1  UNL     1      -7.064   1.096  17.077  1.00  0.00     0.038 C 
ENDBRANCH   8   9
ENDBRANCH   7   8
BRANCH   7  11
HETATM   11  O2  UNL     1      -4.647  -0.379  14.625  1.00  0.00    -0.315 OA
ATOM     12  H2  UNL     1      -4.985  -0.236  13.749  1.00  0.00     0.222 HD
ENDBRANCH   7  11
ENDBRANCH   6   7
ENDBRANCH   1   6
BRANCH   5  13
HETATM   13  O7  UNL     1      -6.417   3.473  13.102  1.00  0.00    -0.361 OA
HETATM   14  C10 UNL     1      -6.657   4.841  13.359  1.00  0.00     0.205 C 
ENDBRANCH   5  13
BRANCH   3  15
HETATM   15  C6  UNL     1      -2.516   1.908  11.300  1.00  0.00     0.239 C 
BRANCH  15  16
HETATM   16  O4  UNL     1      -1.912   0.649  11.083  1.00  0.00    -0.317 OA
BRANCH  16  17
HETATM   17  C7  UNL     1      -2.849  -0.332  10.628  1.00  0.00     0.254 C 
HETATM   18  C8  UNL     1      -3.004  -1.585  11.378  1.00  0.00     0.126 C 
HETATM   19  O5  UNL     1      -3.498  -0.084   9.622  1.00  0.00    -0.266 OA
ENDBRANCH  16  17
ENDBRANCH  15  16
ENDBRANCH   3  15
TORSDOF 9
ENDMDL
MODEL 5
REMARK VINA RESULT: -6.532667134      2.143      5.676
REMARK  9 active torsions:
REMARK  status: ('A' for Active; 'I' for Inactive)
REMARK    1  A    between atoms: C2_2  and  O1_3 
REMARK    2  A    between atoms: O1_3  and  C3_4 
REMARK    3  A    between atoms: C3_4  and  O2_5 
REMARK    4  A    between atoms: C3_4  and  N1_7 
REMARK    5  A    between atoms: N1_7  and  C4_8 
REMARK    6  A    between atoms: C5_10  and  C6_11 
REMARK    7  A    between atoms: C6_11  and  O4_12 
REMARK    8  A    between atoms: O4_12  and  C7_13 
REMARK    9  A    between atoms: C9_17  and  O7_18 
ROOT
HETATM    1  C4  UNL     1      -4.268   2.925  13.897  1.00  0.00     0.363 C 
HETATM    2  O3  UNL     1      -3.041   2.682  13.160  1.00  0.00    -0.318 OA
HETATM    3  C5  UNL     1      -3.399   1.531  12.483  1.00  0.00     0.291 C 
HETATM    4  O6  UNL     1      -4.796   1.568  12.242  1.00  0.00    -0.324 OA
HETATM    5  C9  UNL     1      -5.169   2.837  12.613  1.00  0.00     0.324 C 
ENDROOT
BRANCH   1   6
HETATM    6  N1  UNL     1      -4.448   1.799  14.690  1.00  0.00    -0.365 NA
BRANCH   6   7
HETATM    7  C3  UNL     1      -4.621   0.722  15.447  1.00  0.00     0.343 C 
BRANCH   7   8
HETATM    8  O1  UNL     1      -4.857   0.693  16.840  1.00  0.00    -0.276 OA
BRANCH   8   9
HETATM    9  C2  UNL     1      -5.868   1.264  17.507  1.00  0.00     0.137 C 
HETATM   10  C1  UNL     1      -7.118   1.118  17.055  1.00  0.00     0.038 C 
ENDBRANCH   8   9
ENDBRANCH   7   8
BRANCH   7  11
HETATM   11  O2  UNL     1      -4.601  -0.525  15.002  1.00  0.00    -0.315 OA
ATOM     12  H2  UNL     1      -5.001  -1.084  15.657  1.00  0.00     0.222 HD
ENDBRANCH   7  11
ENDBRANCH   6   7
ENDBRANCH   1   6
BRANCH   5  13
HETATM   13  O7  UNL     1      -6.433   3.082  12.952  1.00  0.00    -0.361 OA
HETATM   14  C10 UNL     1      -6.550   4.414  13.408  1.00  0.00     0.205 C 
ENDBRANCH   5  13
BRANCH   3  15
HETATM   15  C6  UNL     1      -2.620   1.186  11.284  1.00  0.00     0.239 C 
BRANCH  15  16
HETATM   16  O4  UNL     1      -1.218   1.350  11.362  1.00  0.00    -0.317 OA
BRANCH  16  17
HETATM   17  C7  UNL     1      -0.762   2.481  10.613  1.00  0.00     0.254 C 
HETATM   18  C8  UNL     1      -0.010   3.542  11.296  1.00  0.00     0.126 C 
HETATM   19  O5  UNL     1      -1.016   2.520   9.418  1.00  0.00    -0.266 OA
ENDBRANCH  16  17
ENDBRANCH  15  16
ENDBRANCH   3  15
TORSDOF 9
ENDMDL
