MODEL 1
REMARK VINA RESULT: -6.093720337      0.000      0.000
REMARK  5 active torsions:
REMARK  status: ('A' for Active; 'I' for Inactive)
REMARK    1  A    between atoms: N2_5  and  C3_6 
REMARK    2  A    between atoms: C3_6  and  C4_7 
REMARK    3  A    between atoms: C4_7  and  N3_8 
REMARK    4  A    between atoms: C6_10  and  C7_11 
REMARK    5  A    between atoms: C7_11  and  N4_12 
ROOT
HETATM    1  N3  UNL     1      -5.780   3.934  12.286  1.00  0.00    -0.233 NA
HETATM    2  C5  UNL     1      -5.599   3.101  13.445  1.00  0.00     0.117 C 
HETATM    3  C6  UNL     1      -5.616   4.025  14.613  1.00  0.00     0.036 C 
HETATM    4  C10 UNL     1      -5.963   5.377  14.035  1.00  0.00     0.136 C 
HETATM    5  N7  UNL     1      -6.505   5.059  12.727  1.00  0.00    -0.165 NA
ENDROOT
BRANCH   1   6
HETATM    6  C4  UNL     1      -4.591   4.421  11.691  1.00  0.00     0.131 C 
BRANCH   6   7
HETATM    7  C3  UNL     1      -4.166   3.798  10.405  1.00  0.00     0.166 C 
BRANCH   7   8
HETATM    8  N2  UNL     1      -4.077   2.351  10.677  1.00  0.00    -0.286 N 
HETATM    9  C2  UNL     1      -3.031   1.663  11.143  1.00  0.00     0.201 A 
HETATM   10  N1  UNL     1      -3.365   0.357  11.251  1.00  0.00    -0.346 N 
HETATM   11  C1  UNL     1      -4.623   0.235  10.850  1.00  0.00     0.198 A 
ATOM     12  H1  UNL     1      -2.760  -0.395  11.580  1.00  0.00     0.167 HD
HETATM   13  N8  UNL     1      -5.035   1.449  10.508  1.00  0.00    -0.293 N 
ATOM     14  H8  UNL     1      -5.969   1.663  10.159  1.00  0.00     0.188 HD
ENDBRANCH   7   8
ENDBRANCH   6   7
ENDBRANCH   1   6
BRANCH   3  15
HETATM   15  C7  UNL     1      -6.482   3.624  15.758  1.00  0.00     0.157 C 
BRANCH  15  16
HETATM   16  N4  UNL     1      -6.233   2.336  16.318  1.00  0.00    -0.286 N 
HETATM   17  C8  UNL     1      -5.033   1.758  16.477  1.00  0.00     0.201 A 
HETATM   18  N5  UNL     1      -5.278   0.547  17.033  1.00  0.00    -0.346 N 
HETATM   19  C9  UNL     1      -6.581   0.376  17.214  1.00  0.00     0.198 A 
ATOM     20  H5  UNL     1      -4.561  -0.136  17.278  1.00  0.00     0.167 HD
HETATM   21  N6  UNL     1      -7.154   1.501  16.762  1.00  0.00    -0.293 N 
ATOM     22  H6  UNL     1      -8.157   1.684  16.761  1.00  0.00     0.188 HD
ENDBRANCH  15  16
ENDBRANCH   3  15
TORSDOF 5
ENDMDL
MODEL 2
REMARK VINA RESULT: -5.988454738      2.102      5.976
REMARK  5 active torsions:
REMARK  status: ('A' for Active; 'I' for Inactive)
REMARK    1  A    between atoms: N2_5  and  C3_6 
REMARK    2  A    between atoms: C3_6  and  C4_7 
REMARK    3  A    between atoms: C4_7  and  N3_8 
REMARK    4  A    between atoms: C6_10  and  C7_11 
REMARK    5  A    between atoms: C7_11  and  N4_12 
ROOT
HETATM    1  N3  UNL     1      -5.340   3.300  12.099  1.00  0.00    -0.233 NA
HETATM    2  C5  UNL     1      -3.908   3.371  12.218  1.00  0.00     0.117 C 
HETATM    3  C6  UNL     1      -3.425   1.964  12.125  1.00  0.00     0.036 C 
HETATM    4  C10 UNL     1      -4.656   1.151  11.803  1.00  0.00     0.136 C 
HETATM    5  N7  UNL     1      -5.609   2.144  11.340  1.00  0.00    -0.165 NA
ENDROOT
BRANCH   1   6
HETATM    6  C4  UNL     1      -6.050   3.165  13.316  1.00  0.00     0.131 C 
BRANCH   6   7
HETATM    7  C3  UNL     1      -5.324   3.512  14.571  1.00  0.00     0.166 C 
BRANCH   7   8
HETATM    8  N2  UNL     1      -5.506   2.354  15.467  1.00  0.00    -0.286 N 
HETATM    9  C2  UNL     1      -4.668   1.337  15.682  1.00  0.00     0.201 A 
HETATM   10  N1  UNL     1      -5.215   0.486  16.579  1.00  0.00    -0.346 N 
HETATM   11  C1  UNL     1      -6.398   0.977  16.921  1.00  0.00     0.198 A 
ATOM     12  H1  UNL     1      -4.794  -0.375  16.927  1.00  0.00     0.167 HD
HETATM   13  N8  UNL     1      -6.555   2.105  16.239  1.00  0.00    -0.293 N 
ATOM     14  H8  UNL     1      -7.378   2.704  16.301  1.00  0.00     0.188 HD
ENDBRANCH   7   8
ENDBRANCH   6   7
ENDBRANCH   1   6
BRANCH   3  15
HETATM   15  C7  UNL     1      -2.285   1.719  11.197  1.00  0.00     0.157 C 
BRANCH  15  16
HETATM   16  N4  UNL     1      -1.347   2.784  11.052  1.00  0.00    -0.286 N 
HETATM   17  C8  UNL     1      -1.202   3.572   9.977  1.00  0.00     0.201 A 
HETATM   18  N5  UNL     1      -0.197   4.428  10.281  1.00  0.00    -0.346 N 
HETATM   19  C9  UNL     1       0.268   4.183  11.499  1.00  0.00     0.198 A 
ATOM     20  H5  UNL     1       0.154   5.158   9.660  1.00  0.00     0.167 HD
HETATM   21  N6  UNL     1      -0.463   3.157  11.959  1.00  0.00    -0.293 N 
ATOM     22  H6  UNL     1      -0.351   2.726  12.876  1.00  0.00     0.188 HD
ENDBRANCH  15  16
ENDBRANCH   3  15
TORSDOF 5
ENDMDL
MODEL 3
REMARK VINA RESULT: -5.965979735      3.852      7.613
REMARK  5 active torsions:
REMARK  status: ('A' for Active; 'I' for Inactive)
REMARK    1  A    between atoms: N2_5  and  C3_6 
REMARK    2  A    between atoms: C3_6  and  C4_7 
REMARK    3  A    between atoms: C4_7  and  N3_8 
REMARK    4  A    between atoms: C6_10  and  C7_11 
REMARK    5  A    between atoms: C7_11  and  N4_12 
ROOT
HETATM    1  N3  UNL     1      -2.176   2.246  12.125  1.00  0.00    -0.233 NA
HETATM    2  C5  UNL     1      -1.303   1.997  11.009  1.00  0.00     0.117 C 
HETATM    3  C6  UNL     1      -1.034   3.331  10.402  1.00  0.00     0.036 C 
HETATM    4  C10 UNL     1      -1.687   4.322  11.335  1.00  0.00     0.136 C 
HETATM    5  N7  UNL     1      -1.894   3.558  12.552  1.00  0.00    -0.165 NA
ENDROOT
BRANCH   1   6
HETATM    6  C4  UNL     1      -3.562   2.196  11.840  1.00  0.00     0.131 C 
BRANCH   6   7
HETATM    7  C3  UNL     1      -4.327   1.032  12.372  1.00  0.00     0.166 C 
BRANCH   7   8
HETATM    8  N2  UNL     1      -4.165   1.088  13.837  1.00  0.00    -0.286 N 
HETATM    9  C2  UNL     1      -4.390   0.119  14.729  1.00  0.00     0.201 A 
HETATM   10  N1  UNL     1      -4.118   0.580  15.971  1.00  0.00    -0.346 N 
HETATM   11  C1  UNL     1      -3.725   1.840  15.848  1.00  0.00     0.198 A 
ATOM     12  H1  UNL     1      -4.201   0.055  16.841  1.00  0.00     0.167 HD
HETATM   13  N8  UNL     1      -3.760   2.128  14.553  1.00  0.00    -0.293 N 
ATOM     14  H8  UNL     1      -3.508   3.034  14.158  1.00  0.00     0.188 HD
ENDBRANCH   7   8
ENDBRANCH   6   7
ENDBRANCH   1   6
BRANCH   3  15
HETATM   15  C7  UNL     1       0.392   3.642  10.100  1.00  0.00     0.157 C 
BRANCH  15  16
HETATM   16  N4  UNL     1       0.779   3.568   8.729  1.00  0.00    -0.286 N 
HETATM   17  C8  UNL     1      -0.047   3.504   7.674  1.00  0.00     0.201 A 
HETATM   18  N5  UNL     1       0.754   3.439   6.583  1.00  0.00    -0.346 N 
HETATM   19  C9  UNL     1       2.030   3.462   6.944  1.00  0.00     0.198 A 
ATOM     20  H5  UNL     1       0.422   3.381   5.620  1.00  0.00     0.167 HD
HETATM   21  N6  UNL     1       2.021   3.542   8.282  1.00  0.00    -0.293 N 
ATOM     22  H6  UNL     1       2.854   3.578   8.870  1.00  0.00     0.188 HD
ENDBRANCH  15  16
ENDBRANCH   3  15
TORSDOF 5
ENDMDL
MODEL 4
REMARK VINA RESULT: -5.823920384      3.015      6.450
REMARK  5 active torsions:
REMARK  status: ('A' for Active; 'I' for Inactive)
REMARK    1  A    between atoms: N2_5  and  C3_6 
REMARK    2  A    between atoms: C3_6  and  C4_7 
REMARK    3  A    between atoms: C4_7  and  N3_8 
REMARK    4  A    between atoms: C6_10  and  C7_11 
REMARK    5  A    between atoms: C7_11  and  N4_12 
ROOT
HETATM    1  N3  UNL     1      -4.298   1.936  10.573  1.00  0.00    -0.233 NA
HETATM    2  C5  UNL     1      -3.177   2.821  10.747  1.00  0.00     0.117 C 
HETATM    3  C6  UNL     1      -2.034   1.953  11.144  1.00  0.00     0.036 C 
HETATM    4  C10 UNL     1      -2.561   0.542  11.032  1.00  0.00     0.136 C 
HETATM    5  N7  UNL     1      -3.754   0.687  10.217  1.00  0.00    -0.165 NA
ENDROOT
BRANCH   1   6
HETATM    6  C4  UNL     1      -5.093   1.724  11.725  1.00  0.00     0.131 C 
BRANCH   6   7
HETATM    7  C3  UNL     1      -5.138   2.819  12.735  1.00  0.00     0.166 C 
BRANCH   7   8
HETATM    8  N2  UNL     1      -4.522   2.260  13.953  1.00  0.00    -0.286 N 
HETATM    9  C2  UNL     1      -3.820   2.901  14.891  1.00  0.00     0.201 A 
HETATM   10  N1  UNL     1      -3.434   2.022  15.843  1.00  0.00    -0.346 N 
HETATM   11  C1  UNL     1      -3.897   0.830  15.493  1.00  0.00     0.198 A 
ATOM     12  H1  UNL     1      -2.887   2.236  16.676  1.00  0.00     0.167 HD
HETATM   13  N8  UNL     1      -4.551   0.995  14.350  1.00  0.00    -0.293 N 
ATOM     14  H8  UNL     1      -5.017   0.244  13.840  1.00  0.00     0.188 HD
ENDBRANCH   7   8
ENDBRANCH   6   7
ENDBRANCH   1   6
BRANCH   3  15
HETATM   15  C7  UNL     1      -0.753   2.174  10.414  1.00  0.00     0.157 C 
BRANCH  15  16
HETATM   16  N4  UNL     1      -0.140   3.450  10.586  1.00  0.00    -0.286 N 
HETATM   17  C8  UNL     1       0.119   4.341   9.618  1.00  0.00     0.201 A 
HETATM   18  N5  UNL     1       0.709   5.393  10.235  1.00  0.00    -0.346 N 
HETATM   19  C9  UNL     1       0.814   5.167  11.538  1.00  0.00     0.198 A 
ATOM     20  H5  UNL     1       1.028   6.240   9.764  1.00  0.00     0.167 HD
HETATM   21  N6  UNL     1       0.279   3.952  11.732  1.00  0.00    -0.293 N 
ATOM     22  H6  UNL     1       0.207   3.485  12.635  1.00  0.00     0.188 HD
ENDBRANCH  15  16
ENDBRANCH   3  15
TORSDOF 5
ENDMDL
MODEL 5
REMARK VINA RESULT: -5.813301270      3.846      7.099
REMARK  5 active torsions:
REMARK  status: ('A' for Active; 'I' for Inactive)
REMARK    1  A    between atoms: N2_5  and  C3_6 
REMARK    2  A    between atoms: C3_6  and  C4_7 
REMARK    3  A    between atoms: C4_7  and  N3_8 
REMARK    4  A    between atoms: C6_10  and  C7_11 
REMARK    5  A    between atoms: C7_11  and  N4_12 
ROOT
HETATM    1  N3  UNL     1      -2.030   1.876  11.924  1.00  0.00    -0.233 NA
HETATM    2  C5  UNL     1      -1.253   1.576  10.751  1.00  0.00     0.117 C 
HETATM    3  C6  UNL     1      -1.034   2.881  10.067  1.00  0.00     0.036 C 
HETATM    4  C10 UNL     1      -1.606   3.914  11.009  1.00  0.00     0.136 C 
HETATM    5  N7  UNL     1      -1.712   3.204  12.270  1.00  0.00    -0.165 NA
ENDROOT
BRANCH   1   6
HETATM    6  C4  UNL     1      -3.435   1.821  11.758  1.00  0.00     0.131 C 
BRANCH   6   7
HETATM    7  C3  UNL     1      -4.157   0.694  12.416  1.00  0.00     0.166 C 
BRANCH   7   8
HETATM    8  N2  UNL     1      -4.055   0.951  13.865  1.00  0.00    -0.286 N 
HETATM    9  C2  UNL     1      -4.311   0.111  14.871  1.00  0.00     0.201 A 
HETATM   10  N1  UNL     1      -4.092   0.740  16.048  1.00  0.00    -0.346 N 
HETATM   11  C1  UNL     1      -3.700   1.976  15.770  1.00  0.00     0.198 A 
ATOM     12  H1  UNL     1      -4.208   0.338  16.978  1.00  0.00     0.167 HD
HETATM   13  N8  UNL     1      -3.684   2.083  14.447  1.00  0.00    -0.293 N 
ATOM     14  H8  UNL     1      -3.420   2.929  13.942  1.00  0.00     0.188 HD
ENDBRANCH   7   8
ENDBRANCH   6   7
ENDBRANCH   1   6
BRANCH   3  15
HETATM   15  C7  UNL     1       0.363   3.172   9.635  1.00  0.00     0.157 C 
BRANCH  15  16
HETATM   16  N4  UNL     1       1.004   4.276  10.269  1.00  0.00    -0.286 N 
HETATM   17  C8  UNL     1       1.253   5.473   9.717  1.00  0.00     0.201 A 
HETATM   18  N5  UNL     1       1.879   6.198  10.676  1.00  0.00    -0.346 N 
HETATM   19  C9  UNL     1       2.015   5.480  11.784  1.00  0.00     0.198 A 
ATOM     20  H5  UNL     1       2.200   7.159  10.562  1.00  0.00     0.167 HD
HETATM   21  N6  UNL     1       1.464   4.290  11.507  1.00  0.00    -0.293 N 
ATOM     22  H6  UNL     1       1.408   3.507  12.159  1.00  0.00     0.188 HD
ENDBRANCH  15  16
ENDBRANCH   3  15
TORSDOF 5
ENDMDL
