MODEL 1
REMARK VINA RESULT: -6.690425394      0.000      0.000
REMARK  6 active torsions:
REMARK  status: ('A' for Active; 'I' for Inactive)
REMARK    1  A    between atoms: C3_3  and  C4_4 
REMARK    2  A    between atoms: C4_4  and  C5_5 
REMARK    3  A    between atoms: C5_5  and  O1_6 
REMARK    4  A    between atoms: C5_5  and  C6_8 
REMARK    5  A    between atoms: C7_10  and  C8_11 
REMARK    6  A    between atoms: C8_11  and  N1_12 
ROOT
HETATM    1  C1  UNL     1      -7.182   0.958  17.075  1.00  0.00     0.096 C 
HETATM    2  C2  UNL     1      -6.162   1.574  16.783  1.00  0.00    -0.188 C 
HETATM    3  C3  UNL     1      -4.960   2.331  16.435  1.00  0.00     0.082 C 
ENDROOT
BRANCH   3   4
HETATM    4  C4  UNL     1      -3.959   1.467  15.736  1.00  0.00     0.047 C 
BRANCH   4   5
HETATM    5  C5  UNL     1      -4.506   0.713  14.562  1.00  0.00     0.178 C 
BRANCH   5   6
HETATM    6  O1  UNL     1      -4.521  -0.645  14.738  1.00  0.00    -0.391 OA
ATOM      7  H1  UNL     1      -4.368  -1.136  13.939  1.00  0.00     0.210 HD
ENDBRANCH   5   6
BRANCH   5   8
HETATM    8  C6  UNL     1      -3.796   1.094  13.272  1.00  0.00     0.387 C 
HETATM    9  O2  UNL     1      -3.243   2.353  13.472  1.00  0.00    -0.346 OA
HETATM   10  C7  UNL     1      -4.086   3.284  12.920  1.00  0.00     0.174 C 
HETATM   11  C10 UNL     1      -4.936   2.583  11.893  1.00  0.00     0.309 C 
HETATM   12  N5  UNL     1      -4.785   1.203  12.244  1.00  0.00     0.118 N 
HETATM   13  C11 UNL     1      -4.573   0.338  11.120  1.00  0.00     0.313 C 
BRANCH  10  14
HETATM   14  C8  UNL     1      -3.289   4.407  12.277  1.00  0.00     0.204 C 
BRANCH  14  15
HETATM   15  N1  UNL     1      -1.981   3.906  11.945  1.00  0.00    -0.216 N 
HETATM   16  N2  UNL     1      -1.653   3.285  10.839  1.00  0.00    -0.277 N 
HETATM   17  C9  UNL     1      -0.328   2.966  10.891  1.00  0.00     0.216 A 
ATOM     18  H2  UNL     1      -2.284   3.075  10.066  1.00  0.00     0.189 HD
HETATM   19  N3  UNL     1       0.123   3.417  12.065  1.00  0.00    -0.279 N 
HETATM   20  N4  UNL     1      -0.904   3.987  12.691  1.00  0.00    -0.225 N 
ATOM     21  H3  UNL     1       1.078   3.339  12.417  1.00  0.00     0.189 HD
ATOM     22  H4  UNL     1      -0.861   4.421  13.612  1.00  0.00     0.210 HD
ENDBRANCH  14  15
ENDBRANCH  10  14
ENDBRANCH   5   8
ENDBRANCH   4   5
ENDBRANCH   3   4
TORSDOF 6
ENDMDL
MODEL 2
REMARK VINA RESULT: -6.652573550      2.705      5.596
REMARK  6 active torsions:
REMARK  status: ('A' for Active; 'I' for Inactive)
REMARK    1  A    between atoms: C3_3  and  C4_4 
REMARK    2  A    between atoms: C4_4  and  C5_5 
REMARK    3  A    between atoms: C5_5  and  O1_6 
REMARK    4  A    between atoms: C5_5  and  C6_8 
REMARK    5  A    between atoms: C7_10  and  C8_11 
REMARK    6  A    between atoms: C8_11  and  N1_12 
ROOT
HETATM    1  C1  UNL     1      -2.839  -2.965  11.343  1.00  0.00     0.096 C 
HETATM    2  C2  UNL     1      -2.915  -1.788  11.009  1.00  0.00    -0.188 C 
HETATM    3  C3  UNL     1      -2.983  -0.379  10.622  1.00  0.00     0.082 C 
ENDROOT
BRANCH   3   4
HETATM    4  C4  UNL     1      -4.401   0.080  10.493  1.00  0.00     0.047 C 
BRANCH   4   5
HETATM    5  C5  UNL     1      -4.681   1.410  11.126  1.00  0.00     0.178 C 
BRANCH   5   6
HETATM    6  O1  UNL     1      -4.941   2.406  10.222  1.00  0.00    -0.391 OA
ATOM      7  H1  UNL     1      -4.454   2.322   9.410  1.00  0.00     0.210 HD
ENDBRANCH   5   6
BRANCH   5   8
HETATM    8  C6  UNL     1      -3.576   1.814  12.088  1.00  0.00     0.387 C 
HETATM    9  O2  UNL     1      -4.039   1.546  13.372  1.00  0.00    -0.346 OA
HETATM   10  C7  UNL     1      -4.513   2.716  13.909  1.00  0.00     0.174 C 
HETATM   11  C10 UNL     1      -3.871   3.857  13.165  1.00  0.00     0.309 C 
HETATM   12  N5  UNL     1      -3.389   3.227  11.972  1.00  0.00     0.118 N 
HETATM   13  C11 UNL     1      -2.062   3.625  11.601  1.00  0.00     0.313 C 
BRANCH  10  14
HETATM   14  C8  UNL     1      -4.182   2.791  15.390  1.00  0.00     0.204 C 
BRANCH  14  15
HETATM   15  N1  UNL     1      -5.015   1.851  16.093  1.00  0.00    -0.216 N 
HETATM   16  N2  UNL     1      -6.244   2.063  16.496  1.00  0.00    -0.277 N 
HETATM   17  C9  UNL     1      -6.701   0.940  17.121  1.00  0.00     0.216 A 
ATOM     18  H2  UNL     1      -6.772   2.926  16.364  1.00  0.00     0.189 HD
HETATM   19  N3  UNL     1      -5.704   0.052  17.078  1.00  0.00    -0.279 N 
HETATM   20  N4  UNL     1      -4.686   0.631  16.445  1.00  0.00    -0.225 N 
ATOM     21  H3  UNL     1      -5.720  -0.895  17.459  1.00  0.00     0.189 HD
ATOM     22  H4  UNL     1      -3.784   0.191  16.262  1.00  0.00     0.210 HD
ENDBRANCH  14  15
ENDBRANCH  10  14
ENDBRANCH   5   8
ENDBRANCH   4   5
ENDBRANCH   3   4
TORSDOF 6
ENDMDL
MODEL 3
REMARK VINA RESULT: -6.635109002      1.050      1.263
REMARK  6 active torsions:
REMARK  status: ('A' for Active; 'I' for Inactive)
REMARK    1  A    between atoms: C3_3  and  C4_4 
REMARK    2  A    between atoms: C4_4  and  C5_5 
REMARK    3  A    between atoms: C5_5  and  O1_6 
REMARK    4  A    between atoms: C5_5  and  C6_8 
REMARK    5  A    between atoms: C7_10  and  C8_11 
REMARK    6  A    between atoms: C8_11  and  N1_12 
ROOT
HETATM    1  C1  UNL     1      -7.302   1.298  17.053  1.00  0.00     0.096 C 
HETATM    2  C2  UNL     1      -6.442   1.923  16.443  1.00  0.00    -0.188 C 
HETATM    3  C3  UNL     1      -5.434   2.686  15.707  1.00  0.00     0.082 C 
ENDROOT
BRANCH   3   4
HETATM    4  C4  UNL     1      -4.256   1.832  15.358  1.00  0.00     0.047 C 
BRANCH   4   5
HETATM    5  C5  UNL     1      -4.576   0.672  14.466  1.00  0.00     0.178 C 
BRANCH   5   6
HETATM    6  O1  UNL     1      -4.592  -0.534  15.115  1.00  0.00    -0.391 OA
ATOM      7  H1  UNL     1      -3.841  -0.673  15.681  1.00  0.00     0.210 HD
ENDBRANCH   5   6
BRANCH   5   8
HETATM    8  C6  UNL     1      -3.663   0.631  13.251  1.00  0.00     0.387 C 
HETATM    9  O2  UNL     1      -3.397   1.950  12.901  1.00  0.00    -0.346 OA
HETATM   10  C7  UNL     1      -4.237   2.298  11.873  1.00  0.00     0.174 C 
HETATM   11  C10 UNL     1      -4.690   1.029  11.200  1.00  0.00     0.309 C 
HETATM   12  N5  UNL     1      -4.388   0.026  12.178  1.00  0.00     0.118 N 
HETATM   13  C11 UNL     1      -3.774  -1.150  11.632  1.00  0.00     0.313 C 
BRANCH  10  14
HETATM   14  C8  UNL     1      -3.519   3.200  10.883  1.00  0.00     0.204 C 
BRANCH  14  15
HETATM   15  N1  UNL     1      -2.269   3.611  11.465  1.00  0.00    -0.216 N 
HETATM   16  N2  UNL     1      -2.032   4.762  12.048  1.00  0.00    -0.277 N 
HETATM   17  C9  UNL     1      -0.736   4.781  12.471  1.00  0.00     0.216 A 
ATOM     18  H2  UNL     1      -2.707   5.517  12.166  1.00  0.00     0.189 HD
HETATM   19  N3  UNL     1      -0.206   3.605  12.121  1.00  0.00    -0.279 N 
HETATM   20  N4  UNL     1      -1.161   2.908  11.508  1.00  0.00    -0.225 N 
ATOM     21  H3  UNL     1       0.751   3.297  12.292  1.00  0.00     0.189 HD
ATOM     22  H4  UNL     1      -1.049   1.968  11.129  1.00  0.00     0.210 HD
ENDBRANCH  14  15
ENDBRANCH  10  14
ENDBRANCH   5   8
ENDBRANCH   4   5
ENDBRANCH   3   4
TORSDOF 6
ENDMDL
MODEL 4
REMARK VINA RESULT: -6.437605475      2.698      4.259
REMARK  6 active torsions:
REMARK  status: ('A' for Active; 'I' for Inactive)
REMARK    1  A    between atoms: C3_3  and  C4_4 
REMARK    2  A    between atoms: C4_4  and  C5_5 
REMARK    3  A    between atoms: C5_5  and  O1_6 
REMARK    4  A    between atoms: C5_5  and  C6_8 
REMARK    5  A    between atoms: C7_10  and  C8_11 
REMARK    6  A    between atoms: C8_11  and  N1_12 
ROOT
HETATM    1  C1  UNL     1      -2.946  -3.612  11.238  1.00  0.00     0.096 C 
HETATM    2  C2  UNL     1      -2.930  -2.386  11.225  1.00  0.00    -0.188 C 
HETATM    3  C3  UNL     1      -2.885  -0.924  11.207  1.00  0.00     0.082 C 
ENDROOT
BRANCH   3   4
HETATM    4  C4  UNL     1      -4.085  -0.337  11.881  1.00  0.00     0.047 C 
BRANCH   4   5
HETATM    5  C5  UNL     1      -4.648   0.872  11.197  1.00  0.00     0.178 C 
BRANCH   5   6
HETATM    6  O1  UNL     1      -4.671   0.771   9.831  1.00  0.00    -0.391 OA
ATOM      7  H1  UNL     1      -3.834   0.957   9.421  1.00  0.00     0.210 HD
ENDBRANCH   5   6
BRANCH   5   8
HETATM    8  C6  UNL     1      -3.948   2.146  11.645  1.00  0.00     0.387 C 
HETATM    9  O2  UNL     1      -4.119   2.239  13.021  1.00  0.00    -0.346 OA
HETATM   10  C7  UNL     1      -5.163   3.094  13.266  1.00  0.00     0.174 C 
HETATM   11  C10 UNL     1      -5.333   3.971  12.054  1.00  0.00     0.309 C 
HETATM   12  N5  UNL     1      -4.622   3.252  11.039  1.00  0.00     0.118 N 
HETATM   13  C11 UNL     1      -3.789   4.081  10.217  1.00  0.00     0.313 C 
BRANCH  10  14
HETATM   14  C8  UNL     1      -4.880   3.936  14.499  1.00  0.00     0.204 C 
BRANCH  14  15
HETATM   15  N1  UNL     1      -3.468   4.210  14.551  1.00  0.00    -0.216 N 
HETATM   16  N2  UNL     1      -2.852   5.197  13.947  1.00  0.00    -0.277 N 
HETATM   17  C9  UNL     1      -1.521   5.125  14.234  1.00  0.00     0.216 A 
ATOM     18  H2  UNL     1      -3.295   5.903  13.359  1.00  0.00     0.189 HD
HETATM   19  N3  UNL     1      -1.363   4.062  15.029  1.00  0.00    -0.279 N 
HETATM   20  N4  UNL     1      -2.565   3.520  15.208  1.00  0.00    -0.225 N 
ATOM     21  H3  UNL     1      -0.483   3.728  15.425  1.00  0.00     0.189 HD
ATOM     22  H4  UNL     1      -2.756   2.692  15.771  1.00  0.00     0.210 HD
ENDBRANCH  14  15
ENDBRANCH  10  14
ENDBRANCH   5   8
ENDBRANCH   4   5
ENDBRANCH   3   4
TORSDOF 6
ENDMDL
MODEL 5
REMARK VINA RESULT: -6.331135274      1.156      1.451
REMARK  6 active torsions:
REMARK  status: ('A' for Active; 'I' for Inactive)
REMARK    1  A    between atoms: C3_3  and  C4_4 
REMARK    2  A    between atoms: C4_4  and  C5_5 
REMARK    3  A    between atoms: C5_5  and  O1_6 
REMARK    4  A    between atoms: C5_5  and  C6_8 
REMARK    5  A    between atoms: C7_10  and  C8_11 
REMARK    6  A    between atoms: C8_11  and  N1_12 
ROOT
HETATM    1  C1  UNL     1      -6.383   4.640  14.573  1.00  0.00     0.096 C 
HETATM    2  C2  UNL     1      -6.103   3.629  15.208  1.00  0.00    -0.188 C 
HETATM    3  C3  UNL     1      -5.783   2.432  15.985  1.00  0.00     0.082 C 
ENDROOT
BRANCH   3   4
HETATM    4  C4  UNL     1      -4.498   1.817  15.529  1.00  0.00     0.047 C 
BRANCH   4   5
HETATM    5  C5  UNL     1      -4.665   0.653  14.599  1.00  0.00     0.178 C 
BRANCH   5   6
HETATM    6  O1  UNL     1      -4.514  -0.565  15.208  1.00  0.00    -0.391 OA
ATOM      7  H1  UNL     1      -5.289  -1.112  15.164  1.00  0.00     0.210 HD
ENDBRANCH   5   6
BRANCH   5   8
HETATM    8  C6  UNL     1      -3.763   0.777  13.381  1.00  0.00     0.387 C 
HETATM    9  O2  UNL     1      -3.523   2.133  13.192  1.00  0.00    -0.346 OA
HETATM   10  C7  UNL     1      -4.378   2.588  12.221  1.00  0.00     0.174 C 
HETATM   11  C10 UNL     1      -4.817   1.403  11.402  1.00  0.00     0.309 C 
HETATM   12  N5  UNL     1      -4.490   0.294  12.248  1.00  0.00     0.118 N 
HETATM   13  C11 UNL     1      -3.863  -0.797  11.558  1.00  0.00     0.313 C 
BRANCH  10  14
HETATM   14  C8  UNL     1      -3.684   3.616  11.342  1.00  0.00     0.204 C 
BRANCH  14  15
HETATM   15  N1  UNL     1      -2.262   3.437  11.467  1.00  0.00    -0.216 N 
HETATM   16  N2  UNL     1      -1.498   2.747  10.655  1.00  0.00    -0.277 N 
HETATM   17  C9  UNL     1      -0.211   2.812  11.102  1.00  0.00     0.216 A 
ATOM     18  H2  UNL     1      -1.814   2.246   9.825  1.00  0.00     0.189 HD
HETATM   19  N3  UNL     1      -0.232   3.562  12.208  1.00  0.00    -0.279 N 
HETATM   20  N4  UNL     1      -1.495   3.932  12.410  1.00  0.00    -0.225 N 
ATOM     21  H3  UNL     1       0.570   3.806  12.789  1.00  0.00     0.189 HD
ATOM     22  H4  UNL     1      -1.818   4.513  13.183  1.00  0.00     0.210 HD
ENDBRANCH  14  15
ENDBRANCH  10  14
ENDBRANCH   5   8
ENDBRANCH   4   5
ENDBRANCH   3   4
TORSDOF 6
ENDMDL
