MODEL 1
REMARK VINA RESULT: -6.297617779      0.000      0.000
REMARK  7 active torsions:
REMARK  status: ('A' for Active; 'I' for Inactive)
REMARK    1  A    between atoms: C2_2  and  O2_4 
REMARK    2  A    between atoms: O2_4  and  C3_5 
REMARK    3  A    between atoms: C4_6  and  C5_7 
REMARK    4  A    between atoms: C5_7  and  O3_8 
REMARK    5  A    between atoms: C6_11  and  O5_12 
REMARK    6  A    between atoms: O5_12  and  C7_13 
REMARK       I    between atoms: C7_13  and  N1_15 
REMARK    7  A    between atoms: C8_17  and  N2_18 
ROOT
HETATM    1  C3  UNL     1      -3.725   0.228  12.321  1.00  0.00     0.218 C 
HETATM    2  C4  UNL     1      -4.023  -1.072  11.643  1.00  0.00     0.182 C 
HETATM    3  O4  UNL     1      -4.254  -0.461  10.410  1.00  0.00    -0.348 OA
HETATM    4  C6  UNL     1      -3.844   0.759  10.944  1.00  0.00     0.303 C 
ENDROOT
BRANCH   4   5
HETATM    5  O5  UNL     1      -4.807   1.795  10.763  1.00  0.00    -0.269 OA
BRANCH   5   6
HETATM    6  C7  UNL     1      -4.414   3.105  10.800  1.00  0.00     0.368 C 
HETATM    7  O6  UNL     1      -4.293   3.746   9.728  1.00  0.00    -0.238 OA
HETATM    8  N1  UNL     1      -4.136   3.775  12.024  1.00  0.00    -0.299 N 
HETATM    9  C8  UNL     1      -5.126   4.329  12.646  1.00  0.00     0.182 C 
ATOM     10  H1  UNL     1      -3.187   3.817  12.399  1.00  0.00     0.171 HD
BRANCH   9  11
HETATM   11  N2  UNL     1      -4.958   5.021  13.874  1.00  0.00    -0.386 N 
HETATM   12  C9  UNL     1      -6.095   5.173  14.770  1.00  0.00     0.149 C 
HETATM   13  C10 UNL     1      -3.690   5.595  14.285  1.00  0.00     0.149 C 
ENDBRANCH   9  11
ENDBRANCH   5   6
ENDBRANCH   4   5
BRANCH   1  14
HETATM   14  O2  UNL     1      -4.634   0.671  13.283  1.00  0.00    -0.309 OA
BRANCH  14  15
HETATM   15  C2  UNL     1      -4.390   0.657  14.649  1.00  0.00     0.255 C 
HETATM   16  C1  UNL     1      -3.890   1.826  15.401  1.00  0.00     0.126 C 
HETATM   17  O1  UNL     1      -4.630  -0.446  15.215  1.00  0.00    -0.266 OA
ENDBRANCH  14  15
ENDBRANCH   1  14
BRANCH   2  18
HETATM   18  C5  UNL     1      -2.774  -1.955  11.507  1.00  0.00     0.199 C 
BRANCH  18  19
HETATM   19  O3  UNL     1      -3.130  -3.302  11.522  1.00  0.00    -0.398 OA
ATOM     20  H3  UNL     1      -2.716  -3.761  10.799  1.00  0.00     0.209 HD
ENDBRANCH  18  19
ENDBRANCH   2  18
TORSDOF 7
ENDMDL
MODEL 2
REMARK VINA RESULT: -6.243021588      1.741      2.350
REMARK  7 active torsions:
REMARK  status: ('A' for Active; 'I' for Inactive)
REMARK    1  A    between atoms: C2_2  and  O2_4 
REMARK    2  A    between atoms: O2_4  and  C3_5 
REMARK    3  A    between atoms: C4_6  and  C5_7 
REMARK    4  A    between atoms: C5_7  and  O3_8 
REMARK    5  A    between atoms: C6_11  and  O5_12 
REMARK    6  A    between atoms: O5_12  and  C7_13 
REMARK       I    between atoms: C7_13  and  N1_15 
REMARK    7  A    between atoms: C8_17  and  N2_18 
ROOT
HETATM    1  C3  UNL     1      -4.061   0.930  12.970  1.00  0.00     0.218 C 
HETATM    2  C4  UNL     1      -4.235   0.085  11.748  1.00  0.00     0.182 C 
HETATM    3  O4  UNL     1      -4.954   1.075  11.077  1.00  0.00    -0.348 OA
HETATM    4  C6  UNL     1      -4.700   1.960  12.121  1.00  0.00     0.303 C 
ENDROOT
BRANCH   4   5
HETATM    5  O5  UNL     1      -5.886   2.548  12.651  1.00  0.00    -0.269 OA
BRANCH   5   6
HETATM    6  C7  UNL     1      -5.917   3.887  12.933  1.00  0.00     0.368 C 
HETATM    7  O6  UNL     1      -7.018   4.447  13.156  1.00  0.00    -0.238 OA
HETATM    8  N1  UNL     1      -4.734   4.675  12.985  1.00  0.00    -0.299 N 
HETATM    9  C8  UNL     1      -4.090   4.722  14.107  1.00  0.00     0.182 C 
ATOM     10  H1  UNL     1      -4.403   5.185  12.165  1.00  0.00     0.171 HD
BRANCH   9  11
HETATM   11  N2  UNL     1      -2.899   5.478  14.265  1.00  0.00    -0.386 N 
HETATM   12  C9  UNL     1      -1.629   4.785  14.416  1.00  0.00     0.149 C 
HETATM   13  C10 UNL     1      -2.886   6.928  14.288  1.00  0.00     0.149 C 
ENDBRANCH   9  11
ENDBRANCH   5   6
ENDBRANCH   4   5
BRANCH   1  14
HETATM   14  O2  UNL     1      -4.722   0.522  14.130  1.00  0.00    -0.309 OA
BRANCH  14  15
HETATM   15  C2  UNL     1      -4.476   1.045  15.391  1.00  0.00     0.255 C 
HETATM   16  C1  UNL     1      -5.428   1.910  16.117  1.00  0.00     0.126 C 
HETATM   17  O1  UNL     1      -3.359   0.723  15.885  1.00  0.00    -0.266 OA
ENDBRANCH  14  15
ENDBRANCH   1  14
BRANCH   2  18
HETATM   18  C5  UNL     1      -2.912  -0.129  10.998  1.00  0.00     0.199 C 
BRANCH  18  19
HETATM   19  O3  UNL     1      -3.133  -0.135   9.621  1.00  0.00    -0.398 OA
ATOM     20  H3  UNL     1      -2.788  -0.932   9.235  1.00  0.00     0.209 HD
ENDBRANCH  18  19
ENDBRANCH   2  18
TORSDOF 7
ENDMDL
MODEL 3
REMARK VINA RESULT: -6.237391386      1.139      1.355
REMARK  7 active torsions:
REMARK  status: ('A' for Active; 'I' for Inactive)
REMARK    1  A    between atoms: C2_2  and  O2_4 
REMARK    2  A    between atoms: O2_4  and  C3_5 
REMARK    3  A    between atoms: C4_6  and  C5_7 
REMARK    4  A    between atoms: C5_7  and  O3_8 
REMARK    5  A    between atoms: C6_11  and  O5_12 
REMARK    6  A    between atoms: O5_12  and  C7_13 
REMARK       I    between atoms: C7_13  and  N1_15 
REMARK    7  A    between atoms: C8_17  and  N2_18 
ROOT
HETATM    1  C3  UNL     1      -3.724   0.595  12.324  1.00  0.00     0.218 C 
HETATM    2  C4  UNL     1      -3.973  -0.556  11.402  1.00  0.00     0.182 C 
HETATM    3  O4  UNL     1      -4.193   0.277  10.304  1.00  0.00    -0.348 OA
HETATM    4  C6  UNL     1      -3.826   1.378  11.073  1.00  0.00     0.303 C 
ENDROOT
BRANCH   4   5
HETATM    5  O5  UNL     1      -4.811   2.410  11.069  1.00  0.00    -0.269 OA
BRANCH   5   6
HETATM    6  C7  UNL     1      -4.433   3.714  10.897  1.00  0.00     0.368 C 
HETATM    7  O6  UNL     1      -4.985   4.406  10.008  1.00  0.00    -0.238 OA
HETATM    8  N1  UNL     1      -3.426   4.319  11.700  1.00  0.00    -0.299 N 
HETATM    9  C8  UNL     1      -3.789   4.849  12.823  1.00  0.00     0.182 C 
ATOM     10  H1  UNL     1      -2.451   4.335  11.400  1.00  0.00     0.171 HD
BRANCH   9  11
HETATM   11  N2  UNL     1      -2.865   5.478  13.698  1.00  0.00    -0.386 N 
HETATM   12  C9  UNL     1      -1.799   4.689  14.298  1.00  0.00     0.149 C 
HETATM   13  C10 UNL     1      -2.933   6.889  14.030  1.00  0.00     0.149 C 
ENDBRANCH   9  11
ENDBRANCH   5   6
ENDBRANCH   4   5
BRANCH   1  14
HETATM   14  O2  UNL     1      -4.664   0.825  13.330  1.00  0.00    -0.309 OA
BRANCH  14  15
HETATM   15  C2  UNL     1      -4.399   0.704  14.686  1.00  0.00     0.255 C 
HETATM   16  C1  UNL     1      -3.879   1.808  15.518  1.00  0.00     0.126 C 
HETATM   17  O1  UNL     1      -4.638  -0.438  15.169  1.00  0.00    -0.266 OA
ENDBRANCH  14  15
ENDBRANCH   1  14
BRANCH   2  18
HETATM   18  C5  UNL     1      -2.699  -1.369  11.131  1.00  0.00     0.199 C 
BRANCH  18  19
HETATM   19  O3  UNL     1      -2.887  -2.700  11.500  1.00  0.00    -0.398 OA
ATOM     20  H3  UNL     1      -2.145  -3.011  12.005  1.00  0.00     0.209 HD
ENDBRANCH  18  19
ENDBRANCH   2  18
TORSDOF 7
ENDMDL
MODEL 4
REMARK VINA RESULT: -6.223142097      2.272      4.249
REMARK  7 active torsions:
REMARK  status: ('A' for Active; 'I' for Inactive)
REMARK    1  A    between atoms: C2_2  and  O2_4 
REMARK    2  A    between atoms: O2_4  and  C3_5 
REMARK    3  A    between atoms: C4_6  and  C5_7 
REMARK    4  A    between atoms: C5_7  and  O3_8 
REMARK    5  A    between atoms: C6_11  and  O5_12 
REMARK    6  A    between atoms: O5_12  and  C7_13 
REMARK       I    between atoms: C7_13  and  N1_15 
REMARK    7  A    between atoms: C8_17  and  N2_18 
ROOT
HETATM    1  C3  UNL     1      -4.623   1.835  14.458  1.00  0.00     0.218 C 
HETATM    2  C4  UNL     1      -4.427   0.862  15.577  1.00  0.00     0.182 C 
HETATM    3  O4  UNL     1      -3.567   1.717  16.268  1.00  0.00    -0.348 OA
HETATM    4  C6  UNL     1      -3.825   2.720  15.336  1.00  0.00     0.303 C 
ENDROOT
BRANCH   4   5
HETATM    5  O5  UNL     1      -2.638   3.257  14.757  1.00  0.00    -0.269 OA
BRANCH   5   6
HETATM    6  C7  UNL     1      -2.585   4.581  14.415  1.00  0.00     0.368 C 
HETATM    7  O6  UNL     1      -1.473   5.159  14.351  1.00  0.00    -0.238 OA
HETATM    8  N1  UNL     1      -3.757   5.334  14.126  1.00  0.00    -0.299 N 
HETATM    9  C8  UNL     1      -4.203   5.310  12.911  1.00  0.00     0.182 C 
ATOM     10  H1  UNL     1      -4.230   5.873  14.851  1.00  0.00     0.171 HD
BRANCH   9  11
HETATM   11  N2  UNL     1      -5.364   6.025  12.516  1.00  0.00    -0.386 N 
HETATM   12  C9  UNL     1      -6.656   5.653  13.075  1.00  0.00     0.149 C 
HETATM   13  C10 UNL     1      -5.326   7.123  11.568  1.00  0.00     0.149 C 
ENDBRANCH   9  11
ENDBRANCH   5   6
ENDBRANCH   4   5
BRANCH   1  14
HETATM   14  O2  UNL     1      -4.099   1.491  13.211  1.00  0.00    -0.309 OA
BRANCH  14  15
HETATM   15  C2  UNL     1      -4.846   1.429  12.043  1.00  0.00     0.255 C 
HETATM   16  C1  UNL     1      -4.677   0.377  11.021  1.00  0.00     0.126 C 
HETATM   17  O1  UNL     1      -5.698   2.352  11.914  1.00  0.00    -0.266 OA
ENDBRANCH  14  15
ENDBRANCH   1  14
BRANCH   2  18
HETATM   18  C5  UNL     1      -5.697   0.684  16.422  1.00  0.00     0.199 C 
BRANCH  18  19
HETATM   19  O3  UNL     1      -5.697  -0.566  17.039  1.00  0.00    -0.398 OA
ATOM     20  H3  UNL     1      -6.320  -0.580  17.755  1.00  0.00     0.209 HD
ENDBRANCH  18  19
ENDBRANCH   2  18
TORSDOF 7
ENDMDL
MODEL 5
REMARK VINA RESULT: -6.181839572      2.318      3.115
REMARK  7 active torsions:
REMARK  status: ('A' for Active; 'I' for Inactive)
REMARK    1  A    between atoms: C2_2  and  O2_4 
REMARK    2  A    between atoms: O2_4  and  C3_5 
REMARK    3  A    between atoms: C4_6  and  C5_7 
REMARK    4  A    between atoms: C5_7  and  O3_8 
REMARK    5  A    between atoms: C6_11  and  O5_12 
REMARK    6  A    between atoms: O5_12  and  C7_13 
REMARK       I    between atoms: C7_13  and  N1_15 
REMARK    7  A    between atoms: C8_17  and  N2_18 
ROOT
HETATM    1  C3  UNL     1      -4.203   1.403  13.396  1.00  0.00     0.218 C 
HETATM    2  C4  UNL     1      -4.267   0.629  12.118  1.00  0.00     0.182 C 
HETATM    3  O4  UNL     1      -5.090   1.572  11.501  1.00  0.00    -0.348 OA
HETATM    4  C6  UNL     1      -4.949   2.408  12.606  1.00  0.00     0.303 C 
ENDROOT
BRANCH   4   5
HETATM    5  O5  UNL     1      -6.200   2.819  13.154  1.00  0.00    -0.269 OA
BRANCH   5   6
HETATM    6  C7  UNL     1      -6.310   4.039  13.764  1.00  0.00     0.368 C 
HETATM    7  O6  UNL     1      -6.099   4.136  14.997  1.00  0.00    -0.238 OA
HETATM    8  N1  UNL     1      -6.659   5.215  13.042  1.00  0.00    -0.299 N 
HETATM    9  C8  UNL     1      -5.703   5.879  12.476  1.00  0.00     0.182 C 
ATOM     10  H1  UNL     1      -7.629   5.523  12.972  1.00  0.00     0.171 HD
BRANCH   9  11
HETATM   11  N2  UNL     1      -5.942   7.065  11.733  1.00  0.00    -0.386 N 
HETATM   12  C9  UNL     1      -4.820   7.761  11.119  1.00  0.00     0.149 C 
HETATM   13  C10 UNL     1      -7.267   7.627  11.553  1.00  0.00     0.149 C 
ENDBRANCH   9  11
ENDBRANCH   5   6
ENDBRANCH   4   5
BRANCH   1  14
HETATM   14  O2  UNL     1      -4.823   0.845  14.515  1.00  0.00    -0.309 OA
BRANCH  14  15
HETATM   15  C2  UNL     1      -4.459   1.120  15.825  1.00  0.00     0.255 C 
HETATM   16  C1  UNL     1      -5.426   1.232  16.935  1.00  0.00     0.126 C 
HETATM   17  O1  UNL     1      -3.218   1.271  16.005  1.00  0.00    -0.266 OA
ENDBRANCH  14  15
ENDBRANCH   1  14
BRANCH   2  18
HETATM   18  C5  UNL     1      -2.922   0.619  11.377  1.00  0.00     0.199 C 
BRANCH  18  19
HETATM   19  O3  UNL     1      -3.097   0.191  10.062  1.00  0.00    -0.398 OA
ATOM     20  H3  UNL     1      -2.799   0.859   9.455  1.00  0.00     0.209 HD
ENDBRANCH  18  19
ENDBRANCH   2  18
TORSDOF 7
ENDMDL
