MODEL 1
REMARK VINA RESULT: -6.881106979      0.000      0.000
REMARK  7 active torsions:
REMARK  status: ('A' for Active; 'I' for Inactive)
REMARK    1  A    between atoms: O1_2  and  C2_3 
REMARK    2  A    between atoms: C2_3  and  C3_4 
REMARK    3  A    between atoms: C5_7  and  C6_8 
REMARK    4  A    between atoms: C6_8  and  O3_9 
REMARK    5  A    between atoms: N1_11  and  N2_13 
REMARK    6  A    between atoms: C7_15  and  C9_17 
REMARK    7  A    between atoms: C9_17  and  O5_19 
ROOT
HETATM    1  C6  UNL     1      -4.781   1.953  11.290  1.00  0.00     0.160 C 
HETATM    2  N1  UNL     1      -4.789   2.444  12.479  1.00  0.00    -0.281 N 
ATOM      3  H1  UNL     1      -5.177   3.381  12.591  1.00  0.00     0.189 HD
ENDROOT
BRANCH   1   4
HETATM    4  C5  UNL     1      -4.245   0.626  11.065  1.00  0.00     0.205 C 
HETATM    5  C3  UNL     1      -2.790   0.397  11.353  1.00  0.00     0.070 C 
HETATM    6  C4  UNL     1      -3.028  -0.618  10.251  1.00  0.00     0.178 C 
HETATM    7  O2  UNL     1      -3.966   0.299   9.720  1.00  0.00    -0.377 OA
BRANCH   5   8
HETATM    8  C2  UNL     1      -1.839   1.442  10.895  1.00  0.00     0.176 C 
BRANCH   8   9
HETATM    9  O1  UNL     1      -1.639   2.354  11.924  1.00  0.00    -0.395 OA
HETATM   10  C1  UNL     1      -1.445   3.647  11.451  1.00  0.00     0.201 C 
ENDBRANCH   8   9
ENDBRANCH   5   8
ENDBRANCH   1   4
BRANCH   1  11
HETATM   11  O3  UNL     1      -5.295   2.732  10.272  1.00  0.00    -0.346 OA
ATOM     12  H3  UNL     1      -6.133   3.176  10.339  1.00  0.00     0.219 HD
ENDBRANCH   1  11
BRANCH   2  13
HETATM   13  N2  UNL     1      -4.323   1.824  13.611  1.00  0.00    -0.297 N 
HETATM   14  C7  UNL     1      -4.712   2.045  14.805  1.00  0.00     0.097 C 
HETATM   15  C8  UNL     1      -5.757   3.036  15.125  1.00  0.00     0.076 C 
ATOM     16  H2  UNL     1      -3.597   1.120  13.486  1.00  0.00     0.187 HD
BRANCH  14  17
HETATM   17  C9  UNL     1      -4.103   1.290  15.880  1.00  0.00     0.306 C 
HETATM   18  O4  UNL     1      -2.935   1.531  16.252  1.00  0.00    -0.258 OA
BRANCH  17  19
HETATM   19  O5  UNL     1      -4.777   0.268  16.547  1.00  0.00    -0.322 OA
HETATM   20  C10 UNL     1      -5.901   0.485  17.356  1.00  0.00     0.213 C 
ENDBRANCH  17  19
ENDBRANCH  14  17
ENDBRANCH   2  13
TORSDOF 7
ENDMDL
MODEL 2
REMARK VINA RESULT: -6.545199609      1.325      1.803
REMARK  7 active torsions:
REMARK  status: ('A' for Active; 'I' for Inactive)
REMARK    1  A    between atoms: O1_2  and  C2_3 
REMARK    2  A    between atoms: C2_3  and  C3_4 
REMARK    3  A    between atoms: C5_7  and  C6_8 
REMARK    4  A    between atoms: C6_8  and  O3_9 
REMARK    5  A    between atoms: N1_11  and  N2_13 
REMARK    6  A    between atoms: C7_15  and  C9_17 
REMARK    7  A    between atoms: C9_17  and  O5_19 
ROOT
HETATM    1  C6  UNL     1      -3.961   0.941  11.123  1.00  0.00     0.160 C 
HETATM    2  N1  UNL     1      -4.683   0.709  12.162  1.00  0.00    -0.281 N 
ATOM      3  H1  UNL     1      -5.682   0.563  12.009  1.00  0.00     0.189 HD
ENDROOT
BRANCH   1   4
HETATM    4  C5  UNL     1      -2.536   1.155  11.272  1.00  0.00     0.205 C 
HETATM    5  C3  UNL     1      -2.056   2.558  11.502  1.00  0.00     0.070 C 
HETATM    6  C4  UNL     1      -0.861   1.960  10.785  1.00  0.00     0.178 C 
HETATM    7  O2  UNL     1      -1.790   1.163  10.074  1.00  0.00    -0.377 OA
BRANCH   5   8
HETATM    8  C2  UNL     1      -2.672   3.626  10.675  1.00  0.00     0.176 C 
BRANCH   8   9
HETATM    9  O1  UNL     1      -3.277   4.556  11.513  1.00  0.00    -0.395 OA
HETATM   10  C1  UNL     1      -2.497   4.849  12.625  1.00  0.00     0.201 C 
ENDBRANCH   8   9
ENDBRANCH   5   8
ENDBRANCH   1   4
BRANCH   1  11
HETATM   11  O3  UNL     1      -4.595   0.973   9.896  1.00  0.00    -0.346 OA
ATOM     12  H3  UNL     1      -4.373   1.604   9.221  1.00  0.00     0.219 HD
ENDBRANCH   1  11
BRANCH   2  13
HETATM   13  N2  UNL     1      -4.235   0.639  13.456  1.00  0.00    -0.297 N 
HETATM   14  C7  UNL     1      -4.425   1.512  14.367  1.00  0.00     0.097 C 
HETATM   15  C8  UNL     1      -5.184   2.753  14.127  1.00  0.00     0.076 C 
ATOM     16  H2  UNL     1      -3.699  -0.188  13.715  1.00  0.00     0.187 HD
BRANCH  14  17
HETATM   17  C9  UNL     1      -3.873   1.266  15.683  1.00  0.00     0.306 C 
HETATM   18  O4  UNL     1      -2.822   1.829  16.054  1.00  0.00    -0.258 OA
BRANCH  17  19
HETATM   19  O5  UNL     1      -4.477   0.399  16.594  1.00  0.00    -0.322 OA
HETATM   20  C10 UNL     1      -5.766   0.596  17.108  1.00  0.00     0.213 C 
ENDBRANCH  17  19
ENDBRANCH  14  17
ENDBRANCH   2  13
TORSDOF 7
ENDMDL
MODEL 3
REMARK VINA RESULT: -6.486076192      1.337      2.053
REMARK  7 active torsions:
REMARK  status: ('A' for Active; 'I' for Inactive)
REMARK    1  A    between atoms: O1_2  and  C2_3 
REMARK    2  A    between atoms: C2_3  and  C3_4 
REMARK    3  A    between atoms: C5_7  and  C6_8 
REMARK    4  A    between atoms: C6_8  and  O3_9 
REMARK    5  A    between atoms: N1_11  and  N2_13 
REMARK    6  A    between atoms: C7_15  and  C9_17 
REMARK    7  A    between atoms: C9_17  and  O5_19 
ROOT
HETATM    1  C6  UNL     1      -4.180   2.083  11.215  1.00  0.00     0.160 C 
HETATM    2  N1  UNL     1      -4.881   1.719  12.230  1.00  0.00    -0.281 N 
ATOM      3  H1  UNL     1      -5.896   1.733  12.121  1.00  0.00     0.189 HD
ENDROOT
BRANCH   1   4
HETATM    4  C5  UNL     1      -2.734   2.084  11.304  1.00  0.00     0.205 C 
HETATM    5  C3  UNL     1      -2.076   3.219  12.035  1.00  0.00     0.070 C 
HETATM    6  C4  UNL     1      -0.998   2.861  11.030  1.00  0.00     0.178 C 
HETATM    7  O2  UNL     1      -2.050   2.515  10.147  1.00  0.00    -0.377 OA
BRANCH   5   8
HETATM    8  C2  UNL     1      -2.596   4.584  11.770  1.00  0.00     0.176 C 
BRANCH   8   9
HETATM    9  O1  UNL     1      -3.018   5.148  12.968  1.00  0.00    -0.395 OA
HETATM   10  C1  UNL     1      -2.219   4.770  14.040  1.00  0.00     0.201 C 
ENDBRANCH   8   9
ENDBRANCH   5   8
ENDBRANCH   1   4
BRANCH   1  11
HETATM   11  O3  UNL     1      -4.856   2.459  10.071  1.00  0.00    -0.346 OA
ATOM     12  H3  UNL     1      -5.777   2.267   9.933  1.00  0.00     0.219 HD
ENDBRANCH   1  11
BRANCH   2  13
HETATM   13  N2  UNL     1      -4.391   1.314  13.446  1.00  0.00    -0.297 N 
HETATM   14  C7  UNL     1      -4.607   1.876  14.571  1.00  0.00     0.097 C 
HETATM   15  C8  UNL     1      -5.450   3.079  14.704  1.00  0.00     0.076 C 
ATOM     16  H2  UNL     1      -3.796   0.486  13.451  1.00  0.00     0.187 HD
BRANCH  14  17
HETATM   17  C9  UNL     1      -4.002   1.304  15.755  1.00  0.00     0.306 C 
HETATM   18  O4  UNL     1      -2.881   1.684  16.151  1.00  0.00    -0.258 OA
BRANCH  17  19
HETATM   19  O5  UNL     1      -4.630   0.310  16.506  1.00  0.00    -0.322 OA
HETATM   20  C10 UNL     1      -5.810   0.522  17.232  1.00  0.00     0.213 C 
ENDBRANCH  17  19
ENDBRANCH  14  17
ENDBRANCH   2  13
TORSDOF 7
ENDMDL
MODEL 4
REMARK VINA RESULT: -6.466093934      1.104      1.276
REMARK  7 active torsions:
REMARK  status: ('A' for Active; 'I' for Inactive)
REMARK    1  A    between atoms: O1_2  and  C2_3 
REMARK    2  A    between atoms: C2_3  and  C3_4 
REMARK    3  A    between atoms: C5_7  and  C6_8 
REMARK    4  A    between atoms: C6_8  and  O3_9 
REMARK    5  A    between atoms: N1_11  and  N2_13 
REMARK    6  A    between atoms: C7_15  and  C9_17 
REMARK    7  A    between atoms: C9_17  and  O5_19 
ROOT
HETATM    1  C6  UNL     1      -4.454   1.811  11.374  1.00  0.00     0.160 C 
HETATM    2  N1  UNL     1      -5.012   2.073  12.503  1.00  0.00    -0.281 N 
ATOM      3  H1  UNL     1      -5.880   2.611  12.477  1.00  0.00     0.189 HD
ENDROOT
BRANCH   1   4
HETATM    4  C5  UNL     1      -3.221   1.051  11.343  1.00  0.00     0.205 C 
HETATM    5  C3  UNL     1      -1.926   1.810  11.349  1.00  0.00     0.070 C 
HETATM    6  C4  UNL     1      -1.524   0.562  10.585  1.00  0.00     0.178 C 
HETATM    7  O2  UNL     1      -2.846   0.545  10.080  1.00  0.00    -0.377 OA
BRANCH   5   8
HETATM    8  C2  UNL     1      -1.839   3.003  10.470  1.00  0.00     0.176 C 
BRANCH   8   9
HETATM    9  O1  UNL     1      -0.853   2.791   9.514  1.00  0.00    -0.395 OA
HETATM   10  C1  UNL     1       0.145   3.757   9.564  1.00  0.00     0.201 C 
ENDBRANCH   8   9
ENDBRANCH   5   8
ENDBRANCH   1   4
BRANCH   1  11
HETATM   11  O3  UNL     1      -5.072   2.277  10.230  1.00  0.00    -0.346 OA
ATOM     12  H3  UNL     1      -4.687   2.946   9.676  1.00  0.00     0.219 HD
ENDBRANCH   1  11
BRANCH   2  13
HETATM   13  N2  UNL     1      -4.550   1.698  13.738  1.00  0.00    -0.297 N 
HETATM   14  C7  UNL     1      -4.812   2.271  14.847  1.00  0.00     0.097 C 
HETATM   15  C8  UNL     1      -5.683   3.458  14.937  1.00  0.00     0.076 C 
ATOM     16  H2  UNL     1      -3.938   0.883  13.774  1.00  0.00     0.187 HD
BRANCH  14  17
HETATM   17  C9  UNL     1      -4.230   1.730  16.058  1.00  0.00     0.306 C 
HETATM   18  O4  UNL     1      -2.997   1.558  16.156  1.00  0.00    -0.258 OA
BRANCH  17  19
HETATM   19  O5  UNL     1      -5.005   1.377  17.163  1.00  0.00    -0.322 OA
HETATM   20  C10 UNL     1      -6.207   0.664  17.065  1.00  0.00     0.213 C 
ENDBRANCH  17  19
ENDBRANCH  14  17
ENDBRANCH   2  13
TORSDOF 7
ENDMDL
MODEL 5
REMARK VINA RESULT: -6.087854251      1.127      1.235
REMARK  7 active torsions:
REMARK  status: ('A' for Active; 'I' for Inactive)
REMARK    1  A    between atoms: O1_2  and  C2_3 
REMARK    2  A    between atoms: C2_3  and  C3_4 
REMARK    3  A    between atoms: C5_7  and  C6_8 
REMARK    4  A    between atoms: C6_8  and  O3_9 
REMARK    5  A    between atoms: N1_11  and  N2_13 
REMARK    6  A    between atoms: C7_15  and  C9_17 
REMARK    7  A    between atoms: C9_17  and  O5_19 
ROOT
HETATM    1  C6  UNL     1      -4.435   2.434  11.039  1.00  0.00     0.160 C 
HETATM    2  N1  UNL     1      -4.786   3.091  12.087  1.00  0.00    -0.281 N 
ATOM      3  H1  UNL     1      -5.004   4.081  11.963  1.00  0.00     0.189 HD
ENDROOT
BRANCH   1   4
HETATM    4  C5  UNL     1      -4.115   1.026  11.149  1.00  0.00     0.205 C 
HETATM    5  C3  UNL     1      -2.700   0.649  11.479  1.00  0.00     0.070 C 
HETATM    6  C4  UNL     1      -3.134  -0.555  10.666  1.00  0.00     0.178 C 
HETATM    7  O2  UNL     1      -3.946   0.339   9.927  1.00  0.00    -0.377 OA
BRANCH   5   8
HETATM    8  C2  UNL     1      -1.623   1.388  10.773  1.00  0.00     0.176 C 
BRANCH   8   9
HETATM    9  O1  UNL     1      -0.945   2.185  11.688  1.00  0.00    -0.395 OA
HETATM   10  C1  UNL     1      -0.796   3.492  11.239  1.00  0.00     0.201 C 
ENDBRANCH   8   9
ENDBRANCH   5   8
ENDBRANCH   1   4
BRANCH   1  11
HETATM   11  O3  UNL     1      -4.381   3.120   9.841  1.00  0.00    -0.346 OA
ATOM     12  H3  UNL     1      -4.399   2.681   8.999  1.00  0.00     0.219 HD
ENDBRANCH   1  11
BRANCH   2  13
HETATM   13  N2  UNL     1      -4.896   2.585  13.358  1.00  0.00    -0.297 N 
HETATM   14  C7  UNL     1      -5.541   3.110  14.325  1.00  0.00     0.097 C 
HETATM   15  C8  UNL     1      -6.278   4.380  14.186  1.00  0.00     0.076 C 
ATOM     16  H2  UNL     1      -4.417   1.705  13.547  1.00  0.00     0.187 HD
BRANCH  14  17
HETATM   17  C9  UNL     1      -5.544   2.429  15.602  1.00  0.00     0.306 C 
HETATM   18  O4  UNL     1      -4.504   1.905  16.054  1.00  0.00    -0.258 OA
BRANCH  17  19
HETATM   19  O5  UNL     1      -6.694   2.321  16.385  1.00  0.00    -0.322 OA
HETATM   20  C10 UNL     1      -7.156   1.108  16.913  1.00  0.00     0.213 C 
ENDBRANCH  17  19
ENDBRANCH  14  17
ENDBRANCH   2  13
TORSDOF 7
ENDMDL
