MODEL 1
REMARK VINA RESULT: -6.738693693      0.000      0.000
REMARK  8 active torsions:
REMARK  status: ('A' for Active; 'I' for Inactive)
REMARK    1  A    between atoms: C2_2  and  O2_4 
REMARK    2  A    between atoms: O2_4  and  C3_5 
REMARK    3  A    between atoms: C4_7  and  C5_8 
REMARK    4  A    between atoms: C5_8  and  O4_9 
REMARK    5  A    between atoms: C6_11  and  O5_12 
REMARK    6  A    between atoms: C7_14  and  C8_15 
REMARK    7  A    between atoms: C8_15  and  C9_16 
REMARK    8  A    between atoms: C9_16  and  C10_17 
ROOT
HETATM    1  C10 UNL     1      -5.684   5.029  13.664  1.00  0.00     0.228 C 
HETATM    2  O6  UNL     1      -4.515   5.079  13.220  1.00  0.00    -0.281 OA
HETATM    3  C11 UNL     1      -6.708   5.836  13.089  1.00  0.00     0.138 C 
HETATM    4  N1  UNL     1      -7.548   6.513  12.622  1.00  0.00    -0.188 NA
ENDROOT
BRANCH   1   5
HETATM    5  C9  UNL     1      -5.952   4.096  14.809  1.00  0.00     0.096 C 
BRANCH   5   6
HETATM    6  C8  UNL     1      -4.749   3.220  14.926  1.00  0.00     0.020 C 
BRANCH   6   7
HETATM    7  C7  UNL     1      -4.963   1.803  14.544  1.00  0.00     0.073 C 
HETATM    8  C3  UNL     1      -4.283   0.766  15.323  1.00  0.00     0.276 C 
HETATM    9  O3  UNL     1      -4.479  -0.356  14.451  1.00  0.00    -0.350 OA
HETATM   10  C4  UNL     1      -3.882   0.135  13.291  1.00  0.00     0.177 C 
HETATM   11  C6  UNL     1      -4.327   1.556  13.148  1.00  0.00     0.158 C 
BRANCH   8  12
HETATM   12  O2  UNL     1      -4.754   0.441  16.596  1.00  0.00    -0.289 OA
BRANCH  12  13
HETATM   13  C2  UNL     1      -6.020   0.851  17.041  1.00  0.00     0.257 C 
HETATM   14  C1  UNL     1      -6.177   1.970  18.006  1.00  0.00     0.126 C 
HETATM   15  O1  UNL     1      -6.990   0.207  16.564  1.00  0.00    -0.266 OA
ENDBRANCH  12  13
ENDBRANCH   8  12
BRANCH  10  16
HETATM   16  C5  UNL     1      -4.336  -0.624  12.064  1.00  0.00     0.198 C 
BRANCH  16  17
HETATM   17  O4  UNL     1      -4.822   0.345  11.162  1.00  0.00    -0.398 OA
ATOM     18  H4  UNL     1      -5.734   0.127  11.008  1.00  0.00     0.209 HD
ENDBRANCH  16  17
ENDBRANCH  10  16
BRANCH  11  19
HETATM   19  O5  UNL     1      -3.204   2.374  13.112  1.00  0.00    -0.392 OA
ATOM     20  H5  UNL     1      -3.469   3.245  12.843  1.00  0.00     0.210 HD
ENDBRANCH  11  19
ENDBRANCH   6   7
ENDBRANCH   5   6
ENDBRANCH   1   5
TORSDOF 8
ENDMDL
MODEL 2
REMARK VINA RESULT: -6.724845951      1.838      4.537
REMARK  8 active torsions:
REMARK  status: ('A' for Active; 'I' for Inactive)
REMARK    1  A    between atoms: C2_2  and  O2_4 
REMARK    2  A    between atoms: O2_4  and  C3_5 
REMARK    3  A    between atoms: C4_7  and  C5_8 
REMARK    4  A    between atoms: C5_8  and  O4_9 
REMARK    5  A    between atoms: C6_11  and  O5_12 
REMARK    6  A    between atoms: C7_14  and  C8_15 
REMARK    7  A    between atoms: C8_15  and  C9_16 
REMARK    8  A    between atoms: C9_16  and  C10_17 
ROOT
HETATM    1  C10 UNL     1      -3.567   1.483  11.109  1.00  0.00     0.228 C 
HETATM    2  O6  UNL     1      -2.642   1.113  10.351  1.00  0.00    -0.281 OA
HETATM    3  C11 UNL     1      -4.372   2.609  10.766  1.00  0.00     0.138 C 
HETATM    4  N1  UNL     1      -5.026   3.545  10.488  1.00  0.00    -0.188 NA
ENDROOT
BRANCH   1   5
HETATM    5  C9  UNL     1      -3.785   0.701  12.371  1.00  0.00     0.096 C 
BRANCH   5   6
HETATM    6  C8  UNL     1      -3.763   1.692  13.487  1.00  0.00     0.020 C 
BRANCH   6   7
HETATM    7  C7  UNL     1      -4.936   1.645  14.393  1.00  0.00     0.073 C 
HETATM    8  C3  UNL     1      -5.498   2.912  14.863  1.00  0.00     0.276 C 
HETATM    9  O3  UNL     1      -6.339   2.425  15.919  1.00  0.00    -0.350 OA
HETATM   10  C4  UNL     1      -5.388   1.765  16.696  1.00  0.00     0.177 C 
HETATM   11  C6  UNL     1      -4.501   1.021  15.749  1.00  0.00     0.158 C 
BRANCH   8  12
HETATM   12  O2  UNL     1      -6.266   3.689  13.993  1.00  0.00    -0.289 OA
BRANCH  12  13
HETATM   13  C2  UNL     1      -6.004   5.053  13.796  1.00  0.00     0.257 C 
HETATM   14  C1  UNL     1      -6.893   5.900  12.958  1.00  0.00     0.126 C 
HETATM   15  O1  UNL     1      -4.978   5.491  14.377  1.00  0.00    -0.266 OA
ENDBRANCH  12  13
ENDBRANCH   8  12
BRANCH  10  16
HETATM   16  C5  UNL     1      -6.027   0.760  17.628  1.00  0.00     0.198 C 
BRANCH  16  17
HETATM   17  O4  UNL     1      -5.690  -0.513  17.121  1.00  0.00    -0.398 OA
ATOM     18  H4  UNL     1      -5.428  -1.033  17.871  1.00  0.00     0.209 HD
ENDBRANCH  16  17
ENDBRANCH  10  16
BRANCH  11  19
HETATM   19  O5  UNL     1      -3.192   1.444  15.938  1.00  0.00    -0.392 OA
ATOM     20  H5  UNL     1      -2.929   1.969  15.191  1.00  0.00     0.210 HD
ENDBRANCH  11  19
ENDBRANCH   6   7
ENDBRANCH   5   6
ENDBRANCH   1   5
TORSDOF 8
ENDMDL
MODEL 3
REMARK VINA RESULT: -6.717628923      2.462      4.820
REMARK  8 active torsions:
REMARK  status: ('A' for Active; 'I' for Inactive)
REMARK    1  A    between atoms: C2_2  and  O2_4 
REMARK    2  A    between atoms: O2_4  and  C3_5 
REMARK    3  A    between atoms: C4_7  and  C5_8 
REMARK    4  A    between atoms: C5_8  and  O4_9 
REMARK    5  A    between atoms: C6_11  and  O5_12 
REMARK    6  A    between atoms: C7_14  and  C8_15 
REMARK    7  A    between atoms: C8_15  and  C9_16 
REMARK    8  A    between atoms: C9_16  and  C10_17 
ROOT
HETATM    1  C10 UNL     1      -4.658   1.416  11.579  1.00  0.00     0.228 C 
HETATM    2  O6  UNL     1      -5.781   1.715  11.114  1.00  0.00    -0.281 OA
HETATM    3  C11 UNL     1      -4.209   0.063  11.563  1.00  0.00     0.138 C 
HETATM    4  N1  UNL     1      -3.846  -1.055  11.561  1.00  0.00    -0.188 NA
ENDROOT
BRANCH   1   5
HETATM    5  C9  UNL     1      -3.822   2.527  12.142  1.00  0.00     0.096 C 
BRANCH   5   6
HETATM    6  C8  UNL     1      -3.545   2.165  13.563  1.00  0.00     0.020 C 
BRANCH   6   7
HETATM    7  C7  UNL     1      -4.746   1.893  14.388  1.00  0.00     0.073 C 
HETATM    8  C3  UNL     1      -5.482   3.033  14.937  1.00  0.00     0.276 C 
HETATM    9  O3  UNL     1      -6.308   2.350  15.891  1.00  0.00    -0.350 OA
HETATM   10  C4  UNL     1      -5.323   1.733  16.661  1.00  0.00     0.177 C 
HETATM   11  C6  UNL     1      -4.306   1.194  15.705  1.00  0.00     0.158 C 
BRANCH   8  12
HETATM   12  O2  UNL     1      -6.295   3.796  14.097  1.00  0.00    -0.289 OA
BRANCH  12  13
HETATM   13  C2  UNL     1      -5.988   5.128  13.784  1.00  0.00     0.257 C 
HETATM   14  C1  UNL     1      -6.894   5.956  12.944  1.00  0.00     0.126 C 
HETATM   15  O1  UNL     1      -4.907   5.557  14.264  1.00  0.00    -0.266 OA
ENDBRANCH  12  13
ENDBRANCH   8  12
BRANCH  10  16
HETATM   16  C5  UNL     1      -5.879   0.573  17.456  1.00  0.00     0.198 C 
BRANCH  16  17
HETATM   17  O4  UNL     1      -7.066   0.183  16.800  1.00  0.00    -0.398 OA
ATOM     18  H4  UNL     1      -6.836   0.071  15.885  1.00  0.00     0.209 HD
ENDBRANCH  16  17
ENDBRANCH  10  16
BRANCH  11  19
HETATM   19  O5  UNL     1      -3.069   1.747  16.011  1.00  0.00    -0.392 OA
ATOM     20  H5  UNL     1      -2.855   1.538  16.913  1.00  0.00     0.210 HD
ENDBRANCH  11  19
ENDBRANCH   6   7
ENDBRANCH   5   6
ENDBRANCH   1   5
TORSDOF 8
ENDMDL
MODEL 4
REMARK VINA RESULT: -6.710562675      2.009      4.474
REMARK  8 active torsions:
REMARK  status: ('A' for Active; 'I' for Inactive)
REMARK    1  A    between atoms: C2_2  and  O2_4 
REMARK    2  A    between atoms: O2_4  and  C3_5 
REMARK    3  A    between atoms: C4_7  and  C5_8 
REMARK    4  A    between atoms: C5_8  and  O4_9 
REMARK    5  A    between atoms: C6_11  and  O5_12 
REMARK    6  A    between atoms: C7_14  and  C8_15 
REMARK    7  A    between atoms: C8_15  and  C9_16 
REMARK    8  A    between atoms: C9_16  and  C10_17 
ROOT
HETATM    1  C10 UNL     1      -4.627   1.942  11.281  1.00  0.00     0.228 C 
HETATM    2  O6  UNL     1      -5.843   1.715  11.088  1.00  0.00    -0.281 OA
HETATM    3  C11 UNL     1      -3.986   3.035  10.627  1.00  0.00     0.138 C 
HETATM    4  N1  UNL     1      -3.457   3.928  10.077  1.00  0.00    -0.188 NA
ENDROOT
BRANCH   1   5
HETATM    5  C9  UNL     1      -3.890   1.027  12.214  1.00  0.00     0.096 C 
BRANCH   5   6
HETATM    6  C8  UNL     1      -3.743   1.771  13.500  1.00  0.00     0.020 C 
BRANCH   6   7
HETATM    7  C7  UNL     1      -4.917   1.705  14.403  1.00  0.00     0.073 C 
HETATM    8  C3  UNL     1      -5.470   2.962  14.911  1.00  0.00     0.276 C 
HETATM    9  O3  UNL     1      -6.317   2.449  15.951  1.00  0.00    -0.350 OA
HETATM   10  C4  UNL     1      -5.372   1.758  16.708  1.00  0.00     0.177 C 
HETATM   11  C6  UNL     1      -4.490   1.036  15.739  1.00  0.00     0.158 C 
BRANCH   8  12
HETATM   12  O2  UNL     1      -6.230   3.772  14.065  1.00  0.00    -0.289 OA
BRANCH  12  13
HETATM   13  C2  UNL     1      -5.666   4.860  13.384  1.00  0.00     0.257 C 
HETATM   14  C1  UNL     1      -4.435   5.531  13.878  1.00  0.00     0.126 C 
HETATM   15  O1  UNL     1      -6.275   5.213  12.341  1.00  0.00    -0.266 OA
ENDBRANCH  12  13
ENDBRANCH   8  12
BRANCH  10  16
HETATM   16  C5  UNL     1      -6.021   0.729  17.607  1.00  0.00     0.198 C 
BRANCH  16  17
HETATM   17  O4  UNL     1      -5.685  -0.530  17.067  1.00  0.00    -0.398 OA
ATOM     18  H4  UNL     1      -6.052  -1.176  17.659  1.00  0.00     0.209 HD
ENDBRANCH  16  17
ENDBRANCH  10  16
BRANCH  11  19
HETATM   19  O5  UNL     1      -3.177   1.442  15.943  1.00  0.00    -0.392 OA
ATOM     20  H5  UNL     1      -2.732   0.787  16.469  1.00  0.00     0.210 HD
ENDBRANCH  11  19
ENDBRANCH   6   7
ENDBRANCH   5   6
ENDBRANCH   1   5
TORSDOF 8
ENDMDL
MODEL 5
REMARK VINA RESULT: -6.615804128      2.813      5.367
REMARK  8 active torsions:
REMARK  status: ('A' for Active; 'I' for Inactive)
REMARK    1  A    between atoms: C2_2  and  O2_4 
REMARK    2  A    between atoms: O2_4  and  C3_5 
REMARK    3  A    between atoms: C4_7  and  C5_8 
REMARK    4  A    between atoms: C5_8  and  O4_9 
REMARK    5  A    between atoms: C6_11  and  O5_12 
REMARK    6  A    between atoms: C7_14  and  C8_15 
REMARK    7  A    between atoms: C8_15  and  C9_16 
REMARK    8  A    between atoms: C9_16  and  C10_17 
ROOT
HETATM    1  C10 UNL     1      -4.354   1.496  15.934  1.00  0.00     0.228 C 
HETATM    2  O6  UNL     1      -3.120   1.426  16.133  1.00  0.00    -0.281 OA
HETATM    3  C11 UNL     1      -5.240   0.585  16.581  1.00  0.00     0.138 C 
HETATM    4  N1  UNL     1      -5.967  -0.176  17.105  1.00  0.00    -0.188 NA
ENDROOT
BRANCH   1   5
HETATM    5  C9  UNL     1      -4.849   2.564  15.003  1.00  0.00     0.096 C 
BRANCH   5   6
HETATM    6  C8  UNL     1      -4.107   2.378  13.721  1.00  0.00     0.020 C 
BRANCH   6   7
HETATM    7  C7  UNL     1      -4.771   2.945  12.522  1.00  0.00     0.073 C 
HETATM    8  C3  UNL     1      -4.409   2.404  11.210  1.00  0.00     0.276 C 
HETATM    9  O3  UNL     1      -4.990   3.410  10.368  1.00  0.00    -0.350 OA
HETATM   10  C4  UNL     1      -4.329   4.538  10.853  1.00  0.00     0.177 C 
HETATM   11  C6  UNL     1      -4.315   4.420  12.344  1.00  0.00     0.158 C 
BRANCH   8  12
HETATM   12  O2  UNL     1      -4.894   1.153  10.824  1.00  0.00    -0.289 OA
BRANCH  12  13
HETATM   13  C2  UNL     1      -4.059   0.028  10.754  1.00  0.00     0.257 C 
HETATM   14  C1  UNL     1      -4.053  -1.000  11.827  1.00  0.00     0.126 C 
HETATM   15  O1  UNL     1      -3.333  -0.038   9.729  1.00  0.00    -0.266 OA
ENDBRANCH  12  13
ENDBRANCH   8  12
BRANCH  10  16
HETATM   16  C5  UNL     1      -5.059   5.812  10.490  1.00  0.00     0.198 C 
BRANCH  16  17
HETATM   17  O4  UNL     1      -5.834   5.509   9.352  1.00  0.00    -0.398 OA
ATOM     18  H4  UNL     1      -5.218   5.263   8.672  1.00  0.00     0.209 HD
ENDBRANCH  16  17
ENDBRANCH  10  16
BRANCH  11  19
HETATM   19  O5  UNL     1      -2.997   4.447  12.781  1.00  0.00    -0.392 OA
ATOM     20  H5  UNL     1      -2.940   3.983  13.609  1.00  0.00     0.210 HD
ENDBRANCH  11  19
ENDBRANCH   6   7
ENDBRANCH   5   6
ENDBRANCH   1   5
TORSDOF 8
ENDMDL
