MODEL 1
REMARK VINA RESULT: -6.995812826      0.000      0.000
REMARK  7 active torsions:
REMARK  status: ('A' for Active; 'I' for Inactive)
REMARK    1  A    between atoms: O1_2  and  C2_3 
REMARK    2  A    between atoms: C3_5  and  C4_6 
REMARK    3  A    between atoms: C4_6  and  O3_7 
REMARK    4  A    between atoms: O3_7  and  C5_8 
REMARK    5  A    between atoms: C7_11  and  O5_12 
REMARK    6  A    between atoms: O5_12  and  C8_13 
REMARK    7  A    between atoms: C10_16  and  O7_17 
ROOT
HETATM    1  C2  UNL     1      -3.869   0.382  12.122  1.00  0.00     0.290 C 
HETATM    2  O2  UNL     1      -4.503   0.316  13.347  1.00  0.00    -0.348 OA
HETATM    3  C3  UNL     1      -4.108   1.510  13.948  1.00  0.00     0.181 C 
HETATM    4  C7  UNL     1      -4.170   2.567  12.870  1.00  0.00     0.196 C 
HETATM    5  C10 UNL     1      -4.278   1.730  11.605  1.00  0.00     0.205 C 
ENDROOT
BRANCH   3   6
HETATM    6  C4  UNL     1      -5.020   1.882  15.096  1.00  0.00     0.213 C 
BRANCH   6   7
HETATM    7  O3  UNL     1      -5.519   0.686  15.651  1.00  0.00    -0.319 OA
BRANCH   7   8
HETATM    8  C5  UNL     1      -5.872   0.570  16.976  1.00  0.00     0.254 C 
HETATM    9  C6  UNL     1      -6.241   1.746  17.810  1.00  0.00     0.126 C 
HETATM   10  O4  UNL     1      -5.868  -0.608  17.468  1.00  0.00    -0.266 OA
ENDBRANCH   7   8
ENDBRANCH   6   7
ENDBRANCH   3   6
BRANCH   4  11
HETATM   11  O5  UNL     1      -2.963   3.300  12.787  1.00  0.00    -0.311 OA
BRANCH  11  12
HETATM   12  C8  UNL     1      -2.702   4.278  13.735  1.00  0.00     0.255 C 
HETATM   13  C9  UNL     1      -3.728   5.322  14.074  1.00  0.00     0.126 C 
HETATM   14  O6  UNL     1      -1.577   4.256  14.297  1.00  0.00    -0.266 OA
ENDBRANCH  11  12
ENDBRANCH   4  11
BRANCH   1  15
HETATM   15  O1  UNL     1      -4.196  -0.656  11.273  1.00  0.00    -0.363 OA
HETATM   16  C1  UNL     1      -3.344  -1.742  11.385  1.00  0.00     0.204 C 
ENDBRANCH   1  15
BRANCH   5  17
HETATM   17  O7  UNL     1      -5.616   1.741  11.176  1.00  0.00    -0.388 OA
ATOM     18  H7  UNL     1      -6.192   1.320  11.804  1.00  0.00     0.210 HD
ENDBRANCH   5  17
TORSDOF 7
ENDMDL
MODEL 2
REMARK VINA RESULT: -6.754379923      1.227      4.025
REMARK  7 active torsions:
REMARK  status: ('A' for Active; 'I' for Inactive)
REMARK    1  A    between atoms: O1_2  and  C2_3 
REMARK    2  A    between atoms: C3_5  and  C4_6 
REMARK    3  A    between atoms: C4_6  and  O3_7 
REMARK    4  A    between atoms: O3_7  and  C5_8 
REMARK    5  A    between atoms: C7_11  and  O5_12 
REMARK    6  A    between atoms: O5_12  and  C8_13 
REMARK    7  A    between atoms: C10_16  and  O7_17 
ROOT
HETATM    1  C2  UNL     1      -4.569   3.602  13.278  1.00  0.00     0.290 C 
HETATM    2  O2  UNL     1      -4.364   3.153  14.568  1.00  0.00    -0.348 OA
HETATM    3  C3  UNL     1      -4.547   1.777  14.434  1.00  0.00     0.181 C 
HETATM    4  C7  UNL     1      -3.868   1.384  13.142  1.00  0.00     0.196 C 
HETATM    5  C10 UNL     1      -3.651   2.731  12.471  1.00  0.00     0.205 C 
ENDROOT
BRANCH   3   6
HETATM    6  C4  UNL     1      -3.939   1.020  15.593  1.00  0.00     0.213 C 
BRANCH   6   7
HETATM    7  O3  UNL     1      -4.711   1.300  16.739  1.00  0.00    -0.319 OA
BRANCH   7   8
HETATM    8  C5  UNL     1      -5.889   0.647  17.022  1.00  0.00     0.254 C 
HETATM    9  C6  UNL     1      -7.209   1.335  16.996  1.00  0.00     0.126 C 
HETATM   10  O4  UNL     1      -5.800  -0.592  17.314  1.00  0.00    -0.266 OA
ENDBRANCH   7   8
ENDBRANCH   6   7
ENDBRANCH   3   6
BRANCH   4  11
HETATM   11  O5  UNL     1      -4.728   0.633  12.308  1.00  0.00    -0.311 OA
BRANCH  11  12
HETATM   12  C8  UNL     1      -4.184  -0.100  11.264  1.00  0.00     0.255 C 
HETATM   13  C9  UNL     1      -3.468  -1.396  11.519  1.00  0.00     0.126 C 
HETATM   14  O6  UNL     1      -4.315   0.360  10.101  1.00  0.00    -0.266 OA
ENDBRANCH  11  12
ENDBRANCH   4  11
BRANCH   1  15
HETATM   15  O1  UNL     1      -4.330   4.952  13.118  1.00  0.00    -0.363 OA
HETATM   16  C1  UNL     1      -4.156   5.621  14.318  1.00  0.00     0.204 C 
ENDBRANCH   1  15
BRANCH   5  17
HETATM   17  O7  UNL     1      -2.304   3.098  12.636  1.00  0.00    -0.388 OA
ATOM     18  H7  UNL     1      -1.774   2.372  12.943  1.00  0.00     0.210 HD
ENDBRANCH   5  17
TORSDOF 7
ENDMDL
MODEL 3
REMARK VINA RESULT: -6.747120091      1.848      2.163
REMARK  7 active torsions:
REMARK  status: ('A' for Active; 'I' for Inactive)
REMARK    1  A    between atoms: O1_2  and  C2_3 
REMARK    2  A    between atoms: C3_5  and  C4_6 
REMARK    3  A    between atoms: C4_6  and  O3_7 
REMARK    4  A    between atoms: O3_7  and  C5_8 
REMARK    5  A    between atoms: C7_11  and  O5_12 
REMARK    6  A    between atoms: O5_12  and  C8_13 
REMARK    7  A    between atoms: C10_16  and  O7_17 
ROOT
HETATM    1  C2  UNL     1      -3.285   2.032  11.730  1.00  0.00     0.290 C 
HETATM    2  O2  UNL     1      -3.332   1.034  12.683  1.00  0.00    -0.348 OA
HETATM    3  C3  UNL     1      -3.923   1.685  13.764  1.00  0.00     0.181 C 
HETATM    4  C7  UNL     1      -5.029   2.541  13.189  1.00  0.00     0.196 C 
HETATM    5  C10 UNL     1      -4.698   2.537  11.704  1.00  0.00     0.205 C 
ENDROOT
BRANCH   3   6
HETATM    6  C4  UNL     1      -4.492   0.701  14.762  1.00  0.00     0.213 C 
BRANCH   6   7
HETATM    7  O3  UNL     1      -4.767   1.408  15.950  1.00  0.00    -0.319 OA
BRANCH   7   8
HETATM    8  C5  UNL     1      -5.624   0.935  16.918  1.00  0.00     0.254 C 
HETATM    9  C6  UNL     1      -6.314   1.835  17.882  1.00  0.00     0.126 C 
HETATM   10  O4  UNL     1      -5.803  -0.328  16.956  1.00  0.00    -0.266 OA
ENDBRANCH   7   8
ENDBRANCH   6   7
ENDBRANCH   3   6
BRANCH   4  11
HETATM   11  O5  UNL     1      -4.939   3.879  13.636  1.00  0.00    -0.311 OA
BRANCH  11  12
HETATM   12  C8  UNL     1      -6.083   4.516  14.093  1.00  0.00     0.255 C 
HETATM   13  C9  UNL     1      -6.820   5.499  13.227  1.00  0.00     0.126 C 
HETATM   14  O6  UNL     1      -6.477   4.239  15.255  1.00  0.00    -0.266 OA
ENDBRANCH  11  12
ENDBRANCH   4  11
BRANCH   1  15
HETATM   15  O1  UNL     1      -2.832   1.602  10.499  1.00  0.00    -0.363 OA
HETATM   16  C1  UNL     1      -1.757   0.733  10.587  1.00  0.00     0.204 C 
ENDBRANCH   1  15
BRANCH   5  17
HETATM   17  O7  UNL     1      -5.563   1.636  11.058  1.00  0.00    -0.388 OA
ATOM     18  H7  UNL     1      -6.442   1.987  10.977  1.00  0.00     0.210 HD
ENDBRANCH   5  17
TORSDOF 7
ENDMDL
MODEL 4
REMARK VINA RESULT: -6.702940960      1.475      1.975
REMARK  7 active torsions:
REMARK  status: ('A' for Active; 'I' for Inactive)
REMARK    1  A    between atoms: O1_2  and  C2_3 
REMARK    2  A    between atoms: C3_5  and  C4_6 
REMARK    3  A    between atoms: C4_6  and  O3_7 
REMARK    4  A    between atoms: O3_7  and  C5_8 
REMARK    5  A    between atoms: C7_11  and  O5_12 
REMARK    6  A    between atoms: O5_12  and  C8_13 
REMARK    7  A    between atoms: C10_16  and  O7_17 
ROOT
HETATM    1  C2  UNL     1      -3.824  -0.284  12.324  1.00  0.00     0.290 C 
HETATM    2  O2  UNL     1      -4.524   0.012  13.477  1.00  0.00    -0.348 OA
HETATM    3  C3  UNL     1      -4.050   1.284  13.792  1.00  0.00     0.181 C 
HETATM    4  C7  UNL     1      -3.956   2.037  12.485  1.00  0.00     0.196 C 
HETATM    5  C10 UNL     1      -4.076   0.918  11.461  1.00  0.00     0.205 C 
ENDROOT
BRANCH   3   6
HETATM    6  C4  UNL     1      -4.980   2.004  14.742  1.00  0.00     0.213 C 
BRANCH   6   7
HETATM    7  O3  UNL     1      -4.849   1.400  16.010  1.00  0.00    -0.319 OA
BRANCH   7   8
HETATM    8  C5  UNL     1      -5.895   0.773  16.649  1.00  0.00     0.254 C 
HETATM    9  C6  UNL     1      -7.187   1.459  16.925  1.00  0.00     0.126 C 
HETATM   10  O4  UNL     1      -5.706  -0.438  17.001  1.00  0.00    -0.266 OA
ENDBRANCH   7   8
ENDBRANCH   6   7
ENDBRANCH   3   6
BRANCH   4  11
HETATM   11  O5  UNL     1      -2.683   2.628  12.313  1.00  0.00    -0.311 OA
BRANCH  11  12
HETATM   12  C8  UNL     1      -2.193   2.815  11.029  1.00  0.00     0.255 C 
HETATM   13  C9  UNL     1      -0.922   2.152  10.582  1.00  0.00     0.126 C 
HETATM   14  O6  UNL     1      -2.854   3.558  10.259  1.00  0.00    -0.266 OA
ENDBRANCH  11  12
ENDBRANCH   4  11
BRANCH   1  15
HETATM   15  O1  UNL     1      -4.203  -1.473  11.735  1.00  0.00    -0.363 OA
HETATM   16  C1  UNL     1      -3.130  -2.272  11.379  1.00  0.00     0.204 C 
ENDBRANCH   1  15
BRANCH   5  17
HETATM   17  O7  UNL     1      -5.384   0.926  10.946  1.00  0.00    -0.388 OA
ATOM     18  H7  UNL     1      -5.394   1.081  10.009  1.00  0.00     0.210 HD
ENDBRANCH   5  17
TORSDOF 7
ENDMDL
MODEL 5
REMARK VINA RESULT: -6.549765454      1.512      4.095
REMARK  7 active torsions:
REMARK  status: ('A' for Active; 'I' for Inactive)
REMARK    1  A    between atoms: O1_2  and  C2_3 
REMARK    2  A    between atoms: C3_5  and  C4_6 
REMARK    3  A    between atoms: C4_6  and  O3_7 
REMARK    4  A    between atoms: O3_7  and  C5_8 
REMARK    5  A    between atoms: C7_11  and  O5_12 
REMARK    6  A    between atoms: O5_12  and  C8_13 
REMARK    7  A    between atoms: C10_16  and  O7_17 
ROOT
HETATM    1  C2  UNL     1      -3.670   4.485  14.094  1.00  0.00     0.290 C 
HETATM    2  O2  UNL     1      -3.570   3.615  15.160  1.00  0.00    -0.348 OA
HETATM    3  C3  UNL     1      -4.274   2.502  14.701  1.00  0.00     0.181 C 
HETATM    4  C7  UNL     1      -3.882   2.324  13.252  1.00  0.00     0.196 C 
HETATM    5  C10 UNL     1      -3.209   3.651  12.935  1.00  0.00     0.205 C 
ENDROOT
BRANCH   3   6
HETATM    6  C4  UNL     1      -3.928   1.261  15.491  1.00  0.00     0.213 C 
BRANCH   6   7
HETATM    7  O3  UNL     1      -4.605   1.337  16.725  1.00  0.00    -0.319 OA
BRANCH   7   8
HETATM    8  C5  UNL     1      -5.797   0.691  16.963  1.00  0.00     0.254 C 
HETATM    9  C6  UNL     1      -7.103   1.405  16.975  1.00  0.00     0.126 C 
HETATM   10  O4  UNL     1      -5.734  -0.566  17.177  1.00  0.00    -0.266 OA
ENDBRANCH   7   8
ENDBRANCH   6   7
ENDBRANCH   3   6
BRANCH   4  11
HETATM   11  O5  UNL     1      -5.016   2.217  12.414  1.00  0.00    -0.311 OA
BRANCH  11  12
HETATM   12  C8  UNL     1      -4.851   1.778  11.108  1.00  0.00     0.255 C 
HETATM   13  C9  UNL     1      -4.688   0.317  10.798  1.00  0.00     0.126 C 
HETATM   14  O6  UNL     1      -4.844   2.647  10.200  1.00  0.00    -0.266 OA
ENDBRANCH  11  12
ENDBRANCH   4  11
BRANCH   1  15
HETATM   15  O1  UNL     1      -2.944   5.648  14.258  1.00  0.00    -0.363 OA
HETATM   16  C1  UNL     1      -3.294   6.641  13.359  1.00  0.00     0.204 C 
ENDBRANCH   1  15
BRANCH   5  17
HETATM   17  O7  UNL     1      -1.817   3.458  12.951  1.00  0.00    -0.388 OA
ATOM     18  H7  UNL     1      -1.587   2.545  13.080  1.00  0.00     0.210 HD
ENDBRANCH   5  17
TORSDOF 7
ENDMDL
