MODEL 1
REMARK VINA RESULT: -6.519286316      0.000      0.000
REMARK  5 active torsions:
REMARK  status: ('A' for Active; 'I' for Inactive)
REMARK    1  A    between atoms: C1_2  and  C2_3 
REMARK       I    between atoms: C1_2  and  N2_14 
REMARK    2  A    between atoms: C2_3  and  N1_4 
REMARK       I    between atoms: N1_4  and  C3_6 
REMARK    3  A    between atoms: C3_6  and  C4_8 
REMARK    4  A    between atoms: N2_14  and  C8_16 
REMARK    5  A    between atoms: N3_19  and  C11_20 
ROOT
HETATM    1  O1  UNL     1      92.543  96.865 -40.556  1.00  0.00    -0.272 OA
HETATM    2  C1  UNL     1      91.962  96.126 -41.403  1.00  0.00     0.235 C 
HETATM    3  N2  UNL     1      91.327  96.750 -42.508  1.00  0.00    -0.355 N 
ATOM      4  H2  UNL     1      90.849  96.187 -43.211  1.00  0.00     0.162 HD
ENDROOT
BRANCH   3   5
HETATM    5  C8  UNL     1      91.360  98.177 -42.629  1.00  0.00     0.087 C 
HETATM    6  C9  UNL     1      92.114  98.671 -43.820  1.00  0.00     0.055 C 
HETATM    7  C10 UNL     1      91.363  98.526 -45.124  1.00  0.00     0.275 C 
HETATM    8  N3  UNL     1      90.042  99.063 -44.947  1.00  0.00     0.093 N 
HETATM    9  C17 UNL     1      89.293  98.417 -43.920  1.00  0.00     0.275 C 
HETATM   10  C18 UNL     1      89.976  98.796 -42.599  1.00  0.00     0.055 C 
BRANCH   8  11
HETATM   11  C11 UNL     1      89.343  99.302 -46.175  1.00  0.00     0.223 C 
HETATM   12  C12 UNL     1      88.140 100.134 -45.864  1.00  0.00     0.036 C 
HETATM   13  C13 UNL     1      86.964  99.969 -46.744  1.00  0.00     0.002 C 
HETATM   14  C14 UNL     1      86.731  98.564 -47.219  1.00  0.00     0.000 C 
HETATM   15  C15 UNL     1      88.008  98.166 -47.969  1.00  0.00     0.002 C 
HETATM   16  C16 UNL     1      89.057  98.014 -46.859  1.00  0.00     0.036 C 
ENDBRANCH   8  11
ENDBRANCH   3   5
BRANCH   2  17
HETATM   17  C2  UNL     1      91.926  94.651 -41.278  1.00  0.00     0.225 C 
BRANCH  17  18
HETATM   18  N1  UNL     1      91.410  94.101 -42.509  1.00  0.00    -0.348 N 
HETATM   19  C3  UNL     1      92.273  93.366 -43.343  1.00  0.00     0.259 C 
HETATM   20  O2  UNL     1      93.480  93.116 -43.136  1.00  0.00    -0.267 OA
ATOM     21  H1  UNL     1      90.434  94.243 -42.771  1.00  0.00     0.163 HD
BRANCH  19  22
HETATM   22  C4  UNL     1      91.713  92.822 -44.604  1.00  0.00     0.074 A 
HETATM   23  C5  UNL     1      91.611  91.521 -44.994  1.00  0.00     0.027 A 
HETATM   24  C6  UNL     1      91.059  91.270 -46.193  1.00  0.00     0.033 A 
HETATM   25  C7  UNL     1      90.644  92.348 -46.927  1.00  0.00     0.075 A 
HETATM   26 CL1  UNL     1      89.886  92.330 -48.532  1.00  0.00    -0.076 Cl
HETATM   27  S1  UNL     1      91.033  93.672 -45.926  1.00  0.00    -0.072 SA
ENDBRANCH  19  22
ENDBRANCH  17  18
ENDBRANCH   2  17
TORSDOF 5
ENDMDL
MODEL 2
REMARK VINA RESULT: -6.385054380      3.441      5.348
REMARK  5 active torsions:
REMARK  status: ('A' for Active; 'I' for Inactive)
REMARK    1  A    between atoms: C1_2  and  C2_3 
REMARK       I    between atoms: C1_2  and  N2_14 
REMARK    2  A    between atoms: C2_3  and  N1_4 
REMARK       I    between atoms: N1_4  and  C3_6 
REMARK    3  A    between atoms: C3_6  and  C4_8 
REMARK    4  A    between atoms: N2_14  and  C8_16 
REMARK    5  A    between atoms: N3_19  and  C11_20 
ROOT
HETATM    1  O1  UNL     1      88.197  96.506 -46.109  1.00  0.00    -0.272 OA
HETATM    2  C1  UNL     1      89.450  96.453 -45.941  1.00  0.00     0.235 C 
HETATM    3  N2  UNL     1      90.085  97.555 -45.311  1.00  0.00    -0.355 N 
ATOM      4  H2  UNL     1      91.093  97.549 -45.158  1.00  0.00     0.162 HD
ENDROOT
BRANCH   3   5
HETATM    5  C8  UNL     1      89.301  98.677 -44.891  1.00  0.00     0.087 C 
HETATM    6  C9  UNL     1      89.089  98.757 -43.414  1.00  0.00     0.055 C 
HETATM    7  C10 UNL     1      90.296  99.248 -42.648  1.00  0.00     0.275 C 
HETATM    8  N3  UNL     1      90.778 100.445 -43.281  1.00  0.00     0.093 N 
HETATM    9  C17 UNL     1      91.152 100.262 -44.645  1.00  0.00     0.275 C 
HETATM   10  C18 UNL     1      89.847  99.995 -45.407  1.00  0.00     0.055 C 
BRANCH   8  11
HETATM   11  C11 UNL     1      91.693 101.199 -42.476  1.00  0.00     0.223 C 
HETATM   12  C12 UNL     1      92.040 100.373 -41.280  1.00  0.00     0.036 C 
HETATM   13  C13 UNL     1      92.387 101.099 -40.040  1.00  0.00     0.002 C 
HETATM   14  C14 UNL     1      91.597 102.354 -39.809  1.00  0.00     0.000 C 
HETATM   15  C15 UNL     1      91.868 103.241 -41.030  1.00  0.00     0.002 C 
HETATM   16  C16 UNL     1      91.121 102.537 -42.172  1.00  0.00     0.036 C 
ENDBRANCH   8  11
ENDBRANCH   3   5
BRANCH   2  17
HETATM   17  C2  UNL     1      90.262  95.294 -46.376  1.00  0.00     0.225 C 
BRANCH  17  18
HETATM   18  N1  UNL     1      91.048  94.839 -45.253  1.00  0.00    -0.348 N 
HETATM   19  C3  UNL     1      91.362  93.472 -45.147  1.00  0.00     0.259 C 
HETATM   20  O2  UNL     1      91.035  92.566 -45.944  1.00  0.00    -0.267 OA
ATOM     21  H1  UNL     1      91.371  95.501 -44.546  1.00  0.00     0.163 HD
BRANCH  19  22
HETATM   22  C4  UNL     1      92.162  93.038 -43.978  1.00  0.00     0.074 A 
HETATM   23  C5  UNL     1      92.216  93.594 -42.734  1.00  0.00     0.027 A 
HETATM   24  C6  UNL     1      93.022  93.018 -41.827  1.00  0.00     0.033 A 
HETATM   25  C7  UNL     1      93.728  91.916 -42.230  1.00  0.00     0.075 A 
HETATM   26 CL1  UNL     1      94.862  90.952 -41.263  1.00  0.00    -0.076 Cl
HETATM   27  S1  UNL     1      93.246  91.718 -43.852  1.00  0.00    -0.072 SA
ENDBRANCH  19  22
ENDBRANCH  17  18
ENDBRANCH   2  17
TORSDOF 5
ENDMDL
MODEL 3
REMARK VINA RESULT: -6.385004491      3.505      5.350
REMARK  5 active torsions:
REMARK  status: ('A' for Active; 'I' for Inactive)
REMARK    1  A    between atoms: C1_2  and  C2_3 
REMARK       I    between atoms: C1_2  and  N2_14 
REMARK    2  A    between atoms: C2_3  and  N1_4 
REMARK       I    between atoms: N1_4  and  C3_6 
REMARK    3  A    between atoms: C3_6  and  C4_8 
REMARK    4  A    between atoms: N2_14  and  C8_16 
REMARK    5  A    between atoms: N3_19  and  C11_20 
ROOT
HETATM    1  O1  UNL     1      89.847  97.262 -47.092  1.00  0.00    -0.272 OA
HETATM    2  C1  UNL     1      90.241  96.654 -46.055  1.00  0.00     0.235 C 
HETATM    3  N2  UNL     1      90.903  97.408 -45.051  1.00  0.00    -0.355 N 
ATOM      4  H2  UNL     1      91.235  96.951 -44.201  1.00  0.00     0.162 HD
ENDROOT
BRANCH   3   5
HETATM    5  C8  UNL     1      91.104  98.813 -45.239  1.00  0.00     0.087 C 
HETATM    6  C9  UNL     1      89.936  99.655 -44.843  1.00  0.00     0.055 C 
HETATM    7  C10 UNL     1      89.780  99.824 -43.349  1.00  0.00     0.275 C 
HETATM    8  N3  UNL     1      91.052 100.214 -42.803  1.00  0.00     0.093 N 
HETATM    9  C17 UNL     1      92.093  99.271 -43.046  1.00  0.00     0.275 C 
HETATM   10  C18 UNL     1      92.361  99.317 -44.556  1.00  0.00     0.055 C 
BRANCH   8  11
HETATM   11  C11 UNL     1      90.976 100.735 -41.471  1.00  0.00     0.223 C 
HETATM   12  C12 UNL     1      90.166 101.991 -41.514  1.00  0.00     0.036 C 
HETATM   13  C13 UNL     1      90.474 103.024 -40.504  1.00  0.00     0.002 C 
HETATM   14  C14 UNL     1      91.930 103.151 -40.163  1.00  0.00     0.000 C 
HETATM   15  C15 UNL     1      92.354 101.770 -39.649  1.00  0.00     0.002 C 
HETATM   16  C16 UNL     1      92.342 100.887 -40.905  1.00  0.00     0.036 C 
ENDBRANCH   8  11
ENDBRANCH   3   5
BRANCH   2  17
HETATM   17  C2  UNL     1      90.035  95.200 -45.860  1.00  0.00     0.225 C 
BRANCH  17  18
HETATM   18  N1  UNL     1      90.932  94.747 -44.823  1.00  0.00    -0.348 N 
HETATM   19  C3  UNL     1      91.313  93.393 -44.793  1.00  0.00     0.259 C 
HETATM   20  O2  UNL     1      90.959  92.499 -45.591  1.00  0.00    -0.267 OA
ATOM     21  H1  UNL     1      91.285  95.400 -44.122  1.00  0.00     0.163 HD
BRANCH  19  22
HETATM   22  C4  UNL     1      92.228  92.960 -43.711  1.00  0.00     0.074 A 
HETATM   23  C5  UNL     1      92.414  93.522 -42.483  1.00  0.00     0.027 A 
HETATM   24  C6  UNL     1      93.306  92.945 -41.661  1.00  0.00     0.033 A 
HETATM   25  C7  UNL     1      93.960  91.836 -42.128  1.00  0.00     0.075 A 
HETATM   26 CL1  UNL     1      95.182  90.869 -41.279  1.00  0.00    -0.076 Cl
HETATM   27  S1  UNL     1      93.310  91.633 -43.691  1.00  0.00    -0.072 SA
ENDBRANCH  19  22
ENDBRANCH  17  18
ENDBRANCH   2  17
TORSDOF 5
ENDMDL
MODEL 4
REMARK VINA RESULT: -6.375030482      0.900      1.353
REMARK  5 active torsions:
REMARK  status: ('A' for Active; 'I' for Inactive)
REMARK    1  A    between atoms: C1_2  and  C2_3 
REMARK       I    between atoms: C1_2  and  N2_14 
REMARK    2  A    between atoms: C2_3  and  N1_4 
REMARK       I    between atoms: N1_4  and  C3_6 
REMARK    3  A    between atoms: C3_6  and  C4_8 
REMARK    4  A    between atoms: N2_14  and  C8_16 
REMARK    5  A    between atoms: N3_19  and  C11_20 
ROOT
HETATM    1  O1  UNL     1      92.542  96.841 -40.503  1.00  0.00    -0.272 OA
HETATM    2  C1  UNL     1      91.963  96.111 -41.358  1.00  0.00     0.235 C 
HETATM    3  N2  UNL     1      91.314  96.748 -42.448  1.00  0.00    -0.355 N 
ATOM      4  H2  UNL     1      90.836  96.192 -43.157  1.00  0.00     0.162 HD
ENDROOT
BRANCH   3   5
HETATM    5  C8  UNL     1      91.333  98.176 -42.546  1.00  0.00     0.087 C 
HETATM    6  C9  UNL     1      92.238  98.703 -43.612  1.00  0.00     0.055 C 
HETATM    7  C10 UNL     1      91.683  98.563 -45.010  1.00  0.00     0.275 C 
HETATM    8  N3  UNL     1      90.338  99.072 -45.017  1.00  0.00     0.093 N 
HETATM    9  C17 UNL     1      89.465  98.395 -44.114  1.00  0.00     0.275 C 
HETATM   10  C18 UNL     1      89.946  98.767 -42.705  1.00  0.00     0.055 C 
BRANCH   8  11
HETATM   11  C11 UNL     1      89.816  99.316 -46.329  1.00  0.00     0.223 C 
HETATM   12  C12 UNL     1      90.759 100.237 -47.034  1.00  0.00     0.036 C 
HETATM   13  C13 UNL     1      90.182 101.135 -48.057  1.00  0.00     0.002 C 
HETATM   14  C14 UNL     1      88.816 101.661 -47.727  1.00  0.00     0.000 C 
HETATM   15  C15 UNL     1      87.928 100.423 -47.554  1.00  0.00     0.002 C 
HETATM   16  C16 UNL     1      88.414  99.800 -46.237  1.00  0.00     0.036 C 
ENDBRANCH   8  11
ENDBRANCH   3   5
BRANCH   2  17
HETATM   17  C2  UNL     1      91.941  94.633 -41.258  1.00  0.00     0.225 C 
BRANCH  17  18
HETATM   18  N1  UNL     1      91.428  94.099 -42.498  1.00  0.00    -0.348 N 
HETATM   19  C3  UNL     1      92.276  93.322 -43.309  1.00  0.00     0.259 C 
HETATM   20  O2  UNL     1      93.466  93.021 -43.074  1.00  0.00    -0.267 OA
ATOM     21  H1  UNL     1      90.465  94.282 -42.781  1.00  0.00     0.163 HD
BRANCH  19  22
HETATM   22  C4  UNL     1      91.721  92.796 -44.578  1.00  0.00     0.074 A 
HETATM   23  C5  UNL     1      91.610  91.499 -44.982  1.00  0.00     0.027 A 
HETATM   24  C6  UNL     1      91.064  91.265 -46.187  1.00  0.00     0.033 A 
HETATM   25  C7  UNL     1      90.665  92.354 -46.914  1.00  0.00     0.075 A 
HETATM   26 CL1  UNL     1      89.919  92.359 -48.524  1.00  0.00    -0.076 Cl
HETATM   27  S1  UNL     1      91.059  93.664 -45.898  1.00  0.00    -0.072 SA
ENDBRANCH  19  22
ENDBRANCH  17  18
ENDBRANCH   2  17
TORSDOF 5
ENDMDL
MODEL 5
REMARK VINA RESULT: -6.358773327      3.860      5.897
REMARK  5 active torsions:
REMARK  status: ('A' for Active; 'I' for Inactive)
REMARK    1  A    between atoms: C1_2  and  C2_3 
REMARK       I    between atoms: C1_2  and  N2_14 
REMARK    2  A    between atoms: C2_3  and  N1_4 
REMARK       I    between atoms: N1_4  and  C3_6 
REMARK    3  A    between atoms: C3_6  and  C4_8 
REMARK    4  A    between atoms: N2_14  and  C8_16 
REMARK    5  A    between atoms: N3_19  and  C11_20 
ROOT
HETATM    1  O1  UNL     1      92.118  98.207 -46.017  1.00  0.00    -0.272 OA
HETATM    2  C1  UNL     1      91.182  97.836 -45.252  1.00  0.00     0.235 C 
HETATM    3  N2  UNL     1      90.622  98.796 -44.369  1.00  0.00    -0.355 N 
ATOM      4  H2  UNL     1      89.865  98.533 -43.737  1.00  0.00     0.162 HD
ENDROOT
BRANCH   3   5
HETATM    5  C8  UNL     1      91.126 100.136 -44.370  1.00  0.00     0.087 C 
HETATM    6  C9  UNL     1      90.244 101.121 -43.673  1.00  0.00     0.055 C 
HETATM    7  C10 UNL     1      90.311 101.042 -42.165  1.00  0.00     0.275 C 
HETATM    8  N3  UNL     1      91.694 101.046 -41.773  1.00  0.00     0.093 N 
HETATM    9  C17 UNL     1      92.447  99.963 -42.316  1.00  0.00     0.275 C 
HETATM   10  C18 UNL     1      92.537 100.228 -43.825  1.00  0.00     0.055 C 
BRANCH   8  11
HETATM   11  C11 UNL     1      91.902 101.317 -40.381  1.00  0.00     0.223 C 
HETATM   12  C12 UNL     1      90.962 102.409 -39.982  1.00  0.00     0.036 C 
HETATM   13  C13 UNL     1      91.393 103.297 -38.881  1.00  0.00     0.002 C 
HETATM   14  C14 UNL     1      92.861 103.606 -38.866  1.00  0.00     0.000 C 
HETATM   15  C15 UNL     1      93.567 102.250 -38.754  1.00  0.00     0.002 C 
HETATM   16  C16 UNL     1      93.338 101.599 -40.126  1.00  0.00     0.036 C 
ENDBRANCH   8  11
ENDBRANCH   3   5
BRANCH   2  17
HETATM   17  C2  UNL     1      90.661  96.449 -45.248  1.00  0.00     0.225 C 
BRANCH  17  18
HETATM   18  N1  UNL     1      91.424  95.678 -44.295  1.00  0.00    -0.348 N 
HETATM   19  C3  UNL     1      91.540  94.287 -44.478  1.00  0.00     0.259 C 
HETATM   20  O2  UNL     1      91.048  93.612 -45.408  1.00  0.00    -0.267 OA
ATOM     21  H1  UNL     1      91.872  96.134 -43.500  1.00  0.00     0.163 HD
BRANCH  19  22
HETATM   22  C4  UNL     1      92.323  93.525 -43.477  1.00  0.00     0.074 A 
HETATM   23  C5  UNL     1      92.531  93.818 -42.162  1.00  0.00     0.027 A 
HETATM   24  C6  UNL     1      93.283  92.966 -41.445  1.00  0.00     0.033 A 
HETATM   25  C7  UNL     1      93.781  91.871 -42.097  1.00  0.00     0.075 A 
HETATM   26 CL1  UNL     1      94.796  90.583 -41.418  1.00  0.00    -0.076 Cl
HETATM   27  S1  UNL     1      93.186  92.060 -43.683  1.00  0.00    -0.072 SA
ENDBRANCH  19  22
ENDBRANCH  17  18
ENDBRANCH   2  17
TORSDOF 5
ENDMDL
