MODEL 1
REMARK VINA RESULT: -7.234609753      0.000      0.000
REMARK  7 active torsions:
REMARK  status: ('A' for Active; 'I' for Inactive)
REMARK    1  A    between atoms: C1_2  and  N1_3 
REMARK    2  A    between atoms: C1_2  and  N2_12 
REMARK    3  A    between atoms: N1_3  and  C2_5 
REMARK    4  A    between atoms: C2_5  and  C3_6 
REMARK    5  A    between atoms: N2_12  and  C9_14 
REMARK    6  A    between atoms: C9_14  and  C10_15 
REMARK    7  A    between atoms: N3_18  and  C13_19 
ROOT
HETATM    1  C9  UNL     1      91.793  95.381 -45.587  1.00  0.00     0.126 C 
ENDROOT
BRANCH   1   2
HETATM    2  N2  UNL     1      90.771  94.378 -45.735  1.00  0.00    -0.367 N 
ATOM      3  H2  UNL     1      89.810  94.665 -45.922  1.00  0.00     0.161 HD
BRANCH   2   4
HETATM    4  C1  UNL     1      91.076  92.997 -45.625  1.00  0.00     0.167 C 
HETATM    5  S1  UNL     1      91.404  92.086 -46.932  1.00  0.00    -0.041 SA
BRANCH   4   6
HETATM    6  N1  UNL     1      91.096  92.397 -44.342  1.00  0.00    -0.367 N 
ATOM      7  H1  UNL     1      90.310  92.529 -43.705  1.00  0.00     0.161 HD
BRANCH   6   8
HETATM    8  C2  UNL     1      92.231  91.597 -43.937  1.00  0.00     0.127 C 
BRANCH   8   9
HETATM    9  C3  UNL     1      93.414  92.467 -43.567  1.00  0.00     0.007 C 
HETATM   10  C4  UNL     1      93.049  93.341 -42.402  1.00  0.00     0.033 C 
HETATM   11  C5  UNL     1      93.773  93.022 -41.161  1.00  0.00    -0.030 C 
HETATM   12  C6  UNL     1      94.456  91.908 -40.956  1.00  0.00    -0.031 C 
HETATM   13  C7  UNL     1      94.512  90.892 -42.034  1.00  0.00     0.027 C 
HETATM   14  C8  UNL     1      94.628  91.625 -43.344  1.00  0.00     0.010 C 
ENDBRANCH   8   9
ENDBRANCH   6   8
ENDBRANCH   4   6
ENDBRANCH   2   4
ENDBRANCH   1   2
BRANCH   1  15
HETATM   15  C10 UNL     1      91.281  96.630 -44.908  1.00  0.00     0.006 C 
HETATM   16  C11 UNL     1      92.178  97.769 -45.235  1.00  0.00     0.026 C 
HETATM   17  C12 UNL     1      91.863  99.030 -44.476  1.00  0.00     0.125 C 
HETATM   18  N3  UNL     1      91.374  98.787 -43.150  1.00  0.00    -0.361 N 
HETATM   19  C16 UNL     1      90.747  97.581 -42.692  1.00  0.00     0.125 C 
HETATM   20  C17 UNL     1      91.212  96.345 -43.423  1.00  0.00     0.026 C 
BRANCH  18  21
HETATM   21  C13 UNL     1      91.532  99.860 -42.197  1.00  0.00     0.147 A 
HETATM   22  N4  UNL     1      92.559 100.131 -41.413  1.00  0.00    -0.327 N 
HETATM   23  C14 UNL     1      92.524 101.145 -40.614  1.00  0.00     0.112 A 
ATOM     24  H4  UNL     1      93.386  99.535 -41.440  1.00  0.00     0.169 HD
HETATM   25 CL1  UNL     1      93.887 101.547 -39.540  1.00  0.00    -0.064 Cl
HETATM   26  C15 UNL     1      91.391 101.918 -40.612  1.00  0.00     0.095 A 
HETATM   27  S2  UNL     1      90.436 101.112 -41.788  1.00  0.00    -0.063 SA
ENDBRANCH  18  21
ENDBRANCH   1  15
TORSDOF 7
ENDMDL
MODEL 2
REMARK VINA RESULT: -7.131369671      0.543      1.099
REMARK  7 active torsions:
REMARK  status: ('A' for Active; 'I' for Inactive)
REMARK    1  A    between atoms: C1_2  and  N1_3 
REMARK    2  A    between atoms: C1_2  and  N2_12 
REMARK    3  A    between atoms: N1_3  and  C2_5 
REMARK    4  A    between atoms: C2_5  and  C3_6 
REMARK    5  A    between atoms: N2_12  and  C9_14 
REMARK    6  A    between atoms: C9_14  and  C10_15 
REMARK    7  A    between atoms: N3_18  and  C13_19 
ROOT
HETATM    1  C9  UNL     1      90.654  95.384 -45.653  1.00  0.00     0.126 C 
ENDROOT
BRANCH   1   2
HETATM    2  N2  UNL     1      91.550  94.298 -45.957  1.00  0.00    -0.367 N 
ATOM      3  H2  UNL     1      92.475  94.502 -46.335  1.00  0.00     0.161 HD
BRANCH   2   4
HETATM    4  C1  UNL     1      91.167  92.949 -45.739  1.00  0.00     0.167 C 
HETATM    5  S1  UNL     1      90.795  91.955 -46.971  1.00  0.00    -0.041 SA
BRANCH   4   6
HETATM    6  N1  UNL     1      91.109  92.456 -44.412  1.00  0.00    -0.367 N 
ATOM      7  H1  UNL     1      90.316  92.692 -43.815  1.00  0.00     0.161 HD
BRANCH   6   8
HETATM    8  C2  UNL     1      92.174  91.619 -43.906  1.00  0.00     0.127 C 
BRANCH   8   9
HETATM    9  C3  UNL     1      93.397  92.438 -43.551  1.00  0.00     0.007 C 
HETATM   10  C4  UNL     1      93.082  93.332 -42.386  1.00  0.00     0.033 C 
HETATM   11  C5  UNL     1      93.804  92.986 -41.151  1.00  0.00    -0.030 C 
HETATM   12  C6  UNL     1      94.440  91.843 -40.949  1.00  0.00    -0.031 C 
HETATM   13  C7  UNL     1      94.441  90.823 -42.023  1.00  0.00     0.027 C 
HETATM   14  C8  UNL     1      94.576  91.544 -43.336  1.00  0.00     0.010 C 
ENDBRANCH   8   9
ENDBRANCH   6   8
ENDBRANCH   4   6
ENDBRANCH   2   4
ENDBRANCH   1   2
BRANCH   1  15
HETATM   15  C10 UNL     1      91.323  96.475 -44.850  1.00  0.00     0.006 C 
HETATM   16  C11 UNL     1      91.101  96.226 -43.402  1.00  0.00     0.026 C 
HETATM   17  C12 UNL     1      91.577  97.341 -42.512  1.00  0.00     0.125 C 
HETATM   18  N3  UNL     1      91.436  98.640 -43.104  1.00  0.00    -0.361 N 
HETATM   19  C16 UNL     1      91.356  98.921 -44.508  1.00  0.00     0.125 C 
HETATM   20  C17 UNL     1      90.750  97.797 -45.313  1.00  0.00     0.026 C 
BRANCH  18  21
HETATM   21  C13 UNL     1      91.368  99.760 -42.195  1.00  0.00     0.147 A 
HETATM   22  N4  UNL     1      92.257 100.165 -41.307  1.00  0.00    -0.327 N 
HETATM   23  C14 UNL     1      92.023 101.200 -40.571  1.00  0.00     0.112 A 
ATOM     24  H4  UNL     1      93.135  99.656 -41.201  1.00  0.00     0.169 HD
HETATM   25 CL1  UNL     1      93.195 101.782 -39.360  1.00  0.00    -0.064 Cl
HETATM   26  C15 UNL     1      90.830 101.853 -40.746  1.00  0.00     0.095 A 
HETATM   27  S2  UNL     1      90.113 100.908 -41.986  1.00  0.00    -0.063 SA
ENDBRANCH  18  21
ENDBRANCH   1  15
TORSDOF 7
ENDMDL
MODEL 3
REMARK VINA RESULT: -6.918470399      0.778      1.584
REMARK  7 active torsions:
REMARK  status: ('A' for Active; 'I' for Inactive)
REMARK    1  A    between atoms: C1_2  and  N1_3 
REMARK    2  A    between atoms: C1_2  and  N2_12 
REMARK    3  A    between atoms: N1_3  and  C2_5 
REMARK    4  A    between atoms: C2_5  and  C3_6 
REMARK    5  A    between atoms: N2_12  and  C9_14 
REMARK    6  A    between atoms: C9_14  and  C10_15 
REMARK    7  A    between atoms: N3_18  and  C13_19 
ROOT
HETATM    1  C9  UNL     1      91.111  95.487 -45.809  1.00  0.00     0.126 C 
ENDROOT
BRANCH   1   2
HETATM    2  N2  UNL     1      90.750  94.255 -45.158  1.00  0.00    -0.367 N 
ATOM      3  H2  UNL     1      90.112  94.278 -44.362  1.00  0.00     0.161 HD
BRANCH   2   4
HETATM    4  C1  UNL     1      91.264  93.011 -45.604  1.00  0.00     0.167 C 
HETATM    5  S1  UNL     1      90.822  92.362 -47.028  1.00  0.00    -0.041 SA
BRANCH   4   6
HETATM    6  N1  UNL     1      92.187  92.315 -44.785  1.00  0.00    -0.367 N 
ATOM      7  H1  UNL     1      92.351  91.319 -44.933  1.00  0.00     0.161 HD
BRANCH   6   8
HETATM    8  C2  UNL     1      92.897  93.019 -43.740  1.00  0.00     0.127 C 
BRANCH   8   9
HETATM    9  C3  UNL     1      92.611  92.419 -42.379  1.00  0.00     0.007 C 
HETATM   10  C4  UNL     1      92.376  90.942 -42.521  1.00  0.00     0.033 C 
HETATM   11  C5  UNL     1      93.420  90.106 -41.908  1.00  0.00    -0.030 C 
HETATM   12  C6  UNL     1      94.608  90.548 -41.526  1.00  0.00    -0.031 C 
HETATM   13  C7  UNL     1      94.936  91.980 -41.718  1.00  0.00     0.027 C 
HETATM   14  C8  UNL     1      93.696  92.776 -41.415  1.00  0.00     0.010 C 
ENDBRANCH   8   9
ENDBRANCH   6   8
ENDBRANCH   4   6
ENDBRANCH   2   4
ENDBRANCH   1   2
BRANCH   1  15
HETATM   15  C10 UNL     1      91.688  96.500 -44.848  1.00  0.00     0.006 C 
HETATM   16  C11 UNL     1      91.117  96.274 -43.495  1.00  0.00     0.026 C 
HETATM   17  C12 UNL     1      91.491  97.331 -42.491  1.00  0.00     0.125 C 
HETATM   18  N3  UNL     1      91.624  98.638 -43.067  1.00  0.00    -0.361 N 
HETATM   19  C16 UNL     1      91.896  98.928 -44.444  1.00  0.00     0.125 C 
HETATM   20  C17 UNL     1      91.377  97.876 -45.395  1.00  0.00     0.026 C 
BRANCH  18  21
HETATM   21  C13 UNL     1      91.467  99.758 -42.168  1.00  0.00     0.147 A 
HETATM   22  N4  UNL     1      92.299 100.208 -41.247  1.00  0.00    -0.327 N 
HETATM   23  C14 UNL     1      91.988 101.235 -40.528  1.00  0.00     0.112 A 
ATOM     24  H4  UNL     1      93.194  99.741 -41.103  1.00  0.00     0.169 HD
HETATM   25 CL1  UNL     1      93.080 101.875 -39.275  1.00  0.00    -0.064 Cl
HETATM   26  C15 UNL     1      90.773 101.831 -40.756  1.00  0.00     0.095 A 
HETATM   27  S2  UNL     1      90.153 100.848 -42.019  1.00  0.00    -0.063 SA
ENDBRANCH  18  21
ENDBRANCH   1  15
TORSDOF 7
ENDMDL
MODEL 4
REMARK VINA RESULT: -6.870666059      3.135      3.588
REMARK  7 active torsions:
REMARK  status: ('A' for Active; 'I' for Inactive)
REMARK    1  A    between atoms: C1_2  and  N1_3 
REMARK    2  A    between atoms: C1_2  and  N2_12 
REMARK    3  A    between atoms: N1_3  and  C2_5 
REMARK    4  A    between atoms: C2_5  and  C3_6 
REMARK    5  A    between atoms: N2_12  and  C9_14 
REMARK    6  A    between atoms: C9_14  and  C10_15 
REMARK    7  A    between atoms: N3_18  and  C13_19 
ROOT
HETATM    1  C9  UNL     1      91.798  94.953 -45.439  1.00  0.00     0.126 C 
ENDROOT
BRANCH   1   2
HETATM    2  N2  UNL     1      90.909  93.938 -45.942  1.00  0.00    -0.367 N 
ATOM      3  H2  UNL     1      90.110  94.211 -46.514  1.00  0.00     0.161 HD
BRANCH   2   4
HETATM    4  C1  UNL     1      91.124  92.565 -45.655  1.00  0.00     0.167 C 
HETATM    5  S1  UNL     1      91.361  91.471 -46.834  1.00  0.00    -0.041 SA
BRANCH   4   6
HETATM    6  N1  UNL     1      91.133  92.138 -44.304  1.00  0.00    -0.367 N 
ATOM      7  H1  UNL     1      90.341  92.350 -43.697  1.00  0.00     0.161 HD
BRANCH   6   8
HETATM    8  C2  UNL     1      92.266  91.403 -43.788  1.00  0.00     0.127 C 
BRANCH   8   9
HETATM    9  C3  UNL     1      93.438  92.320 -43.507  1.00  0.00     0.007 C 
HETATM   10  C4  UNL     1      93.081  93.264 -42.395  1.00  0.00     0.033 C 
HETATM   11  C5  UNL     1      93.841  93.045 -41.154  1.00  0.00    -0.030 C 
HETATM   12  C6  UNL     1      94.554  91.962 -40.892  1.00  0.00    -0.031 C 
HETATM   13  C7  UNL     1      94.607  90.877 -41.900  1.00  0.00     0.027 C 
HETATM   14  C8  UNL     1      94.675  91.520 -43.258  1.00  0.00     0.010 C 
ENDBRANCH   8   9
ENDBRANCH   6   8
ENDBRANCH   4   6
ENDBRANCH   2   4
ENDBRANCH   1   2
BRANCH   1  15
HETATM   15  C10 UNL     1      91.138  96.309 -45.355  1.00  0.00     0.006 C 
HETATM   16  C11 UNL     1      91.115  96.757 -43.938  1.00  0.00     0.026 C 
HETATM   17  C12 UNL     1      90.329  98.020 -43.711  1.00  0.00     0.125 C 
HETATM   18  N3  UNL     1      89.195  98.146 -44.581  1.00  0.00    -0.361 N 
HETATM   19  C16 UNL     1      89.033  97.501 -45.851  1.00  0.00     0.125 C 
HETATM   20  C17 UNL     1      89.753  96.179 -45.952  1.00  0.00     0.026 C 
BRANCH  18  21
HETATM   21  C13 UNL     1      88.126  99.003 -44.127  1.00  0.00     0.147 A 
HETATM   22  N4  UNL     1      86.897  99.119 -44.595  1.00  0.00    -0.327 N 
HETATM   23  C14 UNL     1      86.065  99.947 -44.057  1.00  0.00     0.112 A 
ATOM     24  H4  UNL     1      86.603  98.550 -45.389  1.00  0.00     0.169 HD
HETATM   25 CL1  UNL     1      84.398 100.135 -44.657  1.00  0.00    -0.064 Cl
HETATM   26  C15 UNL     1      86.504 100.693 -42.992  1.00  0.00     0.095 A 
HETATM   27  S2  UNL     1      88.120 100.134 -42.840  1.00  0.00    -0.063 SA
ENDBRANCH  18  21
ENDBRANCH   1  15
TORSDOF 7
ENDMDL
MODEL 5
REMARK VINA RESULT: -6.836146251      1.373      1.619
REMARK  7 active torsions:
REMARK  status: ('A' for Active; 'I' for Inactive)
REMARK    1  A    between atoms: C1_2  and  N1_3 
REMARK    2  A    between atoms: C1_2  and  N2_12 
REMARK    3  A    between atoms: N1_3  and  C2_5 
REMARK    4  A    between atoms: C2_5  and  C3_6 
REMARK    5  A    between atoms: N2_12  and  C9_14 
REMARK    6  A    between atoms: C9_14  and  C10_15 
REMARK    7  A    between atoms: N3_18  and  C13_19 
ROOT
HETATM    1  C9  UNL     1      90.419  94.381 -46.515  1.00  0.00     0.126 C 
ENDROOT
BRANCH   1   2
HETATM    2  N2  UNL     1      91.483  93.479 -46.156  1.00  0.00    -0.367 N 
ATOM      3  H2  UNL     1      92.450  93.794 -46.224  1.00  0.00     0.161 HD
BRANCH   2   4
HETATM    4  C1  UNL     1      91.209  92.160 -45.711  1.00  0.00     0.167 C 
HETATM    5  S1  UNL     1      90.916  90.948 -46.754  1.00  0.00    -0.041 SA
BRANCH   4   6
HETATM    6  N1  UNL     1      91.190  91.894 -44.320  1.00  0.00    -0.367 N 
ATOM      7  H1  UNL     1      90.376  92.153 -43.762  1.00  0.00     0.161 HD
BRANCH   6   8
HETATM    8  C2  UNL     1      92.326  91.257 -43.692  1.00  0.00     0.127 C 
BRANCH   8   9
HETATM    9  C3  UNL     1      93.456  92.240 -43.467  1.00  0.00     0.007 C 
HETATM   10  C4  UNL     1      93.059  93.225 -42.404  1.00  0.00     0.033 C 
HETATM   11  C5  UNL     1      93.832  93.107 -41.158  1.00  0.00    -0.030 C 
HETATM   12  C6  UNL     1      94.595  92.072 -40.843  1.00  0.00    -0.031 C 
HETATM   13  C7  UNL     1      94.695  90.939 -41.792  1.00  0.00     0.027 C 
HETATM   14  C8  UNL     1      94.729  91.512 -43.183  1.00  0.00     0.010 C 
ENDBRANCH   8   9
ENDBRANCH   6   8
ENDBRANCH   4   6
ENDBRANCH   2   4
ENDBRANCH   1   2
BRANCH   1  15
HETATM   15  C10 UNL     1      90.159  95.419 -45.449  1.00  0.00     0.006 C 
HETATM   16  C11 UNL     1      89.670  96.668 -46.089  1.00  0.00     0.026 C 
HETATM   17  C12 UNL     1      89.540  97.829 -45.140  1.00  0.00     0.125 C 
HETATM   18  N3  UNL     1      90.530  97.827 -44.102  1.00  0.00    -0.361 N 
HETATM   19  C16 UNL     1      91.253  96.682 -43.630  1.00  0.00     0.125 C 
HETATM   20  C17 UNL     1      91.448  95.618 -44.682  1.00  0.00     0.026 C 
BRANCH  18  21
HETATM   21  C13 UNL     1      90.817  99.099 -43.482  1.00  0.00     0.147 A 
HETATM   22  N4  UNL     1      91.940  99.794 -43.493  1.00  0.00    -0.327 N 
HETATM   23  C14 UNL     1      92.016 100.926 -42.877  1.00  0.00     0.112 A 
ATOM     24  H4  UNL     1      92.753  99.433 -43.992  1.00  0.00     0.169 HD
HETATM   25 CL1  UNL     1      93.510 101.897 -42.865  1.00  0.00    -0.064 Cl
HETATM   26  C15 UNL     1      90.898 101.373 -42.219  1.00  0.00     0.095 A 
HETATM   27  S2  UNL     1      89.792 100.100 -42.543  1.00  0.00    -0.063 SA
ENDBRANCH  18  21
ENDBRANCH   1  15
TORSDOF 7
ENDMDL
