MODEL 1
REMARK VINA RESULT: -6.633244271      0.000      0.000
REMARK  5 active torsions:
REMARK  status: ('A' for Active; 'I' for Inactive)
REMARK    1  A    between atoms: C2_2  and  C3_3 
REMARK    2  A    between atoms: C2_2  and  S1_24 
REMARK       I    between atoms: C3_3  and  N1_5 
REMARK    3  A    between atoms: N1_5  and  C4_7 
REMARK    4  A    between atoms: C7_10  and  N2_11 
REMARK       I    between atoms: N2_11  and  C8_13 
REMARK    5  A    between atoms: C8_13  and  C9_15 
ROOT
HETATM    1  C4  UNL     1      89.510  91.087 -48.810  1.00  0.00     0.056 A 
HETATM    2  C5  UNL     1      90.219  90.091 -48.217  1.00  0.00     0.033 A 
HETATM    3  C6  UNL     1      91.098  90.312 -47.166  1.00  0.00     0.032 A 
HETATM    4  C7  UNL     1      91.304  91.601 -46.650  1.00  0.00     0.036 A 
HETATM    5  C15 UNL     1      90.590  92.593 -47.248  1.00  0.00     0.055 A 
HETATM    6  C16 UNL     1      89.710  92.376 -48.301  1.00  0.00     0.062 A 
HETATM    7 CL1  UNL     1      88.825  93.706 -49.022  1.00  0.00    -0.082 Cl
ENDROOT
BRANCH   1   8
HETATM    8  N1  UNL     1      88.606  90.902 -49.884  1.00  0.00    -0.325 N 
HETATM    9  C3  UNL     1      88.855  91.022 -51.260  1.00  0.00     0.240 C 
HETATM   10  O1  UNL     1      89.948  91.320 -51.785  1.00  0.00    -0.272 OA
ATOM     11  H1  UNL     1      87.652  90.648 -49.624  1.00  0.00     0.169 HD
BRANCH   9  12
HETATM   12  C2  UNL     1      87.721  90.778 -52.206  1.00  0.00     0.196 C 
HETATM   13  C1  UNL     1      86.918  92.051 -52.311  1.00  0.00     0.036 C 
BRANCH  12  14
HETATM   14  S1  UNL     1      86.693  89.445 -51.620  1.00  0.00     0.153 S 
HETATM   15  C17 UNL     1      85.796  88.799 -53.010  1.00  0.00     0.162 C 
HETATM   16  O3  UNL     1      87.563  88.329 -51.063  1.00  0.00    -0.227 OA
HETATM   17  O4  UNL     1      85.777  89.849 -50.522  1.00  0.00    -0.227 OA
ENDBRANCH  12  14
ENDBRANCH   9  12
ENDBRANCH   1   8
BRANCH   4  18
HETATM   18  N2  UNL     1      92.200  91.750 -45.563  1.00  0.00    -0.327 N 
HETATM   19  C8  UNL     1      91.980  92.598 -44.483  1.00  0.00     0.226 C 
HETATM   20  O2  UNL     1      90.988  93.325 -44.343  1.00  0.00    -0.273 OA
ATOM     21  H2  UNL     1      93.060  91.201 -45.573  1.00  0.00     0.169 HD
BRANCH  19  22
HETATM   22  C9  UNL     1      93.018  92.642 -43.400  1.00  0.00     0.078 C 
HETATM   23  C10 UNL     1      93.613  91.287 -43.158  1.00  0.00     0.014 C 
HETATM   24  C11 UNL     1      94.788  91.446 -42.224  1.00  0.00     0.001 C 
HETATM   25  C12 UNL     1      94.464  92.185 -40.976  1.00  0.00     0.000 C 
HETATM   26  C13 UNL     1      93.611  93.393 -41.163  1.00  0.00     0.001 C 
HETATM   27  C14 UNL     1      92.445  93.135 -42.098  1.00  0.00     0.014 C 
ENDBRANCH  19  22
ENDBRANCH   4  18
TORSDOF 5
ENDMDL
MODEL 2
REMARK VINA RESULT: -6.550508158      2.513      3.141
REMARK  5 active torsions:
REMARK  status: ('A' for Active; 'I' for Inactive)
REMARK    1  A    between atoms: C2_2  and  C3_3 
REMARK    2  A    between atoms: C2_2  and  S1_24 
REMARK       I    between atoms: C3_3  and  N1_5 
REMARK    3  A    between atoms: N1_5  and  C4_7 
REMARK    4  A    between atoms: C7_10  and  N2_11 
REMARK       I    between atoms: N2_11  and  C8_13 
REMARK    5  A    between atoms: C8_13  and  C9_15 
ROOT
HETATM    1  C4  UNL     1      90.412  90.203 -48.955  1.00  0.00     0.056 A 
HETATM    2  C5  UNL     1      89.861  91.405 -48.640  1.00  0.00     0.033 A 
HETATM    3  C6  UNL     1      90.284  92.169 -47.562  1.00  0.00     0.032 A 
HETATM    4  C7  UNL     1      91.323  91.735 -46.725  1.00  0.00     0.036 A 
HETATM    5  C15 UNL     1      91.871  90.531 -47.048  1.00  0.00     0.055 A 
HETATM    6  C16 UNL     1      91.450  89.762 -48.126  1.00  0.00     0.062 A 
HETATM    7 CL1  UNL     1      92.203  88.220 -48.478  1.00  0.00    -0.082 Cl
ENDROOT
BRANCH   1   8
HETATM    8  N1  UNL     1      90.009  89.394 -50.045  1.00  0.00    -0.325 N 
HETATM    9  C3  UNL     1      88.806  88.687 -50.204  1.00  0.00     0.240 C 
HETATM   10  O1  UNL     1      87.861  88.653 -49.387  1.00  0.00    -0.272 OA
ATOM     11  H1  UNL     1      90.676  89.315 -50.813  1.00  0.00     0.169 HD
BRANCH   9  12
HETATM   12  C2  UNL     1      88.615  87.891 -51.457  1.00  0.00     0.196 C 
HETATM   13  C1  UNL     1      87.145  87.903 -51.798  1.00  0.00     0.036 C 
BRANCH  12  14
HETATM   14  S1  UNL     1      89.184  86.218 -51.229  1.00  0.00     0.153 S 
HETATM   15  C17 UNL     1      87.824  85.262 -50.604  1.00  0.00     0.162 C 
HETATM   16  O3  UNL     1      89.599  85.627 -52.567  1.00  0.00    -0.227 OA
HETATM   17  O4  UNL     1      90.372  86.118 -50.341  1.00  0.00    -0.227 OA
ENDBRANCH  12  14
ENDBRANCH   9  12
ENDBRANCH   1   8
BRANCH   4  18
HETATM   18  N2  UNL     1      91.716  92.576 -45.656  1.00  0.00    -0.327 N 
HETATM   19  C8  UNL     1      91.943  92.133 -44.359  1.00  0.00     0.226 C 
HETATM   20  O2  UNL     1      91.823  90.960 -43.978  1.00  0.00    -0.273 OA
ATOM     21  H2  UNL     1      91.841  93.570 -45.851  1.00  0.00     0.169 HD
BRANCH  19  22
HETATM   22  C9  UNL     1      92.364  93.144 -43.332  1.00  0.00     0.078 C 
HETATM   23  C10 UNL     1      92.940  92.479 -42.117  1.00  0.00     0.014 C 
HETATM   24  C11 UNL     1      93.537  93.547 -41.232  1.00  0.00     0.001 C 
HETATM   25  C12 UNL     1      92.598  94.656 -40.916  1.00  0.00     0.000 C 
HETATM   26  C13 UNL     1      91.787  95.141 -42.068  1.00  0.00     0.001 C 
HETATM   27  C14 UNL     1      91.210  94.001 -42.887  1.00  0.00     0.014 C 
ENDBRANCH  19  22
ENDBRANCH   4  18
TORSDOF 5
ENDMDL
MODEL 3
REMARK VINA RESULT: -6.535188971      1.273      1.674
REMARK  5 active torsions:
REMARK  status: ('A' for Active; 'I' for Inactive)
REMARK    1  A    between atoms: C2_2  and  C3_3 
REMARK    2  A    between atoms: C2_2  and  S1_24 
REMARK       I    between atoms: C3_3  and  N1_5 
REMARK    3  A    between atoms: N1_5  and  C4_7 
REMARK    4  A    between atoms: C7_10  and  N2_11 
REMARK       I    between atoms: N2_11  and  C8_13 
REMARK    5  A    between atoms: C8_13  and  C9_15 
ROOT
HETATM    1  C4  UNL     1      90.176  91.265 -49.317  1.00  0.00     0.056 A 
HETATM    2  C5  UNL     1      91.050  90.309 -48.905  1.00  0.00     0.033 A 
HETATM    3  C6  UNL     1      91.681  90.346 -47.670  1.00  0.00     0.032 A 
HETATM    4  C7  UNL     1      91.447  91.393 -46.763  1.00  0.00     0.036 A 
HETATM    5  C15 UNL     1      90.570  92.345 -47.184  1.00  0.00     0.055 A 
HETATM    6  C16 UNL     1      89.936  92.312 -48.419  1.00  0.00     0.062 A 
HETATM    7 CL1  UNL     1      88.819  93.577 -48.891  1.00  0.00    -0.082 Cl
ENDROOT
BRANCH   1   8
HETATM    8  N1  UNL     1      89.513  91.262 -50.568  1.00  0.00    -0.325 N 
HETATM    9  C3  UNL     1      89.929  91.850 -51.773  1.00  0.00     0.240 C 
HETATM   10  O1  UNL     1      90.986  92.491 -51.951  1.00  0.00    -0.272 OA
ATOM     11  H1  UNL     1      88.619  90.771 -50.597  1.00  0.00     0.169 HD
BRANCH   9  12
HETATM   12  C2  UNL     1      89.040  91.711 -52.970  1.00  0.00     0.196 C 
HETATM   13  C1  UNL     1      89.091  93.007 -53.741  1.00  0.00     0.036 C 
BRANCH  12  14
HETATM   14  S1  UNL     1      87.368  91.354 -52.468  1.00  0.00     0.153 S 
HETATM   15  C17 UNL     1      86.329  91.496 -53.902  1.00  0.00     0.162 C 
HETATM   16  O3  UNL     1      87.276  89.923 -51.961  1.00  0.00    -0.227 OA
HETATM   17  O4  UNL     1      86.889  92.222 -51.361  1.00  0.00    -0.227 OA
ENDBRANCH  12  14
ENDBRANCH   9  12
ENDBRANCH   1   8
BRANCH   4  18
HETATM   18  N2  UNL     1      92.110  91.355 -45.513  1.00  0.00    -0.327 N 
HETATM   19  C8  UNL     1      91.878  92.257 -44.481  1.00  0.00     0.226 C 
HETATM   20  O2  UNL     1      91.076  93.200 -44.529  1.00  0.00    -0.273 OA
ATOM     21  H2  UNL     1      92.801  90.621 -45.360  1.00  0.00     0.169 HD
BRANCH  19  22
HETATM   22  C9  UNL     1      92.654  92.085 -43.207  1.00  0.00     0.078 C 
HETATM   23  C10 UNL     1      92.842  93.395 -42.502  1.00  0.00     0.014 C 
HETATM   24  C11 UNL     1      93.429  93.119 -41.139  1.00  0.00     0.001 C 
HETATM   25  C12 UNL     1      94.656  92.281 -41.175  1.00  0.00     0.000 C 
HETATM   26  C13 UNL     1      94.598  91.120 -42.109  1.00  0.00     0.001 C 
HETATM   27  C14 UNL     1      94.016  91.495 -43.459  1.00  0.00     0.014 C 
ENDBRANCH  19  22
ENDBRANCH   4  18
TORSDOF 5
ENDMDL
MODEL 4
REMARK VINA RESULT: -6.485983156      1.721      2.338
REMARK  5 active torsions:
REMARK  status: ('A' for Active; 'I' for Inactive)
REMARK    1  A    between atoms: C2_2  and  C3_3 
REMARK    2  A    between atoms: C2_2  and  S1_24 
REMARK       I    between atoms: C3_3  and  N1_5 
REMARK    3  A    between atoms: N1_5  and  C4_7 
REMARK    4  A    between atoms: C7_10  and  N2_11 
REMARK       I    between atoms: N2_11  and  C8_13 
REMARK    5  A    between atoms: C8_13  and  C9_15 
ROOT
HETATM    1  C4  UNL     1      89.664  91.389 -49.055  1.00  0.00     0.056 A 
HETATM    2  C5  UNL     1      89.928  92.493 -48.308  1.00  0.00     0.033 A 
HETATM    3  C6  UNL     1      90.601  92.441 -47.096  1.00  0.00     0.032 A 
HETATM    4  C7  UNL     1      91.055  91.221 -46.568  1.00  0.00     0.036 A 
HETATM    5  C15 UNL     1      90.787  90.121 -47.322  1.00  0.00     0.055 A 
HETATM    6  C16 UNL     1      90.113  90.169 -48.536  1.00  0.00     0.062 A 
HETATM    7 CL1  UNL     1      89.804  88.707 -49.451  1.00  0.00    -0.082 Cl
ENDROOT
BRANCH   1   8
HETATM    8  N1  UNL     1      88.980  91.401 -50.295  1.00  0.00    -0.325 N 
HETATM    9  C3  UNL     1      89.495  91.692 -51.569  1.00  0.00     0.240 C 
HETATM   10  O1  UNL     1      90.677  91.996 -51.830  1.00  0.00    -0.272 OA
ATOM     11  H1  UNL     1      87.986  91.170 -50.258  1.00  0.00     0.169 HD
BRANCH   9  12
HETATM   12  C2  UNL     1      88.559  91.643 -52.736  1.00  0.00     0.196 C 
HETATM   13  C1  UNL     1      89.155  92.471 -53.847  1.00  0.00     0.036 C 
BRANCH  12  14
HETATM   14  S1  UNL     1      86.957  92.279 -52.281  1.00  0.00     0.153 S 
HETATM   15  C17 UNL     1      86.077  92.655 -53.778  1.00  0.00     0.162 C 
HETATM   16  O3  UNL     1      86.173  91.214 -51.530  1.00  0.00    -0.227 OA
HETATM   17  O4  UNL     1      87.028  93.459 -51.380  1.00  0.00    -0.227 OA
ENDBRANCH  12  14
ENDBRANCH   9  12
ENDBRANCH   1   8
BRANCH   4  18
HETATM   18  N2  UNL     1      91.753  91.246 -45.336  1.00  0.00    -0.327 N 
HETATM   19  C8  UNL     1      91.702  92.301 -44.433  1.00  0.00     0.226 C 
HETATM   20  O2  UNL     1      91.052  93.343 -44.594  1.00  0.00    -0.273 OA
ATOM     21  H2  UNL     1      92.330  90.439 -45.097  1.00  0.00     0.169 HD
BRANCH  19  22
HETATM   22  C9  UNL     1      92.492  92.179 -43.162  1.00  0.00     0.078 C 
HETATM   23  C10 UNL     1      92.701  93.518 -42.520  1.00  0.00     0.014 C 
HETATM   24  C11 UNL     1      93.302  93.298 -41.152  1.00  0.00     0.001 C 
HETATM   25  C12 UNL     1      94.521  92.447 -41.165  1.00  0.00     0.000 C 
HETATM   26  C13 UNL     1      94.441  91.246 -42.044  1.00  0.00     0.001 C 
HETATM   27  C14 UNL     1      93.845  91.565 -43.402  1.00  0.00     0.014 C 
ENDBRANCH  19  22
ENDBRANCH   4  18
TORSDOF 5
ENDMDL
MODEL 5
REMARK VINA RESULT: -6.477107154      1.278      2.208
REMARK  5 active torsions:
REMARK  status: ('A' for Active; 'I' for Inactive)
REMARK    1  A    between atoms: C2_2  and  C3_3 
REMARK    2  A    between atoms: C2_2  and  S1_24 
REMARK       I    between atoms: C3_3  and  N1_5 
REMARK    3  A    between atoms: N1_5  and  C4_7 
REMARK    4  A    between atoms: C7_10  and  N2_11 
REMARK       I    between atoms: N2_11  and  C8_13 
REMARK    5  A    between atoms: C8_13  and  C9_15 
ROOT
HETATM    1  C4  UNL     1      89.587  91.168 -49.125  1.00  0.00     0.056 A 
HETATM    2  C5  UNL     1      90.199  90.087 -48.576  1.00  0.00     0.033 A 
HETATM    3  C6  UNL     1      90.888  90.141 -47.372  1.00  0.00     0.032 A 
HETATM    4  C7  UNL     1      90.989  91.337 -46.644  1.00  0.00     0.036 A 
HETATM    5  C15 UNL     1      90.373  92.415 -47.201  1.00  0.00     0.055 A 
HETATM    6  C16 UNL     1      89.683  92.366 -48.406  1.00  0.00     0.062 A 
HETATM    7 CL1  UNL     1      88.915  93.798 -49.061  1.00  0.00    -0.082 Cl
ENDROOT
BRANCH   1   8
HETATM    8  N1  UNL     1      88.876  91.154 -50.350  1.00  0.00    -0.325 N 
HETATM    9  C3  UNL     1      87.673  90.494 -50.649  1.00  0.00     0.240 C 
HETATM   10  O1  UNL     1      87.007  89.791 -49.861  1.00  0.00    -0.272 OA
ATOM     11  H1  UNL     1      89.291  91.690 -51.112  1.00  0.00     0.169 HD
BRANCH   9  12
HETATM   12  C2  UNL     1      87.119  90.630 -52.033  1.00  0.00     0.196 C 
HETATM   13  C1  UNL     1      87.989  89.822 -52.965  1.00  0.00     0.036 C 
BRANCH  12  14
HETATM   14  S1  UNL     1      87.098  92.341 -52.533  1.00  0.00     0.153 S 
HETATM   15  C17 UNL     1      85.977  92.492 -53.902  1.00  0.00     0.162 C 
HETATM   16  O3  UNL     1      86.572  93.204 -51.397  1.00  0.00    -0.227 OA
HETATM   17  O4  UNL     1      88.445  92.870 -52.871  1.00  0.00    -0.227 OA
ENDBRANCH  12  14
ENDBRANCH   9  12
ENDBRANCH   1   8
BRANCH   4  18
HETATM   18  N2  UNL     1      91.689  91.313 -45.414  1.00  0.00    -0.327 N 
HETATM   19  C8  UNL     1      91.672  92.350 -44.488  1.00  0.00     0.226 C 
HETATM   20  O2  UNL     1      91.056  93.415 -44.627  1.00  0.00    -0.273 OA
ATOM     21  H2  UNL     1      92.240  90.484 -45.193  1.00  0.00     0.169 HD
BRANCH  19  22
HETATM   22  C9  UNL     1      92.459  92.177 -43.221  1.00  0.00     0.078 C 
HETATM   23  C10 UNL     1      92.712  93.495 -42.552  1.00  0.00     0.014 C 
HETATM   24  C11 UNL     1      93.307  93.228 -41.191  1.00  0.00     0.001 C 
HETATM   25  C12 UNL     1      94.498  92.338 -41.223  1.00  0.00     0.000 C 
HETATM   26  C13 UNL     1      94.377  91.158 -42.126  1.00  0.00     0.001 C 
HETATM   27  C14 UNL     1      93.791  91.524 -43.476  1.00  0.00     0.014 C 
ENDBRANCH  19  22
ENDBRANCH   4  18
TORSDOF 5
ENDMDL
