MODEL 1
REMARK VINA RESULT: -7.165464334      0.000      0.000
REMARK  5 active torsions:
REMARK  status: ('A' for Active; 'I' for Inactive)
REMARK    1  A    between atoms: C9_9  and  N1_10 
REMARK       I    between atoms: N1_10  and  C10_12 
REMARK    2  A    between atoms: C10_12  and  C11_14 
REMARK    3  A    between atoms: C11_14  and  N2_15 
REMARK    4  A    between atoms: C11_14  and  C17_24 
REMARK       I    between atoms: N2_15  and  C12_17 
REMARK    5  A    between atoms: C12_17  and  C13_19 
ROOT
HETATM    1  C11 UNL     1      92.389  92.337 -44.745  1.00  0.00     0.217 C 
ENDROOT
BRANCH   1   2
HETATM    2  C10 UNL     1      91.592  93.494 -44.309  1.00  0.00     0.245 C 
HETATM    3  N1  UNL     1      91.402  94.583 -45.188  1.00  0.00    -0.354 N 
ATOM      4  H1  UNL     1      91.830  94.541 -46.114  1.00  0.00     0.162 HD
HETATM    5  O1  UNL     1      91.051  93.580 -43.174  1.00  0.00    -0.271 OA
BRANCH   3   6
HETATM    6  C9  UNL     1      90.628  95.755 -44.836  1.00  0.00     0.088 C 
HETATM    7  C4  UNL     1      91.459  96.883 -44.327  1.00  0.00     0.009 C 
HETATM    8  C3  UNL     1      90.745  97.595 -43.196  1.00  0.00     0.011 C 
HETATM    9  C5  UNL     1      91.581  98.001 -45.347  1.00  0.00     0.011 C 
HETATM   10  C2  UNL     1      89.899  98.660 -43.839  1.00  0.00    -0.014 C 
HETATM   11  C1  UNL     1      90.215 100.016 -43.259  1.00  0.00     0.010 C 
HETATM   12  C6  UNL     1      90.192  98.587 -45.317  1.00  0.00    -0.010 C 
HETATM   13  C7  UNL     1      89.236  97.557 -45.904  1.00  0.00     0.007 C 
HETATM   14  C8  UNL     1      89.868  96.213 -46.083  1.00  0.00     0.026 C 
ENDBRANCH   3   6
ENDBRANCH   1   2
BRANCH   1  15
HETATM   15  N2  UNL     1      91.585  91.347 -45.439  1.00  0.00    -0.341 N 
HETATM   16  C12 UNL     1      91.315  91.384 -46.813  1.00  0.00     0.247 C 
HETATM   17  O2  UNL     1      91.797  92.337 -47.510  1.00  0.00    -0.271 OA
ATOM     18  H2  UNL     1      91.193  90.579 -44.893  1.00  0.00     0.163 HD
BRANCH  16  19
HETATM   19  C13 UNL     1      90.499  90.365 -47.474  1.00  0.00     0.213 C 
HETATM   20  C14 UNL     1      91.331  89.366 -48.267  1.00  0.00     0.043 C 
HETATM   21  C15 UNL     1      90.277  88.772 -49.181  1.00  0.00     0.029 C 
HETATM   22  C16 UNL     1      89.255  89.855 -49.252  1.00  0.00     0.168 C 
HETATM   23  O3  UNL     1      89.709  90.913 -48.476  1.00  0.00    -0.376 OA
ENDBRANCH  16  19
ENDBRANCH   1  15
BRANCH   1  24
HETATM   24  C17 UNL     1      93.097  91.709 -43.582  1.00  0.00     0.014 A 
HETATM   25  C18 UNL     1      94.376  91.938 -43.161  1.00  0.00     0.017 A 
HETATM   26  C19 UNL     1      94.809  91.260 -42.095  1.00  0.00     0.008 A 
HETATM   27  C20 UNL     1      93.933  90.385 -41.505  1.00  0.00     0.050 A 
HETATM   28  S1  UNL     1      92.534  90.547 -42.469  1.00  0.00    -0.104 SA
ENDBRANCH   1  24
TORSDOF 5
ENDMDL
MODEL 2
REMARK VINA RESULT: -6.993070519      3.433      8.850
REMARK  5 active torsions:
REMARK  status: ('A' for Active; 'I' for Inactive)
REMARK    1  A    between atoms: C9_9  and  N1_10 
REMARK       I    between atoms: N1_10  and  C10_12 
REMARK    2  A    between atoms: C10_12  and  C11_14 
REMARK    3  A    between atoms: C11_14  and  N2_15 
REMARK    4  A    between atoms: C11_14  and  C17_24 
REMARK       I    between atoms: N2_15  and  C12_17 
REMARK    5  A    between atoms: C12_17  and  C13_19 
ROOT
HETATM    1  C11 UNL     1      90.500  98.200 -44.673  1.00  0.00     0.217 C 
ENDROOT
BRANCH   1   2
HETATM    2  C10 UNL     1      91.328  96.995 -44.823  1.00  0.00     0.245 C 
HETATM    3  N1  UNL     1      91.082  95.872 -44.002  1.00  0.00    -0.354 N 
ATOM      4  H1  UNL     1      90.330  95.927 -43.315  1.00  0.00     0.162 HD
HETATM    5  O1  UNL     1      92.266  96.892 -45.658  1.00  0.00    -0.271 OA
BRANCH   3   6
HETATM    6  C9  UNL     1      91.850  94.647 -44.090  1.00  0.00     0.088 C 
HETATM    7  C4  UNL     1      91.918  93.896 -42.804  1.00  0.00     0.009 C 
HETATM    8  C3  UNL     1      93.293  93.286 -42.623  1.00  0.00     0.011 C 
HETATM    9  C5  UNL     1      91.046  92.652 -42.830  1.00  0.00     0.011 C 
HETATM   10  C2  UNL     1      93.242  91.933 -43.278  1.00  0.00    -0.014 C 
HETATM   11  C1  UNL     1      93.650  90.853 -42.307  1.00  0.00     0.010 C 
HETATM   12  C6  UNL     1      91.824  91.760 -43.764  1.00  0.00    -0.010 C 
HETATM   13  C7  UNL     1      91.759  92.371 -45.157  1.00  0.00     0.007 C 
HETATM   14  C8  UNL     1      91.204  93.759 -45.158  1.00  0.00     0.026 C 
ENDBRANCH   3   6
ENDBRANCH   1   2
BRANCH   1  15
HETATM   15  N2  UNL     1      90.678  98.832 -43.378  1.00  0.00    -0.341 N 
HETATM   16  C12 UNL     1      91.650  99.806 -43.111  1.00  0.00     0.247 C 
HETATM   17  O2  UNL     1      92.431 100.170 -44.051  1.00  0.00    -0.271 OA
ATOM     18  H2  UNL     1      90.059  98.550 -42.618  1.00  0.00     0.163 HD
BRANCH  16  19
HETATM   19  C13 UNL     1      91.795 100.417 -41.790  1.00  0.00     0.213 C 
HETATM   20  C14 UNL     1      90.573 101.226 -41.377  1.00  0.00     0.043 C 
HETATM   21  C15 UNL     1      91.155 102.090 -40.274  1.00  0.00     0.029 C 
HETATM   22  C16 UNL     1      92.604 102.137 -40.624  1.00  0.00     0.168 C 
HETATM   23  O3  UNL     1      92.780 101.396 -41.785  1.00  0.00    -0.376 OA
ENDBRANCH  16  19
ENDBRANCH   1  15
BRANCH   1  24
HETATM   24  C17 UNL     1      89.052  97.884 -44.903  1.00  0.00     0.014 A 
HETATM   25  C18 UNL     1      87.978  98.315 -44.178  1.00  0.00     0.017 A 
HETATM   26  C19 UNL     1      86.766  97.904 -44.560  1.00  0.00     0.008 A 
HETATM   27  C20 UNL     1      86.695  97.080 -45.654  1.00  0.00     0.050 A 
HETATM   28  S1  UNL     1      88.333  96.913 -46.105  1.00  0.00    -0.104 SA
ENDBRANCH   1  24
TORSDOF 5
ENDMDL
MODEL 3
REMARK VINA RESULT: -6.719188361      2.029      5.064
REMARK  5 active torsions:
REMARK  status: ('A' for Active; 'I' for Inactive)
REMARK    1  A    between atoms: C9_9  and  N1_10 
REMARK       I    between atoms: N1_10  and  C10_12 
REMARK    2  A    between atoms: C10_12  and  C11_14 
REMARK    3  A    between atoms: C11_14  and  N2_15 
REMARK    4  A    between atoms: C11_14  and  C17_24 
REMARK       I    between atoms: N2_15  and  C12_17 
REMARK    5  A    between atoms: C12_17  and  C13_19 
ROOT
HETATM    1  C11 UNL     1      90.927  93.307 -45.488  1.00  0.00     0.217 C 
ENDROOT
BRANCH   1   2
HETATM    2  C10 UNL     1      90.790  94.760 -45.667  1.00  0.00     0.245 C 
HETATM    3  N1  UNL     1      91.119  95.630 -44.604  1.00  0.00    -0.354 N 
ATOM      4  H1  UNL     1      91.445  95.224 -43.727  1.00  0.00     0.162 HD
HETATM    5  O1  UNL     1      90.389  95.295 -46.736  1.00  0.00    -0.271 OA
BRANCH   3   6
HETATM    6  C9  UNL     1      91.015  97.071 -44.704  1.00  0.00     0.088 C 
HETATM    7  C4  UNL     1      90.634  97.727 -43.421  1.00  0.00     0.009 C 
HETATM    8  C3  UNL     1      89.687  98.881 -43.681  1.00  0.00     0.011 C 
HETATM    9  C5  UNL     1      91.809  98.451 -42.786  1.00  0.00     0.011 C 
HETATM   10  C2  UNL     1      90.550 100.091 -43.911  1.00  0.00    -0.014 C 
HETATM   11  C1  UNL     1      90.173 101.204 -42.966  1.00  0.00     0.010 C 
HETATM   12  C6  UNL     1      91.973  99.629 -43.713  1.00  0.00    -0.010 C 
HETATM   13  C7  UNL     1      92.455  99.103 -45.057  1.00  0.00     0.007 C 
HETATM   14  C8  UNL     1      92.371  97.613 -45.163  1.00  0.00     0.026 C 
ENDBRANCH   3   6
ENDBRANCH   1   2
BRANCH   1  15
HETATM   15  N2  UNL     1      92.172  92.950 -44.830  1.00  0.00    -0.341 N 
HETATM   16  C12 UNL     1      92.298  92.760 -43.448  1.00  0.00     0.247 C 
HETATM   17  O2  UNL     1      91.268  92.904 -42.709  1.00  0.00    -0.271 OA
ATOM     18  H2  UNL     1      93.003  92.832 -45.410  1.00  0.00     0.163 HD
BRANCH  16  19
HETATM   19  C13 UNL     1      93.573  92.401 -42.825  1.00  0.00     0.213 C 
HETATM   20  C14 UNL     1      93.678  90.914 -42.513  1.00  0.00     0.043 C 
HETATM   21  C15 UNL     1      94.805  90.910 -41.498  1.00  0.00     0.029 C 
HETATM   22  C16 UNL     1      94.740  92.287 -40.930  1.00  0.00     0.168 C 
HETATM   23  O3  UNL     1      93.695  92.952 -41.557  1.00  0.00    -0.376 OA
ENDBRANCH  16  19
ENDBRANCH   1  15
BRANCH   1  24
HETATM   24  C17 UNL     1      90.810  92.594 -46.802  1.00  0.00     0.014 A 
HETATM   25  C18 UNL     1      89.852  92.762 -47.760  1.00  0.00     0.017 A 
HETATM   26  C19 UNL     1      89.939  92.013 -48.862  1.00  0.00     0.008 A 
HETATM   27  C20 UNL     1      90.986  91.130 -48.945  1.00  0.00     0.050 A 
HETATM   28  S1  UNL     1      91.809  91.386 -47.472  1.00  0.00    -0.104 SA
ENDBRANCH   1  24
TORSDOF 5
ENDMDL
MODEL 4
REMARK VINA RESULT: -6.671957781      2.036      5.074
REMARK  5 active torsions:
REMARK  status: ('A' for Active; 'I' for Inactive)
REMARK    1  A    between atoms: C9_9  and  N1_10 
REMARK       I    between atoms: N1_10  and  C10_12 
REMARK    2  A    between atoms: C10_12  and  C11_14 
REMARK    3  A    between atoms: C11_14  and  N2_15 
REMARK    4  A    between atoms: C11_14  and  C17_24 
REMARK       I    between atoms: N2_15  and  C12_17 
REMARK    5  A    between atoms: C12_17  and  C13_19 
ROOT
HETATM    1  C11 UNL     1      90.948  93.170 -45.250  1.00  0.00     0.217 C 
ENDROOT
BRANCH   1   2
HETATM    2  C10 UNL     1      91.191  94.616 -45.350  1.00  0.00     0.245 C 
HETATM    3  N1  UNL     1      90.842  95.460 -44.272  1.00  0.00    -0.354 N 
ATOM      4  H1  UNL     1      90.420  95.041 -43.443  1.00  0.00     0.162 HD
HETATM    5  O1  UNL     1      91.708  95.168 -46.358  1.00  0.00    -0.271 OA
BRANCH   3   6
HETATM    6  C9  UNL     1      91.054  96.893 -44.291  1.00  0.00     0.088 C 
HETATM    7  C4  UNL     1      89.927  97.650 -44.907  1.00  0.00     0.009 C 
HETATM    8  C3  UNL     1      90.457  98.808 -45.728  1.00  0.00     0.011 C 
HETATM    9  C5  UNL     1      89.103  98.384 -43.864  1.00  0.00     0.011 C 
HETATM   10  C2  UNL     1      90.575  99.973 -44.785  1.00  0.00    -0.014 C 
HETATM   11  C1  UNL     1      89.805 101.161 -45.306  1.00  0.00     0.010 C 
HETATM   12  C6  UNL     1      90.047  99.488 -43.458  1.00  0.00    -0.010 C 
HETATM   13  C7  UNL     1      91.221  98.853 -42.724  1.00  0.00     0.007 C 
HETATM   14  C8  UNL     1      91.246  97.362 -42.847  1.00  0.00     0.026 C 
ENDBRANCH   3   6
ENDBRANCH   1   2
BRANCH   1  15
HETATM   15  N2  UNL     1      91.964  92.494 -44.464  1.00  0.00    -0.341 N 
HETATM   16  C12 UNL     1      91.953  92.427 -43.064  1.00  0.00     0.247 C 
HETATM   17  O2  UNL     1      91.000  92.988 -42.428  1.00  0.00    -0.271 OA
ATOM     18  H2  UNL     1      92.732  92.042 -44.960  1.00  0.00     0.163 HD
BRANCH  16  19
HETATM   19  C13 UNL     1      92.999  91.736 -42.310  1.00  0.00     0.213 C 
HETATM   20  C14 UNL     1      93.697  92.643 -41.304  1.00  0.00     0.043 C 
HETATM   21  C15 UNL     1      94.969  91.860 -41.042  1.00  0.00     0.029 C 
HETATM   22  C16 UNL     1      95.121  91.053 -42.287  1.00  0.00     0.168 C 
HETATM   23  O3  UNL     1      94.062  91.372 -43.126  1.00  0.00    -0.376 OA
ENDBRANCH  16  19
ENDBRANCH   1  15
BRANCH   1  24
HETATM   24  C17 UNL     1      90.847  92.551 -46.613  1.00  0.00     0.014 A 
HETATM   25  C18 UNL     1      89.935  92.828 -47.590  1.00  0.00     0.017 A 
HETATM   26  C19 UNL     1      90.028  92.149 -48.736  1.00  0.00     0.008 A 
HETATM   27  C20 UNL     1      91.035  91.224 -48.842  1.00  0.00     0.050 A 
HETATM   28  S1  UNL     1      91.814  91.343 -47.327  1.00  0.00    -0.104 SA
ENDBRANCH   1  24
TORSDOF 5
ENDMDL
MODEL 5
REMARK VINA RESULT: -6.665055325      1.702      6.921
REMARK  5 active torsions:
REMARK  status: ('A' for Active; 'I' for Inactive)
REMARK    1  A    between atoms: C9_9  and  N1_10 
REMARK       I    between atoms: N1_10  and  C10_12 
REMARK    2  A    between atoms: C10_12  and  C11_14 
REMARK    3  A    between atoms: C11_14  and  N2_15 
REMARK    4  A    between atoms: C11_14  and  C17_24 
REMARK       I    between atoms: N2_15  and  C12_17 
REMARK    5  A    between atoms: C12_17  and  C13_19 
ROOT
HETATM    1  C11 UNL     1      91.620  92.279 -44.547  1.00  0.00     0.217 C 
ENDROOT
BRANCH   1   2
HETATM    2  C10 UNL     1      91.756  91.616 -45.852  1.00  0.00     0.245 C 
HETATM    3  N1  UNL     1      90.615  91.432 -46.665  1.00  0.00    -0.354 N 
ATOM      4  H1  UNL     1      89.714  91.765 -46.321  1.00  0.00     0.162 HD
HETATM    5  O1  UNL     1      92.852  91.191 -46.307  1.00  0.00    -0.271 OA
BRANCH   3   6
HETATM    6  C9  UNL     1      90.667  90.793 -47.964  1.00  0.00     0.088 C 
HETATM    7  C4  UNL     1      89.462  89.970 -48.267  1.00  0.00     0.009 C 
HETATM    8  C3  UNL     1      89.859  88.708 -49.006  1.00  0.00     0.011 C 
HETATM    9  C5  UNL     1      88.564  90.640 -49.293  1.00  0.00     0.011 C 
HETATM   10  C2  UNL     1      89.849  89.057 -50.469  1.00  0.00    -0.014 C 
HETATM   11  C1  UNL     1      88.951  88.118 -51.236  1.00  0.00     0.010 C 
HETATM   12  C6  UNL     1      89.381  90.489 -50.552  1.00  0.00    -0.010 C 
HETATM   13  C7  UNL     1      90.620  91.364 -50.413  1.00  0.00     0.007 C 
HETATM   14  C8  UNL     1      90.810  91.887 -49.025  1.00  0.00     0.026 C 
ENDBRANCH   3   6
ENDBRANCH   1   2
BRANCH   1  15
HETATM   15  N2  UNL     1      91.917  93.698 -44.619  1.00  0.00    -0.341 N 
HETATM   16  C12 UNL     1      91.148  94.622 -45.339  1.00  0.00     0.247 C 
HETATM   17  O2  UNL     1      90.122  94.207 -45.974  1.00  0.00    -0.271 OA
ATOM     18  H2  UNL     1      92.734  94.043 -44.114  1.00  0.00     0.163 HD
BRANCH  16  19
HETATM   19  C13 UNL     1      91.483  96.045 -45.385  1.00  0.00     0.213 C 
HETATM   20  C14 UNL     1      91.297  96.738 -44.042  1.00  0.00     0.043 C 
HETATM   21  C15 UNL     1      91.240  98.192 -44.470  1.00  0.00     0.029 C 
HETATM   22  C16 UNL     1      90.775  98.099 -45.884  1.00  0.00     0.168 C 
HETATM   23  O3  UNL     1      90.592  96.755 -46.179  1.00  0.00    -0.376 OA
ENDBRANCH  16  19
ENDBRANCH   1  15
BRANCH   1  24
HETATM   24  C17 UNL     1      92.489  91.617 -43.519  1.00  0.00     0.014 A 
HETATM   25  C18 UNL     1      92.162  90.581 -42.692  1.00  0.00     0.017 A 
HETATM   26  C19 UNL     1      93.097  90.146 -41.843  1.00  0.00     0.008 A 
HETATM   27  C20 UNL     1      94.315  90.776 -41.869  1.00  0.00     0.050 A 
HETATM   28  S1  UNL     1      94.102  91.955 -43.085  1.00  0.00    -0.104 SA
ENDBRANCH   1  24
TORSDOF 5
ENDMDL
