MODEL 1
REMARK VINA RESULT: -6.022446688      0.000      0.000
REMARK  6 active torsions:
REMARK  status: ('A' for Active; 'I' for Inactive)
REMARK    1  A    between atoms: C2_2  and  C3_3 
REMARK    2  A    between atoms: C3_3  and  C5_5 
REMARK    3  A    between atoms: C5_5  and  N1_6 
REMARK    4  A    between atoms: C5_5  and  C18_23 
REMARK       I    between atoms: N1_6  and  C6_8 
REMARK    5  A    between atoms: C6_8  and  O2_10 
REMARK    6  A    between atoms: O2_10  and  C7_11 
ROOT
HETATM    1  O2  UNL     1      90.973  96.378 -43.443  1.00  0.00    -0.298 OA
ENDROOT
BRANCH   1   2
HETATM    2  C6  UNL     1      91.280  95.160 -42.811  1.00  0.00     0.361 C 
HETATM    3  N1  UNL     1      91.561  94.007 -43.576  1.00  0.00    -0.322 N 
ATOM      4  H1  UNL     1      91.547  94.035 -44.596  1.00  0.00     0.165 HD
HETATM    5  O1  UNL     1      91.282  95.187 -41.561  1.00  0.00    -0.238 OA
BRANCH   3   6
HETATM    6  C5  UNL     1      91.875  92.756 -42.852  1.00  0.00     0.191 C 
BRANCH   6   7
HETATM    7  C3  UNL     1      93.353  92.701 -42.590  1.00  0.00     0.014 C 
HETATM    8  C4  UNL     1      94.095  91.856 -43.591  1.00  0.00     0.012 C 
BRANCH   7   9
HETATM    9  C2  UNL     1      93.622  92.159 -41.216  1.00  0.00     0.002 C 
HETATM   10  C1  UNL     1      94.508  90.928 -41.218  1.00  0.00     0.005 C 
ENDBRANCH   7   9
ENDBRANCH   6   7
BRANCH   6  11
HETATM   11  C18 UNL     1      91.338  91.681 -43.685  1.00  0.00     0.197 C 
HETATM   12  O3  UNL     1      91.285  90.477 -43.243  1.00  0.00    -0.646 OA
HETATM   13  O4  UNL     1      90.851  91.819 -44.975  1.00  0.00    -0.646 OA
ENDBRANCH   6  11
ENDBRANCH   3   6
ENDBRANCH   1   2
BRANCH   1  14
HETATM   14  C7  UNL     1      90.553  97.500 -42.686  1.00  0.00     0.142 C 
HETATM   15  C8  UNL     1      91.698  98.492 -42.709  1.00  0.00     0.017 C 
HETATM   16  C9  UNL     1      91.368  99.750 -41.953  1.00  0.00     0.012 C 
HETATM   17  C17 UNL     1      91.976  98.825 -44.153  1.00  0.00     0.028 C 
HETATM   18  C10 UNL     1      90.120 100.362 -42.543  1.00  0.00    -0.012 C 
HETATM   19  C11 UNL     1      88.996  99.368 -42.446  1.00  0.00     0.012 C 
HETATM   20  C16 UNL     1      90.430 100.771 -43.955  1.00  0.00     0.026 C 
HETATM   21  C12 UNL     1      89.338  98.133 -43.279  1.00  0.00     0.021 C 
HETATM   22  C13 UNL     1      89.567  98.619 -44.688  1.00  0.00     0.007 C 
HETATM   23  C14 UNL     1      89.588  97.517 -45.697  1.00  0.00     0.012 C 
HETATM   24  C15 UNL     1      90.773  99.504 -44.743  1.00  0.00     0.022 C 
HETATM   25 BR1  UNL     1      91.163  99.935 -46.588  1.00  0.00    -0.085 Br
ENDBRANCH   1  14
TORSDOF 6
ENDMDL
MODEL 2
REMARK VINA RESULT: -6.013736714      5.016      7.854
REMARK  6 active torsions:
REMARK  status: ('A' for Active; 'I' for Inactive)
REMARK    1  A    between atoms: C2_2  and  C3_3 
REMARK    2  A    between atoms: C3_3  and  C5_5 
REMARK    3  A    between atoms: C5_5  and  N1_6 
REMARK    4  A    between atoms: C5_5  and  C18_23 
REMARK       I    between atoms: N1_6  and  C6_8 
REMARK    5  A    between atoms: C6_8  and  O2_10 
REMARK    6  A    between atoms: O2_10  and  C7_11 
ROOT
HETATM    1  O2  UNL     1      89.830  91.540 -47.008  1.00  0.00    -0.298 OA
ENDROOT
BRANCH   1   2
HETATM    2  C6  UNL     1      90.745  92.160 -46.138  1.00  0.00     0.361 C 
HETATM    3  N1  UNL     1      91.049  91.580 -44.888  1.00  0.00    -0.322 N 
ATOM      4  H1  UNL     1      90.615  90.705 -44.592  1.00  0.00     0.165 HD
HETATM    5  O1  UNL     1      91.244  93.227 -46.555  1.00  0.00    -0.238 OA
BRANCH   3   6
HETATM    6  C5  UNL     1      92.019  92.281 -44.018  1.00  0.00     0.191 C 
BRANCH   6   7
HETATM    7  C3  UNL     1      92.798  91.264 -43.234  1.00  0.00     0.014 C 
HETATM    8  C4  UNL     1      91.916  90.319 -42.461  1.00  0.00     0.012 C 
BRANCH   7   9
HETATM    9  C2  UNL     1      93.728  91.944 -42.272  1.00  0.00     0.002 C 
HETATM   10  C1  UNL     1      94.623  90.979 -41.518  1.00  0.00     0.005 C 
ENDBRANCH   7   9
ENDBRANCH   6   7
BRANCH   6  11
HETATM   11  C18 UNL     1      91.222  93.218 -43.227  1.00  0.00     0.197 C 
HETATM   12  O3  UNL     1      91.272  94.479 -43.464  1.00  0.00    -0.646 OA
HETATM   13  O4  UNL     1      90.371  92.884 -42.187  1.00  0.00    -0.646 OA
ENDBRANCH   6  11
ENDBRANCH   3   6
ENDBRANCH   1   2
BRANCH   1  14
HETATM   14  C7  UNL     1      90.281  90.854 -48.163  1.00  0.00     0.142 C 
HETATM   15  C8  UNL     1      89.344  89.680 -48.363  1.00  0.00     0.017 C 
HETATM   16  C9  UNL     1      89.703  88.874 -49.582  1.00  0.00     0.012 C 
HETATM   17  C17 UNL     1      87.951  90.235 -48.513  1.00  0.00     0.028 C 
HETATM   18  C10 UNL     1      89.686  89.781 -50.789  1.00  0.00    -0.012 C 
HETATM   19  C11 UNL     1      90.670  90.897 -50.575  1.00  0.00     0.012 C 
HETATM   20  C16 UNL     1      88.275  90.263 -50.984  1.00  0.00     0.026 C 
HETATM   21  C12 UNL     1      90.237  91.732 -49.370  1.00  0.00     0.021 C 
HETATM   22  C13 UNL     1      88.846  92.230 -49.674  1.00  0.00     0.007 C 
HETATM   23  C14 UNL     1      88.398  93.323 -48.760  1.00  0.00     0.012 C 
HETATM   24  C15 UNL     1      87.888  91.083 -49.751  1.00  0.00     0.022 C 
HETATM   25 BR1  UNL     1      86.088  91.768 -49.927  1.00  0.00    -0.085 Br
ENDBRANCH   1  14
TORSDOF 6
ENDMDL
MODEL 3
REMARK VINA RESULT: -5.979669232      5.620      9.008
REMARK  6 active torsions:
REMARK  status: ('A' for Active; 'I' for Inactive)
REMARK    1  A    between atoms: C2_2  and  C3_3 
REMARK    2  A    between atoms: C3_3  and  C5_5 
REMARK    3  A    between atoms: C5_5  and  N1_6 
REMARK    4  A    between atoms: C5_5  and  C18_23 
REMARK       I    between atoms: N1_6  and  C6_8 
REMARK    5  A    between atoms: C6_8  and  O2_10 
REMARK    6  A    between atoms: O2_10  and  C7_11 
ROOT
HETATM    1  O2  UNL     1      89.569  91.326 -48.072  1.00  0.00    -0.298 OA
ENDROOT
BRANCH   1   2
HETATM    2  C6  UNL     1      90.495  91.963 -47.227  1.00  0.00     0.361 C 
HETATM    3  N1  UNL     1      90.058  92.880 -46.247  1.00  0.00    -0.322 N 
ATOM      4  H1  UNL     1      89.067  93.097 -46.133  1.00  0.00     0.165 HD
HETATM    5  O1  UNL     1      91.693  91.657 -47.413  1.00  0.00    -0.238 OA
BRANCH   3   6
HETATM    6  C5  UNL     1      91.081  93.517 -45.390  1.00  0.00     0.191 C 
BRANCH   6   7
HETATM    7  C3  UNL     1      90.976  92.955 -44.001  1.00  0.00     0.014 C 
HETATM    8  C4  UNL     1      91.409  93.931 -42.940  1.00  0.00     0.012 C 
BRANCH   7   9
HETATM    9  C2  UNL     1      91.807  91.712 -43.874  1.00  0.00     0.002 C 
HETATM   10  C1  UNL     1      93.199  91.972 -43.330  1.00  0.00     0.005 C 
ENDBRANCH   7   9
ENDBRANCH   6   7
BRANCH   6  11
HETATM   11  C18 UNL     1      90.847  94.956 -45.512  1.00  0.00     0.197 C 
HETATM   12  O3  UNL     1      89.653  95.419 -45.595  1.00  0.00    -0.646 OA
HETATM   13  O4  UNL     1      91.825  95.936 -45.553  1.00  0.00    -0.646 OA
ENDBRANCH   6  11
ENDBRANCH   3   6
ENDBRANCH   1   2
BRANCH   1  14
HETATM   14  C7  UNL     1      89.540  89.913 -48.178  1.00  0.00     0.142 C 
HETATM   15  C8  UNL     1      88.109  89.532 -48.501  1.00  0.00     0.017 C 
HETATM   16  C9  UNL     1      87.946  88.045 -48.665  1.00  0.00     0.012 C 
HETATM   17  C17 UNL     1      87.736  90.228 -49.785  1.00  0.00     0.028 C 
HETATM   18  C10 UNL     1      88.882  87.567 -49.748  1.00  0.00    -0.012 C 
HETATM   19  C11 UNL     1      90.293  87.912 -49.362  1.00  0.00     0.012 C 
HETATM   20  C16 UNL     1      88.451  88.198 -51.042  1.00  0.00     0.026 C 
HETATM   21  C12 UNL     1      90.438  89.431 -49.269  1.00  0.00     0.021 C 
HETATM   22  C13 UNL     1      90.053  89.978 -50.621  1.00  0.00     0.007 C 
HETATM   23  C14 UNL     1      90.448  91.406 -50.814  1.00  0.00     0.012 C 
HETATM   24  C15 UNL     1      88.606  89.714 -50.896  1.00  0.00     0.022 C 
HETATM   25 BR1  UNL     1      88.094  90.611 -52.532  1.00  0.00    -0.085 Br
ENDBRANCH   1  14
TORSDOF 6
ENDMDL
MODEL 4
REMARK VINA RESULT: -5.935200135      1.705      2.345
REMARK  6 active torsions:
REMARK  status: ('A' for Active; 'I' for Inactive)
REMARK    1  A    between atoms: C2_2  and  C3_3 
REMARK    2  A    between atoms: C3_3  and  C5_5 
REMARK    3  A    between atoms: C5_5  and  N1_6 
REMARK    4  A    between atoms: C5_5  and  C18_23 
REMARK       I    between atoms: N1_6  and  C6_8 
REMARK    5  A    between atoms: C6_8  and  O2_10 
REMARK    6  A    between atoms: O2_10  and  C7_11 
ROOT
HETATM    1  O2  UNL     1      90.779  96.621 -45.658  1.00  0.00    -0.298 OA
ENDROOT
BRANCH   1   2
HETATM    2  C6  UNL     1      90.389  95.302 -45.369  1.00  0.00     0.361 C 
HETATM    3  N1  UNL     1      91.272  94.422 -44.706  1.00  0.00    -0.322 N 
ATOM      4  H1  UNL     1      92.205  94.725 -44.425  1.00  0.00     0.165 HD
HETATM    5  O1  UNL     1      89.235  94.989 -45.736  1.00  0.00    -0.238 OA
BRANCH   3   6
HETATM    6  C5  UNL     1      90.802  93.048 -44.430  1.00  0.00     0.191 C 
BRANCH   6   7
HETATM    7  C3  UNL     1      91.486  92.534 -43.196  1.00  0.00     0.014 C 
HETATM    8  C4  UNL     1      91.249  93.404 -41.990  1.00  0.00     0.012 C 
BRANCH   7   9
HETATM    9  C2  UNL     1      92.966  92.426 -43.422  1.00  0.00     0.002 C 
HETATM   10  C1  UNL     1      93.633  91.384 -42.545  1.00  0.00     0.005 C 
ENDBRANCH   7   9
ENDBRANCH   6   7
BRANCH   6  11
HETATM   11  C18 UNL     1      91.061  92.296 -45.658  1.00  0.00     0.197 C 
HETATM   12  O3  UNL     1      90.737  91.058 -45.747  1.00  0.00    -0.646 OA
HETATM   13  O4  UNL     1      91.654  92.797 -46.806  1.00  0.00    -0.646 OA
ENDBRANCH   6  11
ENDBRANCH   3   6
ENDBRANCH   1   2
BRANCH   1  14
HETATM   14  C7  UNL     1      91.495  97.389 -44.707  1.00  0.00     0.142 C 
HETATM   15  C8  UNL     1      92.016  98.610 -45.438  1.00  0.00     0.017 C 
HETATM   16  C9  UNL     1      92.782  99.529 -44.527  1.00  0.00     0.012 C 
HETATM   17  C17 UNL     1      90.824  99.336 -46.008  1.00  0.00     0.028 C 
HETATM   18  C10 UNL     1      91.888  99.936 -43.380  1.00  0.00    -0.012 C 
HETATM   19  C11 UNL     1      91.442  98.702 -42.646  1.00  0.00     0.012 C 
HETATM   20  C16 UNL     1      90.747 100.735 -43.946  1.00  0.00     0.026 C 
HETATM   21  C12 UNL     1      90.612  97.826 -43.584  1.00  0.00     0.021 C 
HETATM   22  C13 UNL     1      89.457  98.676 -44.052  1.00  0.00     0.007 C 
HETATM   23  C14 UNL     1      88.372  97.888 -44.709  1.00  0.00     0.012 C 
HETATM   24  C15 UNL     1      89.955  99.818 -44.881  1.00  0.00     0.022 C 
HETATM   25 BR1  UNL     1      88.445 100.760 -45.639  1.00  0.00    -0.085 Br
ENDBRANCH   1  14
TORSDOF 6
ENDMDL
MODEL 5
REMARK VINA RESULT: -5.926086571      1.271      2.470
REMARK  6 active torsions:
REMARK  status: ('A' for Active; 'I' for Inactive)
REMARK    1  A    between atoms: C2_2  and  C3_3 
REMARK    2  A    between atoms: C3_3  and  C5_5 
REMARK    3  A    between atoms: C5_5  and  N1_6 
REMARK    4  A    between atoms: C5_5  and  C18_23 
REMARK       I    between atoms: N1_6  and  C6_8 
REMARK    5  A    between atoms: C6_8  and  O2_10 
REMARK    6  A    between atoms: O2_10  and  C7_11 
ROOT
HETATM    1  O2  UNL     1      90.985  96.638 -42.355  1.00  0.00    -0.298 OA
ENDROOT
BRANCH   1   2
HETATM    2  C6  UNL     1      91.259  95.302 -42.014  1.00  0.00     0.361 C 
HETATM    3  N1  UNL     1      91.500  94.341 -43.020  1.00  0.00    -0.322 N 
ATOM      4  H1  UNL     1      91.481  94.596 -44.008  1.00  0.00     0.165 HD
HETATM    5  O1  UNL     1      91.270  95.050 -40.790  1.00  0.00    -0.238 OA
BRANCH   3   6
HETATM    6  C5  UNL     1      91.781  92.952 -42.597  1.00  0.00     0.191 C 
BRANCH   6   7
HETATM    7  C3  UNL     1      93.250  92.815 -42.312  1.00  0.00     0.014 C 
HETATM    8  C4  UNL     1      94.030  92.296 -43.491  1.00  0.00     0.012 C 
BRANCH   7   9
HETATM    9  C2  UNL     1      93.475  91.893 -41.148  1.00  0.00     0.002 C 
HETATM   10  C1  UNL     1      94.224  90.628 -41.520  1.00  0.00     0.005 C 
ENDBRANCH   7   9
ENDBRANCH   6   7
BRANCH   6  11
HETATM   11  C18 UNL     1      91.261  92.107 -43.670  1.00  0.00     0.197 C 
HETATM   12  O3  UNL     1      90.740  92.630 -44.720  1.00  0.00    -0.646 OA
HETATM   13  O4  UNL     1      91.265  90.721 -43.686  1.00  0.00    -0.646 OA
ENDBRANCH   6  11
ENDBRANCH   3   6
ENDBRANCH   1   2
BRANCH   1  14
HETATM   14  C7  UNL     1      91.051  97.069 -43.704  1.00  0.00     0.142 C 
HETATM   15  C8  UNL     1      89.644  97.473 -44.098  1.00  0.00     0.017 C 
HETATM   16  C9  UNL     1      89.579  97.977 -45.514  1.00  0.00     0.012 C 
HETATM   17  C17 UNL     1      89.206  98.561 -43.151  1.00  0.00     0.028 C 
HETATM   18  C10 UNL     1      90.530  99.140 -45.663  1.00  0.00    -0.012 C 
HETATM   19  C11 UNL     1      91.920  98.682 -45.320  1.00  0.00     0.012 C 
HETATM   20  C16 UNL     1      90.038 100.254 -44.782  1.00  0.00     0.026 C 
HETATM   21  C12 UNL     1      91.963  98.241 -43.858  1.00  0.00     0.021 C 
HETATM   22  C13 UNL     1      91.522  99.430 -43.041  1.00  0.00     0.007 C 
HETATM   23  C14 UNL     1      91.816  99.286 -41.583  1.00  0.00     0.012 C 
HETATM   24  C15 UNL     1      90.092  99.761 -43.333  1.00  0.00     0.022 C 
HETATM   25 BR1  UNL     1      89.497 101.145 -42.121  1.00  0.00    -0.085 Br
ENDBRANCH   1  14
TORSDOF 6
ENDMDL
