MODEL 1
REMARK VINA RESULT: -6.876867065      0.000      0.000
REMARK  8 active torsions:
REMARK  status: ('A' for Active; 'I' for Inactive)
REMARK    1  A    between atoms: O1_2  and  C2_3 
REMARK    2  A    between atoms: C2_3  and  C3_5 
REMARK    3  A    between atoms: C3_5  and  O3_6 
REMARK    4  A    between atoms: O3_6  and  C4_7 
REMARK    5  A    between atoms: C6_9  and  N1_10 
REMARK    6  A    between atoms: N1_10  and  C7_12 
REMARK    7  A    between atoms: C7_12  and  N2_14 
REMARK    8  A    between atoms: N2_14  and  C8_16 
ROOT
HETATM    1  N1  UNL     1      90.949  92.288 -45.060  1.00  0.00    -0.333 N 
ATOM      2  H1  UNL     1      90.137  91.687 -44.915  1.00  0.00     0.168 HD
ENDROOT
BRANCH   1   3
HETATM    3  C6  UNL     1      91.919  92.327 -44.047  1.00  0.00     0.037 A 
HETATM    4  C5  UNL     1      91.708  93.245 -43.008  1.00  0.00     0.068 A 
HETATM    5  C4  UNL     1      92.647  93.370 -42.010  1.00  0.00     0.093 A 
HETATM    6  C20 UNL     1      93.809  92.624 -41.974  1.00  0.00     0.067 A 
HETATM    7  C19 UNL     1      94.012  91.728 -42.989  1.00  0.00     0.029 A 
HETATM    8 CL1  UNL     1      94.966  92.836 -40.663  1.00  0.00    -0.081 Cl
HETATM    9  C18 UNL     1      93.083  91.595 -43.993  1.00  0.00     0.031 A 
BRANCH   5  10
HETATM   10  O3  UNL     1      92.464  94.274 -40.964  1.00  0.00    -0.340 OA
BRANCH  10  11
HETATM   11  C3  UNL     1      91.322  95.087 -40.984  1.00  0.00     0.286 C 
BRANCH  11  12
HETATM   12  C2  UNL     1      91.692  96.478 -41.302  1.00  0.00     0.282 C 
HETATM   13  O2  UNL     1      92.450  97.138 -40.541  1.00  0.00    -0.263 OA
BRANCH  12  14
HETATM   14  O1  UNL     1      91.237  97.135 -42.438  1.00  0.00    -0.325 OA
HETATM   15  C1  UNL     1      91.341  98.545 -42.547  1.00  0.00     0.213 C 
ENDBRANCH  12  14
ENDBRANCH  11  12
ENDBRANCH  10  11
ENDBRANCH   5  10
ENDBRANCH   1   3
BRANCH   1  16
HETATM   16  C7  UNL     1      91.014  93.011 -46.249  1.00  0.00     0.172 C 
HETATM   17  S1  UNL     1      90.713  94.623 -46.152  1.00  0.00    -0.041 SA
BRANCH  16  18
HETATM   18  N2  UNL     1      91.325  92.439 -47.484  1.00  0.00    -0.358 N 
ATOM     19  H2  UNL     1      92.314  92.412 -47.731  1.00  0.00     0.162 HD
BRANCH  18  20
HETATM   20  C8  UNL     1      90.414  91.882 -48.449  1.00  0.00     0.033 C 
HETATM   21  C9  UNL     1      91.230  91.730 -49.773  1.00  0.00     0.035 C 
HETATM   22  C10 UNL     1      90.320  91.184 -50.815  1.00  0.00    -0.012 C 
HETATM   23  C11 UNL     1      89.914  89.789 -50.363  1.00  0.00     0.009 C 
HETATM   24  C15 UNL     1      89.088  91.978 -51.086  1.00  0.00     0.009 C 
HETATM   25  C12 UNL     1      89.123  89.882 -49.100  1.00  0.00    -0.012 C 
HETATM   26  C13 UNL     1      87.892  90.773 -49.239  1.00  0.00     0.009 C 
HETATM   27  C17 UNL     1      89.959  90.531 -48.012  1.00  0.00     0.035 C 
HETATM   28  C14 UNL     1      88.330  92.105 -49.759  1.00  0.00    -0.012 C 
HETATM   29  C16 UNL     1      89.294  92.787 -48.809  1.00  0.00     0.035 C 
ENDBRANCH  18  20
ENDBRANCH  16  18
ENDBRANCH   1  16
TORSDOF 8
ENDMDL
MODEL 2
REMARK VINA RESULT: -6.854144284      2.131      2.912
REMARK  8 active torsions:
REMARK  status: ('A' for Active; 'I' for Inactive)
REMARK    1  A    between atoms: O1_2  and  C2_3 
REMARK    2  A    between atoms: C2_3  and  C3_5 
REMARK    3  A    between atoms: C3_5  and  O3_6 
REMARK    4  A    between atoms: O3_6  and  C4_7 
REMARK    5  A    between atoms: C6_9  and  N1_10 
REMARK    6  A    between atoms: N1_10  and  C7_12 
REMARK    7  A    between atoms: C7_12  and  N2_14 
REMARK    8  A    between atoms: N2_14  and  C8_16 
ROOT
HETATM    1  N1  UNL     1      90.927  91.186 -46.201  1.00  0.00    -0.333 N 
ATOM      2  H1  UNL     1      90.107  90.587 -46.113  1.00  0.00     0.168 HD
ENDROOT
BRANCH   1   3
HETATM    3  C6  UNL     1      91.326  91.915 -45.071  1.00  0.00     0.037 A 
HETATM    4  C5  UNL     1      91.120  93.303 -45.112  1.00  0.00     0.068 A 
HETATM    5  C4  UNL     1      91.534  94.083 -44.057  1.00  0.00     0.093 A 
HETATM    6  C20 UNL     1      92.155  93.564 -42.937  1.00  0.00     0.067 A 
HETATM    7  C19 UNL     1      92.354  92.211 -42.900  1.00  0.00     0.029 A 
HETATM    8 CL1  UNL     1      92.658  94.624 -41.624  1.00  0.00    -0.081 Cl
HETATM    9  C18 UNL     1      91.946  91.420 -43.947  1.00  0.00     0.031 A 
BRANCH   5  10
HETATM   10  O3  UNL     1      91.343  95.465 -44.070  1.00  0.00    -0.340 OA
BRANCH  10  11
HETATM   11  C3  UNL     1      91.380  96.126 -45.306  1.00  0.00     0.286 C 
BRANCH  11  12
HETATM   12  C2  UNL     1      91.439  97.585 -45.101  1.00  0.00     0.282 C 
HETATM   13  O2  UNL     1      90.579  98.176 -44.393  1.00  0.00    -0.263 OA
BRANCH  12  14
HETATM   14  O1  UNL     1      92.426  98.384 -45.665  1.00  0.00    -0.325 OA
HETATM   15  C1  UNL     1      92.846  99.575 -45.020  1.00  0.00     0.213 C 
ENDBRANCH  12  14
ENDBRANCH  11  12
ENDBRANCH  10  11
ENDBRANCH   5  10
ENDBRANCH   1   3
BRANCH   1  16
HETATM   16  C7  UNL     1      91.572  91.222 -47.436  1.00  0.00     0.172 C 
HETATM   17  S1  UNL     1      92.791  90.144 -47.665  1.00  0.00    -0.041 SA
BRANCH  16  18
HETATM   18  N2  UNL     1      91.227  92.104 -48.461  1.00  0.00    -0.358 N 
ATOM     19  H2  UNL     1      91.805  92.940 -48.549  1.00  0.00     0.162 HD
BRANCH  18  20
HETATM   20  C8  UNL     1      90.152  91.973 -49.409  1.00  0.00     0.033 C 
HETATM   21  C9  UNL     1      89.175  93.158 -49.117  1.00  0.00     0.035 C 
HETATM   22  C10 UNL     1      88.026  93.048 -50.057  1.00  0.00    -0.012 C 
HETATM   23  C11 UNL     1      88.579  93.244 -51.460  1.00  0.00     0.009 C 
HETATM   24  C15 UNL     1      87.268  91.766 -50.012  1.00  0.00     0.009 C 
HETATM   25  C12 UNL     1      89.516  92.129 -51.789  1.00  0.00    -0.012 C 
HETATM   26  C13 UNL     1      88.865  90.754 -51.662  1.00  0.00     0.009 C 
HETATM   27  C17 UNL     1      90.668  92.113 -50.800  1.00  0.00     0.035 C 
HETATM   28  C14 UNL     1      88.270  90.638 -50.295  1.00  0.00    -0.012 C 
HETATM   29  C16 UNL     1      89.324  90.757 -49.212  1.00  0.00     0.035 C 
ENDBRANCH  18  20
ENDBRANCH  16  18
ENDBRANCH   1  16
TORSDOF 8
ENDMDL
MODEL 3
REMARK VINA RESULT: -6.846066522      2.322      3.521
REMARK  8 active torsions:
REMARK  status: ('A' for Active; 'I' for Inactive)
REMARK    1  A    between atoms: O1_2  and  C2_3 
REMARK    2  A    between atoms: C2_3  and  C3_5 
REMARK    3  A    between atoms: C3_5  and  O3_6 
REMARK    4  A    between atoms: O3_6  and  C4_7 
REMARK    5  A    between atoms: C6_9  and  N1_10 
REMARK    6  A    between atoms: N1_10  and  C7_12 
REMARK    7  A    between atoms: C7_12  and  N2_14 
REMARK    8  A    between atoms: N2_14  and  C8_16 
ROOT
HETATM    1  N1  UNL     1      90.326  90.385 -47.081  1.00  0.00    -0.333 N 
ATOM      2  H1  UNL     1      89.770  89.788 -46.469  1.00  0.00     0.168 HD
ENDROOT
BRANCH   1   3
HETATM    3  C6  UNL     1      90.648  91.670 -46.623  1.00  0.00     0.037 A 
HETATM    4  C5  UNL     1      91.377  91.748 -45.426  1.00  0.00     0.068 A 
HETATM    5  C4  UNL     1      91.682  92.979 -44.894  1.00  0.00     0.093 A 
HETATM    6  C20 UNL     1      91.301  94.169 -45.486  1.00  0.00     0.067 A 
HETATM    7  C19 UNL     1      90.590  94.090 -46.653  1.00  0.00     0.029 A 
HETATM    8 CL1  UNL     1      91.728  95.710 -44.749  1.00  0.00    -0.081 Cl
HETATM    9  C18 UNL     1      90.278  92.866 -47.195  1.00  0.00     0.031 A 
BRANCH   5  10
HETATM   10  O3  UNL     1      92.405  93.088 -43.707  1.00  0.00    -0.340 OA
BRANCH  10  11
HETATM   11  C3  UNL     1      91.716  92.929 -42.496  1.00  0.00     0.286 C 
BRANCH  11  12
HETATM   12  C2  UNL     1      92.185  93.920 -41.509  1.00  0.00     0.282 C 
HETATM   13  O2  UNL     1      93.372  93.902 -41.086  1.00  0.00    -0.263 OA
BRANCH  12  14
HETATM   14  O1  UNL     1      91.363  94.915 -40.995  1.00  0.00    -0.325 OA
HETATM   15  C1  UNL     1      91.840  96.243 -40.854  1.00  0.00     0.213 C 
ENDBRANCH  12  14
ENDBRANCH  11  12
ENDBRANCH  10  11
ENDBRANCH   5  10
ENDBRANCH   1   3
BRANCH   1  16
HETATM   16  C7  UNL     1      90.712  89.862 -48.314  1.00  0.00     0.172 C 
HETATM   17  S1  UNL     1      92.234  89.251 -48.415  1.00  0.00    -0.041 SA
BRANCH  16  18
HETATM   18  N2  UNL     1      89.879  89.830 -49.433  1.00  0.00    -0.358 N 
ATOM     19  H2  UNL     1      89.536  88.910 -49.713  1.00  0.00     0.162 HD
BRANCH  18  20
HETATM   20  C8  UNL     1      89.445  90.940 -50.239  1.00  0.00     0.033 C 
HETATM   21  C9  UNL     1      89.003  90.330 -51.609  1.00  0.00     0.035 C 
HETATM   22  C10 UNL     1      88.572  91.448 -52.492  1.00  0.00    -0.012 C 
HETATM   23  C11 UNL     1      87.344  92.074 -51.850  1.00  0.00     0.009 C 
HETATM   24  C15 UNL     1      89.585  92.514 -52.734  1.00  0.00     0.009 C 
HETATM   25  C12 UNL     1      87.718  92.678 -50.537  1.00  0.00    -0.012 C 
HETATM   26  C13 UNL     1      88.837  93.710 -50.659  1.00  0.00     0.009 C 
HETATM   27  C17 UNL     1      88.269  91.607 -49.613  1.00  0.00     0.035 C 
HETATM   28  C14 UNL     1      89.991  93.072 -51.364  1.00  0.00    -0.012 C 
HETATM   29  C16 UNL     1      90.533  91.886 -50.592  1.00  0.00     0.035 C 
ENDBRANCH  18  20
ENDBRANCH  16  18
ENDBRANCH   1  16
TORSDOF 8
ENDMDL
MODEL 4
REMARK VINA RESULT: -6.797638447      2.147      2.860
REMARK  8 active torsions:
REMARK  status: ('A' for Active; 'I' for Inactive)
REMARK    1  A    between atoms: O1_2  and  C2_3 
REMARK    2  A    between atoms: C2_3  and  C3_5 
REMARK    3  A    between atoms: C3_5  and  O3_6 
REMARK    4  A    between atoms: O3_6  and  C4_7 
REMARK    5  A    between atoms: C6_9  and  N1_10 
REMARK    6  A    between atoms: N1_10  and  C7_12 
REMARK    7  A    between atoms: C7_12  and  N2_14 
REMARK    8  A    between atoms: N2_14  and  C8_16 
ROOT
HETATM    1  N1  UNL     1      90.857  91.246 -46.339  1.00  0.00    -0.333 N 
ATOM      2  H1  UNL     1      89.976  90.733 -46.298  1.00  0.00     0.168 HD
ENDROOT
BRANCH   1   3
HETATM    3  C6  UNL     1      91.262  91.938 -45.188  1.00  0.00     0.037 A 
HETATM    4  C5  UNL     1      91.096  93.331 -45.200  1.00  0.00     0.068 A 
HETATM    5  C4  UNL     1      91.519  94.075 -44.123  1.00  0.00     0.093 A 
HETATM    6  C20 UNL     1      92.110  93.514 -43.007  1.00  0.00     0.067 A 
HETATM    7  C19 UNL     1      92.270  92.154 -42.998  1.00  0.00     0.029 A 
HETATM    8 CL1  UNL     1      92.626  94.529 -41.663  1.00  0.00    -0.081 Cl
HETATM    9  C18 UNL     1      91.853  91.399 -44.068  1.00  0.00     0.031 A 
BRANCH   5  10
HETATM   10  O3  UNL     1      91.368  95.462 -44.106  1.00  0.00    -0.340 OA
BRANCH  10  11
HETATM   11  C3  UNL     1      91.435  96.149 -45.326  1.00  0.00     0.286 C 
BRANCH  11  12
HETATM   12  C2  UNL     1      91.481  97.604 -45.090  1.00  0.00     0.282 C 
HETATM   13  O2  UNL     1      90.638  98.165 -44.339  1.00  0.00    -0.263 OA
BRANCH  12  14
HETATM   14  O1  UNL     1      92.437  98.429 -45.669  1.00  0.00    -0.325 OA
HETATM   15  C1  UNL     1      92.861  99.612 -45.012  1.00  0.00     0.213 C 
ENDBRANCH  12  14
ENDBRANCH  11  12
ENDBRANCH  10  11
ENDBRANCH   5  10
ENDBRANCH   1   3
BRANCH   1  16
HETATM   16  C7  UNL     1      91.571  91.209 -47.535  1.00  0.00     0.172 C 
HETATM   17  S1  UNL     1      92.742  90.064 -47.662  1.00  0.00    -0.041 SA
BRANCH  16  18
HETATM   18  N2  UNL     1      91.333  92.076 -48.603  1.00  0.00    -0.358 N 
ATOM     19  H2  UNL     1      92.029  92.807 -48.753  1.00  0.00     0.162 HD
BRANCH  18  20
HETATM   20  C8  UNL     1      90.222  92.060 -49.517  1.00  0.00     0.033 C 
HETATM   21  C9  UNL     1      89.639  90.611 -49.459  1.00  0.00     0.035 C 
HETATM   22  C10 UNL     1      88.501  90.535 -50.415  1.00  0.00    -0.012 C 
HETATM   23  C11 UNL     1      87.426  91.483 -49.903  1.00  0.00     0.009 C 
HETATM   24  C15 UNL     1      88.814  90.882 -51.830  1.00  0.00     0.009 C 
HETATM   25  C12 UNL     1      87.936  92.886 -49.945  1.00  0.00    -0.012 C 
HETATM   26  C13 UNL     1      88.394  93.306 -51.340  1.00  0.00     0.009 C 
HETATM   27  C17 UNL     1      89.169  93.015 -49.069  1.00  0.00     0.035 C 
HETATM   28  C14 UNL     1      89.389  92.304 -51.831  1.00  0.00    -0.012 C 
HETATM   29  C16 UNL     1      90.611  92.243 -50.937  1.00  0.00     0.035 C 
ENDBRANCH  18  20
ENDBRANCH  16  18
ENDBRANCH   1  16
TORSDOF 8
ENDMDL
MODEL 5
REMARK VINA RESULT: -6.784545641      2.127      2.526
REMARK  8 active torsions:
REMARK  status: ('A' for Active; 'I' for Inactive)
REMARK    1  A    between atoms: O1_2  and  C2_3 
REMARK    2  A    between atoms: C2_3  and  C3_5 
REMARK    3  A    between atoms: C3_5  and  O3_6 
REMARK    4  A    between atoms: O3_6  and  C4_7 
REMARK    5  A    between atoms: C6_9  and  N1_10 
REMARK    6  A    between atoms: N1_10  and  C7_12 
REMARK    7  A    between atoms: C7_12  and  N2_14 
REMARK    8  A    between atoms: N2_14  and  C8_16 
ROOT
HETATM    1  N1  UNL     1      90.916  91.190 -46.200  1.00  0.00    -0.333 N 
ATOM      2  H1  UNL     1      90.099  90.587 -46.106  1.00  0.00     0.168 HD
ENDROOT
BRANCH   1   3
HETATM    3  C6  UNL     1      91.323  91.916 -45.071  1.00  0.00     0.037 A 
HETATM    4  C5  UNL     1      91.125  93.305 -45.111  1.00  0.00     0.068 A 
HETATM    5  C4  UNL     1      91.548  94.082 -44.057  1.00  0.00     0.093 A 
HETATM    6  C20 UNL     1      92.170  93.559 -42.940  1.00  0.00     0.067 A 
HETATM    7  C19 UNL     1      92.361  92.204 -42.904  1.00  0.00     0.029 A 
HETATM    8 CL1  UNL     1      92.683  94.615 -41.627  1.00  0.00    -0.081 Cl
HETATM    9  C18 UNL     1      91.945  91.417 -43.950  1.00  0.00     0.031 A 
BRANCH   5  10
HETATM   10  O3  UNL     1      91.365  95.465 -44.068  1.00  0.00    -0.340 OA
BRANCH  10  11
HETATM   11  C3  UNL     1      91.387  96.125 -45.305  1.00  0.00     0.286 C 
BRANCH  11  12
HETATM   12  C2  UNL     1      91.415  97.586 -45.103  1.00  0.00     0.282 C 
HETATM   13  O2  UNL     1      90.542  98.159 -44.396  1.00  0.00    -0.263 OA
BRANCH  12  14
HETATM   14  O1  UNL     1      92.385  98.404 -45.667  1.00  0.00    -0.325 OA
HETATM   15  C1  UNL     1      92.879  99.529 -44.960  1.00  0.00     0.213 C 
ENDBRANCH  12  14
ENDBRANCH  11  12
ENDBRANCH  10  11
ENDBRANCH   5  10
ENDBRANCH   1   3
BRANCH   1  16
HETATM   16  C7  UNL     1      91.547  91.234 -47.442  1.00  0.00     0.172 C 
HETATM   17  S1  UNL     1      92.765  90.160 -47.690  1.00  0.00    -0.041 SA
BRANCH  16  18
HETATM   18  N2  UNL     1      91.190  92.122 -48.458  1.00  0.00    -0.358 N 
ATOM     19  H2  UNL     1      91.795  92.935 -48.578  1.00  0.00     0.162 HD
BRANCH  18  20
HETATM   20  C8  UNL     1      90.070  92.026 -49.356  1.00  0.00     0.033 C 
HETATM   21  C9  UNL     1      90.670  92.094 -50.798  1.00  0.00     0.035 C 
HETATM   22  C10 UNL     1      89.543  92.028 -51.768  1.00  0.00    -0.012 C 
HETATM   23  C11 UNL     1      88.894  90.662 -51.604  1.00  0.00     0.009 C 
HETATM   24  C15 UNL     1      88.496  93.079 -51.622  1.00  0.00     0.009 C 
HETATM   25  C12 UNL     1      88.299  90.552 -50.239  1.00  0.00    -0.012 C 
HETATM   26  C13 UNL     1      87.289  91.658 -49.943  1.00  0.00     0.009 C 
HETATM   27  C17 UNL     1      89.382  90.715 -49.188  1.00  0.00     0.035 C 
HETATM   28  C14 UNL     1      87.948  92.977 -50.193  1.00  0.00    -0.012 C 
HETATM   29  C16 UNL     1      89.146  93.185 -49.288  1.00  0.00     0.035 C 
ENDBRANCH  18  20
ENDBRANCH  16  18
ENDBRANCH   1  16
TORSDOF 8
ENDMDL
