MODEL 1
REMARK VINA RESULT: -8.066536163      0.000      0.000
REMARK  9 active torsions:
REMARK  status: ('A' for Active; 'I' for Inactive)
REMARK    1  A    between atoms: C6_9  and  N2_10 
REMARK    2  A    between atoms: N2_10  and  C7_12 
REMARK    3  A    between atoms: C7_12  and  C8_13 
REMARK    4  A    between atoms: C8_13  and  C9_14 
REMARK    5  A    between atoms: C9_14  and  O2_15 
REMARK    6  A    between atoms: N5_24  and  C13_25 
REMARK    7  A    between atoms: C13_25  and  C14_26 
REMARK    8  A    between atoms: N6_33  and  C21_34 
REMARK    9  A    between atoms: C21_34  and  C22_35 
ROOT
HETATM    1  O1  UNL     1     -58.701   8.509   2.781  1.00  0.00    -0.267 OA
HETATM    2  C1  UNL     1     -57.631   8.020   3.213  1.00  0.00     0.262 A 
HETATM    3  C2  UNL     1     -57.443   7.931   4.545  1.00  0.00     0.060 A 
HETATM    4  C3  UNL     1     -58.346   8.340   5.597  1.00  0.00     0.066 A 
HETATM    5  C4  UNL     1     -59.552   8.888   5.357  1.00  0.00     0.048 A 
HETATM    6  C5  UNL     1     -60.364   9.256   6.441  1.00  0.00     0.108 A 
HETATM    7  N1  UNL     1     -59.938   9.061   7.693  1.00  0.00    -0.202 N 
ATOM      8  H1  UNL     1     -60.533   9.331   8.477  1.00  0.00     0.183 HD
HETATM    9  C6  UNL     1     -58.744   8.518   7.928  1.00  0.00     0.678 A 
HETATM   10  N3  UNL     1     -57.978   8.172   6.908  1.00  0.00    -0.191 N 
ATOM     11  H3  UNL     1     -57.067   7.758   7.105  1.00  0.00     0.184 HD
HETATM   12  C10 UNL     1     -56.234   7.380   4.955  1.00  0.00     0.036 A 
HETATM   13  C11 UNL     1     -55.345   6.974   4.011  1.00  0.00     0.028 A 
HETATM   14  C12 UNL     1     -54.114   6.397   4.137  1.00  0.00     0.122 A 
HETATM   15  N4  UNL     1     -53.679   6.185   2.911  1.00  0.00    -0.307 N 
ATOM     16  H4  UNL     1     -52.779   5.763   2.685  1.00  0.00     0.186 HD
HETATM   17  N5  UNL     1     -54.580   6.600   1.990  1.00  0.00    -0.272 N 
HETATM   18  C20 UNL     1     -55.597   7.090   2.668  1.00  0.00     0.139 A 
HETATM   19  N6  UNL     1     -56.749   7.622   2.240  1.00  0.00    -0.293 N 
ENDROOT
BRANCH  19  20
HETATM   20  C21 UNL     1     -57.113   7.824   0.885  1.00  0.00     0.172 C 
BRANCH  20  21
HETATM   21  C22 UNL     1     -57.593   6.538   0.228  1.00  0.00    -0.040 A 
HETATM   22  C23 UNL     1     -57.501   6.302  -1.115  1.00  0.00     0.009 A 
HETATM   23  C24 UNL     1     -57.924   5.129  -1.684  1.00  0.00     0.001 A 
HETATM   24  C25 UNL     1     -58.464   4.132  -0.903  1.00  0.00     0.000 A 
HETATM   25  C26 UNL     1     -58.578   4.324   0.456  1.00  0.00     0.001 A 
HETATM   26  C27 UNL     1     -58.144   5.511   0.989  1.00  0.00     0.009 A 
ENDBRANCH  20  21
ENDBRANCH  19  20
BRANCH   9  27
HETATM   27  N2  UNL     1     -58.323   8.326   9.136  1.00  0.00    -0.226 N 
ATOM     28  H2  UNL     1     -57.977   7.404   9.403  1.00  0.00     0.177 HD
BRANCH  27  29
HETATM   29  C7  UNL     1     -58.334   9.395  10.123  1.00  0.00     0.140 C 
BRANCH  29  30
HETATM   30  C8  UNL     1     -56.893   9.748  10.445  1.00  0.00     0.046 C 
BRANCH  30  31
HETATM   31  C9  UNL     1     -56.366  10.802   9.522  1.00  0.00     0.165 C 
BRANCH  31  32
HETATM   32  O2  UNL     1     -55.885  10.178   8.349  1.00  0.00    -0.401 OA
ATOM     33  H2  UNL     1     -55.159   9.610   8.582  1.00  0.00     0.209 HD
ENDBRANCH  31  32
ENDBRANCH  30  31
ENDBRANCH  29  30
ENDBRANCH  27  29
ENDBRANCH   9  27
BRANCH  17  34
HETATM   34  C13 UNL     1     -54.316   6.311   0.621  1.00  0.00     0.189 C 
BRANCH  34  35
HETATM   35  C14 UNL     1     -53.427   7.314  -0.020  1.00  0.00    -0.038 A 
HETATM   36  C15 UNL     1     -53.693   8.648  -0.034  1.00  0.00     0.009 A 
HETATM   37  C16 UNL     1     -52.847   9.579  -0.649  1.00  0.00     0.001 A 
HETATM   38  C17 UNL     1     -51.694   9.158  -1.271  1.00  0.00     0.000 A 
HETATM   39  C18 UNL     1     -51.405   7.820  -1.271  1.00  0.00     0.001 A 
HETATM   40  C19 UNL     1     -52.250   6.934  -0.663  1.00  0.00     0.009 A 
ENDBRANCH  34  35
ENDBRANCH  17  34
TORSDOF 9
ENDMDL
MODEL 2
REMARK VINA RESULT: -7.765258031      7.323     11.593
REMARK  9 active torsions:
REMARK  status: ('A' for Active; 'I' for Inactive)
REMARK    1  A    between atoms: C6_9  and  N2_10 
REMARK    2  A    between atoms: N2_10  and  C7_12 
REMARK    3  A    between atoms: C7_12  and  C8_13 
REMARK    4  A    between atoms: C8_13  and  C9_14 
REMARK    5  A    between atoms: C9_14  and  O2_15 
REMARK    6  A    between atoms: N5_24  and  C13_25 
REMARK    7  A    between atoms: C13_25  and  C14_26 
REMARK    8  A    between atoms: N6_33  and  C21_34 
REMARK    9  A    between atoms: C21_34  and  C22_35 
ROOT
HETATM    1  O1  UNL     1     -59.881   0.831  -1.803  1.00  0.00    -0.267 OA
HETATM    2  C1  UNL     1     -59.037   0.642  -2.710  1.00  0.00     0.262 A 
HETATM    3  C2  UNL     1     -57.914   1.387  -2.727  1.00  0.00     0.060 A 
HETATM    4  C3  UNL     1     -57.525   2.426  -1.798  1.00  0.00     0.066 A 
HETATM    5  C4  UNL     1     -58.283   2.791  -0.747  1.00  0.00     0.048 A 
HETATM    6  C5  UNL     1     -57.826   3.810   0.103  1.00  0.00     0.108 A 
HETATM    7  N1  UNL     1     -56.654   4.405  -0.136  1.00  0.00    -0.202 N 
ATOM      8  H1  UNL     1     -56.328   5.146   0.486  1.00  0.00     0.183 HD
HETATM    9  C6  UNL     1     -55.906   4.042  -1.177  1.00  0.00     0.678 A 
HETATM   10  N3  UNL     1     -56.335   3.082  -1.978  1.00  0.00    -0.191 N 
ATOM     11  H3  UNL     1     -55.750   2.817  -2.771  1.00  0.00     0.184 HD
HETATM   12  C10 UNL     1     -57.022   1.125  -3.761  1.00  0.00     0.036 A 
HETATM   13  C11 UNL     1     -57.331   0.157  -4.663  1.00  0.00     0.028 A 
HETATM   14  C12 UNL     1     -56.640  -0.303  -5.746  1.00  0.00     0.122 A 
HETATM   15  N4  UNL     1     -57.375  -1.262  -6.272  1.00  0.00    -0.307 N 
ATOM     16  H4  UNL     1     -57.116  -1.798  -7.101  1.00  0.00     0.186 HD
HETATM   17  N5  UNL     1     -58.519  -1.446  -5.573  1.00  0.00    -0.272 N 
HETATM   18  C20 UNL     1     -58.492  -0.569  -4.591  1.00  0.00     0.139 A 
HETATM   19  N6  UNL     1     -59.375  -0.337  -3.610  1.00  0.00    -0.293 N 
ENDROOT
BRANCH  19  20
HETATM   20  C21 UNL     1     -60.619  -0.995  -3.446  1.00  0.00     0.172 C 
BRANCH  20  21
HETATM   21  C22 UNL     1     -60.489  -2.254  -2.600  1.00  0.00    -0.040 A 
HETATM   22  C23 UNL     1     -59.343  -2.599  -1.940  1.00  0.00     0.009 A 
HETATM   23  C24 UNL     1     -59.254  -3.728  -1.168  1.00  0.00     0.001 A 
HETATM   24  C25 UNL     1     -60.338  -4.566  -1.031  1.00  0.00     0.000 A 
HETATM   25  C26 UNL     1     -61.515  -4.259  -1.677  1.00  0.00     0.001 A 
HETATM   26  C27 UNL     1     -61.567  -3.120  -2.440  1.00  0.00     0.009 A 
ENDBRANCH  20  21
ENDBRANCH  19  20
BRANCH   9  27
HETATM   27  N2  UNL     1     -54.770   4.613  -1.415  1.00  0.00    -0.226 N 
ATOM     28  H2  UNL     1     -54.321   4.472  -2.320  1.00  0.00     0.177 HD
BRANCH  27  29
HETATM   29  C7  UNL     1     -54.118   5.451  -0.420  1.00  0.00     0.140 C 
BRANCH  29  30
HETATM   30  C8  UNL     1     -52.779   5.892  -0.984  1.00  0.00     0.046 C 
BRANCH  30  31
HETATM   31  C9  UNL     1     -52.431   5.134  -2.227  1.00  0.00     0.165 C 
BRANCH  31  32
HETATM   32  O2  UNL     1     -51.984   3.844  -1.862  1.00  0.00    -0.401 OA
ATOM     33  H2  UNL     1     -51.429   3.506  -2.555  1.00  0.00     0.209 HD
ENDBRANCH  31  32
ENDBRANCH  30  31
ENDBRANCH  29  30
ENDBRANCH  27  29
ENDBRANCH   9  27
BRANCH  17  34
HETATM   34  C13 UNL     1     -59.354  -2.542  -5.934  1.00  0.00     0.189 C 
BRANCH  34  35
HETATM   35  C14 UNL     1     -58.978  -3.805  -5.249  1.00  0.00    -0.038 A 
HETATM   36  C15 UNL     1     -57.740  -4.035  -4.734  1.00  0.00     0.009 A 
HETATM   37  C16 UNL     1     -57.400  -5.235  -4.097  1.00  0.00     0.001 A 
HETATM   38  C17 UNL     1     -58.334  -6.238  -3.971  1.00  0.00     0.000 A 
HETATM   39  C18 UNL     1     -59.586  -6.030  -4.482  1.00  0.00     0.001 A 
HETATM   40  C19 UNL     1     -59.890  -4.848  -5.100  1.00  0.00     0.009 A 
ENDBRANCH  34  35
ENDBRANCH  17  34
TORSDOF 9
ENDMDL
MODEL 3
REMARK VINA RESULT: -7.745501878      4.583      8.419
REMARK  9 active torsions:
REMARK  status: ('A' for Active; 'I' for Inactive)
REMARK    1  A    between atoms: C6_9  and  N2_10 
REMARK    2  A    between atoms: N2_10  and  C7_12 
REMARK    3  A    between atoms: C7_12  and  C8_13 
REMARK    4  A    between atoms: C8_13  and  C9_14 
REMARK    5  A    between atoms: C9_14  and  O2_15 
REMARK    6  A    between atoms: N5_24  and  C13_25 
REMARK    7  A    between atoms: C13_25  and  C14_26 
REMARK    8  A    between atoms: N6_33  and  C21_34 
REMARK    9  A    between atoms: C21_34  and  C22_35 
ROOT
HETATM    1  O1  UNL     1     -55.353   3.587  -2.405  1.00  0.00    -0.267 OA
HETATM    2  C1  UNL     1     -56.380   3.409  -1.709  1.00  0.00     0.262 A 
HETATM    3  C2  UNL     1     -56.525   4.106  -0.565  1.00  0.00     0.060 A 
HETATM    4  C3  UNL     1     -55.618   5.080   0.001  1.00  0.00     0.066 A 
HETATM    5  C4  UNL     1     -54.455   5.426  -0.583  1.00  0.00     0.048 A 
HETATM    6  C5  UNL     1     -53.637   6.382   0.038  1.00  0.00     0.108 A 
HETATM    7  N1  UNL     1     -54.013   6.936   1.194  1.00  0.00    -0.202 N 
ATOM      8  H1  UNL     1     -53.413   7.630   1.641  1.00  0.00     0.183 HD
HETATM    9  C6  UNL     1     -55.165   6.592   1.770  1.00  0.00     0.678 A 
HETATM   10  N3  UNL     1     -55.937   5.692   1.186  1.00  0.00    -0.191 N 
ATOM     11  H3  UNL     1     -56.814   5.440   1.641  1.00  0.00     0.184 HD
HETATM   12  C10 UNL     1     -57.687   3.859   0.157  1.00  0.00     0.036 A 
HETATM   13  C11 UNL     1     -58.579   2.955  -0.325  1.00  0.00     0.028 A 
HETATM   14  C12 UNL     1     -59.783   2.542   0.167  1.00  0.00     0.122 A 
HETATM   15  N4  UNL     1     -60.253   1.664  -0.696  1.00  0.00    -0.307 N 
ATOM     16  H4  UNL     1     -61.144   1.178  -0.595  1.00  0.00     0.186 HD
HETATM   17  N5  UNL     1     -59.403   1.490  -1.734  1.00  0.00    -0.272 N 
HETATM   18  C20 UNL     1     -58.374   2.278  -1.500  1.00  0.00     0.139 A 
HETATM   19  N6  UNL     1     -57.262   2.489  -2.217  1.00  0.00    -0.293 N 
ENDROOT
BRANCH  19  20
HETATM   20  C21 UNL     1     -56.921   1.831  -3.425  1.00  0.00     0.172 C 
BRANCH  20  21
HETATM   21  C22 UNL     1     -57.425   2.588  -4.646  1.00  0.00    -0.040 A 
HETATM   22  C23 UNL     1     -58.306   3.630  -4.572  1.00  0.00     0.009 A 
HETATM   23  C24 UNL     1     -58.733   4.309  -5.683  1.00  0.00     0.001 A 
HETATM   24  C25 UNL     1     -58.278   3.955  -6.933  1.00  0.00     0.000 A 
HETATM   25  C26 UNL     1     -57.389   2.911  -7.058  1.00  0.00     0.001 A 
HETATM   26  C27 UNL     1     -56.984   2.255  -5.923  1.00  0.00     0.009 A 
ENDBRANCH  20  21
ENDBRANCH  19  20
BRANCH   9  27
HETATM   27  N2  UNL     1     -55.537   7.124   2.889  1.00  0.00    -0.226 N 
ATOM     28  H2  UNL     1     -55.853   8.093   2.900  1.00  0.00     0.177 HD
BRANCH  27  29
HETATM   29  C7  UNL     1     -55.516   6.369   4.132  1.00  0.00     0.140 C 
BRANCH  29  30
HETATM   30  C8  UNL     1     -54.197   6.653   4.830  1.00  0.00     0.046 C 
BRANCH  30  31
HETATM   31  C9  UNL     1     -53.306   5.450   4.830  1.00  0.00     0.165 C 
BRANCH  31  32
HETATM   32  O2  UNL     1     -52.006   5.849   4.443  1.00  0.00    -0.401 OA
ATOM     33  H2  UNL     1     -51.660   5.209   3.831  1.00  0.00     0.209 HD
ENDBRANCH  31  32
ENDBRANCH  30  31
ENDBRANCH  29  30
ENDBRANCH  27  29
ENDBRANCH   9  27
BRANCH  17  34
HETATM   34  C13 UNL     1     -59.834   0.677  -2.821  1.00  0.00     0.189 C 
BRANCH  34  35
HETATM   35  C14 UNL     1     -59.415  -0.741  -2.683  1.00  0.00    -0.038 A 
HETATM   36  C15 UNL     1     -60.047  -1.631  -1.871  1.00  0.00     0.009 A 
HETATM   37  C16 UNL     1     -59.635  -2.964  -1.747  1.00  0.00     0.001 A 
HETATM   38  C17 UNL     1     -58.552  -3.420  -2.464  1.00  0.00     0.000 A 
HETATM   39  C18 UNL     1     -57.900  -2.543  -3.287  1.00  0.00     0.001 A 
HETATM   40  C19 UNL     1     -58.324  -1.248  -3.387  1.00  0.00     0.009 A 
ENDBRANCH  34  35
ENDBRANCH  17  34
TORSDOF 9
ENDMDL
MODEL 4
REMARK VINA RESULT: -7.727946475      1.275      2.101
REMARK  9 active torsions:
REMARK  status: ('A' for Active; 'I' for Inactive)
REMARK    1  A    between atoms: C6_9  and  N2_10 
REMARK    2  A    between atoms: N2_10  and  C7_12 
REMARK    3  A    between atoms: C7_12  and  C8_13 
REMARK    4  A    between atoms: C8_13  and  C9_14 
REMARK    5  A    between atoms: C9_14  and  O2_15 
REMARK    6  A    between atoms: N5_24  and  C13_25 
REMARK    7  A    between atoms: C13_25  and  C14_26 
REMARK    8  A    between atoms: N6_33  and  C21_34 
REMARK    9  A    between atoms: C21_34  and  C22_35 
ROOT
HETATM    1  O1  UNL     1     -58.741   7.966   2.849  1.00  0.00    -0.267 OA
HETATM    2  C1  UNL     1     -57.612   7.660   3.302  1.00  0.00     0.262 A 
HETATM    3  C2  UNL     1     -57.361   7.845   4.613  1.00  0.00     0.060 A 
HETATM    4  C3  UNL     1     -58.253   8.373   5.621  1.00  0.00     0.066 A 
HETATM    5  C4  UNL     1     -59.513   8.763   5.354  1.00  0.00     0.048 A 
HETATM    6  C5  UNL     1     -60.309   9.263   6.396  1.00  0.00     0.108 A 
HETATM    7  N1  UNL     1     -59.814   9.349   7.635  1.00  0.00    -0.202 N 
ATOM      8  H1  UNL     1     -60.398   9.714   8.387  1.00  0.00     0.183 HD
HETATM    9  C6  UNL     1     -58.566   8.962   7.896  1.00  0.00     0.678 A 
HETATM   10  N3  UNL     1     -57.816   8.490   6.916  1.00  0.00    -0.191 N 
ATOM     11  H3  UNL     1     -56.862   8.199   7.134  1.00  0.00     0.184 HD
HETATM   12  C10 UNL     1     -56.090   7.485   5.047  1.00  0.00     0.036 A 
HETATM   13  C11 UNL     1     -55.208   6.980   4.145  1.00  0.00     0.028 A 
HETATM   14  C12 UNL     1     -53.925   6.542   4.305  1.00  0.00     0.122 A 
HETATM   15  N4  UNL     1     -53.525   6.134   3.117  1.00  0.00    -0.307 N 
ATOM     16  H4  UNL     1     -52.599   5.752   2.921  1.00  0.00     0.186 HD
HETATM   17  N5  UNL     1     -54.498   6.289   2.189  1.00  0.00    -0.272 N 
HETATM   18  C20 UNL     1     -55.526   6.814   2.822  1.00  0.00     0.139 A 
HETATM   19  N6  UNL     1     -56.740   7.157   2.370  1.00  0.00    -0.293 N 
ENDROOT
BRANCH  19  20
HETATM   20  C21 UNL     1     -57.177   7.064   1.026  1.00  0.00     0.172 C 
BRANCH  20  21
HETATM   21  C22 UNL     1     -56.611   8.186   0.166  1.00  0.00    -0.040 A 
HETATM   22  C23 UNL     1     -56.570   8.137  -1.199  1.00  0.00     0.009 A 
HETATM   23  C24 UNL     1     -56.072   9.167  -1.955  1.00  0.00     0.001 A 
HETATM   24  C25 UNL     1     -55.589  10.305  -1.348  1.00  0.00     0.000 A 
HETATM   25  C26 UNL     1     -55.609  10.400   0.025  1.00  0.00     0.001 A 
HETATM   26  C27 UNL     1     -56.116   9.349   0.748  1.00  0.00     0.009 A 
ENDBRANCH  20  21
ENDBRANCH  19  20
BRANCH   9  27
HETATM   27  N2  UNL     1     -58.079   9.041   9.092  1.00  0.00    -0.226 N 
ATOM     28  H2  UNL     1     -57.873   8.183   9.604  1.00  0.00     0.177 HD
BRANCH  27  29
HETATM   29  C7  UNL     1     -57.819  10.326   9.723  1.00  0.00     0.140 C 
BRANCH  29  30
HETATM   30  C8  UNL     1     -56.376  10.333  10.193  1.00  0.00     0.046 C 
BRANCH  30  31
HETATM   31  C9  UNL     1     -55.475  10.987   9.193  1.00  0.00     0.165 C 
BRANCH  31  32
HETATM   32  O2  UNL     1     -55.359  10.142   8.066  1.00  0.00    -0.401 OA
ATOM     33  H2  UNL     1     -54.603   9.578   8.185  1.00  0.00     0.209 HD
ENDBRANCH  31  32
ENDBRANCH  30  31
ENDBRANCH  29  30
ENDBRANCH  27  29
ENDBRANCH   9  27
BRANCH  17  34
HETATM   34  C13 UNL     1     -54.266   5.765   0.885  1.00  0.00     0.189 C 
BRANCH  34  35
HETATM   35  C14 UNL     1     -53.486   6.688   0.022  1.00  0.00    -0.038 A 
HETATM   36  C15 UNL     1     -52.867   7.805   0.491  1.00  0.00     0.009 A 
HETATM   37  C16 UNL     1     -52.140   8.668  -0.339  1.00  0.00     0.001 A 
HETATM   38  C17 UNL     1     -52.032   8.402  -1.685  1.00  0.00     0.000 A 
HETATM   39  C18 UNL     1     -52.648   7.284  -2.180  1.00  0.00     0.001 A 
HETATM   40  C19 UNL     1     -53.350   6.460  -1.347  1.00  0.00     0.009 A 
ENDBRANCH  34  35
ENDBRANCH  17  34
TORSDOF 9
ENDMDL
MODEL 5
REMARK VINA RESULT: -7.710105263      4.481      8.769
REMARK  9 active torsions:
REMARK  status: ('A' for Active; 'I' for Inactive)
REMARK    1  A    between atoms: C6_9  and  N2_10 
REMARK    2  A    between atoms: N2_10  and  C7_12 
REMARK    3  A    between atoms: C7_12  and  C8_13 
REMARK    4  A    between atoms: C8_13  and  C9_14 
REMARK    5  A    between atoms: C9_14  and  O2_15 
REMARK    6  A    between atoms: N5_24  and  C13_25 
REMARK    7  A    between atoms: C13_25  and  C14_26 
REMARK    8  A    between atoms: N6_33  and  C21_34 
REMARK    9  A    between atoms: C21_34  and  C22_35 
ROOT
HETATM    1  O1  UNL     1     -57.125   5.634  -0.292  1.00  0.00    -0.267 OA
HETATM    2  C1  UNL     1     -56.036   5.243  -0.774  1.00  0.00     0.262 A 
HETATM    3  C2  UNL     1     -55.991   4.061  -1.419  1.00  0.00     0.060 A 
HETATM    4  C3  UNL     1     -57.076   3.133  -1.645  1.00  0.00     0.066 A 
HETATM    5  C4  UNL     1     -58.332   3.354  -1.214  1.00  0.00     0.048 A 
HETATM    6  C5  UNL     1     -59.324   2.397  -1.480  1.00  0.00     0.108 A 
HETATM    7  N1  UNL     1     -59.017   1.283  -2.152  1.00  0.00    -0.202 N 
ATOM      8  H1  UNL     1     -59.743   0.591  -2.341  1.00  0.00     0.183 HD
HETATM    9  C6  UNL     1     -57.773   1.067  -2.577  1.00  0.00     0.678 A 
HETATM   10  N3  UNL     1     -56.838   1.967  -2.328  1.00  0.00    -0.191 N 
ATOM     11  H3  UNL     1     -55.891   1.786  -2.660  1.00  0.00     0.184 HD
HETATM   12  C10 UNL     1     -54.751   3.690  -1.927  1.00  0.00     0.036 A 
HETATM   13  C11 UNL     1     -53.693   4.523  -1.748  1.00  0.00     0.028 A 
HETATM   14  C12 UNL     1     -52.394   4.411  -2.150  1.00  0.00     0.122 A 
HETATM   15  N4  UNL     1     -51.783   5.503  -1.735  1.00  0.00    -0.307 N 
ATOM     16  H4  UNL     1     -50.795   5.703  -1.888  1.00  0.00     0.186 HD
HETATM   17  N5  UNL     1     -52.636   6.323  -1.079  1.00  0.00    -0.272 N 
HETATM   18  C20 UNL     1     -53.804   5.717  -1.083  1.00  0.00     0.139 A 
HETATM   19  N6  UNL     1     -54.983   6.101  -0.575  1.00  0.00    -0.293 N 
ENDROOT
BRANCH  19  20
HETATM   20  C21 UNL     1     -55.219   7.291   0.158  1.00  0.00     0.172 C 
BRANCH  20  21
HETATM   21  C22 UNL     1     -55.123   7.061   1.659  1.00  0.00    -0.040 A 
HETATM   22  C23 UNL     1     -54.059   6.446   2.258  1.00  0.00     0.009 A 
HETATM   23  C24 UNL     1     -53.985   6.266   3.615  1.00  0.00     0.001 A 
HETATM   24  C25 UNL     1     -55.001   6.708   4.432  1.00  0.00     0.000 A 
HETATM   25  C26 UNL     1     -56.094   7.333   3.875  1.00  0.00     0.001 A 
HETATM   26  C27 UNL     1     -56.132   7.496   2.513  1.00  0.00     0.009 A 
ENDBRANCH  20  21
ENDBRANCH  19  20
BRANCH   9  27
HETATM   27  N2  UNL     1     -57.467  -0.008  -3.228  1.00  0.00    -0.226 N 
ATOM     28  H2  UNL     1     -56.493  -0.180  -3.478  1.00  0.00     0.177 HD
BRANCH  27  29
HETATM   29  C7  UNL     1     -58.482  -0.978  -3.612  1.00  0.00     0.140 C 
BRANCH  29  30
HETATM   30  C8  UNL     1     -58.151  -2.295  -2.932  1.00  0.00     0.046 C 
BRANCH  30  31
HETATM   31  C9  UNL     1     -59.187  -2.664  -1.917  1.00  0.00     0.165 C 
BRANCH  31  32
HETATM   32  O2  UNL     1     -59.999  -1.534  -1.667  1.00  0.00    -0.401 OA
ATOM     33  H2  UNL     1     -60.650  -1.765  -1.014  1.00  0.00     0.209 HD
ENDBRANCH  31  32
ENDBRANCH  30  31
ENDBRANCH  29  30
ENDBRANCH  27  29
ENDBRANCH   9  27
BRANCH  17  34
HETATM   34  C13 UNL     1     -52.159   7.608  -0.691  1.00  0.00     0.189 C 
BRANCH  34  35
HETATM   35  C14 UNL     1     -51.847   8.483  -1.850  1.00  0.00    -0.038 A 
HETATM   36  C15 UNL     1     -50.753   9.291  -1.902  1.00  0.00     0.009 A 
HETATM   37  C16 UNL     1     -50.477  10.115  -3.001  1.00  0.00     0.001 A 
HETATM   38  C17 UNL     1     -51.326  10.128  -4.084  1.00  0.00     0.000 A 
HETATM   39  C18 UNL     1     -52.433   9.324  -4.053  1.00  0.00     0.001 A 
HETATM   40  C19 UNL     1     -52.678   8.530  -2.967  1.00  0.00     0.009 A 
ENDBRANCH  34  35
ENDBRANCH  17  34
TORSDOF 9
ENDMDL
