MODEL 1
REMARK VINA RESULT: -6.761142304      0.000      0.000
REMARK  10 active torsions:
REMARK  status: ('A' for Active; 'I' for Inactive)
REMARK    1  A    between atoms: C2_2  and  C3_3 
REMARK    2  A    between atoms: C3_3  and  N1_4 
REMARK    3  A    between atoms: N1_4  and  C4_6 
REMARK    4  A    between atoms: C8_16  and  C9_17 
REMARK    5  A    between atoms: C9_17  and  N5_18 
REMARK    6  A    between atoms: C9_17  and  C12_28 
REMARK    7  A    between atoms: N5_18  and  C10_20 
REMARK    8  A    between atoms: C15_31  and  O1_32 
REMARK    9  A    between atoms: N9_36  and  C19_37 
REMARK   10  A    between atoms: C19_37  and  C20_38 
ROOT
HETATM    1  C4  UNL     1     -57.950   3.160  -2.457  1.00  0.00     0.679 A 
HETATM    2  N2  UNL     1     -56.751   3.794  -2.376  1.00  0.00    -0.174 N 
ATOM      3  H2  UNL     1     -56.131   3.785  -3.187  1.00  0.00     0.186 HD
HETATM    4  C5  UNL     1     -56.356   4.431  -1.263  1.00  0.00     0.157 A 
HETATM    5  C6  UNL     1     -57.202   4.424  -0.205  1.00  0.00     0.095 A 
HETATM    6  C7  UNL     1     -58.417   3.778  -0.295  1.00  0.00     0.139 A 
HETATM    7  N3  UNL     1     -58.814   3.132  -1.427  1.00  0.00    -0.200 N 
ATOM      8  H3  UNL     1     -59.713   2.655  -1.490  1.00  0.00     0.183 HD
HETATM    9  N4  UNL     1     -56.602   5.107   0.746  1.00  0.00    -0.336 N 
ATOM     10  H4  UNL     1     -57.000   5.274   1.670  1.00  0.00     0.168 HD
HETATM   11  C8  UNL     1     -55.377   5.568   0.340  1.00  0.00     0.142 A 
HETATM   12  N9  UNL     1     -55.223   5.133  -0.946  1.00  0.00    -0.289 N 
ENDROOT
BRANCH  11  13
HETATM   13  C9  UNL     1     -54.546   6.368   1.188  1.00  0.00     0.104 C 
BRANCH  13  14
HETATM   14  N5  UNL     1     -54.825   6.534   2.555  1.00  0.00    -0.186 N 
ATOM     15  H5  UNL     1     -55.700   7.010   2.774  1.00  0.00     0.184 HD
BRANCH  14  16
HETATM   16  C10 UNL     1     -54.119   6.164   3.569  1.00  0.00     0.698 A 
HETATM   17  N6  UNL     1     -52.793   6.165   3.720  1.00  0.00    -0.185 N 
HETATM   18  C11 UNL     1     -52.521   5.695   4.941  1.00  0.00     0.215 A 
ATOM     19  H6  UNL     1     -52.109   6.469   3.027  1.00  0.00     0.185 HD
HETATM   20  N7  UNL     1     -53.700   5.415   5.518  1.00  0.00    -0.281 N 
HETATM   21  N8  UNL     1     -54.685   5.698   4.689  1.00  0.00    -0.131 N 
ATOM     22  H7  UNL     1     -53.817   5.039   6.459  1.00  0.00     0.188 HD
ATOM     23  H8  UNL     1     -55.683   5.584   4.865  1.00  0.00     0.205 HD
ENDBRANCH  14  16
ENDBRANCH  13  14
BRANCH  13  24
HETATM   24  C12 UNL     1     -53.991   7.624   0.632  1.00  0.00    -0.005 A 
HETATM   25  C13 UNL     1     -54.815   8.670   0.228  1.00  0.00     0.016 A 
HETATM   26  C14 UNL     1     -54.323   9.834  -0.306  1.00  0.00     0.037 A 
HETATM   27  C15 UNL     1     -52.967  10.020  -0.468  1.00  0.00     0.068 A 
HETATM   28  C17 UNL     1     -52.146   8.992  -0.073  1.00  0.00     0.037 A 
HETATM   29  C18 UNL     1     -52.644   7.815   0.468  1.00  0.00     0.016 A 
BRANCH  27  30
HETATM   30  O1  UNL     1     -52.437  11.187  -1.006  1.00  0.00    -0.356 OA
HETATM   31  C16 UNL     1     -51.355  11.221  -1.885  1.00  0.00     0.210 C 
ENDBRANCH  27  30
ENDBRANCH  13  24
ENDBRANCH  11  13
BRANCH  12  32
HETATM   32  C19 UNL     1     -54.172   5.338  -1.846  1.00  0.00     0.112 C 
BRANCH  32  33
HETATM   33  C20 UNL     1     -54.141   6.592  -2.627  1.00  0.00    -0.020 A 
HETATM   34  C21 UNL     1     -52.941   7.166  -3.029  1.00  0.00     0.013 A 
HETATM   35  C22 UNL     1     -52.896   8.339  -3.763  1.00  0.00     0.001 A 
HETATM   36  C23 UNL     1     -54.041   8.987  -4.124  1.00  0.00     0.000 A 
HETATM   37  C24 UNL     1     -55.231   8.456  -3.748  1.00  0.00     0.001 A 
HETATM   38  C25 UNL     1     -55.268   7.289  -3.019  1.00  0.00     0.013 A 
ENDBRANCH  32  33
ENDBRANCH  12  32
BRANCH   1  39
HETATM   39  N1  UNL     1     -58.291   2.561  -3.543  1.00  0.00    -0.226 N 
ATOM     40  H1  UNL     1     -59.162   2.852  -3.987  1.00  0.00     0.177 HD
BRANCH  39  41
HETATM   41  C3  UNL     1     -57.547   1.522  -4.176  1.00  0.00     0.137 C 
BRANCH  41  42
HETATM   42  C2  UNL     1     -57.396   0.283  -3.333  1.00  0.00     0.016 C 
HETATM   43  C1  UNL     1     -57.396  -0.960  -4.210  1.00  0.00     0.006 C 
ENDBRANCH  41  42
ENDBRANCH  39  41
ENDBRANCH   1  39
TORSDOF 10
ENDMDL
MODEL 2
REMARK VINA RESULT: -6.730662998      6.638      9.201
REMARK  10 active torsions:
REMARK  status: ('A' for Active; 'I' for Inactive)
REMARK    1  A    between atoms: C2_2  and  C3_3 
REMARK    2  A    between atoms: C3_3  and  N1_4 
REMARK    3  A    between atoms: N1_4  and  C4_6 
REMARK    4  A    between atoms: C8_16  and  C9_17 
REMARK    5  A    between atoms: C9_17  and  N5_18 
REMARK    6  A    between atoms: C9_17  and  C12_28 
REMARK    7  A    between atoms: N5_18  and  C10_20 
REMARK    8  A    between atoms: C15_31  and  O1_32 
REMARK    9  A    between atoms: N9_36  and  C19_37 
REMARK   10  A    between atoms: C19_37  and  C20_38 
ROOT
HETATM    1  C4  UNL     1     -62.211   9.898   2.982  1.00  0.00     0.679 A 
HETATM    2  N2  UNL     1     -61.403  10.143   4.047  1.00  0.00    -0.174 N 
ATOM      3  H2  UNL     1     -61.797  10.590   4.875  1.00  0.00     0.186 HD
HETATM    4  C5  UNL     1     -60.102   9.816   4.042  1.00  0.00     0.157 A 
HETATM    5  C6  UNL     1     -59.609   9.224   2.928  1.00  0.00     0.095 A 
HETATM    6  C7  UNL     1     -60.437   8.979   1.852  1.00  0.00     0.139 A 
HETATM    7  N3  UNL     1     -61.757   9.314   1.860  1.00  0.00    -0.200 N 
ATOM      8  H3  UNL     1     -62.366   9.132   1.062  1.00  0.00     0.183 HD
HETATM    9  N4  UNL     1     -58.336   8.999   3.166  1.00  0.00    -0.336 N 
ATOM     10  H4  UNL     1     -57.697   8.559   2.504  1.00  0.00     0.168 HD
HETATM   11  C8  UNL     1     -57.973   9.428   4.416  1.00  0.00     0.142 A 
HETATM   12  N9  UNL     1     -59.105   9.950   4.974  1.00  0.00    -0.289 N 
ENDROOT
BRANCH  11  13
HETATM   13  C9  UNL     1     -56.644   9.263   4.922  1.00  0.00     0.104 C 
BRANCH  13  14
HETATM   14  N5  UNL     1     -56.259   8.111   5.629  1.00  0.00    -0.186 N 
ATOM     15  H5  UNL     1     -56.456   8.119   6.629  1.00  0.00     0.184 HD
BRANCH  14  16
HETATM   16  C10 UNL     1     -55.689   7.045   5.178  1.00  0.00     0.698 A 
HETATM   17  N6  UNL     1     -54.396   6.816   4.939  1.00  0.00    -0.185 N 
HETATM   18  C11 UNL     1     -54.282   5.566   4.479  1.00  0.00     0.215 A 
ATOM     19  H6  UNL     1     -53.632   7.476   5.082  1.00  0.00     0.185 HD
HETATM   20  N7  UNL     1     -55.521   5.051   4.447  1.00  0.00    -0.281 N 
HETATM   21  N8  UNL     1     -56.391   5.947   4.873  1.00  0.00    -0.131 N 
ATOM     22  H7  UNL     1     -55.756   4.108   4.140  1.00  0.00     0.188 HD
ATOM     23  H8  UNL     1     -57.400   5.827   4.953  1.00  0.00     0.205 HD
ENDBRANCH  14  16
ENDBRANCH  13  14
BRANCH  13  24
HETATM   24  C12 UNL     1     -55.962  10.450   5.487  1.00  0.00    -0.005 A 
HETATM   25  C13 UNL     1     -56.082  11.707   4.902  1.00  0.00     0.016 A 
HETATM   26  C14 UNL     1     -55.444  12.816   5.399  1.00  0.00     0.037 A 
HETATM   27  C15 UNL     1     -54.643  12.730   6.517  1.00  0.00     0.068 A 
HETATM   28  C17 UNL     1     -54.518  11.493   7.100  1.00  0.00     0.037 A 
HETATM   29  C18 UNL     1     -55.164  10.372   6.598  1.00  0.00     0.016 A 
BRANCH  27  30
HETATM   30  O1  UNL     1     -53.984  13.834   7.043  1.00  0.00    -0.356 OA
HETATM   31  C16 UNL     1     -54.629  14.946   7.584  1.00  0.00     0.210 C 
ENDBRANCH  27  30
ENDBRANCH  13  24
ENDBRANCH  11  13
BRANCH  12  32
HETATM   32  C19 UNL     1     -59.313  10.505   6.241  1.00  0.00     0.112 C 
BRANCH  32  33
HETATM   33  C20 UNL     1     -59.061   9.666   7.432  1.00  0.00    -0.020 A 
HETATM   34  C21 UNL     1     -58.365  10.156   8.530  1.00  0.00     0.013 A 
HETATM   35  C22 UNL     1     -58.125   9.383   9.653  1.00  0.00     0.001 A 
HETATM   36  C23 UNL     1     -58.565   8.093   9.727  1.00  0.00     0.000 A 
HETATM   37  C24 UNL     1     -59.248   7.581   8.674  1.00  0.00     0.001 A 
HETATM   38  C25 UNL     1     -59.484   8.357   7.560  1.00  0.00     0.013 A 
ENDBRANCH  32  33
ENDBRANCH  12  32
BRANCH   1  39
HETATM   39  N1  UNL     1     -63.454  10.228   3.027  1.00  0.00    -0.226 N 
ATOM     40  H1  UNL     1     -63.713  11.002   3.640  1.00  0.00     0.177 HD
BRANCH  39  41
HETATM   41  C3  UNL     1     -64.499   9.598   2.289  1.00  0.00     0.137 C 
BRANCH  41  42
HETATM   42  C2  UNL     1     -65.692   9.222   3.127  1.00  0.00     0.016 C 
HETATM   43  C1  UNL     1     -65.984  10.307   4.153  1.00  0.00     0.006 C 
ENDBRANCH  41  42
ENDBRANCH  39  41
ENDBRANCH   1  39
TORSDOF 10
ENDMDL
MODEL 3
REMARK VINA RESULT: -6.723733935      5.021     11.431
REMARK  10 active torsions:
REMARK  status: ('A' for Active; 'I' for Inactive)
REMARK    1  A    between atoms: C2_2  and  C3_3 
REMARK    2  A    between atoms: C3_3  and  N1_4 
REMARK    3  A    between atoms: N1_4  and  C4_6 
REMARK    4  A    between atoms: C8_16  and  C9_17 
REMARK    5  A    between atoms: C9_17  and  N5_18 
REMARK    6  A    between atoms: C9_17  and  C12_28 
REMARK    7  A    between atoms: N5_18  and  C10_20 
REMARK    8  A    between atoms: C15_31  and  O1_32 
REMARK    9  A    between atoms: N9_36  and  C19_37 
REMARK   10  A    between atoms: C19_37  and  C20_38 
ROOT
HETATM    1  C4  UNL     1     -56.625   2.819  -1.577  1.00  0.00     0.679 A 
HETATM    2  N2  UNL     1     -56.811   1.740  -2.382  1.00  0.00    -0.174 N 
ATOM      3  H2  UNL     1     -55.995   1.263  -2.766  1.00  0.00     0.186 HD
HETATM    4  C5  UNL     1     -58.035   1.284  -2.690  1.00  0.00     0.157 A 
HETATM    5  C6  UNL     1     -59.097   1.941  -2.165  1.00  0.00     0.095 A 
HETATM    6  C7  UNL     1     -58.900   3.034  -1.348  1.00  0.00     0.139 A 
HETATM    7  N3  UNL     1     -57.655   3.495  -1.039  1.00  0.00    -0.200 N 
ATOM      8  H3  UNL     1     -57.513   4.304  -0.436  1.00  0.00     0.183 HD
HETATM    9  N4  UNL     1     -60.167   1.311  -2.599  1.00  0.00    -0.336 N 
ATOM     10  H4  UNL     1     -61.123   1.579  -2.368  1.00  0.00     0.168 HD
HETATM   11  C8  UNL     1     -59.836   0.250  -3.401  1.00  0.00     0.142 A 
HETATM   12  N9  UNL     1     -58.472   0.236  -3.457  1.00  0.00    -0.289 N 
ENDROOT
BRANCH  11  13
HETATM   13  C9  UNL     1     -60.828  -0.612  -3.970  1.00  0.00     0.104 C 
BRANCH  13  14
HETATM   14  N5  UNL     1     -62.056  -0.119  -4.441  1.00  0.00    -0.186 N 
ATOM     15  H5  UNL     1     -62.866  -0.717  -4.276  1.00  0.00     0.184 HD
BRANCH  14  16
HETATM   16  C10 UNL     1     -62.295   0.991  -5.054  1.00  0.00     0.698 A 
HETATM   17  N6  UNL     1     -61.767   1.459  -6.187  1.00  0.00    -0.185 N 
HETATM   18  C11 UNL     1     -62.321   2.650  -6.433  1.00  0.00     0.215 A 
ATOM     19  H6  UNL     1     -61.067   0.991  -6.762  1.00  0.00     0.185 HD
HETATM   20  N7  UNL     1     -63.186   2.887  -5.434  1.00  0.00    -0.281 N 
HETATM   21  N8  UNL     1     -63.178   1.879  -4.584  1.00  0.00    -0.131 N 
ATOM     22  H7  UNL     1     -63.763   3.723  -5.345  1.00  0.00     0.188 HD
ATOM     23  H8  UNL     1     -63.736   1.793  -3.735  1.00  0.00     0.205 HD
ENDBRANCH  14  16
ENDBRANCH  13  14
BRANCH  13  24
HETATM   24  C12 UNL     1     -61.025  -1.945  -3.355  1.00  0.00    -0.005 A 
HETATM   25  C13 UNL     1     -60.876  -2.147  -1.986  1.00  0.00     0.016 A 
HETATM   26  C14 UNL     1     -61.036  -3.377  -1.399  1.00  0.00     0.037 A 
HETATM   27  C15 UNL     1     -61.355  -4.485  -2.154  1.00  0.00     0.068 A 
HETATM   28  C17 UNL     1     -61.502  -4.295  -3.506  1.00  0.00     0.037 A 
HETATM   29  C18 UNL     1     -61.342  -3.052  -4.100  1.00  0.00     0.016 A 
BRANCH  27  30
HETATM   30  O1  UNL     1     -61.522  -5.744  -1.590  1.00  0.00    -0.356 OA
HETATM   31  C16 UNL     1     -60.557  -6.389  -0.817  1.00  0.00     0.210 C 
ENDBRANCH  27  30
ENDBRANCH  13  24
ENDBRANCH  11  13
BRANCH  12  32
HETATM   32  C19 UNL     1     -57.605  -0.646  -4.112  1.00  0.00     0.112 C 
BRANCH  32  33
HETATM   33  C20 UNL     1     -57.624  -2.073  -3.730  1.00  0.00    -0.020 A 
HETATM   34  C21 UNL     1     -57.777  -3.076  -4.679  1.00  0.00     0.013 A 
HETATM   35  C22 UNL     1     -57.794  -4.417  -4.337  1.00  0.00     0.001 A 
HETATM   36  C23 UNL     1     -57.661  -4.813  -3.037  1.00  0.00     0.000 A 
HETATM   37  C24 UNL     1     -57.510  -3.862  -2.083  1.00  0.00     0.001 A 
HETATM   38  C25 UNL     1     -57.494  -2.529  -2.432  1.00  0.00     0.013 A 
ENDBRANCH  32  33
ENDBRANCH  12  32
BRANCH   1  39
HETATM   39  N1  UNL     1     -55.435   3.224  -1.307  1.00  0.00    -0.226 N 
ATOM     40  H1  UNL     1     -54.920   2.721  -0.584  1.00  0.00     0.177 HD
BRANCH  39  41
HETATM   41  C3  UNL     1     -54.777   4.321  -1.937  1.00  0.00     0.137 C 
BRANCH  41  42
HETATM   42  C2  UNL     1     -53.649   4.901  -1.125  1.00  0.00     0.016 C 
HETATM   43  C1  UNL     1     -52.358   4.899  -1.931  1.00  0.00     0.006 C 
ENDBRANCH  41  42
ENDBRANCH  39  41
ENDBRANCH   1  39
TORSDOF 10
ENDMDL
MODEL 4
REMARK VINA RESULT: -6.689235653      4.614     10.028
REMARK  10 active torsions:
REMARK  status: ('A' for Active; 'I' for Inactive)
REMARK    1  A    between atoms: C2_2  and  C3_3 
REMARK    2  A    between atoms: C3_3  and  N1_4 
REMARK    3  A    between atoms: N1_4  and  C4_6 
REMARK    4  A    between atoms: C8_16  and  C9_17 
REMARK    5  A    between atoms: C9_17  and  N5_18 
REMARK    6  A    between atoms: C9_17  and  C12_28 
REMARK    7  A    between atoms: N5_18  and  C10_20 
REMARK    8  A    between atoms: C15_31  and  O1_32 
REMARK    9  A    between atoms: N9_36  and  C19_37 
REMARK   10  A    between atoms: C19_37  and  C20_38 
ROOT
HETATM    1  C4  UNL     1     -55.738   4.068  -1.843  1.00  0.00     0.679 A 
HETATM    2  N2  UNL     1     -55.954   3.075  -2.744  1.00  0.00    -0.174 N 
ATOM      3  H2  UNL     1     -55.262   2.910  -3.475  1.00  0.00     0.186 HD
HETATM    4  C5  UNL     1     -57.052   2.304  -2.703  1.00  0.00     0.157 A 
HETATM    5  C6  UNL     1     -57.952   2.548  -1.720  1.00  0.00     0.095 A 
HETATM    6  C7  UNL     1     -57.723   3.558  -0.809  1.00  0.00     0.139 A 
HETATM    7  N3  UNL     1     -56.608   4.340  -0.855  1.00  0.00    -0.200 N 
ATOM      8  H3  UNL     1     -56.444   5.087  -0.181  1.00  0.00     0.183 HD
HETATM    9  N4  UNL     1     -58.919   1.672  -1.884  1.00  0.00    -0.336 N 
ATOM     10  H4  UNL     1     -59.744   1.612  -1.289  1.00  0.00     0.168 HD
HETATM   11  C8  UNL     1     -58.679   0.852  -2.955  1.00  0.00     0.142 A 
HETATM   12  N9  UNL     1     -57.484   1.258  -3.476  1.00  0.00    -0.289 N 
ENDROOT
BRANCH  11  13
HETATM   13  C9  UNL     1     -59.573  -0.206  -3.318  1.00  0.00     0.104 C 
BRANCH  13  14
HETATM   14  N5  UNL     1     -60.928   0.033  -3.604  1.00  0.00    -0.186 N 
ATOM     15  H5  UNL     1     -61.595  -0.558  -3.109  1.00  0.00     0.184 HD
BRANCH  14  16
HETATM   16  C10 UNL     1     -61.437   0.902  -4.409  1.00  0.00     0.698 A 
HETATM   17  N6  UNL     1     -61.173   1.113  -5.700  1.00  0.00    -0.185 N 
HETATM   18  C11 UNL     1     -61.948   2.120  -6.116  1.00  0.00     0.215 A 
ATOM     19  H6  UNL     1     -60.500   0.599  -6.268  1.00  0.00     0.185 HD
HETATM   20  N7  UNL     1     -62.679   2.506  -5.058  1.00  0.00    -0.281 N 
HETATM   21  N8  UNL     1     -62.375   1.769  -4.008  1.00  0.00    -0.131 N 
ATOM     22  H7  UNL     1     -63.367   3.259  -5.065  1.00  0.00     0.188 HD
ATOM     23  H8  UNL     1     -62.776   1.844  -3.074  1.00  0.00     0.205 HD
ENDBRANCH  14  16
ENDBRANCH  13  14
BRANCH  13  24
HETATM   24  C12 UNL     1     -59.429  -1.507  -2.624  1.00  0.00    -0.005 A 
HETATM   25  C13 UNL     1     -58.278  -2.280  -2.754  1.00  0.00     0.016 A 
HETATM   26  C14 UNL     1     -58.131  -3.496  -2.136  1.00  0.00     0.037 A 
HETATM   27  C15 UNL     1     -59.135  -4.013  -1.345  1.00  0.00     0.068 A 
HETATM   28  C17 UNL     1     -60.274  -3.258  -1.212  1.00  0.00     0.037 A 
HETATM   29  C18 UNL     1     -60.422  -2.028  -1.837  1.00  0.00     0.016 A 
BRANCH  27  30
HETATM   30  O1  UNL     1     -59.017  -5.241  -0.706  1.00  0.00    -0.356 OA
HETATM   31  C16 UNL     1     -60.068  -6.144  -0.549  1.00  0.00     0.210 C 
ENDBRANCH  27  30
ENDBRANCH  13  24
ENDBRANCH  11  13
BRANCH  12  32
HETATM   32  C19 UNL     1     -56.754   0.755  -4.558  1.00  0.00     0.112 C 
BRANCH  32  33
HETATM   33  C20 UNL     1     -56.704   1.542  -5.808  1.00  0.00    -0.020 A 
HETATM   34  C21 UNL     1     -55.542   1.627  -6.565  1.00  0.00     0.013 A 
HETATM   35  C22 UNL     1     -55.481   2.359  -7.738  1.00  0.00     0.001 A 
HETATM   36  C23 UNL     1     -56.571   3.035  -8.204  1.00  0.00     0.000 A 
HETATM   37  C24 UNL     1     -57.723   2.975  -7.491  1.00  0.00     0.001 A 
HETATM   38  C25 UNL     1     -57.776   2.244  -6.324  1.00  0.00     0.013 A 
ENDBRANCH  32  33
ENDBRANCH  12  32
BRANCH   1  39
HETATM   39  N1  UNL     1     -54.672   4.785  -1.918  1.00  0.00    -0.226 N 
ATOM     40  H1  UNL     1     -54.375   5.089  -2.845  1.00  0.00     0.177 HD
BRANCH  39  41
HETATM   41  C3  UNL     1     -53.873   5.188  -0.807  1.00  0.00     0.137 C 
BRANCH  41  42
HETATM   42  C2  UNL     1     -52.462   5.562  -1.178  1.00  0.00     0.016 C 
HETATM   43  C1  UNL     1     -51.951   4.664  -2.295  1.00  0.00     0.006 C 
ENDBRANCH  41  42
ENDBRANCH  39  41
ENDBRANCH   1  39
TORSDOF 10
ENDMDL
MODEL 5
REMARK VINA RESULT: -6.687965176      5.739      7.925
REMARK  10 active torsions:
REMARK  status: ('A' for Active; 'I' for Inactive)
REMARK    1  A    between atoms: C2_2  and  C3_3 
REMARK    2  A    between atoms: C3_3  and  N1_4 
REMARK    3  A    between atoms: N1_4  and  C4_6 
REMARK    4  A    between atoms: C8_16  and  C9_17 
REMARK    5  A    between atoms: C9_17  and  N5_18 
REMARK    6  A    between atoms: C9_17  and  C12_28 
REMARK    7  A    between atoms: N5_18  and  C10_20 
REMARK    8  A    between atoms: C15_31  and  O1_32 
REMARK    9  A    between atoms: N9_36  and  C19_37 
REMARK   10  A    between atoms: C19_37  and  C20_38 
ROOT
HETATM    1  C4  UNL     1     -56.469   7.147   1.757  1.00  0.00     0.679 A 
HETATM    2  N2  UNL     1     -56.829   8.272   2.429  1.00  0.00    -0.174 N 
ATOM      3  H2  UNL     1     -57.348   8.998   1.935  1.00  0.00     0.186 HD
HETATM    4  C5  UNL     1     -56.523   8.456   3.722  1.00  0.00     0.157 A 
HETATM    5  C6  UNL     1     -55.834   7.472   4.348  1.00  0.00     0.095 A 
HETATM    6  C7  UNL     1     -55.473   6.334   3.659  1.00  0.00     0.139 A 
HETATM    7  N3  UNL     1     -55.785   6.151   2.345  1.00  0.00    -0.200 N 
ATOM      8  H3  UNL     1     -55.515   5.308   1.839  1.00  0.00     0.183 HD
HETATM    9  N4  UNL     1     -55.664   7.878   5.588  1.00  0.00    -0.336 N 
ATOM     10  H4  UNL     1     -55.175   7.343   6.304  1.00  0.00     0.168 HD
HETATM   11  C8  UNL     1     -56.226   9.110   5.797  1.00  0.00     0.142 A 
HETATM   12  N9  UNL     1     -56.775   9.477   4.601  1.00  0.00    -0.289 N 
ENDROOT
BRANCH  11  13
HETATM   13  C9  UNL     1     -56.202   9.751   7.077  1.00  0.00     0.104 C 
BRANCH  13  14
HETATM   14  N5  UNL     1     -57.381  10.017   7.794  1.00  0.00    -0.186 N 
ATOM     15  H5  UNL     1     -57.832  10.908   7.588  1.00  0.00     0.184 HD
BRANCH  14  16
HETATM   16  C10 UNL     1     -57.967   9.283   8.678  1.00  0.00     0.698 A 
HETATM   17  N6  UNL     1     -57.615   9.043   9.943  1.00  0.00    -0.185 N 
HETATM   18  C11 UNL     1     -58.528   8.222  10.471  1.00  0.00     0.215 A 
ATOM     19  H6  UNL     1     -56.797   9.419  10.421  1.00  0.00     0.185 HD
HETATM   20  N7  UNL     1     -59.430   7.975   9.507  1.00  0.00    -0.281 N 
HETATM   21  N8  UNL     1     -59.096   8.619   8.405  1.00  0.00    -0.131 N 
ATOM     22  H7  UNL     1     -60.250   7.379   9.611  1.00  0.00     0.188 HD
ATOM     23  H8  UNL     1     -59.600   8.612   7.519  1.00  0.00     0.205 HD
ENDBRANCH  14  16
ENDBRANCH  13  14
BRANCH  13  24
HETATM   24  C12 UNL     1     -55.228  10.846   7.288  1.00  0.00    -0.005 A 
HETATM   25  C13 UNL     1     -53.966  10.823   6.701  1.00  0.00     0.016 A 
HETATM   26  C14 UNL     1     -53.042  11.818   6.899  1.00  0.00     0.037 A 
HETATM   27  C15 UNL     1     -53.329  12.901   7.702  1.00  0.00     0.068 A 
HETATM   28  C17 UNL     1     -54.571  12.931   8.285  1.00  0.00     0.037 A 
HETATM   29  C18 UNL     1     -55.506  11.926   8.085  1.00  0.00     0.016 A 
BRANCH  27  30
HETATM   30  O1  UNL     1     -52.414  13.924   7.922  1.00  0.00    -0.356 OA
HETATM   31  C16 UNL     1     -51.703  14.095   9.109  1.00  0.00     0.210 C 
ENDBRANCH  27  30
ENDBRANCH  13  24
ENDBRANCH  11  13
BRANCH  12  32
HETATM   32  C19 UNL     1     -57.493  10.626   4.253  1.00  0.00     0.112 C 
BRANCH  32  33
HETATM   33  C20 UNL     1     -56.855  11.945   4.445  1.00  0.00    -0.020 A 
HETATM   34  C21 UNL     1     -57.459  12.939   5.205  1.00  0.00     0.013 A 
HETATM   35  C22 UNL     1     -56.872  14.179   5.396  1.00  0.00     0.001 A 
HETATM   36  C23 UNL     1     -55.664  14.478   4.837  1.00  0.00     0.000 A 
HETATM   37  C24 UNL     1     -55.045  13.532   4.088  1.00  0.00     0.001 A 
HETATM   38  C25 UNL     1     -55.634  12.301   3.904  1.00  0.00     0.013 A 
ENDBRANCH  32  33
ENDBRANCH  12  32
BRANCH   1  39
HETATM   39  N1  UNL     1     -56.782   7.009   0.516  1.00  0.00    -0.226 N 
ATOM     40  H1  UNL     1     -57.172   7.821   0.037  1.00  0.00     0.177 HD
BRANCH  39  41
HETATM   41  C3  UNL     1     -56.627   5.811  -0.242  1.00  0.00     0.137 C 
BRANCH  41  42
HETATM   42  C2  UNL     1     -57.913   5.298  -0.834  1.00  0.00     0.016 C 
HETATM   43  C1  UNL     1     -58.536   4.249   0.076  1.00  0.00     0.006 C 
ENDBRANCH  41  42
ENDBRANCH  39  41
ENDBRANCH   1  39
TORSDOF 10
ENDMDL
