MODEL 1
REMARK VINA RESULT: -7.375562582      0.000      0.000
REMARK  10 active torsions:
REMARK  status: ('A' for Active; 'I' for Inactive)
REMARK    1  A    between atoms: C6_6  and  C7_7 
REMARK    2  A    between atoms: C7_7  and  N1_8 
REMARK    3  A    between atoms: N1_8  and  C8_9 
REMARK    4  A    between atoms: N1_8  and  C18_30 
REMARK    5  A    between atoms: C8_9  and  C9_10 
REMARK    6  A    between atoms: N5_17  and  C10_18 
REMARK    7  A    between atoms: C13_21  and  C14_22 
REMARK    8  A    between atoms: C14_22  and  C15_23 
REMARK    9  A    between atoms: C18_30  and  N8_32 
REMARK   10  A    between atoms: N8_32  and  C19_34 
ROOT
HETATM    1  C9  UNL     1     -53.298   5.472  -1.066  1.00  0.00     0.160 A 
HETATM    2  N2  UNL     1     -53.131   4.202  -1.541  1.00  0.00    -0.267 N 
ATOM      3  H2  UNL     1     -53.718   3.407  -1.287  1.00  0.00     0.190 HD
HETATM    4  N3  UNL     1     -52.121   4.143  -2.361  1.00  0.00    -0.226 N 
ATOM      5  H3  UNL     1     -51.787   3.312  -2.850  1.00  0.00     0.210 HD
HETATM    6  N4  UNL     1     -51.612   5.356  -2.440  1.00  0.00    -0.219 N 
ATOM      7  H4  UNL     1     -50.810   5.627  -3.008  1.00  0.00     0.210 HD
HETATM    8  N5  UNL     1     -52.318   6.171  -1.658  1.00  0.00    -0.222 N 
ENDROOT
BRANCH   1   9
HETATM    9  C8  UNL     1     -54.319   5.870  -0.126  1.00  0.00     0.145 C 
BRANCH   9  10
HETATM   10  N1  UNL     1     -55.669   6.014  -0.607  1.00  0.00    -0.326 N 
BRANCH  10  11
HETATM   11  C7  UNL     1     -55.950   6.577  -1.897  1.00  0.00     0.169 C 
BRANCH  11  12
HETATM   12  C6  UNL     1     -55.594   7.970  -2.109  1.00  0.00    -0.039 A 
HETATM   13  C5  UNL     1     -55.723   8.895  -1.112  1.00  0.00     0.009 A 
HETATM   14  C4  UNL     1     -55.381  10.231  -1.349  1.00  0.00     0.001 A 
HETATM   15  C3  UNL     1     -54.918  10.590  -2.593  1.00  0.00     0.007 A 
HETATM   16  C2  UNL     1     -54.778   9.673  -3.621  1.00  0.00    -0.061 A 
HETATM   17  C1  UNL     1     -54.271  10.125  -4.944  1.00  0.00     0.048 C 
HETATM   18  C25 UNL     1     -55.126   8.382  -3.334  1.00  0.00     0.015 A 
ENDBRANCH  11  12
ENDBRANCH  10  11
BRANCH  10  19
HETATM   19  C18 UNL     1     -56.736   5.619   0.209  1.00  0.00     0.178 C 
HETATM   20  S1  UNL     1     -56.456   5.494   1.811  1.00  0.00    -0.040 SA
BRANCH  19  21
HETATM   21  N8  UNL     1     -58.008   5.360  -0.285  1.00  0.00    -0.333 N 
ATOM     22  H8  UNL     1     -58.663   6.139  -0.225  1.00  0.00     0.168 HD
BRANCH  21  23
HETATM   23  C19 UNL     1     -58.529   4.181  -0.858  1.00  0.00     0.034 A 
HETATM   24  C20 UNL     1     -59.213   3.302  -0.006  1.00  0.00     0.029 A 
HETATM   25  C21 UNL     1     -59.798   2.135  -0.421  1.00  0.00     0.002 A 
HETATM   26  C22 UNL     1     -59.709   1.802  -1.768  1.00  0.00     0.000 A 
HETATM   27  C23 UNL     1     -59.047   2.639  -2.633  1.00  0.00     0.002 A 
HETATM   28  C24 UNL     1     -58.467   3.820  -2.156  1.00  0.00     0.029 A 
ENDBRANCH  21  23
ENDBRANCH  19  21
ENDBRANCH  10  19
ENDBRANCH   9  10
ENDBRANCH   1   9
BRANCH   8  29
HETATM   29  C10 UNL     1     -52.029   7.534  -1.521  1.00  0.00     0.060 A 
HETATM   30  C11 UNL     1     -51.600   8.254  -2.615  1.00  0.00     0.032 A 
HETATM   31  C12 UNL     1     -51.302   9.612  -2.514  1.00  0.00     0.010 A 
HETATM   32  C13 UNL     1     -51.428  10.278  -1.318  1.00  0.00    -0.051 A 
HETATM   33  C16 UNL     1     -51.861   9.539  -0.228  1.00  0.00     0.010 A 
HETATM   34  C17 UNL     1     -52.159   8.194  -0.315  1.00  0.00     0.032 A 
BRANCH  32  35
HETATM   35  C14 UNL     1     -51.117  11.734  -1.183  1.00  0.00     0.111 C 
BRANCH  35  36
HETATM   36  C15 UNL     1     -49.802  12.065  -1.809  1.00  0.00     0.090 C 
HETATM   37  N6  UNL     1     -48.694  11.746  -1.236  1.00  0.00    -0.391 N 
ATOM     38  H62 UNL     1     -48.746  11.261  -0.341  1.00  0.00     0.157 HD
ATOM     39  H61 UNL     1     -47.797  11.973  -1.664  1.00  0.00     0.157 HD
HETATM   40  N7  UNL     1     -49.730  12.738  -3.048  1.00  0.00    -0.088 NA
ENDBRANCH  35  36
ENDBRANCH  32  35
ENDBRANCH   8  29
TORSDOF 10
ENDMDL
MODEL 2
REMARK VINA RESULT: -7.278423289      1.200      1.829
REMARK  10 active torsions:
REMARK  status: ('A' for Active; 'I' for Inactive)
REMARK    1  A    between atoms: C6_6  and  C7_7 
REMARK    2  A    between atoms: C7_7  and  N1_8 
REMARK    3  A    between atoms: N1_8  and  C8_9 
REMARK    4  A    between atoms: N1_8  and  C18_30 
REMARK    5  A    between atoms: C8_9  and  C9_10 
REMARK    6  A    between atoms: N5_17  and  C10_18 
REMARK    7  A    between atoms: C13_21  and  C14_22 
REMARK    8  A    between atoms: C14_22  and  C15_23 
REMARK    9  A    between atoms: C18_30  and  N8_32 
REMARK   10  A    between atoms: N8_32  and  C19_34 
ROOT
HETATM    1  C9  UNL     1     -53.789   5.496  -1.853  1.00  0.00     0.160 A 
HETATM    2  N2  UNL     1     -53.483   4.174  -1.695  1.00  0.00    -0.267 N 
ATOM      3  H2  UNL     1     -54.160   3.448  -1.461  1.00  0.00     0.190 HD
HETATM    4  N3  UNL     1     -52.212   3.966  -1.884  1.00  0.00    -0.226 N 
ATOM      5  H3  UNL     1     -51.730   3.069  -1.824  1.00  0.00     0.210 HD
HETATM    6  N4  UNL     1     -51.664   5.131  -2.166  1.00  0.00    -0.219 N 
ATOM      7  H4  UNL     1     -50.677   5.290  -2.365  1.00  0.00     0.210 HD
HETATM    8  N5  UNL     1     -52.612   6.067  -2.150  1.00  0.00    -0.222 N 
ENDROOT
BRANCH   1   9
HETATM    9  C8  UNL     1     -55.110   6.058  -1.697  1.00  0.00     0.145 C 
BRANCH   9  10
HETATM   10  N1  UNL     1     -55.474   6.595  -0.410  1.00  0.00    -0.326 N 
BRANCH  10  11
HETATM   11  C7  UNL     1     -54.751   7.687   0.179  1.00  0.00     0.169 C 
BRANCH  11  12
HETATM   12  C6  UNL     1     -54.912   8.998  -0.427  1.00  0.00    -0.039 A 
HETATM   13  C5  UNL     1     -55.778   9.199  -1.464  1.00  0.00     0.009 A 
HETATM   14  C4  UNL     1     -55.904  10.471  -2.033  1.00  0.00     0.001 A 
HETATM   15  C3  UNL     1     -55.146  11.503  -1.533  1.00  0.00     0.007 A 
HETATM   16  C2  UNL     1     -54.260  11.327  -0.483  1.00  0.00    -0.061 A 
HETATM   17  C1  UNL     1     -53.469  12.484   0.013  1.00  0.00     0.048 C 
HETATM   18  C25 UNL     1     -54.178  10.064   0.035  1.00  0.00     0.015 A 
ENDBRANCH  11  12
ENDBRANCH  10  11
BRANCH  10  19
HETATM   19  C18 UNL     1     -56.542   6.027   0.294  1.00  0.00     0.178 C 
HETATM   20  S1  UNL     1     -56.308   5.681   1.870  1.00  0.00    -0.040 SA
BRANCH  19  21
HETATM   21  N8  UNL     1     -57.779   5.777  -0.285  1.00  0.00    -0.333 N 
ATOM     22  H8  UNL     1     -58.412   6.577  -0.318  1.00  0.00     0.168 HD
BRANCH  21  23
HETATM   23  C19 UNL     1     -58.293   4.584  -0.835  1.00  0.00     0.034 A 
HETATM   24  C20 UNL     1     -58.893   3.676   0.049  1.00  0.00     0.029 A 
HETATM   25  C21 UNL     1     -59.460   2.492  -0.339  1.00  0.00     0.002 A 
HETATM   26  C22 UNL     1     -59.441   2.169  -1.692  1.00  0.00     0.000 A 
HETATM   27  C23 UNL     1     -58.861   3.035  -2.588  1.00  0.00     0.002 A 
HETATM   28  C24 UNL     1     -58.295   4.233  -2.138  1.00  0.00     0.029 A 
ENDBRANCH  21  23
ENDBRANCH  19  21
ENDBRANCH  10  19
ENDBRANCH   9  10
ENDBRANCH   1   9
BRANCH   8  29
HETATM   29  C10 UNL     1     -52.352   7.418  -2.411  1.00  0.00     0.060 A 
HETATM   30  C11 UNL     1     -52.937   8.028  -3.499  1.00  0.00     0.032 A 
HETATM   31  C12 UNL     1     -52.699   9.371  -3.788  1.00  0.00     0.010 A 
HETATM   32  C13 UNL     1     -51.873  10.131  -2.996  1.00  0.00    -0.051 A 
HETATM   33  C16 UNL     1     -51.293   9.502  -1.905  1.00  0.00     0.010 A 
HETATM   34  C17 UNL     1     -51.520   8.173  -1.608  1.00  0.00     0.032 A 
BRANCH  32  35
HETATM   35  C14 UNL     1     -51.602  11.572  -3.283  1.00  0.00     0.111 C 
BRANCH  35  36
HETATM   36  C15 UNL     1     -50.161  11.797  -3.607  1.00  0.00     0.090 C 
HETATM   37  N6  UNL     1     -49.480  12.708  -3.006  1.00  0.00    -0.391 N 
ATOM     38  H62 UNL     1     -49.957  13.271  -2.303  1.00  0.00     0.157 HD
ATOM     39  H61 UNL     1     -48.496  12.861  -3.227  1.00  0.00     0.157 HD
HETATM   40  N7  UNL     1     -49.500  11.017  -4.581  1.00  0.00    -0.088 NA
ENDBRANCH  35  36
ENDBRANCH  32  35
ENDBRANCH   8  29
TORSDOF 10
ENDMDL
MODEL 3
REMARK VINA RESULT: -7.249054064      4.533      7.690
REMARK  10 active torsions:
REMARK  status: ('A' for Active; 'I' for Inactive)
REMARK    1  A    between atoms: C6_6  and  C7_7 
REMARK    2  A    between atoms: C7_7  and  N1_8 
REMARK    3  A    between atoms: N1_8  and  C8_9 
REMARK    4  A    between atoms: N1_8  and  C18_30 
REMARK    5  A    between atoms: C8_9  and  C9_10 
REMARK    6  A    between atoms: N5_17  and  C10_18 
REMARK    7  A    between atoms: C13_21  and  C14_22 
REMARK    8  A    between atoms: C14_22  and  C15_23 
REMARK    9  A    between atoms: C18_30  and  N8_32 
REMARK   10  A    between atoms: N8_32  and  C19_34 
ROOT
HETATM    1  C9  UNL     1     -59.281   1.696  -1.802  1.00  0.00     0.160 A 
HETATM    2  N2  UNL     1     -60.389   1.247  -1.142  1.00  0.00    -0.267 N 
ATOM      3  H2  UNL     1     -61.004   0.507  -1.481  1.00  0.00     0.190 HD
HETATM    4  N3  UNL     1     -60.555   1.890  -0.023  1.00  0.00    -0.226 N 
ATOM      5  H3  UNL     1     -61.305   1.745   0.653  1.00  0.00     0.210 HD
HETATM    6  N4  UNL     1     -59.571   2.762   0.074  1.00  0.00    -0.219 N 
ATOM      7  H4  UNL     1     -59.429   3.413   0.846  1.00  0.00     0.210 HD
HETATM    8  N5  UNL     1     -58.792   2.653  -1.001  1.00  0.00    -0.222 N 
ENDROOT
BRANCH   1   9
HETATM    9  C8  UNL     1     -58.828   1.199  -3.081  1.00  0.00     0.145 C 
BRANCH   9  10
HETATM   10  N1  UNL     1     -59.360   1.806  -4.275  1.00  0.00    -0.326 N 
BRANCH  10  11
HETATM   11  C7  UNL     1     -58.828   3.036  -4.791  1.00  0.00     0.169 C 
BRANCH  11  12
HETATM   12  C6  UNL     1     -58.062   2.966  -6.024  1.00  0.00    -0.039 A 
HETATM   13  C5  UNL     1     -58.547   3.486  -7.190  1.00  0.00     0.009 A 
HETATM   14  C4  UNL     1     -57.791   3.396  -8.364  1.00  0.00     0.001 A 
HETATM   15  C3  UNL     1     -56.563   2.779  -8.319  1.00  0.00     0.007 A 
HETATM   16  C2  UNL     1     -56.048   2.244  -7.151  1.00  0.00    -0.061 A 
HETATM   17  C1  UNL     1     -54.712   1.590  -7.169  1.00  0.00     0.048 C 
HETATM   18  C25 UNL     1     -56.829   2.361  -6.035  1.00  0.00     0.015 A 
ENDBRANCH  11  12
ENDBRANCH  10  11
BRANCH  10  19
HETATM   19  C18 UNL     1     -60.433   1.198  -4.935  1.00  0.00     0.178 C 
HETATM   20  S1  UNL     1     -61.888   1.930  -4.845  1.00  0.00    -0.040 SA
BRANCH  19  21
HETATM   21  N8  UNL     1     -60.300   0.030  -5.674  1.00  0.00    -0.333 N 
ATOM     22  H8  UNL     1     -61.114  -0.585  -5.663  1.00  0.00     0.168 HD
BRANCH  21  23
HETATM   23  C19 UNL     1     -59.208  -0.436  -6.436  1.00  0.00     0.034 A 
HETATM   24  C20 UNL     1     -59.219  -0.159  -7.810  1.00  0.00     0.029 A 
HETATM   25  C21 UNL     1     -58.218  -0.520  -8.671  1.00  0.00     0.002 A 
HETATM   26  C22 UNL     1     -57.122  -1.203  -8.152  1.00  0.00     0.000 A 
HETATM   27  C23 UNL     1     -57.076  -1.491  -6.810  1.00  0.00     0.002 A 
HETATM   28  C24 UNL     1     -58.127  -1.098  -5.973  1.00  0.00     0.029 A 
ENDBRANCH  21  23
ENDBRANCH  19  21
ENDBRANCH  10  19
ENDBRANCH   9  10
ENDBRANCH   1   9
BRANCH   8  29
HETATM   29  C10 UNL     1     -57.655   3.447  -1.200  1.00  0.00     0.060 A 
HETATM   30  C11 UNL     1     -57.801   4.769  -1.559  1.00  0.00     0.032 A 
HETATM   31  C12 UNL     1     -56.691   5.587  -1.766  1.00  0.00     0.010 A 
HETATM   32  C13 UNL     1     -55.415   5.100  -1.619  1.00  0.00    -0.051 A 
HETATM   33  C16 UNL     1     -55.286   3.768  -1.257  1.00  0.00     0.010 A 
HETATM   34  C17 UNL     1     -56.377   2.947  -1.049  1.00  0.00     0.032 A 
BRANCH  32  35
HETATM   35  C14 UNL     1     -54.208   5.955  -1.834  1.00  0.00     0.111 C 
BRANCH  35  36
HETATM   36  C15 UNL     1     -53.182   5.718  -0.774  1.00  0.00     0.090 C 
HETATM   37  N6  UNL     1     -52.098   5.074  -1.032  1.00  0.00    -0.391 N 
ATOM     38  H62 UNL     1     -51.964   4.732  -1.983  1.00  0.00     0.157 HD
ATOM     39  H61 UNL     1     -51.397   4.912  -0.309  1.00  0.00     0.157 HD
HETATM   40  N7  UNL     1     -53.367   6.191   0.543  1.00  0.00    -0.088 NA
ENDBRANCH  35  36
ENDBRANCH  32  35
ENDBRANCH   8  29
TORSDOF 10
ENDMDL
MODEL 4
REMARK VINA RESULT: -7.240492458      4.339      7.489
REMARK  10 active torsions:
REMARK  status: ('A' for Active; 'I' for Inactive)
REMARK    1  A    between atoms: C6_6  and  C7_7 
REMARK    2  A    between atoms: C7_7  and  N1_8 
REMARK    3  A    between atoms: N1_8  and  C8_9 
REMARK    4  A    between atoms: N1_8  and  C18_30 
REMARK    5  A    between atoms: C8_9  and  C9_10 
REMARK    6  A    between atoms: N5_17  and  C10_18 
REMARK    7  A    between atoms: C13_21  and  C14_22 
REMARK    8  A    between atoms: C14_22  and  C15_23 
REMARK    9  A    between atoms: C18_30  and  N8_32 
REMARK   10  A    between atoms: N8_32  and  C19_34 
ROOT
HETATM    1  C9  UNL     1     -59.616   2.155  -2.033  1.00  0.00     0.160 A 
HETATM    2  N2  UNL     1     -60.618   1.540  -1.339  1.00  0.00    -0.267 N 
ATOM      3  H2  UNL     1     -61.328   0.938  -1.758  1.00  0.00     0.190 HD
HETATM    4  N3  UNL     1     -60.548   1.825  -0.070  1.00  0.00    -0.226 N 
ATOM      5  H3  UNL     1     -61.177   1.494   0.661  1.00  0.00     0.210 HD
HETATM    6  N4  UNL     1     -59.510   2.622   0.092  1.00  0.00    -0.219 N 
ATOM      7  H4  UNL     1     -59.197   3.016   0.979  1.00  0.00     0.210 HD
HETATM    8  N5  UNL     1     -58.937   2.830  -1.093  1.00  0.00    -0.222 N 
ENDROOT
BRANCH   1   9
HETATM    9  C8  UNL     1     -59.423   2.054  -3.461  1.00  0.00     0.145 C 
BRANCH   9  10
HETATM   10  N1  UNL     1     -58.349   1.227  -3.947  1.00  0.00    -0.326 N 
BRANCH  10  11
HETATM   11  C7  UNL     1     -57.059   1.778  -4.255  1.00  0.00     0.169 C 
BRANCH  11  12
HETATM   12  C6  UNL     1     -56.792   2.117  -5.643  1.00  0.00    -0.039 A 
HETATM   13  C5  UNL     1     -55.638   1.726  -6.259  1.00  0.00     0.009 A 
HETATM   14  C4  UNL     1     -55.405   2.076  -7.594  1.00  0.00     0.001 A 
HETATM   15  C3  UNL     1     -56.352   2.813  -8.265  1.00  0.00     0.007 A 
HETATM   16  C2  UNL     1     -57.531   3.222  -7.664  1.00  0.00    -0.061 A 
HETATM   17  C1  UNL     1     -58.516   4.016  -8.445  1.00  0.00     0.048 C 
HETATM   18  C25 UNL     1     -57.706   2.852  -6.360  1.00  0.00     0.015 A 
ENDBRANCH  11  12
ENDBRANCH  10  11
BRANCH  10  19
HETATM   19  C18 UNL     1     -58.570  -0.140  -4.147  1.00  0.00     0.178 C 
HETATM   20  S1  UNL     1     -59.487  -0.579  -5.422  1.00  0.00    -0.040 SA
BRANCH  19  21
HETATM   21  N8  UNL     1     -58.024  -1.120  -3.327  1.00  0.00    -0.333 N 
ATOM     22  H8  UNL     1     -57.004  -1.153  -3.313  1.00  0.00     0.168 HD
BRANCH  21  23
HETATM   23  C19 UNL     1     -58.667  -2.075  -2.513  1.00  0.00     0.034 A 
HETATM   24  C20 UNL     1     -57.960  -3.250  -2.221  1.00  0.00     0.029 A 
HETATM   25  C21 UNL     1     -58.441  -4.253  -1.422  1.00  0.00     0.002 A 
HETATM   26  C22 UNL     1     -59.707  -4.097  -0.867  1.00  0.00     0.000 A 
HETATM   27  C23 UNL     1     -60.429  -2.959  -1.131  1.00  0.00     0.002 A 
HETATM   28  C24 UNL     1     -59.890  -1.963  -1.954  1.00  0.00     0.029 A 
ENDBRANCH  21  23
ENDBRANCH  19  21
ENDBRANCH  10  19
ENDBRANCH   9  10
ENDBRANCH   1   9
BRANCH   8  29
HETATM   29  C10 UNL     1     -57.806   3.637  -1.260  1.00  0.00     0.060 A 
HETATM   30  C11 UNL     1     -56.558   3.135  -0.959  1.00  0.00     0.032 A 
HETATM   31  C12 UNL     1     -55.411   3.912  -1.114  1.00  0.00     0.010 A 
HETATM   32  C13 UNL     1     -55.487   5.205  -1.571  1.00  0.00    -0.051 A 
HETATM   33  C16 UNL     1     -56.750   5.694  -1.870  1.00  0.00     0.010 A 
HETATM   34  C17 UNL     1     -57.893   4.936  -1.721  1.00  0.00     0.032 A 
BRANCH  32  35
HETATM   35  C14 UNL     1     -54.273   6.059  -1.747  1.00  0.00     0.111 C 
BRANCH  35  36
HETATM   36  C15 UNL     1     -53.265   5.790  -0.678  1.00  0.00     0.090 C 
HETATM   37  N6  UNL     1     -52.191   5.127  -0.931  1.00  0.00    -0.391 N 
ATOM     38  H62 UNL     1     -52.053   4.793  -1.884  1.00  0.00     0.157 HD
ATOM     39  H61 UNL     1     -51.502   4.944  -0.202  1.00  0.00     0.157 HD
HETATM   40  N7  UNL     1     -53.455   6.253   0.642  1.00  0.00    -0.088 NA
ENDBRANCH  35  36
ENDBRANCH  32  35
ENDBRANCH   8  29
TORSDOF 10
ENDMDL
MODEL 5
REMARK VINA RESULT: -7.223725994      1.549      2.368
REMARK  10 active torsions:
REMARK  status: ('A' for Active; 'I' for Inactive)
REMARK    1  A    between atoms: C6_6  and  C7_7 
REMARK    2  A    between atoms: C7_7  and  N1_8 
REMARK    3  A    between atoms: N1_8  and  C8_9 
REMARK    4  A    between atoms: N1_8  and  C18_30 
REMARK    5  A    between atoms: C8_9  and  C9_10 
REMARK    6  A    between atoms: N5_17  and  C10_18 
REMARK    7  A    between atoms: C13_21  and  C14_22 
REMARK    8  A    between atoms: C14_22  and  C15_23 
REMARK    9  A    between atoms: C18_30  and  N8_32 
REMARK   10  A    between atoms: N8_32  and  C19_34 
ROOT
HETATM    1  C9  UNL     1     -53.828   6.050  -0.778  1.00  0.00     0.160 A 
HETATM    2  N2  UNL     1     -53.803   4.686  -0.838  1.00  0.00    -0.267 N 
ATOM      3  H2  UNL     1     -54.338   4.069  -0.226  1.00  0.00     0.190 HD
HETATM    4  N3  UNL     1     -53.004   4.278  -1.782  1.00  0.00    -0.226 N 
ATOM      5  H3  UNL     1     -52.809   3.308  -2.032  1.00  0.00     0.210 HD
HETATM    6  N4  UNL     1     -52.497   5.352  -2.353  1.00  0.00    -0.219 N 
ATOM      7  H4  UNL     1     -51.835   5.354  -3.129  1.00  0.00     0.210 HD
HETATM    8  N5  UNL     1     -52.989   6.433  -1.752  1.00  0.00    -0.222 N 
ENDROOT
BRANCH   1   9
HETATM    9  C8  UNL     1     -54.603   6.816   0.170  1.00  0.00     0.145 C 
BRANCH   9  10
HETATM   10  N1  UNL     1     -55.984   6.458   0.369  1.00  0.00    -0.326 N 
BRANCH  10  11
HETATM   11  C7  UNL     1     -57.045   7.160  -0.297  1.00  0.00     0.169 C 
BRANCH  11  12
HETATM   12  C6  UNL     1     -57.034   7.161  -1.750  1.00  0.00    -0.039 A 
HETATM   13  C5  UNL     1     -56.656   8.267  -2.456  1.00  0.00     0.009 A 
HETATM   14  C4  UNL     1     -56.665   8.241  -3.855  1.00  0.00     0.001 A 
HETATM   15  C3  UNL     1     -57.059   7.092  -4.497  1.00  0.00     0.007 A 
HETATM   16  C2  UNL     1     -57.447   5.956  -3.807  1.00  0.00    -0.061 A 
HETATM   17  C1  UNL     1     -57.862   4.743  -4.561  1.00  0.00     0.048 C 
HETATM   18  C25 UNL     1     -57.419   6.038  -2.442  1.00  0.00     0.015 A 
ENDBRANCH  11  12
ENDBRANCH  10  11
BRANCH  10  19
HETATM   19  C18 UNL     1     -56.304   5.418   1.249  1.00  0.00     0.178 C 
HETATM   20  S1  UNL     1     -56.617   5.811   2.801  1.00  0.00    -0.040 SA
BRANCH  19  21
HETATM   21  N8  UNL     1     -56.389   4.091   0.849  1.00  0.00    -0.333 N 
ATOM     22  H8  UNL     1     -55.721   3.461   1.294  1.00  0.00     0.168 HD
BRANCH  21  23
HETATM   23  C19 UNL     1     -57.260   3.483  -0.080  1.00  0.00     0.034 A 
HETATM   24  C20 UNL     1     -56.677   2.738  -1.114  1.00  0.00     0.029 A 
HETATM   25  C21 UNL     1     -57.392   2.069  -2.071  1.00  0.00     0.002 A 
HETATM   26  C22 UNL     1     -58.780   2.131  -2.014  1.00  0.00     0.000 A 
HETATM   27  C23 UNL     1     -59.387   2.852  -1.014  1.00  0.00     0.002 A 
HETATM   28  C24 UNL     1     -58.609   3.518  -0.060  1.00  0.00     0.029 A 
ENDBRANCH  21  23
ENDBRANCH  19  21
ENDBRANCH  10  19
ENDBRANCH   9  10
ENDBRANCH   1   9
BRANCH   8  29
HETATM   29  C10 UNL     1     -52.643   7.737  -2.127  1.00  0.00     0.060 A 
HETATM   30  C11 UNL     1     -53.073   8.235  -3.338  1.00  0.00     0.032 A 
HETATM   31  C12 UNL     1     -52.746   9.529  -3.743  1.00  0.00     0.010 A 
HETATM   32  C13 UNL     1     -51.984  10.349  -2.947  1.00  0.00    -0.051 A 
HETATM   33  C16 UNL     1     -51.560   9.832  -1.732  1.00  0.00     0.010 A 
HETATM   34  C17 UNL     1     -51.876   8.554  -1.319  1.00  0.00     0.032 A 
BRANCH  32  35
HETATM   35  C14 UNL     1     -51.620  11.740  -3.356  1.00  0.00     0.111 C 
BRANCH  35  36
HETATM   36  C15 UNL     1     -50.151  11.864  -3.599  1.00  0.00     0.090 C 
HETATM   37  N6  UNL     1     -49.445  12.732  -2.964  1.00  0.00    -0.391 N 
ATOM     38  H62 UNL     1     -49.922  13.331  -2.290  1.00  0.00     0.157 HD
ATOM     39  H61 UNL     1     -48.442  12.817  -3.129  1.00  0.00     0.157 HD
HETATM   40  N7  UNL     1     -49.490  11.035  -4.531  1.00  0.00    -0.088 NA
ENDBRANCH  35  36
ENDBRANCH  32  35
ENDBRANCH   8  29
TORSDOF 10
ENDMDL
