MODEL 1
REMARK VINA RESULT: -7.091356439      0.000      0.000
REMARK  9 active torsions:
REMARK  status: ('A' for Active; 'I' for Inactive)
REMARK    1  A    between atoms: C2_2  and  N1_3 
REMARK    2  A    between atoms: N1_3  and  C3_4 
REMARK    3  A    between atoms: C4_7  and  C5_8 
REMARK    4  A    between atoms: C5_8  and  N3_9 
REMARK    5  A    between atoms: N4_12  and  C8_13 
REMARK    6  A    between atoms: C8_13  and  C9_14 
REMARK    7  A    between atoms: C9_14  and  N5_15 
REMARK    8  A    between atoms: N5_15  and  C10_18 
REMARK    9  A    between atoms: C10_18  and  C11_19 
ROOT
HETATM    1  N3  UNL     1     -58.200   3.920  -1.272  1.00  0.00    -0.384 N 
HETATM    2  C6  UNL     1     -57.976   5.035  -2.092  1.00  0.00     0.142 C 
HETATM    3  C7  UNL     1     -56.464   5.327  -2.279  1.00  0.00     0.141 C 
HETATM    4  N4  UNL     1     -55.711   4.159  -2.249  1.00  0.00    -0.389 N 
HETATM    5  C18 UNL     1     -56.443   2.954  -2.619  1.00  0.00     0.141 C 
HETATM    6  C19 UNL     1     -57.465   2.716  -1.536  1.00  0.00     0.142 C 
ENDROOT
BRANCH   4   7
HETATM    7  C8  UNL     1     -54.546   3.956  -1.543  1.00  0.00     0.085 C 
BRANCH   7   8
HETATM    8  C9  UNL     1     -54.071   5.136  -0.753  1.00  0.00     0.277 C 
BRANCH   8   9
HETATM    9  N5  UNL     1     -52.615   5.170  -0.731  1.00  0.00    -0.067 N 
ATOM     10  H52 UNL     1     -52.263   5.374   0.205  1.00  0.00     0.277 HD
ATOM     11  H51 UNL     1     -52.220   4.236  -0.851  1.00  0.00     0.277 HD
BRANCH   9  12
HETATM   12  C10 UNL     1     -52.095   6.072  -1.682  1.00  0.00     0.273 C 
BRANCH  12  13
HETATM   13  C11 UNL     1     -52.241   7.502  -1.467  1.00  0.00    -0.004 A 
HETATM   14  C12 UNL     1     -52.019   8.087  -0.256  1.00  0.00     0.011 A 
HETATM   15  C13 UNL     1     -52.024   9.457  -0.156  1.00  0.00     0.003 A 
HETATM   16  C14 UNL     1     -52.249  10.261  -1.260  1.00  0.00     0.032 A 
HETATM   17  C15 UNL     1     -52.478   9.652  -2.488  1.00  0.00     0.060 A 
HETATM   18  N6  UNL     1     -52.735  10.177  -3.700  1.00  0.00    -0.350 N 
HETATM   19  C17 UNL     1     -52.477   8.278  -2.592  1.00  0.00     0.068 A 
HETATM   20  C16 UNL     1     -52.888   9.134  -4.542  1.00  0.00     0.181 A 
ATOM     21  H6  UNL     1     -52.802  11.167  -3.935  1.00  0.00     0.166 HD
HETATM   22  N7  UNL     1     -52.736   7.982  -3.879  1.00  0.00    -0.350 N 
ATOM     23  H7  UNL     1     -52.805   7.046  -4.277  1.00  0.00     0.166 HD
ENDBRANCH  12  13
ENDBRANCH   9  12
ENDBRANCH   8   9
ENDBRANCH   7   8
ENDBRANCH   4   7
BRANCH   1  24
HETATM   24  C5  UNL     1     -58.637   3.984   0.026  1.00  0.00     0.134 C 
BRANCH  24  25
HETATM   25  C4  UNL     1     -58.079   5.044   0.904  1.00  0.00     0.123 A 
HETATM   26  N2  UNL     1     -56.867   4.978   1.457  1.00  0.00    -0.315 N 
HETATM   27  C3  UNL     1     -56.463   6.022   2.255  1.00  0.00     0.200 A 
ATOM     28  H2  UNL     1     -56.258   4.176   1.291  1.00  0.00     0.170 HD
HETATM   29  C23 UNL     1     -57.339   7.111   2.452  1.00  0.00     0.089 A 
HETATM   30  C20 UNL     1     -58.575   7.157   1.874  1.00  0.00     0.056 A 
HETATM   31  S1  UNL     1     -57.275   8.578   3.333  1.00  0.00    -0.095 SA
HETATM   32  N8  UNL     1     -58.909   6.081   1.095  1.00  0.00    -0.340 N 
HETATM   33  C21 UNL     1     -59.329   8.249   2.142  1.00  0.00     0.038 A 
ATOM     34  H8  UNL     1     -59.823   6.067   0.644  1.00  0.00     0.167 HD
HETATM   35  C22 UNL     1     -58.808   9.208   2.953  1.00  0.00     0.053 A 
BRANCH  27  36
HETATM   36  N1  UNL     1     -55.398   6.009   2.786  1.00  0.00    -0.390 NA
BRANCH  36  37
HETATM   37  C2  UNL     1     -54.467   6.047   3.754  1.00  0.00     0.087 A 
HETATM   38  C1  UNL     1     -54.092   6.734   4.909  1.00  0.00     0.021 A 
HETATM   39  C24 UNL     1     -53.230   5.628   4.518  1.00  0.00     0.102 A 
ENDBRANCH  36  37
ENDBRANCH  27  36
ENDBRANCH  24  25
ENDBRANCH   1  24
TORSDOF 9
ENDMDL
MODEL 2
REMARK VINA RESULT: -6.870679417      4.894      9.450
REMARK  9 active torsions:
REMARK  status: ('A' for Active; 'I' for Inactive)
REMARK    1  A    between atoms: C2_2  and  N1_3 
REMARK    2  A    between atoms: N1_3  and  C3_4 
REMARK    3  A    between atoms: C4_7  and  C5_8 
REMARK    4  A    between atoms: C5_8  and  N3_9 
REMARK    5  A    between atoms: N4_12  and  C8_13 
REMARK    6  A    between atoms: C8_13  and  C9_14 
REMARK    7  A    between atoms: C9_14  and  N5_15 
REMARK    8  A    between atoms: N5_15  and  C10_18 
REMARK    9  A    between atoms: C10_18  and  C11_19 
ROOT
HETATM    1  N3  UNL     1     -57.526   1.239  -4.020  1.00  0.00    -0.384 N 
HETATM    2  C6  UNL     1     -57.021   0.151  -4.744  1.00  0.00     0.142 C 
HETATM    3  C7  UNL     1     -58.142  -0.638  -5.471  1.00  0.00     0.141 C 
HETATM    4  N4  UNL     1     -59.187   0.197  -5.854  1.00  0.00    -0.389 N 
HETATM    5  C18 UNL     1     -58.815   1.594  -6.032  1.00  0.00     0.141 C 
HETATM    6  C19 UNL     1     -58.450   2.125  -4.667  1.00  0.00     0.142 C 
ENDROOT
BRANCH   4   7
HETATM    7  C8  UNL     1     -60.531  -0.045  -5.678  1.00  0.00     0.085 C 
BRANCH   7   8
HETATM    8  C9  UNL     1     -61.009   0.035  -4.262  1.00  0.00     0.277 C 
BRANCH   8   9
HETATM    9  N5  UNL     1     -61.055  -1.296  -3.673  1.00  0.00    -0.067 N 
ATOM     10  H52 UNL     1     -62.017  -1.614  -3.549  1.00  0.00     0.277 HD
ATOM     11  H51 UNL     1     -60.735  -2.005  -4.334  1.00  0.00     0.277 HD
BRANCH   9  12
HETATM   12  C10 UNL     1     -60.335  -1.361  -2.462  1.00  0.00     0.273 C 
BRANCH  12  13
HETATM   13  C11 UNL     1     -59.521  -2.531  -2.175  1.00  0.00    -0.004 A 
HETATM   14  C12 UNL     1     -58.166  -2.534  -2.319  1.00  0.00     0.011 A 
HETATM   15  C13 UNL     1     -57.442  -3.617  -1.886  1.00  0.00     0.003 A 
HETATM   16  C14 UNL     1     -58.058  -4.711  -1.302  1.00  0.00     0.032 A 
HETATM   17  C15 UNL     1     -59.441  -4.697  -1.163  1.00  0.00     0.060 A 
HETATM   18  N6  UNL     1     -60.287  -5.612  -0.657  1.00  0.00    -0.350 N 
HETATM   19  C17 UNL     1     -60.171  -3.614  -1.601  1.00  0.00     0.068 A 
HETATM   20  C16 UNL     1     -61.526  -5.094  -0.779  1.00  0.00     0.181 A 
ATOM     21  H6  UNL     1     -60.040  -6.519  -0.260  1.00  0.00     0.166 HD
HETATM   22  N7  UNL     1     -61.465  -3.887  -1.352  1.00  0.00    -0.350 N 
ATOM     23  H7  UNL     1     -62.258  -3.281  -1.562  1.00  0.00     0.166 HD
ENDBRANCH  12  13
ENDBRANCH   9  12
ENDBRANCH   8   9
ENDBRANCH   7   8
ENDBRANCH   4   7
BRANCH   1  24
HETATM   24  C5  UNL     1     -57.648   1.275  -2.654  1.00  0.00     0.134 C 
BRANCH  24  25
HETATM   25  C4  UNL     1     -57.060   2.429  -1.926  1.00  0.00     0.123 A 
HETATM   26  N2  UNL     1     -55.780   2.790  -2.031  1.00  0.00    -0.315 N 
HETATM   27  C3  UNL     1     -55.353   3.875  -1.304  1.00  0.00     0.200 A 
ATOM     28  H2  UNL     1     -55.138   2.275  -2.634  1.00  0.00     0.170 HD
HETATM   29  C23 UNL     1     -56.278   4.557  -0.485  1.00  0.00     0.089 A 
HETATM   30  C20 UNL     1     -57.585   4.171  -0.395  1.00  0.00     0.056 A 
HETATM   31  S1  UNL     1     -56.207   5.908   0.566  1.00  0.00    -0.095 SA
HETATM   32  N8  UNL     1     -57.936   3.080  -1.145  1.00  0.00    -0.340 N 
HETATM   33  C21 UNL     1     -58.377   4.897   0.428  1.00  0.00     0.038 A 
ATOM     34  H8  UNL     1     -58.900   2.750  -1.110  1.00  0.00     0.167 HD
HETATM   35  C22 UNL     1     -57.823   5.946   1.093  1.00  0.00     0.053 A 
BRANCH  27  36
HETATM   36  N1  UNL     1     -54.218   4.232  -1.346  1.00  0.00    -0.390 NA
BRANCH  36  37
HETATM   37  C2  UNL     1     -53.047   4.668  -1.840  1.00  0.00     0.087 A 
HETATM   38  C1  UNL     1     -52.160   5.745  -1.808  1.00  0.00     0.021 A 
HETATM   39  C24 UNL     1     -51.771   4.624  -2.652  1.00  0.00     0.102 A 
ENDBRANCH  36  37
ENDBRANCH  27  36
ENDBRANCH  24  25
ENDBRANCH   1  24
TORSDOF 9
ENDMDL
MODEL 3
REMARK VINA RESULT: -6.829679159      4.978      9.052
REMARK  9 active torsions:
REMARK  status: ('A' for Active; 'I' for Inactive)
REMARK    1  A    between atoms: C2_2  and  N1_3 
REMARK    2  A    between atoms: N1_3  and  C3_4 
REMARK    3  A    between atoms: C4_7  and  C5_8 
REMARK    4  A    between atoms: C5_8  and  N3_9 
REMARK    5  A    between atoms: N4_12  and  C8_13 
REMARK    6  A    between atoms: C8_13  and  C9_14 
REMARK    7  A    between atoms: C9_14  and  N5_15 
REMARK    8  A    between atoms: N5_15  and  C10_18 
REMARK    9  A    between atoms: C10_18  and  C11_19 
ROOT
HETATM    1  N3  UNL     1     -57.267   8.006   4.201  1.00  0.00    -0.384 N 
HETATM    2  C6  UNL     1     -58.641   8.214   4.016  1.00  0.00     0.142 C 
HETATM    3  C7  UNL     1     -59.372   8.506   5.353  1.00  0.00     0.141 C 
HETATM    4  N4  UNL     1     -58.548   9.178   6.249  1.00  0.00    -0.389 N 
HETATM    5  C18 UNL     1     -57.473   9.943   5.630  1.00  0.00     0.141 C 
HETATM    6  C19 UNL     1     -56.534   8.943   5.003  1.00  0.00     0.142 C 
ENDROOT
BRANCH   4   7
HETATM    7  C8  UNL     1     -58.377   8.880   7.583  1.00  0.00     0.085 C 
BRANCH   7   8
HETATM    8  C9  UNL     1     -58.046  10.049   8.456  1.00  0.00     0.277 C 
BRANCH   8   9
HETATM    9  N5  UNL     1     -56.684   9.927   8.960  1.00  0.00    -0.067 N 
ATOM     10  H52 UNL     1     -56.653   9.370   9.814  1.00  0.00     0.277 HD
ATOM     11  H51 UNL     1     -56.118   9.329   8.357  1.00  0.00     0.277 HD
BRANCH   9  12
HETATM   12  C10 UNL     1     -56.078  11.186   9.148  1.00  0.00     0.273 C 
BRANCH  12  13
HETATM   13  C11 UNL     1     -54.784  11.456   8.544  1.00  0.00    -0.004 A 
HETATM   14  C12 UNL     1     -54.415  10.935   7.339  1.00  0.00     0.011 A 
HETATM   15  C13 UNL     1     -53.245  11.350   6.753  1.00  0.00     0.003 A 
HETATM   16  C14 UNL     1     -52.427  12.289   7.358  1.00  0.00     0.032 A 
HETATM   17  C15 UNL     1     -52.813  12.810   8.588  1.00  0.00     0.060 A 
HETATM   18  N6  UNL     1     -52.215  13.706   9.393  1.00  0.00    -0.350 N 
HETATM   19  C17 UNL     1     -53.984  12.393   9.180  1.00  0.00     0.068 A 
HETATM   20  C16 UNL     1     -53.015  13.842  10.471  1.00  0.00     0.181 A 
ATOM     21  H6  UNL     1     -51.332  14.188   9.223  1.00  0.00     0.166 HD
HETATM   22  N7  UNL     1     -54.086  13.049  10.351  1.00  0.00    -0.350 N 
ATOM     23  H7  UNL     1     -54.844  12.957  11.027  1.00  0.00     0.166 HD
ENDBRANCH  12  13
ENDBRANCH   9  12
ENDBRANCH   8   9
ENDBRANCH   7   8
ENDBRANCH   4   7
BRANCH   1  24
HETATM   24  C5  UNL     1     -56.651   6.782   4.144  1.00  0.00     0.134 C 
BRANCH  24  25
HETATM   25  C4  UNL     1     -56.274   6.246   2.811  1.00  0.00     0.123 A 
HETATM   26  N2  UNL     1     -56.994   5.333   2.157  1.00  0.00    -0.315 N 
HETATM   27  C3  UNL     1     -56.539   4.912   0.929  1.00  0.00     0.200 A 
ATOM     28  H2  UNL     1     -57.855   4.959   2.556  1.00  0.00     0.170 HD
HETATM   29  C23 UNL     1     -55.344   5.460   0.417  1.00  0.00     0.089 A 
HETATM   30  C20 UNL     1     -54.626   6.395   1.104  1.00  0.00     0.056 A 
HETATM   31  S1  UNL     1     -54.423   5.246  -1.011  1.00  0.00    -0.095 SA
HETATM   32  N8  UNL     1     -55.138   6.764   2.321  1.00  0.00    -0.340 N 
HETATM   33  C21 UNL     1     -53.491   6.843   0.516  1.00  0.00     0.038 A 
ATOM     34  H8  UNL     1     -54.636   7.457   2.875  1.00  0.00     0.167 HD
HETATM   35  C22 UNL     1     -53.156   6.338  -0.702  1.00  0.00     0.053 A 
BRANCH  27  36
HETATM   36  N1  UNL     1     -57.132   4.087   0.308  1.00  0.00    -0.390 NA
BRANCH  36  37
HETATM   37  C2  UNL     1     -58.134   3.468  -0.337  1.00  0.00     0.087 A 
HETATM   38  C1  UNL     1     -59.292   2.717  -0.131  1.00  0.00     0.021 A 
HETATM   39  C24 UNL     1     -58.951   2.994  -1.520  1.00  0.00     0.102 A 
ENDBRANCH  36  37
ENDBRANCH  27  36
ENDBRANCH  24  25
ENDBRANCH   1  24
TORSDOF 9
ENDMDL
MODEL 4
REMARK VINA RESULT: -6.762501120      4.848      9.198
REMARK  9 active torsions:
REMARK  status: ('A' for Active; 'I' for Inactive)
REMARK    1  A    between atoms: C2_2  and  N1_3 
REMARK    2  A    between atoms: N1_3  and  C3_4 
REMARK    3  A    between atoms: C4_7  and  C5_8 
REMARK    4  A    between atoms: C5_8  and  N3_9 
REMARK    5  A    between atoms: N4_12  and  C8_13 
REMARK    6  A    between atoms: C8_13  and  C9_14 
REMARK    7  A    between atoms: C9_14  and  N5_15 
REMARK    8  A    between atoms: N5_15  and  C10_18 
REMARK    9  A    between atoms: C10_18  and  C11_19 
ROOT
HETATM    1  N3  UNL     1     -58.822   1.569  -3.171  1.00  0.00    -0.384 N 
HETATM    2  C6  UNL     1     -58.736   2.366  -4.321  1.00  0.00     0.142 C 
HETATM    3  C7  UNL     1     -58.709   1.517  -5.619  1.00  0.00     0.141 C 
HETATM    4  N4  UNL     1     -59.447   0.346  -5.479  1.00  0.00    -0.389 N 
HETATM    5  C18 UNL     1     -60.496   0.407  -4.469  1.00  0.00     0.141 C 
HETATM    6  C19 UNL     1     -59.806   0.526  -3.132  1.00  0.00     0.142 C 
ENDROOT
BRANCH   4   7
HETATM    7  C8  UNL     1     -59.051  -0.919  -5.853  1.00  0.00     0.085 C 
BRANCH   7   8
HETATM    8  C9  UNL     1     -57.615  -1.239  -5.578  1.00  0.00     0.277 C 
BRANCH   8   9
HETATM    9  N5  UNL     1     -57.478  -1.823  -4.250  1.00  0.00    -0.067 N 
ATOM     10  H52 UNL     1     -56.530  -1.711  -3.892  1.00  0.00     0.277 HD
ATOM     11  H51 UNL     1     -57.980  -1.275  -3.551  1.00  0.00     0.277 HD
BRANCH   9  12
HETATM   12  C10 UNL     1     -57.879  -3.175  -4.227  1.00  0.00     0.273 C 
BRANCH  12  13
HETATM   13  C11 UNL     1     -58.390  -3.749  -2.994  1.00  0.00    -0.004 A 
HETATM   14  C12 UNL     1     -57.576  -4.313  -2.056  1.00  0.00     0.011 A 
HETATM   15  C13 UNL     1     -58.103  -4.698  -0.847  1.00  0.00     0.003 A 
HETATM   16  C14 UNL     1     -59.445  -4.525  -0.557  1.00  0.00     0.032 A 
HETATM   17  C15 UNL     1     -60.264  -3.952  -1.522  1.00  0.00     0.060 A 
HETATM   18  N6  UNL     1     -61.583  -3.685  -1.515  1.00  0.00    -0.350 N 
HETATM   19  C17 UNL     1     -59.741  -3.568  -2.736  1.00  0.00     0.068 A 
HETATM   20  C16 UNL     1     -61.866  -3.138  -2.715  1.00  0.00     0.181 A 
ATOM     21  H6  UNL     1     -62.238  -3.861  -0.754  1.00  0.00     0.166 HD
HETATM   22  N7  UNL     1     -60.758  -3.067  -3.461  1.00  0.00    -0.350 N 
ATOM     23  H7  UNL     1     -60.695  -2.698  -4.410  1.00  0.00     0.166 HD
ENDBRANCH  12  13
ENDBRANCH   9  12
ENDBRANCH   8   9
ENDBRANCH   7   8
ENDBRANCH   4   7
BRANCH   1  24
HETATM   24  C5  UNL     1     -57.781   1.328  -2.312  1.00  0.00     0.134 C 
BRANCH  24  25
HETATM   25  C4  UNL     1     -57.120   2.491  -1.665  1.00  0.00     0.123 A 
HETATM   26  N2  UNL     1     -55.842   2.814  -1.865  1.00  0.00    -0.315 N 
HETATM   27  C3  UNL     1     -55.343   3.913  -1.205  1.00  0.00     0.200 A 
ATOM     28  H2  UNL     1     -55.252   2.262  -2.488  1.00  0.00     0.170 HD
HETATM   29  C23 UNL     1     -56.197   4.647  -0.355  1.00  0.00     0.089 A 
HETATM   30  C20 UNL     1     -57.504   4.298  -0.168  1.00  0.00     0.056 A 
HETATM   31  S1  UNL     1     -56.027   6.031   0.639  1.00  0.00    -0.095 SA
HETATM   32  N8  UNL     1     -57.929   3.191  -0.855  1.00  0.00    -0.340 N 
HETATM   33  C21 UNL     1     -58.225   5.074   0.676  1.00  0.00     0.038 A 
ATOM     34  H8  UNL     1     -58.896   2.888  -0.746  1.00  0.00     0.167 HD
HETATM   35  C22 UNL     1     -57.604   6.131   1.266  1.00  0.00     0.053 A 
BRANCH  27  36
HETATM   36  N1  UNL     1     -54.205   4.238  -1.333  1.00  0.00    -0.390 NA
BRANCH  36  37
HETATM   37  C2  UNL     1     -53.070   4.670  -1.907  1.00  0.00     0.087 A 
HETATM   38  C1  UNL     1     -52.304   5.815  -2.133  1.00  0.00     0.021 A 
HETATM   39  C24 UNL     1     -51.767   4.572  -2.670  1.00  0.00     0.102 A 
ENDBRANCH  36  37
ENDBRANCH  27  36
ENDBRANCH  24  25
ENDBRANCH   1  24
TORSDOF 9
ENDMDL
MODEL 5
REMARK VINA RESULT: -6.666768850      4.305      7.302
REMARK  9 active torsions:
REMARK  status: ('A' for Active; 'I' for Inactive)
REMARK    1  A    between atoms: C2_2  and  N1_3 
REMARK    2  A    between atoms: N1_3  and  C3_4 
REMARK    3  A    between atoms: C4_7  and  C5_8 
REMARK    4  A    between atoms: C5_8  and  N3_9 
REMARK    5  A    between atoms: N4_12  and  C8_13 
REMARK    6  A    between atoms: C8_13  and  C9_14 
REMARK    7  A    between atoms: C9_14  and  N5_15 
REMARK    8  A    between atoms: N5_15  and  C10_18 
REMARK    9  A    between atoms: C10_18  and  C11_19 
ROOT
HETATM    1  N3  UNL     1     -57.384   2.967  -2.677  1.00  0.00    -0.384 N 
HETATM    2  C6  UNL     1     -57.476   2.494  -1.361  1.00  0.00     0.142 C 
HETATM    3  C7  UNL     1     -56.582   3.303  -0.385  1.00  0.00     0.141 C 
HETATM    4  N4  UNL     1     -56.470   4.632  -0.779  1.00  0.00    -0.389 N 
HETATM    5  C18 UNL     1     -57.573   5.119  -1.597  1.00  0.00     0.141 C 
HETATM    6  C19 UNL     1     -57.504   4.378  -2.908  1.00  0.00     0.142 C 
ENDROOT
BRANCH   4   7
HETATM    7  C8  UNL     1     -55.307   5.368  -0.846  1.00  0.00     0.085 C 
BRANCH   7   8
HETATM    8  C9  UNL     1     -54.142   4.657  -1.461  1.00  0.00     0.277 C 
BRANCH   8   9
HETATM    9  N5  UNL     1     -52.911   5.030  -0.777  1.00  0.00    -0.067 N 
ATOM     10  H52 UNL     1     -53.103   5.411   0.150  1.00  0.00     0.277 HD
ATOM     11  H51 UNL     1     -52.374   4.206  -0.504  1.00  0.00     0.277 HD
BRANCH   9  12
HETATM   12  C10 UNL     1     -52.132   5.919  -1.545  1.00  0.00     0.273 C 
BRANCH  12  13
HETATM   13  C11 UNL     1     -52.260   7.351  -1.333  1.00  0.00    -0.004 A 
HETATM   14  C12 UNL     1     -52.061   7.932  -0.116  1.00  0.00     0.011 A 
HETATM   15  C13 UNL     1     -52.046   9.301  -0.014  1.00  0.00     0.003 A 
HETATM   16  C14 UNL     1     -52.228  10.110  -1.123  1.00  0.00     0.032 A 
HETATM   17  C15 UNL     1     -52.433   9.506  -2.358  1.00  0.00     0.060 A 
HETATM   18  N6  UNL     1     -52.649  10.035  -3.575  1.00  0.00    -0.350 N 
HETATM   19  C17 UNL     1     -52.452   8.132  -2.463  1.00  0.00     0.068 A 
HETATM   20  C16 UNL     1     -52.796   8.996  -4.422  1.00  0.00     0.181 A 
ATOM     21  H6  UNL     1     -52.693  11.027  -3.811  1.00  0.00     0.166 HD
HETATM   22  N7  UNL     1     -52.682   7.841  -3.756  1.00  0.00    -0.350 N 
ATOM     23  H7  UNL     1     -52.755   6.907  -4.158  1.00  0.00     0.166 HD
ENDBRANCH  12  13
ENDBRANCH   9  12
ENDBRANCH   8   9
ENDBRANCH   7   8
ENDBRANCH   4   7
BRANCH   1  24
HETATM   24  C5  UNL     1     -56.702   2.336  -3.685  1.00  0.00     0.134 C 
BRANCH  24  25
HETATM   25  C4  UNL     1     -57.029   0.915  -3.973  1.00  0.00     0.123 A 
HETATM   26  N2  UNL     1     -57.418   0.047  -3.039  1.00  0.00    -0.315 N 
HETATM   27  C3  UNL     1     -57.690  -1.243  -3.430  1.00  0.00     0.200 A 
ATOM     28  H2  UNL     1     -57.512   0.332  -2.064  1.00  0.00     0.170 HD
HETATM   29  C23 UNL     1     -57.548  -1.590  -4.790  1.00  0.00     0.089 A 
HETATM   30  C20 UNL     1     -57.150  -0.683  -5.729  1.00  0.00     0.056 A 
HETATM   31  S1  UNL     1     -57.761  -3.020  -5.709  1.00  0.00    -0.095 SA
HETATM   32  N8  UNL     1     -56.894   0.581  -5.266  1.00  0.00    -0.340 N 
HETATM   33  C21 UNL     1     -57.043  -1.134  -7.002  1.00  0.00     0.038 A 
ATOM     34  H8  UNL     1     -56.591   1.294  -5.928  1.00  0.00     0.167 HD
HETATM   35  C22 UNL     1     -57.339  -2.438  -7.249  1.00  0.00     0.053 A 
BRANCH  27  36
HETATM   36  N1  UNL     1     -58.026  -2.064  -2.636  1.00  0.00    -0.390 NA
BRANCH  36  37
HETATM   37  C2  UNL     1     -58.083  -3.229  -1.968  1.00  0.00     0.087 A 
HETATM   38  C1  UNL     1     -57.298  -4.287  -1.511  1.00  0.00     0.021 A 
HETATM   39  C24 UNL     1     -58.719  -4.369  -1.203  1.00  0.00     0.102 A 
ENDBRANCH  36  37
ENDBRANCH  27  36
ENDBRANCH  24  25
ENDBRANCH   1  24
TORSDOF 9
ENDMDL
