MODEL 1
REMARK VINA RESULT: -6.871308446      0.000      0.000
REMARK  3 active torsions:
REMARK  status: ('A' for Active; 'I' for Inactive)
REMARK    1  A    between atoms: C2_2  and  O1_3 
REMARK    2  A    between atoms: O1_3  and  C3_4 
REMARK    3  A    between atoms: C6_7  and  C7_8 
ROOT
HETATM    1  C3  UNL     1      22.206 -17.988 -21.817  1.00  0.00     0.121 C 
HETATM    2  C4  UNL     1      23.362 -18.308 -22.747  1.00  0.00     0.033 C 
HETATM    3  C5  UNL     1      22.926 -18.981 -24.004  1.00  0.00     0.024 C 
HETATM    4  C6  UNL     1      21.701 -19.845 -23.875  1.00  0.00     0.056 C 
HETATM    5  C8  UNL     1      21.514 -20.329 -22.435  1.00  0.00     0.007 C 
HETATM    6  C9  UNL     1      22.453 -21.418 -22.042  1.00  0.00     0.006 C 
HETATM    7  C10 UNL     1      22.346 -22.595 -22.985  1.00  0.00     0.006 C 
HETATM    8  C11 UNL     1      22.765 -22.036 -24.358  1.00  0.00    -0.004 C 
HETATM    9  C12 UNL     1      23.038 -23.126 -25.292  1.00  0.00    -0.002 C 
HETATM   10  C13 UNL     1      22.595 -24.499 -24.765  1.00  0.00     0.006 C 
HETATM   11  C14 UNL     1      22.686 -25.378 -25.996  1.00  0.00     0.001 C 
HETATM   12  C15 UNL     1      22.076 -24.468 -27.058  1.00  0.00     0.009 C 
HETATM   13  C16 UNL     1      22.458 -23.061 -26.646  1.00  0.00    -0.040 C 
HETATM   14  C17 UNL     1      23.504 -22.511 -27.625  1.00  0.00     0.015 C 
HETATM   15  C18 UNL     1      21.240 -22.206 -26.790  1.00  0.00     0.010 C 
HETATM   16  C19 UNL     1      21.613 -20.827 -26.211  1.00  0.00     0.007 C 
HETATM   17  C20 UNL     1      21.678 -21.058 -24.732  1.00  0.00     0.009 C 
HETATM   18  C21 UNL     1      21.461 -19.235 -21.432  1.00  0.00     0.038 C 
ENDROOT
BRANCH   1  19
HETATM   19  O1  UNL     1      22.723 -17.305 -20.742  1.00  0.00    -0.386 OA
BRANCH  19  20
HETATM   20  C2  UNL     1      24.114 -17.307 -20.711  1.00  0.00     0.163 C 
HETATM   21  C1  UNL     1      24.672 -15.945 -21.059  1.00  0.00     0.033 C 
ENDBRANCH  19  20
ENDBRANCH   1  19
BRANCH   4  22
HETATM   22  C7  UNL     1      20.504 -19.021 -24.177  1.00  0.00     0.182 C 
HETATM   23  O2  UNL     1      19.425 -19.275 -23.565  1.00  0.00    -0.647 OA
HETATM   24  O3  UNL     1      20.482 -17.980 -25.093  1.00  0.00    -0.647 OA
ENDBRANCH   4  22
TORSDOF 3
ENDMDL
MODEL 2
REMARK VINA RESULT: -6.657279459      1.130      1.345
REMARK  3 active torsions:
REMARK  status: ('A' for Active; 'I' for Inactive)
REMARK    1  A    between atoms: C2_2  and  O1_3 
REMARK    2  A    between atoms: O1_3  and  C3_4 
REMARK    3  A    between atoms: C6_7  and  C7_8 
ROOT
HETATM    1  C3  UNL     1      21.189 -18.503 -21.886  1.00  0.00     0.121 C 
HETATM    2  C4  UNL     1      22.553 -18.731 -22.512  1.00  0.00     0.033 C 
HETATM    3  C5  UNL     1      22.472 -19.269 -23.900  1.00  0.00     0.024 C 
HETATM    4  C6  UNL     1      21.275 -20.137 -24.181  1.00  0.00     0.056 C 
HETATM    5  C8  UNL     1      20.733 -20.765 -22.895  1.00  0.00     0.007 C 
HETATM    6  C9  UNL     1      21.562 -21.893 -22.383  1.00  0.00     0.006 C 
HETATM    7  C10 UNL     1      21.729 -22.966 -23.435  1.00  0.00     0.006 C 
HETATM    8  C11 UNL     1      22.477 -22.271 -24.589  1.00  0.00    -0.004 C 
HETATM    9  C12 UNL     1      23.006 -23.261 -25.525  1.00  0.00    -0.002 C 
HETATM   10  C13 UNL     1      22.474 -24.679 -25.271  1.00  0.00     0.006 C 
HETATM   11  C14 UNL     1      22.899 -25.426 -26.517  1.00  0.00     0.001 C 
HETATM   12  C15 UNL     1      22.565 -24.409 -27.605  1.00  0.00     0.009 C 
HETATM   13  C16 UNL     1      22.795 -23.054 -26.969  1.00  0.00    -0.040 C 
HETATM   14  C17 UNL     1      24.047 -22.411 -27.582  1.00  0.00     0.015 C 
HETATM   15  C18 UNL     1      21.638 -22.183 -27.337  1.00  0.00     0.010 C 
HETATM   16  C19 UNL     1      21.817 -20.873 -26.546  1.00  0.00     0.007 C 
HETATM   17  C20 UNL     1      21.502 -21.255 -25.132  1.00  0.00     0.009 C 
HETATM   18  C21 UNL     1      20.398 -19.780 -21.835  1.00  0.00     0.038 C 
ENDROOT
BRANCH   1  19
HETATM   19  O1  UNL     1      21.394 -17.937 -20.651  1.00  0.00    -0.386 OA
BRANCH  19  20
HETATM   20  C2  UNL     1      22.495 -18.466 -19.985  1.00  0.00     0.163 C 
HETATM   21  C1  UNL     1      22.122 -19.712 -19.213  1.00  0.00     0.033 C 
ENDBRANCH  19  20
ENDBRANCH   1  19
BRANCH   4  22
HETATM   22  C7  UNL     1      20.179 -19.281 -24.699  1.00  0.00     0.182 C 
HETATM   23  O2  UNL     1      19.030 -19.792 -24.843  1.00  0.00    -0.647 OA
HETATM   24  O3  UNL     1      20.325 -17.945 -25.042  1.00  0.00    -0.647 OA
ENDBRANCH   4  22
TORSDOF 3
ENDMDL
MODEL 3
REMARK VINA RESULT: -6.625576480      1.682      2.893
REMARK  3 active torsions:
REMARK  status: ('A' for Active; 'I' for Inactive)
REMARK    1  A    between atoms: C2_2  and  O1_3 
REMARK    2  A    between atoms: O1_3  and  C3_4 
REMARK    3  A    between atoms: C6_7  and  C7_8 
ROOT
HETATM    1  C3  UNL     1      21.123 -18.713 -21.461  1.00  0.00     0.121 C 
HETATM    2  C4  UNL     1      20.723 -20.172 -21.342  1.00  0.00     0.033 C 
HETATM    3  C5  UNL     1      21.615 -21.082 -22.117  1.00  0.00     0.024 C 
HETATM    4  C6  UNL     1      22.214 -20.484 -23.361  1.00  0.00     0.056 C 
HETATM    5  C8  UNL     1      21.355 -19.333 -23.890  1.00  0.00     0.007 C 
HETATM    6  C9  UNL     1      20.111 -19.780 -24.578  1.00  0.00     0.006 C 
HETATM    7  C10 UNL     1      20.426 -20.733 -25.709  1.00  0.00     0.006 C 
HETATM    8  C11 UNL     1      21.090 -21.943 -25.027  1.00  0.00    -0.004 C 
HETATM    9  C12 UNL     1      21.139 -23.082 -25.942  1.00  0.00    -0.002 C 
HETATM   10  C13 UNL     1      20.770 -22.713 -27.387  1.00  0.00     0.006 C 
HETATM   11  C14 UNL     1      21.193 -23.941 -28.166  1.00  0.00     0.001 C 
HETATM   12  C15 UNL     1      22.542 -24.252 -27.525  1.00  0.00     0.009 C 
HETATM   13  C16 UNL     1      22.404 -23.828 -26.077  1.00  0.00    -0.040 C 
HETATM   14  C17 UNL     1      22.359 -25.076 -25.184  1.00  0.00     0.015 C 
HETATM   15  C18 UNL     1      23.642 -23.077 -25.710  1.00  0.00     0.010 C 
HETATM   16  C19 UNL     1      23.403 -22.520 -24.293  1.00  0.00     0.007 C 
HETATM   17  C20 UNL     1      22.404 -21.423 -24.496  1.00  0.00     0.009 C 
HETATM   18  C21 UNL     1      21.101 -18.261 -22.894  1.00  0.00     0.038 C 
ENDROOT
BRANCH   1  19
HETATM   19  O1  UNL     1      20.283 -17.991 -20.647  1.00  0.00    -0.386 OA
BRANCH  19  20
HETATM   20  C2  UNL     1      20.964 -17.175 -19.747  1.00  0.00     0.163 C 
HETATM   21  C1  UNL     1      22.439 -17.113 -20.074  1.00  0.00     0.033 C 
ENDBRANCH  19  20
ENDBRANCH   1  19
BRANCH   4  22
HETATM   22  C7  UNL     1      23.523 -19.879 -23.014  1.00  0.00     0.182 C 
HETATM   23  O2  UNL     1      24.072 -20.213 -21.922  1.00  0.00    -0.647 OA
HETATM   24  O3  UNL     1      24.197 -18.963 -23.806  1.00  0.00    -0.647 OA
ENDBRANCH   4  22
TORSDOF 3
ENDMDL
MODEL 4
REMARK VINA RESULT: -6.558146463      1.743      6.467
REMARK  3 active torsions:
REMARK  status: ('A' for Active; 'I' for Inactive)
REMARK    1  A    between atoms: C2_2  and  O1_3 
REMARK    2  A    between atoms: O1_3  and  C3_4 
REMARK    3  A    between atoms: C6_7  and  C7_8 
ROOT
HETATM    1  C3  UNL     1      21.474 -22.692 -25.122  1.00  0.00     0.121 C 
HETATM    2  C4  UNL     1      22.803 -22.763 -24.392  1.00  0.00     0.033 C 
HETATM    3  C5  UNL     1      22.797 -22.014 -23.103  1.00  0.00     0.024 C 
HETATM    4  C6  UNL     1      21.892 -20.813 -23.064  1.00  0.00     0.056 C 
HETATM    5  C8  UNL     1      21.639 -20.265 -24.471  1.00  0.00     0.007 C 
HETATM    6  C9  UNL     1      22.793 -19.510 -25.036  1.00  0.00     0.006 C 
HETATM    7  C10 UNL     1      23.201 -18.377 -24.122  1.00  0.00     0.006 C 
HETATM    8  C11 UNL     1      23.639 -19.066 -22.816  1.00  0.00    -0.004 C 
HETATM    9  C12 UNL     1      24.376 -18.132 -21.967  1.00  0.00    -0.002 C 
HETATM   10  C13 UNL     1      24.300 -16.678 -22.459  1.00  0.00     0.006 C 
HETATM   11  C14 UNL     1      24.847 -15.896 -21.283  1.00  0.00     0.001 C 
HETATM   12  C15 UNL     1      24.162 -16.597 -20.113  1.00  0.00     0.009 C 
HETATM   13  C16 UNL     1      24.024 -18.044 -20.539  1.00  0.00    -0.040 C 
HETATM   14  C17 UNL     1      24.992 -18.909 -19.719  1.00  0.00     0.015 C 
HETATM   15  C18 UNL     1      22.642 -18.486 -20.183  1.00  0.00     0.010 C 
HETATM   16  C19 UNL     1      22.478 -19.900 -20.773  1.00  0.00     0.007 C 
HETATM   17  C20 UNL     1      22.377 -19.670 -22.249  1.00  0.00     0.009 C 
HETATM   18  C21 UNL     1      21.096 -21.269 -25.422  1.00  0.00     0.038 C 
ENDROOT
BRANCH   1  19
HETATM   19  O1  UNL     1      21.580 -23.479 -26.244  1.00  0.00    -0.386 OA
BRANCH  19  20
HETATM   20  C2  UNL     1      21.749 -22.741 -27.412  1.00  0.00     0.163 C 
HETATM   21  C1  UNL     1      23.165 -22.853 -27.931  1.00  0.00     0.033 C 
ENDBRANCH  19  20
ENDBRANCH   1  19
BRANCH   4  22
HETATM   22  C7  UNL     1      20.564 -21.236 -22.556  1.00  0.00     0.182 C 
HETATM   23  O2  UNL     1      19.603 -20.413 -22.620  1.00  0.00    -0.647 OA
HETATM   24  O3  UNL     1      20.295 -22.480 -22.007  1.00  0.00    -0.647 OA
ENDBRANCH   4  22
TORSDOF 3
ENDMDL
MODEL 5
REMARK VINA RESULT: -6.224503681      0.963      1.156
REMARK  3 active torsions:
REMARK  status: ('A' for Active; 'I' for Inactive)
REMARK    1  A    between atoms: C2_2  and  O1_3 
REMARK    2  A    between atoms: O1_3  and  C3_4 
REMARK    3  A    between atoms: C6_7  and  C7_8 
ROOT
HETATM    1  C3  UNL     1      22.854 -18.434 -21.907  1.00  0.00     0.121 C 
HETATM    2  C4  UNL     1      23.642 -18.469 -23.204  1.00  0.00     0.033 C 
HETATM    3  C5  UNL     1      22.857 -19.024 -24.345  1.00  0.00     0.024 C 
HETATM    4  C6  UNL     1      21.826 -20.055 -23.971  1.00  0.00     0.056 C 
HETATM    5  C8  UNL     1      22.187 -20.745 -22.653  1.00  0.00     0.007 C 
HETATM    6  C9  UNL     1      23.290 -21.740 -22.780  1.00  0.00     0.006 C 
HETATM    7  C10 UNL     1      22.963 -22.785 -23.822  1.00  0.00     0.006 C 
HETATM    8  C11 UNL     1      22.836 -21.999 -25.140  1.00  0.00    -0.004 C 
HETATM    9  C12 UNL     1      22.860 -22.909 -26.283  1.00  0.00    -0.002 C 
HETATM   10  C13 UNL     1      22.741 -24.387 -25.882  1.00  0.00     0.006 C 
HETATM   11  C14 UNL     1      22.475 -25.075 -27.204  1.00  0.00     0.001 C 
HETATM   12  C15 UNL     1      21.464 -24.124 -27.838  1.00  0.00     0.009 C 
HETATM   13  C16 UNL     1      21.847 -22.745 -27.341  1.00  0.00    -0.040 C 
HETATM   14  C17 UNL     1      22.444 -21.934 -28.500  1.00  0.00     0.015 C 
HETATM   15  C18 UNL     1      20.589 -22.051 -26.932  1.00  0.00     0.010 C 
HETATM   16  C19 UNL     1      21.023 -20.723 -26.281  1.00  0.00     0.007 C 
HETATM   17  C20 UNL     1      21.611 -21.136 -24.967  1.00  0.00     0.009 C 
HETATM   18  C21 UNL     1      22.392 -19.811 -21.517  1.00  0.00     0.038 C 
ENDROOT
BRANCH   1  19
HETATM   19  O1  UNL     1      23.650 -17.836 -20.960  1.00  0.00    -0.386 OA
BRANCH  19  20
HETATM   20  C2  UNL     1      23.026 -16.770 -20.318  1.00  0.00     0.163 C 
HETATM   21  C1  UNL     1      21.585 -17.096 -19.993  1.00  0.00     0.033 C 
ENDBRANCH  19  20
ENDBRANCH   1  19
BRANCH   4  22
HETATM   22  C7  UNL     1      20.536 -19.367 -23.721  1.00  0.00     0.182 C 
HETATM   23  O2  UNL     1      19.801 -19.786 -22.778  1.00  0.00    -0.647 OA
HETATM   24  O3  UNL     1      20.069 -18.287 -24.454  1.00  0.00    -0.647 OA
ENDBRANCH   4  22
TORSDOF 3
ENDMDL
