MODEL 1
REMARK VINA RESULT: -8.614158469      0.000      0.000
REMARK  5 active torsions:
REMARK  status: ('A' for Active; 'I' for Inactive)
REMARK    1  A    between atoms: C2_2  and  C3_3 
REMARK    2  A    between atoms: N1_9  and  C9_10 
REMARK    3  A    between atoms: C9_10  and  C10_11 
REMARK    4  A    between atoms: C10_11  and  O1_13 
REMARK    5  A    between atoms: C18_21  and  O2_22 
ROOT
HETATM    1  C3  UNL     1      20.804 -21.758 -22.442  1.00  0.00    -0.010 C 
HETATM    2  C4  UNL     1      20.075 -20.450 -22.508  1.00  0.00     0.006 C 
HETATM    3  C5  UNL     1      20.368 -19.576 -23.667  1.00  0.00     0.010 C 
HETATM    4  C6  UNL     1      21.840 -19.641 -24.110  1.00  0.00    -0.033 C 
HETATM    5  C7  UNL     1      22.305 -18.224 -24.412  1.00  0.00     0.029 C 
HETATM    6  C8  UNL     1      23.804 -18.078 -24.346  1.00  0.00     0.117 C 
HETATM    7  N1  UNL     1      24.246 -18.492 -23.057  1.00  0.00    -0.410 N 
HETATM    8  C12 UNL     1      24.033 -19.885 -22.898  1.00  0.00     0.122 C 
HETATM    9  C13 UNL     1      22.582 -20.201 -22.958  1.00  0.00     0.017 C 
HETATM   10  C14 UNL     1      22.246 -21.680 -22.838  1.00  0.00     0.001 C 
HETATM   11  C15 UNL     1      22.619 -22.336 -24.087  1.00  0.00     0.001 C 
HETATM   12  C16 UNL     1      22.573 -23.799 -24.217  1.00  0.00     0.008 C 
HETATM   13  C17 UNL     1      22.813 -23.986 -25.719  1.00  0.00     0.033 C 
HETATM   14  C18 UNL     1      22.856 -22.572 -26.323  1.00  0.00     0.126 C 
HETATM   15  C19 UNL     1      21.913 -21.867 -25.323  1.00  0.00    -0.013 C 
HETATM   16  C20 UNL     1      20.587 -22.492 -25.597  1.00  0.00     0.018 C 
HETATM   17  C21 UNL     1      21.936 -20.407 -25.393  1.00  0.00     0.022 C 
ENDROOT
BRANCH   7  18
HETATM   18  C9  UNL     1      23.921 -17.637 -21.980  1.00  0.00     0.148 C 
BRANCH  18  19
HETATM   19  C10 UNL     1      23.843 -18.338 -20.645  1.00  0.00     0.131 C 
HETATM   20  C11 UNL     1      22.402 -18.273 -20.113  1.00  0.00     0.041 C 
BRANCH  19  21
HETATM   21  O1  UNL     1      24.618 -17.721 -19.679  1.00  0.00    -0.394 OA
ATOM     22  H1  UNL     1      24.281 -17.858 -18.801  1.00  0.00     0.210 HD
ENDBRANCH  19  21
ENDBRANCH  18  19
ENDBRANCH   7  18
BRANCH   1  23
HETATM   23  C2  UNL     1      20.780 -22.154 -20.955  1.00  0.00     0.000 C 
HETATM   24  C1  UNL     1      19.406 -22.157 -20.378  1.00  0.00     0.005 C 
ENDBRANCH   1  23
BRANCH  14  25
HETATM   25  O2  UNL     1      22.347 -22.553 -27.598  1.00  0.00    -0.395 OA
ATOM     26  H2  UNL     1      21.398 -22.574 -27.595  1.00  0.00     0.210 HD
ENDBRANCH  14  25
TORSDOF 5
ENDMDL
MODEL 2
REMARK VINA RESULT: -8.274888117      2.257      5.594
REMARK  5 active torsions:
REMARK  status: ('A' for Active; 'I' for Inactive)
REMARK    1  A    between atoms: C2_2  and  C3_3 
REMARK    2  A    between atoms: N1_9  and  C9_10 
REMARK    3  A    between atoms: C9_10  and  C10_11 
REMARK    4  A    between atoms: C10_11  and  O1_13 
REMARK    5  A    between atoms: C18_21  and  O2_22 
ROOT
HETATM    1  C3  UNL     1      22.788 -18.843 -23.256  1.00  0.00    -0.010 C 
HETATM    2  C4  UNL     1      22.092 -18.498 -24.538  1.00  0.00     0.006 C 
HETATM    3  C5  UNL     1      20.923 -19.329 -24.911  1.00  0.00     0.010 C 
HETATM    4  C6  UNL     1      21.087 -20.807 -24.516  1.00  0.00    -0.033 C 
HETATM    5  C7  UNL     1      20.587 -21.662 -25.672  1.00  0.00     0.029 C 
HETATM    6  C8  UNL     1      21.153 -23.059 -25.647  1.00  0.00     0.117 C 
HETATM    7  N1  UNL     1      22.574 -22.976 -25.656  1.00  0.00    -0.410 N 
HETATM    8  C12 UNL     1      23.033 -22.402 -24.442  1.00  0.00     0.122 C 
HETATM    9  C13 UNL     1      22.539 -21.007 -24.306  1.00  0.00     0.017 C 
HETATM   10  C14 UNL     1      22.942 -20.312 -23.014  1.00  0.00     0.001 C 
HETATM   11  C15 UNL     1      22.156 -20.883 -21.924  1.00  0.00     0.001 C 
HETATM   12  C16 UNL     1      22.440 -20.534 -20.525  1.00  0.00     0.008 C 
HETATM   13  C17 UNL     1      21.248 -21.170 -19.799  1.00  0.00     0.033 C 
HETATM   14  C18 UNL     1      20.328 -21.727 -20.898  1.00  0.00     0.126 C 
HETATM   15  C19 UNL     1      20.670 -20.719 -22.017  1.00  0.00    -0.013 C 
HETATM   16  C20 UNL     1      20.119 -19.432 -21.503  1.00  0.00     0.018 C 
HETATM   17  C21 UNL     1      20.202 -21.106 -23.347  1.00  0.00     0.022 C 
ENDROOT
BRANCH   7  18
HETATM   18  C9  UNL     1      23.168 -22.550 -26.865  1.00  0.00     0.148 C 
BRANCH  18  19
HETATM   19  C10 UNL     1      24.035 -23.595 -27.523  1.00  0.00     0.131 C 
HETATM   20  C11 UNL     1      24.451 -24.648 -26.483  1.00  0.00     0.041 C 
BRANCH  19  21
HETATM   21  O1  UNL     1      25.221 -23.070 -28.006  1.00  0.00    -0.394 OA
ATOM     22  H1  UNL     1      25.380 -23.307 -28.913  1.00  0.00     0.210 HD
ENDBRANCH  19  21
ENDBRANCH  18  19
ENDBRANCH   7  18
BRANCH   1  23
HETATM   23  C2  UNL     1      24.209 -18.273 -23.408  1.00  0.00     0.000 C 
HETATM   24  C1  UNL     1      24.436 -17.628 -24.733  1.00  0.00     0.005 C 
ENDBRANCH   1  23
BRANCH  14  25
HETATM   25  O2  UNL     1      19.006 -21.652 -20.535  1.00  0.00    -0.395 OA
ATOM     26  H2  UNL     1      18.906 -21.592 -19.593  1.00  0.00     0.210 HD
ENDBRANCH  14  25
TORSDOF 5
ENDMDL
MODEL 3
REMARK VINA RESULT: -6.212522795      1.799      5.416
REMARK  5 active torsions:
REMARK  status: ('A' for Active; 'I' for Inactive)
REMARK    1  A    between atoms: C2_2  and  C3_3 
REMARK    2  A    between atoms: N1_9  and  C9_10 
REMARK    3  A    between atoms: C9_10  and  C10_11 
REMARK    4  A    between atoms: C10_11  and  O1_13 
REMARK    5  A    between atoms: C18_21  and  O2_22 
ROOT
HETATM    1  C3  UNL     1      21.260 -20.819 -20.879  1.00  0.00    -0.010 C 
HETATM    2  C4  UNL     1      21.925 -21.838 -21.755  1.00  0.00     0.006 C 
HETATM    3  C5  UNL     1      22.930 -21.338 -22.721  1.00  0.00     0.010 C 
HETATM    4  C6  UNL     1      22.567 -19.962 -23.307  1.00  0.00    -0.033 C 
HETATM    5  C7  UNL     1      22.864 -19.992 -24.800  1.00  0.00     0.029 C 
HETATM    6  C8  UNL     1      22.096 -18.946 -25.565  1.00  0.00     0.117 C 
HETATM    7  N1  UNL     1      20.705 -19.131 -25.322  1.00  0.00    -0.410 N 
HETATM    8  C12 UNL     1      20.410 -18.844 -23.964  1.00  0.00     0.122 C 
HETATM    9  C13 UNL     1      21.116 -19.793 -23.065  1.00  0.00     0.017 C 
HETATM   10  C14 UNL     1      20.899 -19.546 -21.580  1.00  0.00     0.001 C 
HETATM   11  C15 UNL     1      21.650 -18.354 -21.201  1.00  0.00     0.001 C 
HETATM   12  C16 UNL     1      21.504 -17.761 -19.863  1.00  0.00     0.008 C 
HETATM   13  C17 UNL     1      22.625 -16.715 -19.863  1.00  0.00     0.033 C 
HETATM   14  C18 UNL     1      23.385 -16.905 -21.186  1.00  0.00     0.126 C 
HETATM   15  C19 UNL     1      23.137 -18.417 -21.379  1.00  0.00    -0.013 C 
HETATM   16  C20 UNL     1      23.905 -19.040 -20.263  1.00  0.00     0.018 C 
HETATM   17  C21 UNL     1      23.463 -18.921 -22.712  1.00  0.00     0.022 C 
ENDROOT
BRANCH   7  18
HETATM   18  C9  UNL     1      20.114 -20.272 -25.909  1.00  0.00     0.148 C 
BRANCH  18  19
HETATM   19  C10 UNL     1      21.058 -21.439 -26.066  1.00  0.00     0.131 C 
HETATM   20  C11 UNL     1      21.001 -21.957 -27.512  1.00  0.00     0.041 C 
BRANCH  19  21
HETATM   21  O1  UNL     1      20.701 -22.518 -25.276  1.00  0.00    -0.394 OA
ATOM     22  H1  UNL     1      19.928 -22.965 -25.601  1.00  0.00     0.210 HD
ENDBRANCH  19  21
ENDBRANCH  18  19
ENDBRANCH   7  18
BRANCH   1  23
HETATM   23  C2  UNL     1      19.935 -21.470 -20.446  1.00  0.00     0.000 C 
HETATM   24  C1  UNL     1      20.090 -22.374 -19.271  1.00  0.00     0.005 C 
ENDBRANCH   1  23
BRANCH  14  25
HETATM   25  O2  UNL     1      24.722 -16.626 -21.044  1.00  0.00    -0.395 OA
ATOM     26  H2  UNL     1      25.019 -16.785 -20.157  1.00  0.00     0.210 HD
ENDBRANCH  14  25
TORSDOF 5
ENDMDL
MODEL 4
REMARK VINA RESULT: -6.192464016      1.684      5.835
REMARK  5 active torsions:
REMARK  status: ('A' for Active; 'I' for Inactive)
REMARK    1  A    between atoms: C2_2  and  C3_3 
REMARK    2  A    between atoms: N1_9  and  C9_10 
REMARK    3  A    between atoms: C9_10  and  C10_11 
REMARK    4  A    between atoms: C10_11  and  O1_13 
REMARK    5  A    between atoms: C18_21  and  O2_22 
ROOT
HETATM    1  C3  UNL     1      20.937 -18.593 -24.319  1.00  0.00    -0.010 C 
HETATM    2  C4  UNL     1      19.794 -19.550 -24.155  1.00  0.00     0.006 C 
HETATM    3  C5  UNL     1      19.990 -20.673 -23.209  1.00  0.00     0.010 C 
HETATM    4  C6  UNL     1      21.431 -21.212 -23.208  1.00  0.00    -0.033 C 
HETATM    5  C7  UNL     1      21.365 -22.732 -23.174  1.00  0.00     0.029 C 
HETATM    6  C8  UNL     1      22.627 -23.379 -23.684  1.00  0.00     0.117 C 
HETATM    7  N1  UNL     1      22.877 -22.912 -25.006  1.00  0.00    -0.410 N 
HETATM    8  C12 UNL     1      23.191 -21.529 -24.979  1.00  0.00     0.122 C 
HETATM    9  C13 UNL     1      22.036 -20.742 -24.474  1.00  0.00     0.017 C 
HETATM   10  C14 UNL     1      22.284 -19.245 -24.366  1.00  0.00     0.001 C 
HETATM   11  C15 UNL     1      23.166 -19.009 -23.228  1.00  0.00     0.001 C 
HETATM   12  C16 UNL     1      23.724 -17.674 -22.968  1.00  0.00     0.008 C 
HETATM   13  C17 UNL     1      24.366 -17.869 -21.589  1.00  0.00     0.033 C 
HETATM   14  C18 UNL     1      23.997 -19.294 -21.146  1.00  0.00     0.126 C 
HETATM   15  C19 UNL     1      22.647 -19.423 -21.885  1.00  0.00    -0.013 C 
HETATM   16  C20 UNL     1      21.775 -18.436 -21.186  1.00  0.00     0.018 C 
HETATM   17  C21 UNL     1      22.117 -20.784 -21.948  1.00  0.00     0.022 C 
ENDROOT
BRANCH   7  18
HETATM   18  C9  UNL     1      22.001 -23.380 -26.011  1.00  0.00     0.148 C 
BRANCH  18  19
HETATM   19  C10 UNL     1      22.705 -23.937 -27.225  1.00  0.00     0.131 C 
HETATM   20  C11 UNL     1      24.090 -24.466 -26.820  1.00  0.00     0.041 C 
BRANCH  19  21
HETATM   21  O1  UNL     1      22.948 -22.969 -28.184  1.00  0.00    -0.394 OA
ATOM     22  H1  UNL     1      23.193 -22.133 -27.802  1.00  0.00     0.210 HD
ENDBRANCH  19  21
ENDBRANCH  18  19
ENDBRANCH   7  18
BRANCH   1  23
HETATM   23  C2  UNL     1      20.717 -17.942 -25.696  1.00  0.00     0.000 C 
HETATM   24  C1  UNL     1      20.026 -18.845 -26.660  1.00  0.00     0.005 C 
ENDBRANCH   1  23
BRANCH  14  25
HETATM   25  O2  UNL     1      23.839 -19.374 -19.784  1.00  0.00    -0.395 OA
ATOM     26  H2  UNL     1      24.667 -19.278 -19.330  1.00  0.00     0.210 HD
ENDBRANCH  14  25
TORSDOF 5
ENDMDL
MODEL 5
REMARK VINA RESULT: -6.118416115      1.828      5.972
REMARK  5 active torsions:
REMARK  status: ('A' for Active; 'I' for Inactive)
REMARK    1  A    between atoms: C2_2  and  C3_3 
REMARK    2  A    between atoms: N1_9  and  C9_10 
REMARK    3  A    between atoms: C9_10  and  C10_11 
REMARK    4  A    between atoms: C10_11  and  O1_13 
REMARK    5  A    between atoms: C18_21  and  O2_22 
ROOT
HETATM    1  C3  UNL     1      22.509 -18.251 -23.937  1.00  0.00    -0.010 C 
HETATM    2  C4  UNL     1      21.133 -18.496 -24.479  1.00  0.00     0.006 C 
HETATM    3  C5  UNL     1      20.257 -19.404 -23.702  1.00  0.00     0.010 C 
HETATM    4  C6  UNL     1      21.026 -20.563 -23.045  1.00  0.00    -0.033 C 
HETATM    5  C7  UNL     1      20.210 -21.835 -23.229  1.00  0.00     0.029 C 
HETATM    6  C8  UNL     1      21.046 -23.083 -23.112  1.00  0.00     0.117 C 
HETATM    7  N1  UNL     1      22.100 -23.016 -24.067  1.00  0.00    -0.410 N 
HETATM    8  C12 UNL     1      22.998 -21.973 -23.723  1.00  0.00     0.122 C 
HETATM    9  C13 UNL     1      22.312 -20.656 -23.774  1.00  0.00     0.017 C 
HETATM   10  C14 UNL     1      23.178 -19.470 -23.382  1.00  0.00     0.001 C 
HETATM   11  C15 UNL     1      23.376 -19.507 -21.936  1.00  0.00     0.001 C 
HETATM   12  C16 UNL     1      24.312 -18.585 -21.276  1.00  0.00     0.008 C 
HETATM   13  C17 UNL     1      24.006 -18.839 -19.795  1.00  0.00     0.033 C 
HETATM   14  C18 UNL     1      22.819 -19.816 -19.767  1.00  0.00     0.126 C 
HETATM   15  C19 UNL     1      22.144 -19.395 -21.091  1.00  0.00    -0.013 C 
HETATM   16  C20 UNL     1      21.664 -18.011 -20.811  1.00  0.00     0.018 C 
HETATM   17  C21 UNL     1      21.118 -20.321 -21.570  1.00  0.00     0.022 C 
ENDROOT
BRANCH   7  18
HETATM   18  C9  UNL     1      21.728 -23.160 -25.422  1.00  0.00     0.148 C 
BRANCH  18  19
HETATM   19  C10 UNL     1      22.871 -23.531 -26.335  1.00  0.00     0.131 C 
HETATM   20  C11 UNL     1      22.321 -23.920 -27.717  1.00  0.00     0.041 C 
BRANCH  19  21
HETATM   21  O1  UNL     1      23.563 -24.644 -25.889  1.00  0.00    -0.394 OA
ATOM     22  H1  UNL     1      24.060 -24.469 -25.098  1.00  0.00     0.210 HD
ENDBRANCH  19  21
ENDBRANCH  18  19
ENDBRANCH   7  18
BRANCH   1  23
HETATM   23  C2  UNL     1      23.343 -17.809 -25.152  1.00  0.00     0.000 C 
HETATM   24  C1  UNL     1      24.778 -17.582 -24.817  1.00  0.00     0.005 C 
ENDBRANCH   1  23
BRANCH  14  25
HETATM   25  O2  UNL     1      22.002 -19.586 -18.688  1.00  0.00    -0.395 OA
ATOM     26  H2  UNL     1      21.183 -20.060 -18.763  1.00  0.00     0.210 HD
ENDBRANCH  14  25
TORSDOF 5
ENDMDL
