MODEL 1
REMARK VINA RESULT: -7.138875780      0.000      0.000
REMARK  2 active torsions:
REMARK  status: ('A' for Active; 'I' for Inactive)
REMARK       I    between atoms: N1_2  and  C3_4 
REMARK       I    between atoms: C3_4  and  N4_9 
REMARK    1  A    between atoms: N4_9  and  N5_11 
REMARK    2  A    between atoms: C5_13  and  N6_14 
REMARK       I    between atoms: N6_14  and  C6_16 
ROOT
HETATM    1  C1  UNL     1      15.260  68.010  24.951  1.00  0.00     0.168 C 
HETATM    2  N1  UNL     1      16.278  67.043  24.579  1.00  0.00    -0.225 N 
HETATM    3  C2  UNL     1      17.330  66.642  25.498  1.00  0.00     0.168 C 
HETATM    4  C3  UNL     1      16.272  66.455  23.290  1.00  0.00     0.703 C 
HETATM    5  N2  UNL     1      17.004  66.996  22.378  1.00  0.00    -0.125 N 
ATOM      6  H2  UNL     1      17.556  67.820  22.616  1.00  0.00     0.197 HD
HETATM    7  C4  UNL     1      17.069  66.493  21.073  1.00  0.00     0.196 C 
HETATM    8  N3  UNL     1      17.118  66.088  19.978  1.00  0.00    -0.171 NA
HETATM    9  N4  UNL     1      15.469  65.307  23.053  1.00  0.00    -0.131 N 
ATOM     10  H4  UNL     1      15.873  64.454  22.667  1.00  0.00     0.205 HD
ENDROOT
BRANCH   9  11
HETATM   11  N5  UNL     1      14.113  65.381  23.365  1.00  0.00    -0.282 N 
HETATM   12  C5  UNL     1      13.388  64.335  23.408  1.00  0.00     0.200 C 
ATOM     13  H5  UNL     1      13.693  66.290  23.562  1.00  0.00     0.188 HD
BRANCH  12  14
HETATM   14  N6  UNL     1      13.977  63.078  23.135  1.00  0.00    -0.325 N 
HETATM   15  C6  UNL     1      13.089  62.039  22.688  1.00  0.00     0.202 C 
HETATM   16  N7  UNL     1      12.596  62.075  21.352  1.00  0.00    -0.062 NA
HETATM   17  N8  UNL     1      12.782  61.128  23.518  1.00  0.00    -0.267 N 
HETATM   18  C7  UNL     1      11.908  60.100  23.091  1.00  0.00     0.184 C 
ATOM     19  H8  UNL     1      13.155  61.137  24.467  1.00  0.00     0.180 HD
HETATM   20  N9  UNL     1      11.189  59.266  22.726  1.00  0.00    -0.172 NA
ATOM     21  H6  UNL     1      14.978  62.917  23.250  1.00  0.00     0.169 HD
ENDBRANCH  12  14
ENDBRANCH   9  11
TORSDOF 2
ENDMDL
MODEL 2
REMARK VINA RESULT: -6.922257628      1.454      1.628
REMARK  2 active torsions:
REMARK  status: ('A' for Active; 'I' for Inactive)
REMARK       I    between atoms: N1_2  and  C3_4 
REMARK       I    between atoms: C3_4  and  N4_9 
REMARK    1  A    between atoms: N4_9  and  N5_11 
REMARK    2  A    between atoms: C5_13  and  N6_14 
REMARK       I    between atoms: N6_14  and  C6_16 
ROOT
HETATM    1  C1  UNL     1      13.799  68.912  24.024  1.00  0.00     0.168 C 
HETATM    2  N1  UNL     1      15.206  68.549  24.073  1.00  0.00    -0.225 N 
HETATM    3  C2  UNL     1      16.202  69.414  24.680  1.00  0.00     0.168 C 
HETATM    4  C3  UNL     1      15.649  67.322  23.521  1.00  0.00     0.703 C 
HETATM    5  N2  UNL     1      16.093  67.332  22.311  1.00  0.00    -0.125 N 
ATOM      6  H2  UNL     1      16.108  68.214  21.801  1.00  0.00     0.197 HD
HETATM    7  C4  UNL     1      16.555  66.174  21.673  1.00  0.00     0.196 C 
HETATM    8  N3  UNL     1      16.929  65.210  21.129  1.00  0.00    -0.171 NA
HETATM    9  N4  UNL     1      15.589  66.142  24.310  1.00  0.00    -0.131 N 
ATOM     10  H4  UNL     1      16.416  65.565  24.455  1.00  0.00     0.205 HD
ENDROOT
BRANCH   9  11
HETATM   11  N5  UNL     1      14.364  65.799  24.881  1.00  0.00    -0.282 N 
HETATM   12  C5  UNL     1      13.578  64.975  24.309  1.00  0.00     0.200 C 
ATOM     13  H5  UNL     1      14.093  66.214  25.772  1.00  0.00     0.188 HD
BRANCH  12  14
HETATM   14  N6  UNL     1      13.962  64.402  23.074  1.00  0.00    -0.325 N 
HETATM   15  C6  UNL     1      13.165  63.300  22.606  1.00  0.00     0.202 C 
HETATM   16  N7  UNL     1      11.875  63.560  22.061  1.00  0.00    -0.062 NA
HETATM   17  N8  UNL     1      13.656  62.133  22.703  1.00  0.00    -0.267 N 
HETATM   18  C7  UNL     1      12.882  61.040  22.247  1.00  0.00     0.184 C 
ATOM     19  H8  UNL     1      14.585  61.988  23.100  1.00  0.00     0.180 HD
HETATM   20  N9  UNL     1      12.234  60.156  21.870  1.00  0.00    -0.172 NA
ATOM     21  H6  UNL     1      14.761  64.750  22.545  1.00  0.00     0.169 HD
ENDBRANCH  12  14
ENDBRANCH   9  11
TORSDOF 2
ENDMDL
MODEL 3
REMARK VINA RESULT: -6.912427990      2.387      7.056
REMARK  2 active torsions:
REMARK  status: ('A' for Active; 'I' for Inactive)
REMARK       I    between atoms: N1_2  and  C3_4 
REMARK       I    between atoms: C3_4  and  N4_9 
REMARK    1  A    between atoms: N4_9  and  N5_11 
REMARK    2  A    between atoms: C5_13  and  N6_14 
REMARK       I    between atoms: N6_14  and  C6_16 
ROOT
HETATM    1  C1  UNL     1      12.476  63.313  22.202  1.00  0.00     0.168 C 
HETATM    2  N1  UNL     1      12.334  63.534  23.631  1.00  0.00    -0.225 N 
HETATM    3  C2  UNL     1      12.159  62.435  24.565  1.00  0.00     0.168 C 
HETATM    4  C3  UNL     1      12.364  64.848  24.160  1.00  0.00     0.703 C 
HETATM    5  N2  UNL     1      11.238  65.446  24.348  1.00  0.00    -0.125 N 
ATOM      6  H2  UNL     1      10.375  64.956  24.111  1.00  0.00     0.197 HD
HETATM    7  C4  UNL     1      11.157  66.745  24.865  1.00  0.00     0.196 C 
HETATM    8  N3  UNL     1      11.081  67.833  25.284  1.00  0.00    -0.171 NA
HETATM    9  N4  UNL     1      13.615  65.449  24.458  1.00  0.00    -0.131 N 
ATOM     10  H4  UNL     1      13.807  65.831  25.384  1.00  0.00     0.205 HD
ENDROOT
BRANCH   9  11
HETATM   11  N5  UNL     1      14.573  65.502  23.447  1.00  0.00    -0.282 N 
HETATM   12  C5  UNL     1      15.765  65.885  23.687  1.00  0.00     0.200 C 
ATOM     13  H5  UNL     1      14.316  65.230  22.498  1.00  0.00     0.188 HD
BRANCH  12  14
HETATM   14  N6  UNL     1      16.115  66.259  25.006  1.00  0.00    -0.325 N 
HETATM   15  C6  UNL     1      15.932  67.644  25.347  1.00  0.00     0.202 C 
HETATM   16  N7  UNL     1      14.615  68.133  25.579  1.00  0.00    -0.062 NA
HETATM   17  N8  UNL     1      16.968  68.374  25.424  1.00  0.00    -0.267 N 
HETATM   18  C7  UNL     1      16.803  69.739  25.758  1.00  0.00     0.184 C 
ATOM     19  H8  UNL     1      17.896  67.986  25.250  1.00  0.00     0.180 HD
HETATM   20  N9  UNL     1      16.649  70.855  26.031  1.00  0.00    -0.172 NA
ATOM     21  H6  UNL     1      16.477  65.583  25.678  1.00  0.00     0.169 HD
ENDBRANCH  12  14
ENDBRANCH   9  11
TORSDOF 2
ENDMDL
MODEL 4
REMARK VINA RESULT: -6.909620106      1.436      1.836
REMARK  2 active torsions:
REMARK  status: ('A' for Active; 'I' for Inactive)
REMARK       I    between atoms: N1_2  and  C3_4 
REMARK       I    between atoms: C3_4  and  N4_9 
REMARK    1  A    between atoms: N4_9  and  N5_11 
REMARK    2  A    between atoms: C5_13  and  N6_14 
REMARK       I    between atoms: N6_14  and  C6_16 
ROOT
HETATM    1  C1  UNL     1      16.166  69.441  24.796  1.00  0.00     0.168 C 
HETATM    2  N1  UNL     1      16.853  68.161  24.746  1.00  0.00    -0.225 N 
HETATM    3  C2  UNL     1      17.694  67.698  25.837  1.00  0.00     0.168 C 
HETATM    4  C3  UNL     1      16.719  67.319  23.615  1.00  0.00     0.703 C 
HETATM    5  N2  UNL     1      17.619  67.399  22.696  1.00  0.00    -0.125 N 
ATOM      6  H2  UNL     1      18.386  68.060  22.815  1.00  0.00     0.197 HD
HETATM    7  C4  UNL     1      17.579  66.611  21.539  1.00  0.00     0.196 C 
HETATM    8  N3  UNL     1      17.546  65.968  20.563  1.00  0.00    -0.171 NA
HETATM    9  N4  UNL     1      15.614  66.430  23.537  1.00  0.00    -0.131 N 
ATOM     10  H4  UNL     1      15.753  65.432  23.383  1.00  0.00     0.205 HD
ENDROOT
BRANCH   9  11
HETATM   11  N5  UNL     1      14.334  66.964  23.677  1.00  0.00    -0.282 N 
HETATM   12  C5  UNL     1      13.369  66.256  24.115  1.00  0.00     0.200 C 
ATOM     13  H5  UNL     1      14.167  67.937  23.424  1.00  0.00     0.188 HD
BRANCH  12  14
HETATM   14  N6  UNL     1      13.609  64.907  24.465  1.00  0.00    -0.325 N 
HETATM   15  C6  UNL     1      13.571  63.951  23.390  1.00  0.00     0.202 C 
HETATM   16  N7  UNL     1      14.663  63.888  22.479  1.00  0.00    -0.062 NA
HETATM   17  N8  UNL     1      12.550  63.201  23.305  1.00  0.00    -0.267 N 
HETATM   18  C7  UNL     1      12.499  62.257  22.252  1.00  0.00     0.184 C 
ATOM     19  H8  UNL     1      11.787  63.277  23.977  1.00  0.00     0.180 HD
HETATM   20  N9  UNL     1      12.472  61.490  21.382  1.00  0.00    -0.172 NA
ATOM     21  H6  UNL     1      13.799  64.626  25.427  1.00  0.00     0.169 HD
ENDBRANCH  12  14
ENDBRANCH   9  11
TORSDOF 2
ENDMDL
MODEL 5
REMARK VINA RESULT: -6.862839825      4.367      6.596
REMARK  2 active torsions:
REMARK  status: ('A' for Active; 'I' for Inactive)
REMARK       I    between atoms: N1_2  and  C3_4 
REMARK       I    between atoms: C3_4  and  N4_9 
REMARK    1  A    between atoms: N4_9  and  N5_11 
REMARK    2  A    between atoms: C5_13  and  N6_14 
REMARK       I    between atoms: N6_14  and  C6_16 
ROOT
HETATM    1  C1  UNL     1      16.016  67.843  27.690  1.00  0.00     0.168 C 
HETATM    2  N1  UNL     1      16.338  66.591  27.026  1.00  0.00    -0.225 N 
HETATM    3  C2  UNL     1      16.669  65.389  27.771  1.00  0.00     0.168 C 
HETATM    4  C3  UNL     1      16.338  66.509  25.612  1.00  0.00     0.703 C 
HETATM    5  N2  UNL     1      17.459  66.674  25.000  1.00  0.00    -0.125 N 
ATOM      6  H2  UNL     1      18.298  66.856  25.550  1.00  0.00     0.197 HD
HETATM    7  C4  UNL     1      17.568  66.613  23.605  1.00  0.00     0.196 C 
HETATM    8  N3  UNL     1      17.664  66.577  22.440  1.00  0.00    -0.171 NA
HETATM    9  N4  UNL     1      15.118  66.252  24.931  1.00  0.00    -0.131 N 
ATOM     10  H4  UNL     1      15.038  65.479  24.271  1.00  0.00     0.205 HD
ENDROOT
BRANCH   9  11
HETATM   11  N5  UNL     1      14.034  67.089  25.191  1.00  0.00    -0.282 N 
HETATM   12  C5  UNL     1      13.778  68.088  24.443  1.00  0.00     0.200 C 
ATOM     13  H5  UNL     1      13.436  66.898  25.995  1.00  0.00     0.188 HD
BRANCH  12  14
HETATM   14  N6  UNL     1      14.611  68.345  23.329  1.00  0.00    -0.325 N 
HETATM   15  C6  UNL     1      15.326  69.593  23.341  1.00  0.00     0.202 C 
HETATM   16  N7  UNL     1      16.457  69.737  24.194  1.00  0.00    -0.062 NA
HETATM   17  N8  UNL     1      14.908  70.519  22.579  1.00  0.00    -0.267 N 
HETATM   18  C7  UNL     1      15.601  71.753  22.581  1.00  0.00     0.184 C 
ATOM     19  H8  UNL     1      14.093  70.378  21.982  1.00  0.00     0.180 HD
HETATM   20  N9  UNL     1      16.180  72.758  22.596  1.00  0.00    -0.172 NA
ATOM     21  H6  UNL     1      14.700  67.682  22.560  1.00  0.00     0.169 HD
ENDBRANCH  12  14
ENDBRANCH   9  11
TORSDOF 2
ENDMDL
