MODEL 1
REMARK VINA RESULT: -7.446678118      0.000      0.000
REMARK  4 active torsions:
REMARK  status: ('A' for Active; 'I' for Inactive)
REMARK    1  A    between atoms: N1_1  and  S1_4 
REMARK    2  A    between atoms: S1_4  and  N2_7 
REMARK    3  A    between atoms: N2_7  and  N3_9 
REMARK    4  A    between atoms: N3_9  and  C1_11 
ROOT
HETATM    1  N3  UNL     1      16.805  69.580  21.701  1.00  0.00    -0.274 N 
ATOM      2  H3  UNL     1      17.684  69.995  21.392  1.00  0.00     0.189 HD
ENDROOT
BRANCH   1   3
HETATM    3  N2  UNL     1      15.774  70.449  21.966  1.00  0.00    -0.209 N 
ATOM      4  H2  UNL     1      14.914  70.428  21.416  1.00  0.00     0.201 HD
BRANCH   3   5
HETATM    5  S1  UNL     1      15.975  71.578  23.257  1.00  0.00     0.330 S 
HETATM    6  O1  UNL     1      14.613  72.089  23.632  1.00  0.00    -0.181 OA
HETATM    7  O2  UNL     1      16.843  72.724  22.770  1.00  0.00    -0.181 OA
BRANCH   5   8
HETATM    8  N1  UNL     1      16.758  70.774  24.561  1.00  0.00    -0.310 N 
ATOM      9  H12 UNL     1      17.695  70.379  24.486  1.00  0.00     0.170 HD
ATOM     10  H11 UNL     1      16.181  70.741  25.401  1.00  0.00     0.170 HD
ENDBRANCH   5   8
ENDBRANCH   3   5
ENDBRANCH   1   3
BRANCH   1  11
HETATM   11  C1  UNL     1      16.779  68.316  21.800  1.00  0.00     0.135 A 
HETATM   12  C2  UNL     1      15.901  67.697  22.664  1.00  0.00     0.057 A 
HETATM   13  C3  UNL     1      15.906  66.301  22.741  1.00  0.00     0.079 A 
HETATM   14  C4  UNL     1      16.777  65.576  21.962  1.00  0.00     0.259 A 
HETATM   15  O3  UNL     1      16.757  64.313  22.054  1.00  0.00    -0.267 OA
HETATM   16  N4  UNL     1      17.609  66.227  21.138  1.00  0.00    -0.265 N 
HETATM   17  N5  UNL     1      17.613  67.568  21.055  1.00  0.00    -0.282 N 
ATOM     18  H4  UNL     1      18.255  65.692  20.559  1.00  0.00     0.190 HD
ATOM     19  H5  UNL     1      18.261  68.028  20.415  1.00  0.00     0.188 HD
ENDBRANCH   1  11
TORSDOF 4
ENDMDL
MODEL 2
REMARK VINA RESULT: -7.202873982      3.264      3.858
REMARK  4 active torsions:
REMARK  status: ('A' for Active; 'I' for Inactive)
REMARK    1  A    between atoms: N1_1  and  S1_4 
REMARK    2  A    between atoms: S1_4  and  N2_7 
REMARK    3  A    between atoms: N2_7  and  N3_9 
REMARK    4  A    between atoms: N3_9  and  C1_11 
ROOT
HETATM    1  N3  UNL     1      15.545  68.395  24.422  1.00  0.00    -0.274 N 
ATOM      2  H3  UNL     1      15.220  69.360  24.359  1.00  0.00     0.189 HD
ENDROOT
BRANCH   1   3
HETATM    3  N2  UNL     1      15.397  67.774  25.639  1.00  0.00    -0.209 N 
ATOM      4  H2  UNL     1      14.476  67.500  25.981  1.00  0.00     0.201 HD
BRANCH   3   5
HETATM    5  S1  UNL     1      16.818  67.473  26.573  1.00  0.00     0.330 S 
HETATM    6  O1  UNL     1      17.710  68.675  26.446  1.00  0.00    -0.181 OA
HETATM    7  O2  UNL     1      17.516  66.246  26.015  1.00  0.00    -0.181 OA
BRANCH   5   8
HETATM    8  N1  UNL     1      16.342  67.177  28.200  1.00  0.00    -0.310 N 
ATOM      9  H12 UNL     1      15.714  67.793  28.715  1.00  0.00     0.170 HD
ATOM     10  H11 UNL     1      16.757  66.325  28.579  1.00  0.00     0.170 HD
ENDBRANCH   5   8
ENDBRANCH   3   5
ENDBRANCH   1   3
BRANCH   1  11
HETATM   11  C1  UNL     1      16.042  67.894  23.367  1.00  0.00     0.135 A 
HETATM   12  C2  UNL     1      15.766  66.591  23.012  1.00  0.00     0.057 A 
HETATM   13  C3  UNL     1      16.335  66.079  21.842  1.00  0.00     0.079 A 
HETATM   14  C4  UNL     1      17.151  66.876  21.072  1.00  0.00     0.259 A 
HETATM   15  O3  UNL     1      17.650  66.383  20.018  1.00  0.00    -0.267 OA
HETATM   16  N4  UNL     1      17.385  68.136  21.463  1.00  0.00    -0.265 N 
HETATM   17  N5  UNL     1      16.844  68.638  22.585  1.00  0.00    -0.282 N 
ATOM     18  H4  UNL     1      17.989  68.729  20.894  1.00  0.00     0.190 HD
ATOM     19  H5  UNL     1      17.045  69.604  22.849  1.00  0.00     0.188 HD
ENDBRANCH   1  11
TORSDOF 4
ENDMDL
MODEL 3
REMARK VINA RESULT: -7.144006952      0.889      1.129
REMARK  4 active torsions:
REMARK  status: ('A' for Active; 'I' for Inactive)
REMARK    1  A    between atoms: N1_1  and  S1_4 
REMARK    2  A    between atoms: S1_4  and  N2_7 
REMARK    3  A    between atoms: N2_7  and  N3_9 
REMARK    4  A    between atoms: N3_9  and  C1_11 
ROOT
HETATM    1  N3  UNL     1      16.630  69.528  21.690  1.00  0.00    -0.274 N 
ATOM      2  H3  UNL     1      17.431  69.982  21.250  1.00  0.00     0.189 HD
ENDROOT
BRANCH   1   3
HETATM    3  N2  UNL     1      15.613  70.351  22.113  1.00  0.00    -0.209 N 
ATOM      4  H2  UNL     1      14.754  70.446  21.570  1.00  0.00     0.201 HD
BRANCH   3   5
HETATM    5  S1  UNL     1      15.832  71.220  23.589  1.00  0.00     0.330 S 
HETATM    6  O1  UNL     1      15.921  70.213  24.701  1.00  0.00    -0.181 OA
HETATM    7  O2  UNL     1      14.633  72.125  23.803  1.00  0.00    -0.181 OA
BRANCH   5   8
HETATM    8  N1  UNL     1      17.258  72.172  23.450  1.00  0.00    -0.310 N 
ATOM      9  H12 UNL     1      17.541  72.622  22.580  1.00  0.00     0.170 HD
ATOM     10  H11 UNL     1      17.775  72.231  24.327  1.00  0.00     0.170 HD
ENDBRANCH   5   8
ENDBRANCH   3   5
ENDBRANCH   1   3
BRANCH   1  11
HETATM   11  C1  UNL     1      16.678  68.265  21.790  1.00  0.00     0.135 A 
HETATM   12  C2  UNL     1      15.793  67.591  22.604  1.00  0.00     0.057 A 
HETATM   13  C3  UNL     1      15.881  66.198  22.685  1.00  0.00     0.079 A 
HETATM   14  C4  UNL     1      16.839  65.530  21.957  1.00  0.00     0.259 A 
HETATM   15  O3  UNL     1      16.892  64.268  22.051  1.00  0.00    -0.267 OA
HETATM   16  N4  UNL     1      17.673  66.233  21.181  1.00  0.00    -0.265 N 
HETATM   17  N5  UNL     1      17.598  67.572  21.096  1.00  0.00    -0.282 N 
ATOM     18  H4  UNL     1      18.384  65.740  20.641  1.00  0.00     0.190 HD
ATOM     19  H5  UNL     1      18.251  68.073  20.493  1.00  0.00     0.188 HD
ENDBRANCH   1  11
TORSDOF 4
ENDMDL
MODEL 4
REMARK VINA RESULT: -7.046750304      1.354      1.531
REMARK  4 active torsions:
REMARK  status: ('A' for Active; 'I' for Inactive)
REMARK    1  A    between atoms: N1_1  and  S1_4 
REMARK    2  A    between atoms: S1_4  and  N2_7 
REMARK    3  A    between atoms: N2_7  and  N3_9 
REMARK    4  A    between atoms: N3_9  and  C1_11 
ROOT
HETATM    1  N3  UNL     1      16.131  69.312  21.341  1.00  0.00    -0.274 N 
ATOM      2  H3  UNL     1      15.554  69.580  20.544  1.00  0.00     0.189 HD
ENDROOT
BRANCH   1   3
HETATM    3  N2  UNL     1      16.720  70.335  22.045  1.00  0.00    -0.209 N 
ATOM      4  H2  UNL     1      17.671  70.639  21.834  1.00  0.00     0.201 HD
BRANCH   3   5
HETATM    5  S1  UNL     1      15.803  71.090  23.298  1.00  0.00     0.330 S 
HETATM    6  O1  UNL     1      14.525  70.316  23.457  1.00  0.00    -0.181 OA
HETATM    7  O2  UNL     1      15.497  72.518  22.885  1.00  0.00    -0.181 OA
BRANCH   5   8
HETATM    8  N1  UNL     1      16.751  71.095  24.734  1.00  0.00    -0.310 N 
ATOM      9  H12 UNL     1      16.406  71.452  25.625  1.00  0.00     0.170 HD
ATOM     10  H11 UNL     1      17.682  70.704  24.588  1.00  0.00     0.170 HD
ENDBRANCH   5   8
ENDBRANCH   3   5
ENDBRANCH   1   3
BRANCH   1  11
HETATM   11  C1  UNL     1      16.230  68.069  21.577  1.00  0.00     0.135 A 
HETATM   12  C2  UNL     1      16.921  67.244  20.717  1.00  0.00     0.057 A 
HETATM   13  C3  UNL     1      17.005  65.881  21.016  1.00  0.00     0.079 A 
HETATM   14  C4  UNL     1      16.404  65.391  22.153  1.00  0.00     0.259 A 
HETATM   15  O3  UNL     1      16.499  64.152  22.396  1.00  0.00    -0.267 OA
HETATM   16  N4  UNL     1      15.745  66.238  22.955  1.00  0.00    -0.265 N 
HETATM   17  N5  UNL     1      15.658  67.549  22.678  1.00  0.00    -0.282 N 
ATOM     18  H4  UNL     1      15.298  65.878  23.798  1.00  0.00     0.190 HD
ATOM     19  H5  UNL     1      15.148  68.163  23.314  1.00  0.00     0.188 HD
ENDBRANCH   1  11
TORSDOF 4
ENDMDL
MODEL 5
REMARK VINA RESULT: -6.967179761      1.470      1.859
REMARK  4 active torsions:
REMARK  status: ('A' for Active; 'I' for Inactive)
REMARK    1  A    between atoms: N1_1  and  S1_4 
REMARK    2  A    between atoms: S1_4  and  N2_7 
REMARK    3  A    between atoms: N2_7  and  N3_9 
REMARK    4  A    between atoms: N3_9  and  C1_11 
ROOT
HETATM    1  N3  UNL     1      16.181  69.107  23.917  1.00  0.00    -0.274 N 
ATOM      2  H3  UNL     1      15.662  68.716  24.703  1.00  0.00     0.189 HD
ENDROOT
BRANCH   1   3
HETATM    3  N2  UNL     1      16.533  70.432  24.011  1.00  0.00    -0.209 N 
ATOM      4  H2  UNL     1      17.305  70.730  24.607  1.00  0.00     0.201 HD
BRANCH   3   5
HETATM    5  S1  UNL     1      15.629  71.579  23.089  1.00  0.00     0.330 S 
HETATM    6  O1  UNL     1      14.611  72.198  24.005  1.00  0.00    -0.181 OA
HETATM    7  O2  UNL     1      14.931  70.850  21.955  1.00  0.00    -0.181 OA
BRANCH   5   8
HETATM    8  N1  UNL     1      16.724  72.737  22.443  1.00  0.00    -0.310 N 
ATOM      9  H12 UNL     1      16.447  73.442  21.760  1.00  0.00     0.170 HD
ATOM     10  H11 UNL     1      17.666  72.636  22.821  1.00  0.00     0.170 HD
ENDBRANCH   5   8
ENDBRANCH   3   5
ENDBRANCH   1   3
BRANCH   1  11
HETATM   11  C1  UNL     1      16.434  68.318  22.956  1.00  0.00     0.135 A 
HETATM   12  C2  UNL     1      15.960  67.024  22.967  1.00  0.00     0.057 A 
HETATM   13  C3  UNL     1      16.263  66.189  21.887  1.00  0.00     0.079 A 
HETATM   14  C4  UNL     1      17.019  66.668  20.842  1.00  0.00     0.259 A 
HETATM   15  O3  UNL     1      17.276  65.887  19.879  1.00  0.00    -0.267 OA
HETATM   16  N4  UNL     1      17.454  67.934  20.882  1.00  0.00    -0.265 N 
HETATM   17  N5  UNL     1      17.169  68.746  21.914  1.00  0.00    -0.282 N 
ATOM     18  H4  UNL     1      18.015  68.292  20.109  1.00  0.00     0.190 HD
ATOM     19  H5  UNL     1      17.517  69.705  21.908  1.00  0.00     0.188 HD
ENDBRANCH   1  11
TORSDOF 4
ENDMDL
