MODEL 1
REMARK VINA RESULT: -7.417340039      0.000      0.000
REMARK  5 active torsions:
REMARK  status: ('A' for Active; 'I' for Inactive)
REMARK    1  A    between atoms: N1_1  and  N2_4 
REMARK    2  A    between atoms: N2_4  and  C1_5 
REMARK    3  A    between atoms: C1_5  and  C2_6 
REMARK    4  A    between atoms: C2_6  and  N3_7 
REMARK    5  A    between atoms: N3_7  and  C3_9 
ROOT
HETATM    1  C3  UNL     1      16.436  68.771  21.902  1.00  0.00     0.685 C 
HETATM    2  N4  UNL     1      16.654  68.515  23.205  1.00  0.00    -0.141 N 
ATOM      3  H4  UNL     1      16.598  69.324  23.824  1.00  0.00     0.189 HD
HETATM    4  C4  UNL     1      16.938  67.339  23.812  1.00  0.00     0.341 C 
HETATM    5  O1  UNL     1      16.941  67.348  25.082  1.00  0.00    -0.246 OA
HETATM    6  N5  UNL     1      17.220  66.145  23.262  1.00  0.00    -0.270 N 
ATOM      7  H5  UNL     1      17.541  65.424  23.909  1.00  0.00     0.174 HD
HETATM    8  C5  UNL     1      17.135  65.773  21.962  1.00  0.00     0.318 C 
HETATM    9  O2  UNL     1      17.206  64.532  21.759  1.00  0.00    -0.262 OA
HETATM   10  C6  UNL     1      16.982  66.608  20.885  1.00  0.00     0.328 C 
HETATM   11  O3  UNL     1      17.118  66.043  19.771  1.00  0.00    -0.261 OA
HETATM   12  N6  UNL     1      16.711  67.924  20.893  1.00  0.00    -0.151 N 
ATOM     13  H6  UNL     1      16.713  68.358  19.970  1.00  0.00     0.188 HD
ENDROOT
BRANCH   1  14
HETATM   14  N3  UNL     1      15.936  69.879  21.535  1.00  0.00    -0.220 N 
ATOM     15  H3  UNL     1      16.226  70.252  20.631  1.00  0.00     0.178 HD
BRANCH  14  16
HETATM   16  C2  UNL     1      14.986  70.650  22.302  1.00  0.00     0.199 C 
BRANCH  16  17
HETATM   17  C1  UNL     1      15.466  72.041  22.421  1.00  0.00     0.201 C 
BRANCH  17  18
HETATM   18  N2  UNL     1      16.492  72.300  23.061  1.00  0.00    -0.348 NA
BRANCH  18  19
HETATM   19  N1  UNL     1      17.431  72.193  23.877  1.00  0.00    -0.281 N 
ATOM     20  H12 UNL     1      18.101  72.753  23.349  1.00  0.00     0.191 HD
ATOM     21  H11 UNL     1      17.962  71.922  24.705  1.00  0.00     0.191 HD
ENDBRANCH  18  19
ENDBRANCH  17  18
ENDBRANCH  16  17
ENDBRANCH  14  16
ENDBRANCH   1  14
TORSDOF 5
ENDMDL
MODEL 2
REMARK VINA RESULT: -7.318023980      1.921      3.167
REMARK  5 active torsions:
REMARK  status: ('A' for Active; 'I' for Inactive)
REMARK    1  A    between atoms: N1_1  and  N2_4 
REMARK    2  A    between atoms: N2_4  and  C1_5 
REMARK    3  A    between atoms: C1_5  and  C2_6 
REMARK    4  A    between atoms: C2_6  and  N3_7 
REMARK    5  A    between atoms: N3_7  and  C3_9 
ROOT
HETATM    1  C3  UNL     1      16.163  67.161  23.860  1.00  0.00     0.685 C 
HETATM    2  N4  UNL     1      15.850  68.313  23.239  1.00  0.00    -0.141 N 
ATOM      3  H4  UNL     1      15.389  69.012  23.822  1.00  0.00     0.189 HD
HETATM    4  C4  UNL     1      16.059  68.677  21.953  1.00  0.00     0.341 C 
HETATM    5  O1  UNL     1      15.808  69.889  21.664  1.00  0.00    -0.246 OA
HETATM    6  N5  UNL     1      16.500  67.938  20.920  1.00  0.00    -0.270 N 
ATOM      7  H5  UNL     1      16.450  68.382  20.003  1.00  0.00     0.174 HD
HETATM    8  C5  UNL     1      17.002  66.680  20.937  1.00  0.00     0.318 C 
HETATM    9  O2  UNL     1      17.579  66.324  19.875  1.00  0.00    -0.262 OA
HETATM   10  C6  UNL     1      16.936  65.791  21.980  1.00  0.00     0.328 C 
HETATM   11  O3  UNL     1      17.306  64.626  21.688  1.00  0.00    -0.261 OA
HETATM   12  N6  UNL     1      16.531  66.025  23.239  1.00  0.00    -0.151 N 
ATOM     13  H6  UNL     1      16.496  65.194  23.830  1.00  0.00     0.188 HD
ENDROOT
BRANCH   1  14
HETATM   14  N3  UNL     1      16.125  67.078  25.127  1.00  0.00    -0.220 N 
ATOM     15  H3  UNL     1      16.479  66.222  25.554  1.00  0.00     0.178 HD
BRANCH  14  16
HETATM   16  C2  UNL     1      15.619  68.105  26.007  1.00  0.00     0.199 C 
BRANCH  16  17
HETATM   17  C1  UNL     1      16.714  69.027  26.364  1.00  0.00     0.201 C 
BRANCH  17  18
HETATM   18  N2  UNL     1      16.769  70.159  25.871  1.00  0.00    -0.348 NA
BRANCH  18  19
HETATM   19  N1  UNL     1      16.864  71.074  25.027  1.00  0.00    -0.281 N 
ATOM     20  H12 UNL     1      16.092  71.637  25.385  1.00  0.00     0.191 HD
ATOM     21  H11 UNL     1      17.196  71.621  24.232  1.00  0.00     0.191 HD
ENDBRANCH  18  19
ENDBRANCH  17  18
ENDBRANCH  16  17
ENDBRANCH  14  16
ENDBRANCH   1  14
TORSDOF 5
ENDMDL
MODEL 3
REMARK VINA RESULT: -7.259637187      2.456      3.998
REMARK  5 active torsions:
REMARK  status: ('A' for Active; 'I' for Inactive)
REMARK    1  A    between atoms: N1_1  and  N2_4 
REMARK    2  A    between atoms: N2_4  and  C1_5 
REMARK    3  A    between atoms: C1_5  and  C2_6 
REMARK    4  A    between atoms: C2_6  and  N3_7 
REMARK    5  A    between atoms: N3_7  and  C3_9 
ROOT
HETATM    1  C3  UNL     1      15.200  66.990  23.722  1.00  0.00     0.685 C 
HETATM    2  N4  UNL     1      15.231  68.195  23.125  1.00  0.00    -0.141 N 
ATOM      3  H4  UNL     1      14.674  68.921  23.575  1.00  0.00     0.189 HD
HETATM    4  C4  UNL     1      15.896  68.582  22.012  1.00  0.00     0.341 C 
HETATM    5  O1  UNL     1      15.880  69.826  21.751  1.00  0.00    -0.246 OA
HETATM    6  N5  UNL     1      16.581  67.836  21.128  1.00  0.00    -0.270 N 
ATOM      7  H5  UNL     1      16.887  68.319  20.283  1.00  0.00     0.174 HD
HETATM    8  C5  UNL     1      16.920  66.527  21.211  1.00  0.00     0.318 C 
HETATM    9  O2  UNL     1      17.781  66.146  20.375  1.00  0.00    -0.262 OA
HETATM   10  C6  UNL     1      16.418  65.612  22.102  1.00  0.00     0.328 C 
HETATM   11  O3  UNL     1      16.746  64.424  21.859  1.00  0.00    -0.261 OA
HETATM   12  N6  UNL     1      15.639  65.843  23.172  1.00  0.00    -0.151 N 
ATOM     13  H6  UNL     1      15.325  65.000  23.652  1.00  0.00     0.188 HD
ENDROOT
BRANCH   1  14
HETATM   14  N3  UNL     1      14.731  66.862  24.896  1.00  0.00    -0.220 N 
ATOM     15  H3  UNL     1      13.824  66.406  24.995  1.00  0.00     0.178 HD
BRANCH  14  16
HETATM   16  C2  UNL     1      15.388  67.313  26.101  1.00  0.00     0.199 C 
BRANCH  16  17
HETATM   17  C1  UNL     1      16.494  66.393  26.430  1.00  0.00     0.201 C 
BRANCH  17  18
HETATM   18  N2  UNL     1      17.547  66.420  25.783  1.00  0.00    -0.348 NA
BRANCH  18  19
HETATM   19  N1  UNL     1      18.456  66.820  25.026  1.00  0.00    -0.281 N 
ATOM     20  H12 UNL     1      17.874  66.914  24.194  1.00  0.00     0.191 HD
ATOM     21  H11 UNL     1      19.377  67.109  24.696  1.00  0.00     0.191 HD
ENDBRANCH  18  19
ENDBRANCH  17  18
ENDBRANCH  16  17
ENDBRANCH  14  16
ENDBRANCH   1  14
TORSDOF 5
ENDMDL
MODEL 4
REMARK VINA RESULT: -7.249649642      0.793      2.752
REMARK  5 active torsions:
REMARK  status: ('A' for Active; 'I' for Inactive)
REMARK    1  A    between atoms: N1_1  and  N2_4 
REMARK    2  A    between atoms: N2_4  and  C1_5 
REMARK    3  A    between atoms: C1_5  and  C2_6 
REMARK    4  A    between atoms: C2_6  and  N3_7 
REMARK    5  A    between atoms: N3_7  and  C3_9 
ROOT
HETATM    1  C3  UNL     1      16.279  68.871  22.094  1.00  0.00     0.685 C 
HETATM    2  N4  UNL     1      16.639  67.807  21.356  1.00  0.00    -0.141 N 
ATOM      3  H4  UNL     1      16.398  67.859  20.366  1.00  0.00     0.189 HD
HETATM    4  C4  UNL     1      17.277  66.675  21.737  1.00  0.00     0.341 C 
HETATM    5  O1  UNL     1      17.640  65.893  20.805  1.00  0.00    -0.246 OA
HETATM    6  N5  UNL     1      17.588  66.251  22.974  1.00  0.00    -0.270 N 
ATOM      7  H5  UNL     1      17.947  65.298  23.038  1.00  0.00     0.174 HD
HETATM    8  C5  UNL     1      17.489  66.922  24.147  1.00  0.00     0.318 C 
HETATM    9  O2  UNL     1      18.090  66.388  25.117  1.00  0.00    -0.262 OA
HETATM   10  C6  UNL     1      16.810  68.095  24.358  1.00  0.00     0.328 C 
HETATM   11  O3  UNL     1      16.707  68.420  25.567  1.00  0.00    -0.261 OA
HETATM   12  N6  UNL     1      16.262  68.908  23.440  1.00  0.00    -0.151 N 
ATOM     13  H6  UNL     1      15.741  69.693  23.832  1.00  0.00     0.188 HD
ENDROOT
BRANCH   1  14
HETATM   14  N3  UNL     1      15.916  69.954  21.536  1.00  0.00    -0.220 N 
ATOM     15  H3  UNL     1      16.223  70.116  20.578  1.00  0.00     0.178 HD
BRANCH  14  16
HETATM   16  C2  UNL     1      15.100  70.970  22.159  1.00  0.00     0.199 C 
BRANCH  16  17
HETATM   17  C1  UNL     1      15.858  72.234  22.225  1.00  0.00     0.201 C 
BRANCH  17  18
HETATM   18  N2  UNL     1      16.768  72.379  23.049  1.00  0.00    -0.348 NA
BRANCH  18  19
HETATM   19  N1  UNL     1      17.505  72.185  24.038  1.00  0.00    -0.281 N 
ATOM     20  H12 UNL     1      17.508  71.167  23.976  1.00  0.00     0.191 HD
ATOM     21  H11 UNL     1      18.095  72.367  24.850  1.00  0.00     0.191 HD
ENDBRANCH  18  19
ENDBRANCH  17  18
ENDBRANCH  16  17
ENDBRANCH  14  16
ENDBRANCH   1  14
TORSDOF 5
ENDMDL
MODEL 5
REMARK VINA RESULT: -7.094409760      1.245      1.245
REMARK  5 active torsions:
REMARK  status: ('A' for Active; 'I' for Inactive)
REMARK    1  A    between atoms: N1_1  and  N2_4 
REMARK    2  A    between atoms: N2_4  and  C1_5 
REMARK    3  A    between atoms: C1_5  and  C2_6 
REMARK    4  A    between atoms: C2_6  and  N3_7 
REMARK    5  A    between atoms: N3_7  and  C3_9 
ROOT
HETATM    1  C3  UNL     1      16.391  68.541  22.146  1.00  0.00     0.685 C 
HETATM    2  N4  UNL     1      15.630  68.217  23.208  1.00  0.00    -0.141 N 
ATOM      3  H4  UNL     1      15.260  69.007  23.737  1.00  0.00     0.189 HD
HETATM    4  C4  UNL     1      15.286  66.995  23.674  1.00  0.00     0.341 C 
HETATM    5  O1  UNL     1      14.423  66.971  24.606  1.00  0.00    -0.246 OA
HETATM    6  N5  UNL     1      15.728  65.784  23.293  1.00  0.00    -0.270 N 
ATOM      7  H5  UNL     1      15.436  65.001  23.878  1.00  0.00     0.174 HD
HETATM    8  C5  UNL     1      16.510  65.466  22.233  1.00  0.00     0.318 C 
HETATM    9  O2  UNL     1      16.558  64.237  21.957  1.00  0.00    -0.262 OA
HETATM   10  C6  UNL     1      17.231  66.342  21.462  1.00  0.00     0.328 C 
HETATM   11  O3  UNL     1      18.024  65.789  20.659  1.00  0.00    -0.261 OA
HETATM   12  N6  UNL     1      17.181  67.684  21.472  1.00  0.00    -0.151 N 
ATOM     13  H6  UNL     1      17.862  68.134  20.861  1.00  0.00     0.188 HD
ENDROOT
BRANCH   1  14
HETATM   14  N3  UNL     1      16.407  69.731  21.700  1.00  0.00    -0.220 N 
ATOM     15  H3  UNL     1      17.215  70.016  21.147  1.00  0.00     0.178 HD
BRANCH  14  16
HETATM   16  C2  UNL     1      15.367  70.708  21.918  1.00  0.00     0.199 C 
BRANCH  16  17
HETATM   17  C1  UNL     1      15.834  71.711  22.894  1.00  0.00     0.201 C 
BRANCH  17  18
HETATM   18  N2  UNL     1      16.125  71.378  24.049  1.00  0.00    -0.348 NA
BRANCH  18  19
HETATM   19  N1  UNL     1      16.786  70.980  25.030  1.00  0.00    -0.281 N 
ATOM     20  H12 UNL     1      17.626  70.734  24.506  1.00  0.00     0.191 HD
ATOM     21  H11 UNL     1      17.038  70.743  25.990  1.00  0.00     0.191 HD
ENDBRANCH  18  19
ENDBRANCH  17  18
ENDBRANCH  16  17
ENDBRANCH  14  16
ENDBRANCH   1  14
TORSDOF 5
ENDMDL
