MODEL 1
REMARK VINA RESULT: -7.247397758      0.000      0.000
REMARK  2 active torsions:
REMARK  status: ('A' for Active; 'I' for Inactive)
REMARK    1  A    between atoms: C3_3  and  C4_4 
REMARK    2  A    between atoms: C4_4  and  N1_5 
ROOT
HETATM    1  C1  UNL     1      11.978  67.131  24.713  1.00  0.00     0.012 C 
HETATM    2  C2  UNL     1      12.839  66.334  24.424  1.00  0.00    -0.116 C 
HETATM    3  C3  UNL     1      13.870  65.357  24.076  1.00  0.00     0.112 C 
ENDROOT
BRANCH   3   4
HETATM    4  C4  UNL     1      15.086  66.116  23.549  1.00  0.00     0.133 C 
BRANCH   4   5
HETATM    5  N1  UNL     1      15.463  67.183  24.398  1.00  0.00    -0.371 N 
HETATM    6  C5  UNL     1      15.945  68.328  24.096  1.00  0.00     0.174 C 
HETATM    7  N2  UNL     1      16.214  69.162  25.146  1.00  0.00    -0.290 N 
HETATM    8  C8  UNL     1      16.166  68.669  22.778  1.00  0.00     0.293 C 
HETATM    9  C6  UNL     1      16.502  70.479  25.156  1.00  0.00     0.329 C 
ATOM     10  H2  UNL     1      16.195  68.718  26.064  1.00  0.00     0.172 HD
HETATM   11  O1  UNL     1      16.862  70.933  26.276  1.00  0.00    -0.246 OA
HETATM   12  N3  UNL     1      16.449  71.367  24.121  1.00  0.00    -0.260 N 
HETATM   13  C7  UNL     1      16.307  71.117  22.805  1.00  0.00     0.331 C 
ATOM     14  H3  UNL     1      16.528  72.351  24.378  1.00  0.00     0.175 HD
HETATM   15  O2  UNL     1      16.335  72.101  22.050  1.00  0.00    -0.246 OA
HETATM   16  N4  UNL     1      16.138  69.915  22.220  1.00  0.00    -0.272 N 
ATOM     17  H4  UNL     1      15.964  69.940  21.215  1.00  0.00     0.174 HD
HETATM   18  O3  UNL     1      16.417  67.708  22.032  1.00  0.00    -0.264 OA
ATOM     19  H1  UNL     1      15.331  67.015  25.395  1.00  0.00     0.161 HD
ENDBRANCH   4   5
ENDBRANCH   3   4
TORSDOF 2
ENDMDL
MODEL 2
REMARK VINA RESULT: -7.141711990      1.601      1.860
REMARK  2 active torsions:
REMARK  status: ('A' for Active; 'I' for Inactive)
REMARK    1  A    between atoms: C3_3  and  C4_4 
REMARK    2  A    between atoms: C4_4  and  N1_5 
ROOT
HETATM    1  C1  UNL     1      12.999  64.849  23.976  1.00  0.00     0.012 C 
HETATM    2  C2  UNL     1      13.962  64.539  23.315  1.00  0.00    -0.116 C 
HETATM    3  C3  UNL     1      15.120  64.149  22.511  1.00  0.00     0.112 C 
ENDROOT
BRANCH   3   4
HETATM    4  C4  UNL     1      15.967  65.393  22.262  1.00  0.00     0.133 C 
BRANCH   4   5
HETATM    5  N1  UNL     1      16.423  65.983  23.465  1.00  0.00    -0.371 N 
HETATM    6  C5  UNL     1      16.617  67.216  23.741  1.00  0.00     0.174 C 
HETATM    7  N2  UNL     1      17.067  67.485  25.004  1.00  0.00    -0.290 N 
HETATM    8  C8  UNL     1      16.377  68.191  22.796  1.00  0.00     0.293 C 
HETATM    9  C6  UNL     1      17.148  68.657  25.665  1.00  0.00     0.329 C 
ATOM     10  H2  UNL     1      17.392  66.673  25.527  1.00  0.00     0.172 HD
HETATM   11  O1  UNL     1      17.760  68.602  26.766  1.00  0.00    -0.246 OA
HETATM   12  N3  UNL     1      16.655  69.875  25.296  1.00  0.00    -0.260 N 
HETATM   13  C7  UNL     1      16.159  70.255  24.103  1.00  0.00     0.331 C 
ATOM     14  H3  UNL     1      16.663  70.594  26.020  1.00  0.00     0.175 HD
HETATM   15  O2  UNL     1      15.812  71.442  24.001  1.00  0.00    -0.246 OA
HETATM   16  N4  UNL     1      15.999  69.487  23.008  1.00  0.00    -0.272 N 
ATOM     17  H4  UNL     1      15.527  69.937  22.223  1.00  0.00     0.174 HD
HETATM   18  O3  UNL     1      16.528  67.819  21.620  1.00  0.00    -0.264 OA
ATOM     19  H1  UNL     1      16.626  65.331  24.221  1.00  0.00     0.161 HD
ENDBRANCH   4   5
ENDBRANCH   3   4
TORSDOF 2
ENDMDL
MODEL 3
REMARK VINA RESULT: -7.085794771      2.678      4.770
REMARK  2 active torsions:
REMARK  status: ('A' for Active; 'I' for Inactive)
REMARK    1  A    between atoms: C3_3  and  C4_4 
REMARK    2  A    between atoms: C4_4  and  N1_5 
ROOT
HETATM    1  C1  UNL     1      16.481  66.974  28.319  1.00  0.00     0.012 C 
HETATM    2  C2  UNL     1      16.567  67.771  27.415  1.00  0.00    -0.116 C 
HETATM    3  C3  UNL     1      16.689  68.739  26.325  1.00  0.00     0.112 C 
ENDROOT
BRANCH   3   4
HETATM    4  C4  UNL     1      15.472  68.586  25.416  1.00  0.00     0.133 C 
BRANCH   4   5
HETATM    5  N1  UNL     1      15.383  67.293  24.848  1.00  0.00    -0.371 N 
HETATM    6  C5  UNL     1      15.616  66.917  23.649  1.00  0.00     0.174 C 
HETATM    7  N2  UNL     1      15.442  65.585  23.393  1.00  0.00    -0.290 N 
HETATM    8  C8  UNL     1      16.018  67.828  22.695  1.00  0.00     0.293 C 
HETATM    9  C6  UNL     1      15.814  64.851  22.326  1.00  0.00     0.329 C 
ATOM     10  H2  UNL     1      14.954  65.067  24.123  1.00  0.00     0.172 HD
HETATM   11  O1  UNL     1      15.366  63.672  22.313  1.00  0.00    -0.246 OA
HETATM   12  N3  UNL     1      16.606  65.219  21.276  1.00  0.00    -0.260 N 
HETATM   13  C7  UNL     1      17.032  66.451  20.938  1.00  0.00     0.331 C 
ATOM     14  H3  UNL     1      16.915  64.461  20.668  1.00  0.00     0.175 HD
HETATM   15  O2  UNL     1      17.711  66.534  19.903  1.00  0.00    -0.246 OA
HETATM   16  N4  UNL     1      16.802  67.601  21.599  1.00  0.00    -0.272 N 
ATOM     17  H4  UNL     1      17.282  68.422  21.228  1.00  0.00     0.174 HD
HETATM   18  O3  UNL     1      15.606  68.985  22.880  1.00  0.00    -0.264 OA
ATOM     19  H1  UNL     1      15.091  66.555  25.487  1.00  0.00     0.161 HD
ENDBRANCH   4   5
ENDBRANCH   3   4
TORSDOF 2
ENDMDL
MODEL 4
REMARK VINA RESULT: -7.085630661      5.682      8.241
REMARK  2 active torsions:
REMARK  status: ('A' for Active; 'I' for Inactive)
REMARK    1  A    between atoms: C3_3  and  C4_4 
REMARK    2  A    between atoms: C4_4  and  N1_5 
ROOT
HETATM    1  C1  UNL     1      17.084  66.539  20.610  1.00  0.00     0.012 C 
HETATM    2  C2  UNL     1      16.520  66.195  21.622  1.00  0.00    -0.116 C 
HETATM    3  C3  UNL     1      15.837  65.795  22.852  1.00  0.00     0.112 C 
ENDROOT
BRANCH   3   4
HETATM    4  C4  UNL     1      15.295  64.381  22.657  1.00  0.00     0.133 C 
BRANCH   4   5
HETATM    5  N1  UNL     1      13.943  64.263  23.058  1.00  0.00    -0.371 N 
HETATM    6  C5  UNL     1      13.126  63.296  22.880  1.00  0.00     0.174 C 
HETATM    7  N2  UNL     1      11.868  63.472  23.387  1.00  0.00    -0.290 N 
HETATM    8  C8  UNL     1      13.524  62.158  22.211  1.00  0.00     0.293 C 
HETATM    9  C6  UNL     1      10.873  62.582  23.566  1.00  0.00     0.329 C 
ATOM     10  H2  UNL     1      11.650  64.426  23.675  1.00  0.00     0.172 HD
HETATM   11  O1  UNL     1       9.768  63.084  23.910  1.00  0.00    -0.246 OA
HETATM   12  N3  UNL     1      10.912  61.224  23.426  1.00  0.00    -0.260 N 
HETATM   13  C7  UNL     1      11.880  60.464  22.877  1.00  0.00     0.331 C 
ATOM     14  H3  UNL     1      10.103  60.718  23.785  1.00  0.00     0.175 HD
HETATM   15  O2  UNL     1      11.660  59.244  22.825  1.00  0.00    -0.246 OA
HETATM   16  N4  UNL     1      13.058  60.884  22.377  1.00  0.00    -0.272 N 
ATOM     17  H4  UNL     1      13.695  60.145  22.080  1.00  0.00     0.174 HD
HETATM   18  O3  UNL     1      14.414  62.341  21.364  1.00  0.00    -0.264 OA
ATOM     19  H1  UNL     1      13.566  65.065  23.562  1.00  0.00     0.161 HD
ENDBRANCH   4   5
ENDBRANCH   3   4
TORSDOF 2
ENDMDL
MODEL 5
REMARK VINA RESULT: -7.065072121      0.985      1.608
REMARK  2 active torsions:
REMARK  status: ('A' for Active; 'I' for Inactive)
REMARK    1  A    between atoms: C3_3  and  C4_4 
REMARK    2  A    between atoms: C4_4  and  N1_5 
ROOT
HETATM    1  C1  UNL     1      13.847  62.831  22.295  1.00  0.00     0.012 C 
HETATM    2  C2  UNL     1      13.916  63.871  22.906  1.00  0.00    -0.116 C 
HETATM    3  C3  UNL     1      13.985  65.125  23.655  1.00  0.00     0.112 C 
ENDROOT
BRANCH   3   4
HETATM    4  C4  UNL     1      15.303  65.813  23.309  1.00  0.00     0.133 C 
BRANCH   4   5
HETATM    5  N1  UNL     1      15.620  66.856  24.212  1.00  0.00    -0.371 N 
HETATM    6  C5  UNL     1      16.049  68.036  23.971  1.00  0.00     0.174 C 
HETATM    7  N2  UNL     1      16.268  68.830  25.063  1.00  0.00    -0.290 N 
HETATM    8  C8  UNL     1      16.266  68.449  22.674  1.00  0.00     0.293 C 
HETATM    9  C6  UNL     1      16.491  70.156  25.140  1.00  0.00     0.329 C 
ATOM     10  H2  UNL     1      16.261  68.342  25.958  1.00  0.00     0.172 HD
HETATM   11  O1  UNL     1      16.818  70.573  26.284  1.00  0.00    -0.246 OA
HETATM   12  N3  UNL     1      16.406  71.091  24.147  1.00  0.00    -0.260 N 
HETATM   13  C7  UNL     1      16.288  70.897  22.819  1.00  0.00     0.331 C 
ATOM     14  H3  UNL     1      16.434  72.064  24.452  1.00  0.00     0.175 HD
HETATM   15  O2  UNL     1      16.276  71.917  22.112  1.00  0.00    -0.246 OA
HETATM   16  N4  UNL     1      16.184  69.719  22.176  1.00  0.00    -0.272 N 
ATOM     17  H4  UNL     1      16.019  69.783  21.171  1.00  0.00     0.174 HD
HETATM   18  O3  UNL     1      16.571  67.539  21.885  1.00  0.00    -0.264 OA
ATOM     19  H1  UNL     1      15.486  66.634  25.198  1.00  0.00     0.161 HD
ENDBRANCH   4   5
ENDBRANCH   3   4
TORSDOF 2
ENDMDL
