MODEL 1
REMARK VINA RESULT: -8.250735345      0.000      0.000
REMARK  6 active torsions:
REMARK  status: ('A' for Active; 'I' for Inactive)
REMARK    1  A    between atoms: C2_2  and  O1_3 
REMARK    2  A    between atoms: C2_2  and  C13_20 
REMARK    3  A    between atoms: O1_3  and  C3_4 
REMARK    4  A    between atoms: C3_4  and  C4_6 
REMARK    5  A    between atoms: N1_9  and  C7_10 
REMARK       I    between atoms: C13_20  and  N4_22 
REMARK    6  A    between atoms: N4_22  and  C14_24 
ROOT
HETATM    1  O1  UNL     1       6.767  -9.049   4.391  1.00  0.00    -0.306 OA
ENDROOT
BRANCH   1   2
HETATM    2  C2  UNL     1       6.703  -8.695   5.759  1.00  0.00     0.219 C 
HETATM    3  C1  UNL     1       7.152  -7.269   5.998  1.00  0.00     0.050 C 
BRANCH   2   4
HETATM    4  C13 UNL     1       7.559  -9.580   6.587  1.00  0.00     0.247 C 
HETATM    5  O3  UNL     1       7.113 -10.599   7.172  1.00  0.00    -0.271 OA
HETATM    6  N4  UNL     1       8.933  -9.255   6.718  1.00  0.00    -0.354 N 
ATOM      7  H4  UNL     1       9.300  -8.428   6.245  1.00  0.00     0.162 HD
BRANCH   6   8
HETATM    8  C14 UNL     1       9.835 -10.089   7.524  1.00  0.00     0.085 C 
HETATM    9  C15 UNL     1      11.100 -10.274   6.777  1.00  0.00     0.030 C 
HETATM   10  C16 UNL     1      12.286 -10.620   7.636  1.00  0.00    -0.009 C 
HETATM   11  C17 UNL     1      11.962 -11.908   8.365  1.00  0.00     0.005 C 
HETATM   12  C21 UNL     1      12.444  -9.636   8.790  1.00  0.00    -0.010 C 
HETATM   13  C18 UNL     1      11.290 -11.500   9.635  1.00  0.00     0.005 C 
HETATM   14  C19 UNL     1      11.221  -9.973   9.614  1.00  0.00    -0.009 C 
HETATM   15  C20 UNL     1       9.983  -9.550   8.914  1.00  0.00     0.030 C 
HETATM   16  C22 UNL     1      13.730  -9.939   9.484  1.00  0.00     0.011 C 
ENDBRANCH   6   8
ENDBRANCH   2   4
ENDBRANCH   1   2
BRANCH   1  17
HETATM   17  C3  UNL     1       6.378 -10.272   3.885  1.00  0.00     0.264 C 
HETATM   18  O2  UNL     1       5.185 -10.627   4.029  1.00  0.00    -0.265 OA
BRANCH  17  19
HETATM   19  C4  UNL     1       7.324 -11.145   3.195  1.00  0.00     0.088 C 
HETATM   20  C5  UNL     1       6.573 -12.419   2.801  1.00  0.00     0.035 C 
HETATM   21  C6  UNL     1       7.480 -13.106   1.773  1.00  0.00     0.142 C 
HETATM   22  N1  UNL     1       8.666 -13.507   2.519  1.00  0.00    -0.218 N 
HETATM   23  C11 UNL     1       9.361 -12.516   3.280  1.00  0.00     0.142 C 
HETATM   24  C12 UNL     1       8.495 -11.557   4.016  1.00  0.00     0.035 C 
BRANCH  22  25
HETATM   25  C7  UNL     1       9.060 -14.871   2.439  1.00  0.00     0.679 A 
HETATM   26  N2  UNL     1      10.035 -15.377   3.216  1.00  0.00    -0.202 N 
HETATM   27  C8  UNL     1      10.417 -16.663   3.149  1.00  0.00     0.107 A 
ATOM     28  H2  UNL     1      10.503 -14.760   3.880  1.00  0.00     0.183 HD
HETATM   29  C9  UNL     1       9.821 -17.540   2.273  1.00  0.00     0.035 A 
HETATM   30  C10 UNL     1       8.811 -17.019   1.468  1.00  0.00     0.107 A 
HETATM   31  N3  UNL     1       8.469 -15.721   1.576  1.00  0.00    -0.202 N 
ATOM     32  H3  UNL     1       7.725 -15.363   0.976  1.00  0.00     0.183 HD
ENDBRANCH  22  25
ENDBRANCH  17  19
ENDBRANCH   1  17
TORSDOF 6
ENDMDL
MODEL 2
REMARK VINA RESULT: -8.209233343      0.857      1.752
REMARK  6 active torsions:
REMARK  status: ('A' for Active; 'I' for Inactive)
REMARK    1  A    between atoms: C2_2  and  O1_3 
REMARK    2  A    between atoms: C2_2  and  C13_20 
REMARK    3  A    between atoms: O1_3  and  C3_4 
REMARK    4  A    between atoms: C3_4  and  C4_6 
REMARK    5  A    between atoms: N1_9  and  C7_10 
REMARK       I    between atoms: C13_20  and  N4_22 
REMARK    6  A    between atoms: N4_22  and  C14_24 
ROOT
HETATM    1  O1  UNL     1       6.779  -9.036   4.498  1.00  0.00    -0.306 OA
ENDROOT
BRANCH   1   2
HETATM    2  C2  UNL     1       6.675  -8.709   5.871  1.00  0.00     0.219 C 
HETATM    3  C1  UNL     1       6.006  -7.369   6.086  1.00  0.00     0.050 C 
BRANCH   2   4
HETATM    4  C13 UNL     1       8.010  -8.654   6.516  1.00  0.00     0.247 C 
HETATM    5  O3  UNL     1       8.614  -7.573   6.730  1.00  0.00    -0.271 OA
HETATM    6  N4  UNL     1       8.620  -9.874   6.901  1.00  0.00    -0.354 N 
ATOM      7  H4  UNL     1       8.135 -10.755   6.730  1.00  0.00     0.162 HD
BRANCH   6   8
HETATM    8  C14 UNL     1       9.942  -9.889   7.545  1.00  0.00     0.085 C 
HETATM    9  C15 UNL     1       9.759 -10.141   8.992  1.00  0.00     0.030 C 
HETATM   10  C16 UNL     1      10.969 -10.711   9.683  1.00  0.00    -0.009 C 
HETATM   11  C17 UNL     1      12.105  -9.724   9.503  1.00  0.00     0.005 C 
HETATM   12  C21 UNL     1      11.500 -11.939   8.953  1.00  0.00    -0.010 C 
HETATM   13  C18 UNL     1      12.779 -10.107   8.227  1.00  0.00     0.005 C 
HETATM   14  C19 UNL     1      12.009 -11.307   7.676  1.00  0.00    -0.009 C 
HETATM   15  C20 UNL     1      10.880 -10.823   6.843  1.00  0.00     0.030 C 
HETATM   16  C22 UNL     1      12.579 -12.543   9.788  1.00  0.00     0.011 C 
ENDBRANCH   6   8
ENDBRANCH   2   4
ENDBRANCH   1   2
BRANCH   1  17
HETATM   17  C3  UNL     1       6.448 -10.264   3.964  1.00  0.00     0.264 C 
HETATM   18  O2  UNL     1       5.253 -10.637   4.018  1.00  0.00    -0.265 OA
BRANCH  17  19
HETATM   19  C4  UNL     1       7.456 -11.121   3.347  1.00  0.00     0.088 C 
HETATM   20  C5  UNL     1       6.737 -12.351   2.787  1.00  0.00     0.035 C 
HETATM   21  C6  UNL     1       7.753 -13.003   1.842  1.00  0.00     0.142 C 
HETATM   22  N1  UNL     1       8.828 -13.475   2.704  1.00  0.00    -0.218 N 
HETATM   23  C11 UNL     1       9.440 -12.548   3.604  1.00  0.00     0.142 C 
HETATM   24  C12 UNL     1       8.507 -11.610   4.282  1.00  0.00     0.035 C 
BRANCH  22  25
HETATM   25  C7  UNL     1       9.203 -14.843   2.594  1.00  0.00     0.679 A 
HETATM   26  N2  UNL     1       8.661 -15.657   1.670  1.00  0.00    -0.202 N 
HETATM   27  C8  UNL     1       9.007 -16.951   1.556  1.00  0.00     0.107 A 
ATOM     28  H2  UNL     1       7.961 -15.278   1.032  1.00  0.00     0.183 HD
HETATM   29  C9  UNL     1       9.946 -17.514   2.388  1.00  0.00     0.035 A 
HETATM   30  C10 UNL     1      10.510 -16.673   3.344  1.00  0.00     0.107 A 
HETATM   31  N3  UNL     1      10.125 -15.384   3.414  1.00  0.00    -0.202 N 
ATOM     32  H3  UNL     1      10.553 -14.787   4.123  1.00  0.00     0.183 HD
ENDBRANCH  22  25
ENDBRANCH  17  19
ENDBRANCH   1  17
TORSDOF 6
ENDMDL
MODEL 3
REMARK VINA RESULT: -8.017711234      0.642      1.132
REMARK  6 active torsions:
REMARK  status: ('A' for Active; 'I' for Inactive)
REMARK    1  A    between atoms: C2_2  and  O1_3 
REMARK    2  A    between atoms: C2_2  and  C13_20 
REMARK    3  A    between atoms: O1_3  and  C3_4 
REMARK    4  A    between atoms: C3_4  and  C4_6 
REMARK    5  A    between atoms: N1_9  and  C7_10 
REMARK       I    between atoms: C13_20  and  N4_22 
REMARK    6  A    between atoms: N4_22  and  C14_24 
ROOT
HETATM    1  O1  UNL     1       6.734  -8.930   4.468  1.00  0.00    -0.306 OA
ENDROOT
BRANCH   1   2
HETATM    2  C2  UNL     1       6.562  -8.468   5.794  1.00  0.00     0.219 C 
HETATM    3  C1  UNL     1       6.746  -6.970   5.902  1.00  0.00     0.050 C 
BRANCH   2   4
HETATM    4  C13 UNL     1       7.531  -9.107   6.719  1.00  0.00     0.247 C 
HETATM    5  O3  UNL     1       7.210 -10.038   7.499  1.00  0.00    -0.271 OA
HETATM    6  N4  UNL     1       8.870  -8.641   6.714  1.00  0.00    -0.354 N 
ATOM      7  H4  UNL     1       9.137  -7.885   6.083  1.00  0.00     0.162 HD
BRANCH   6   8
HETATM    8  C14 UNL     1       9.880  -9.231   7.605  1.00  0.00     0.085 C 
HETATM    9  C15 UNL     1      10.831 -10.016   6.786  1.00  0.00     0.030 C 
HETATM   10  C16 UNL     1      12.177 -10.226   7.425  1.00  0.00    -0.009 C 
HETATM   11  C17 UNL     1      11.954 -10.951   8.737  1.00  0.00     0.005 C 
HETATM   12  C21 UNL     1      12.782  -8.907   7.893  1.00  0.00    -0.010 C 
HETATM   13  C18 UNL     1      11.747  -9.885   9.762  1.00  0.00     0.005 C 
HETATM   14  C19 UNL     1      11.838  -8.551   9.021  1.00  0.00    -0.009 C 
HETATM   15  C20 UNL     1      10.499  -8.193   8.491  1.00  0.00     0.030 C 
HETATM   16  C22 UNL     1      14.178  -9.174   8.350  1.00  0.00     0.011 C 
ENDBRANCH   6   8
ENDBRANCH   2   4
ENDBRANCH   1   2
BRANCH   1  17
HETATM   17  C3  UNL     1       6.427 -10.206   4.043  1.00  0.00     0.264 C 
HETATM   18  O2  UNL     1       5.260 -10.629   4.213  1.00  0.00    -0.265 OA
BRANCH  17  19
HETATM   19  C4  UNL     1       7.430 -11.057   3.408  1.00  0.00     0.088 C 
HETATM   20  C5  UNL     1       6.698 -12.250   2.790  1.00  0.00     0.035 C 
HETATM   21  C6  UNL     1       7.717 -12.883   1.835  1.00  0.00     0.142 C 
HETATM   22  N1  UNL     1       8.769 -13.409   2.695  1.00  0.00    -0.218 N 
HETATM   23  C11 UNL     1       9.384 -12.528   3.639  1.00  0.00     0.142 C 
HETATM   24  C12 UNL     1       8.457 -11.600   4.339  1.00  0.00     0.035 C 
BRANCH  22  25
HETATM   25  C7  UNL     1       9.122 -14.777   2.536  1.00  0.00     0.679 A 
HETATM   26  N2  UNL     1       8.543 -15.558   1.606  1.00  0.00    -0.202 N 
HETATM   27  C8  UNL     1       8.868 -16.853   1.447  1.00  0.00     0.107 A 
ATOM     28  H2  UNL     1       7.831 -15.153   0.999  1.00  0.00     0.183 HD
HETATM   29  C9  UNL     1       9.822 -17.451   2.237  1.00  0.00     0.035 A 
HETATM   30  C10 UNL     1      10.423 -16.645   3.200  1.00  0.00     0.107 A 
HETATM   31  N3  UNL     1      10.059 -15.353   3.315  1.00  0.00    -0.202 N 
ATOM     32  H3  UNL     1      10.514 -14.782   4.028  1.00  0.00     0.183 HD
ENDBRANCH  22  25
ENDBRANCH  17  19
ENDBRANCH   1  17
TORSDOF 6
ENDMDL
MODEL 4
REMARK VINA RESULT: -7.999188289      1.113      1.978
REMARK  6 active torsions:
REMARK  status: ('A' for Active; 'I' for Inactive)
REMARK    1  A    between atoms: C2_2  and  O1_3 
REMARK    2  A    between atoms: C2_2  and  C13_20 
REMARK    3  A    between atoms: O1_3  and  C3_4 
REMARK    4  A    between atoms: C3_4  and  C4_6 
REMARK    5  A    between atoms: N1_9  and  C7_10 
REMARK       I    between atoms: C13_20  and  N4_22 
REMARK    6  A    between atoms: N4_22  and  C14_24 
ROOT
HETATM    1  O1  UNL     1       6.370  -9.071   3.863  1.00  0.00    -0.306 OA
ENDROOT
BRANCH   1   2
HETATM    2  C2  UNL     1       6.025  -8.405   5.062  1.00  0.00     0.219 C 
HETATM    3  C1  UNL     1       5.355  -7.073   4.799  1.00  0.00     0.050 C 
BRANCH   2   4
HETATM    4  C13 UNL     1       7.222  -8.148   5.901  1.00  0.00     0.247 C 
HETATM    5  O3  UNL     1       7.669  -6.991   6.106  1.00  0.00    -0.271 OA
HETATM    6  N4  UNL     1       7.881  -9.257   6.487  1.00  0.00    -0.354 N 
ATOM      7  H4  UNL     1       7.523 -10.198   6.323  1.00  0.00     0.162 HD
BRANCH   6   8
HETATM    8  C14 UNL     1       9.072  -9.072   7.328  1.00  0.00     0.085 C 
HETATM    9  C15 UNL     1       8.661  -9.136   8.749  1.00  0.00     0.030 C 
HETATM   10  C16 UNL     1       9.768  -9.500   9.702  1.00  0.00    -0.009 C 
HETATM   11  C17 UNL     1      10.857  -8.456   9.559  1.00  0.00     0.005 C 
HETATM   12  C21 UNL     1      10.488 -10.769   9.260  1.00  0.00    -0.010 C 
HETATM   13  C18 UNL     1      11.760  -8.954   8.480  1.00  0.00     0.005 C 
HETATM   14  C19 UNL     1      11.168 -10.280   8.000  1.00  0.00    -0.009 C 
HETATM   15  C20 UNL     1      10.171 -10.012   6.934  1.00  0.00     0.030 C 
HETATM   16  C22 UNL     1      11.444 -11.158  10.338  1.00  0.00     0.011 C 
ENDBRANCH   6   8
ENDBRANCH   2   4
ENDBRANCH   1   2
BRANCH   1  17
HETATM   17  C3  UNL     1       6.136 -10.409   3.622  1.00  0.00     0.264 C 
HETATM   18  O2  UNL     1       5.027 -10.891   3.953  1.00  0.00    -0.265 OA
BRANCH  17  19
HETATM   19  C4  UNL     1       7.146 -11.257   2.996  1.00  0.00     0.088 C 
HETATM   20  C5  UNL     1       6.465 -12.565   2.591  1.00  0.00     0.035 C 
HETATM   21  C6  UNL     1       7.447 -13.236   1.623  1.00  0.00     0.142 C 
HETATM   22  N1  UNL     1       8.609 -13.576   2.433  1.00  0.00    -0.218 N 
HETATM   23  C11 UNL     1       9.227 -12.546   3.208  1.00  0.00     0.142 C 
HETATM   24  C12 UNL     1       8.291 -11.609   3.882  1.00  0.00     0.035 C 
BRANCH  22  25
HETATM   25  C7  UNL     1       9.058 -14.926   2.400  1.00  0.00     0.679 A 
HETATM   26  N2  UNL     1       8.517 -15.835   1.569  1.00  0.00    -0.202 N 
HETATM   27  C8  UNL     1       8.932 -17.113   1.528  1.00  0.00     0.107 A 
ATOM     28  H2  UNL     1       7.763 -15.544   0.947  1.00  0.00     0.183 HD
HETATM   29  C9  UNL     1       9.945 -17.560   2.344  1.00  0.00     0.035 A 
HETATM   30  C10 UNL     1      10.508 -16.620   3.204  1.00  0.00     0.107 A 
HETATM   31  N3  UNL     1      10.052 -15.352   3.203  1.00  0.00    -0.202 N 
ATOM     32  H3  UNL     1      10.480 -14.682   3.842  1.00  0.00     0.183 HD
ENDBRANCH  22  25
ENDBRANCH  17  19
ENDBRANCH   1  17
TORSDOF 6
ENDMDL
MODEL 5
REMARK VINA RESULT: -7.913402311      2.079      3.105
REMARK  6 active torsions:
REMARK  status: ('A' for Active; 'I' for Inactive)
REMARK    1  A    between atoms: C2_2  and  O1_3 
REMARK    2  A    between atoms: C2_2  and  C13_20 
REMARK    3  A    between atoms: O1_3  and  C3_4 
REMARK    4  A    between atoms: C3_4  and  C4_6 
REMARK    5  A    between atoms: N1_9  and  C7_10 
REMARK       I    between atoms: C13_20  and  N4_22 
REMARK    6  A    between atoms: N4_22  and  C14_24 
ROOT
HETATM    1  O1  UNL     1       6.041  -9.000   3.091  1.00  0.00    -0.306 OA
ENDROOT
BRANCH   1   2
HETATM    2  C2  UNL     1       5.281  -8.047   3.808  1.00  0.00     0.219 C 
HETATM    3  C1  UNL     1       4.795  -6.922   2.919  1.00  0.00     0.050 C 
BRANCH   2   4
HETATM    4  C13 UNL     1       6.073  -7.440   4.907  1.00  0.00     0.247 C 
HETATM    5  O3  UNL     1       6.385  -6.223   4.925  1.00  0.00    -0.271 OA
HETATM    6  N4  UNL     1       6.491  -8.276   5.973  1.00  0.00    -0.354 N 
ATOM      7  H4  UNL     1       6.241  -9.265   5.964  1.00  0.00     0.162 HD
BRANCH   6   8
HETATM    8  C14 UNL     1       7.278  -7.739   7.092  1.00  0.00     0.085 C 
HETATM    9  C15 UNL     1       6.625  -8.134   8.361  1.00  0.00     0.030 C 
HETATM   10  C16 UNL     1       7.539  -8.144   9.556  1.00  0.00    -0.009 C 
HETATM   11  C17 UNL     1       8.100  -6.745   9.715  1.00  0.00     0.005 C 
HETATM   12  C21 UNL     1       8.799  -8.959   9.285  1.00  0.00    -0.010 C 
HETATM   13  C18 UNL     1       9.344  -6.708   8.890  1.00  0.00     0.005 C 
HETATM   14  C19 UNL     1       9.478  -8.090   8.249  1.00  0.00    -0.009 C 
HETATM   15  C20 UNL     1       8.724  -8.111   6.971  1.00  0.00     0.030 C 
HETATM   16  C22 UNL     1       9.564  -9.067  10.563  1.00  0.00     0.011 C 
ENDBRANCH   6   8
ENDBRANCH   2   4
ENDBRANCH   1   2
BRANCH   1  17
HETATM   17  C3  UNL     1       6.104 -10.341   3.407  1.00  0.00     0.264 C 
HETATM   18  O2  UNL     1       5.259 -10.808   4.207  1.00  0.00    -0.265 OA
BRANCH  17  19
HETATM   19  C4  UNL     1       7.127 -11.211   2.832  1.00  0.00     0.088 C 
HETATM   20  C5  UNL     1       6.457 -12.541   2.480  1.00  0.00     0.035 C 
HETATM   21  C6  UNL     1       7.454 -13.249   1.554  1.00  0.00     0.142 C 
HETATM   22  N1  UNL     1       8.608 -13.544   2.392  1.00  0.00    -0.218 N 
HETATM   23  C11 UNL     1       9.213 -12.476   3.124  1.00  0.00     0.142 C 
HETATM   24  C12 UNL     1       8.263 -11.514   3.744  1.00  0.00     0.035 C 
BRANCH  22  25
HETATM   25  C7  UNL     1       9.066 -14.891   2.425  1.00  0.00     0.679 A 
HETATM   26  N2  UNL     1       8.585 -15.827   1.586  1.00  0.00    -0.202 N 
HETATM   27  C8  UNL     1       9.009 -17.102   1.608  1.00  0.00     0.107 A 
ATOM     28  H2  UNL     1       7.873 -15.558   0.907  1.00  0.00     0.183 HD
HETATM   29  C9  UNL     1       9.969 -17.519   2.500  1.00  0.00     0.035 A 
HETATM   30  C10 UNL     1      10.468 -16.553   3.370  1.00  0.00     0.107 A 
HETATM   31  N3  UNL     1      10.006 -15.289   3.304  1.00  0.00    -0.202 N 
ATOM     32  H3  UNL     1      10.388 -14.598   3.951  1.00  0.00     0.183 HD
ENDBRANCH  22  25
ENDBRANCH  17  19
ENDBRANCH   1  17
TORSDOF 6
ENDMDL
