MODEL 1
REMARK VINA RESULT: -8.107981543      0.000      0.000
REMARK  6 active torsions:
REMARK  status: ('A' for Active; 'I' for Inactive)
REMARK    1  A    between atoms: C5_5  and  N1_6 
REMARK    2  A    between atoms: N1_6  and  C6_9 
REMARK    3  A    between atoms: C6_9  and  C7_10 
REMARK    4  A    between atoms: C8_15  and  C9_16 
REMARK    5  A    between atoms: N4_20  and  S1_21 
REMARK    6  A    between atoms: S1_21  and  N5_24 
ROOT
HETATM    1  C7  UNL     1      10.752 -13.165   9.703  1.00  0.00     0.166 A 
HETATM    2  N2  UNL     1      11.062 -14.214   8.929  1.00  0.00    -0.280 N 
ATOM      3  H2  UNL     1      11.415 -15.115   9.254  1.00  0.00     0.189 HD
HETATM    4  N3  UNL     1      10.827 -13.879   7.660  1.00  0.00    -0.281 N 
ATOM      5  H3  UNL     1      10.967 -14.471   6.842  1.00  0.00     0.189 HD
HETATM    6  C8  UNL     1      10.372 -12.617   7.661  1.00  0.00     0.146 A 
HETATM    7  O3  UNL     1      10.342 -12.222   8.910  1.00  0.00    -0.280 OA
ENDROOT
BRANCH   6   8
HETATM    8  C9  UNL     1       9.986 -11.846   6.461  1.00  0.00     0.081 C 
HETATM    9  C10 UNL     1       8.882 -10.862   6.742  1.00  0.00     0.016 C 
HETATM   10  C11 UNL     1       7.703 -11.044   5.817  1.00  0.00     0.021 C 
HETATM   11  C12 UNL     1       8.132 -11.136   4.346  1.00  0.00     0.137 C 
HETATM   12  N4  UNL     1       9.191 -12.038   4.229  1.00  0.00    -0.293 N 
HETATM   13  C17 UNL     1       9.430 -12.802   5.405  1.00  0.00     0.149 C 
BRANCH  12  14
HETATM   14  S1  UNL     1       9.474 -12.836   2.776  1.00  0.00     0.322 S 
HETATM   15  O1  UNL     1      10.917 -12.711   2.328  1.00  0.00    -0.182 OA
HETATM   16  O2  UNL     1       8.635 -12.131   1.704  1.00  0.00    -0.182 OA
BRANCH  14  17
HETATM   17  N5  UNL     1       8.957 -14.443   2.826  1.00  0.00    -0.274 N 
HETATM   18  C13 UNL     1       8.160 -14.948   1.787  1.00  0.00     0.077 C 
HETATM   19  C14 UNL     1       8.870 -16.192   1.298  1.00  0.00     0.047 C 
HETATM   20  C15 UNL     1       9.662 -16.667   2.469  1.00  0.00     0.026 C 
HETATM   21  C16 UNL     1       9.982 -15.370   3.187  1.00  0.00     0.142 C 
ENDBRANCH  14  17
ENDBRANCH  12  14
ENDBRANCH   6   8
BRANCH   1  22
HETATM   22  C6  UNL     1      10.876 -13.141  11.178  1.00  0.00     0.318 C 
BRANCH  22  23
HETATM   23  N1  UNL     1       9.991 -14.123  11.766  1.00  0.00    -0.064 N 
ATOM     24  H12 UNL     1      10.182 -15.055  11.399  1.00  0.00     0.278 HD
ATOM     25  H11 UNL     1       9.037 -14.006  11.428  1.00  0.00     0.278 HD
BRANCH  23  26
HETATM   26  C5  UNL     1      10.035 -14.116  13.202  1.00  0.00     0.186 C 
HETATM   27  C4  UNL     1      10.397 -15.449  13.779  1.00  0.00     0.033 C 
HETATM   28  C3  UNL     1       9.432 -16.468  13.231  1.00  0.00     0.006 C 
HETATM   29  C2  UNL     1       8.066 -16.138  13.786  1.00  0.00    -0.019 C 
HETATM   30  C1  UNL     1       7.033 -16.330  12.713  1.00  0.00     0.010 C 
HETATM   31  C19 UNL     1       7.995 -14.816  14.473  1.00  0.00     0.006 C 
HETATM   32  C18 UNL     1       8.691 -13.701  13.764  1.00  0.00     0.033 C 
ENDBRANCH  23  26
ENDBRANCH  22  23
ENDBRANCH   1  22
TORSDOF 6
ENDMDL
MODEL 2
REMARK VINA RESULT: -8.062211278      1.088      1.785
REMARK  6 active torsions:
REMARK  status: ('A' for Active; 'I' for Inactive)
REMARK    1  A    between atoms: C5_5  and  N1_6 
REMARK    2  A    between atoms: N1_6  and  C6_9 
REMARK    3  A    between atoms: C6_9  and  C7_10 
REMARK    4  A    between atoms: C8_15  and  C9_16 
REMARK    5  A    between atoms: N4_20  and  S1_21 
REMARK    6  A    between atoms: S1_21  and  N5_24 
ROOT
HETATM    1  C7  UNL     1      11.242 -12.671   9.488  1.00  0.00     0.166 A 
HETATM    2  N2  UNL     1      10.917 -13.859   8.958  1.00  0.00    -0.280 N 
ATOM      3  H2  UNL     1      11.041 -14.768   9.404  1.00  0.00     0.189 HD
HETATM    4  N3  UNL     1      10.403 -13.647   7.746  1.00  0.00    -0.281 N 
ATOM      5  H3  UNL     1      10.064 -14.359   7.099  1.00  0.00     0.189 HD
HETATM    6  C8  UNL     1      10.415 -12.321   7.537  1.00  0.00     0.146 A 
HETATM    7  O3  UNL     1      10.928 -11.769   8.608  1.00  0.00    -0.280 OA
ENDROOT
BRANCH   6   8
HETATM    8  C9  UNL     1       9.932 -11.645   6.315  1.00  0.00     0.081 C 
HETATM    9  C10 UNL     1       8.749 -10.752   6.583  1.00  0.00     0.016 C 
HETATM   10  C11 UNL     1       7.571 -11.082   5.700  1.00  0.00     0.021 C 
HETATM   11  C12 UNL     1       7.972 -11.203   4.222  1.00  0.00     0.137 C 
HETATM   12  N4  UNL     1       9.105 -12.011   4.116  1.00  0.00    -0.293 N 
HETATM   13  C17 UNL     1       9.440 -12.694   5.317  1.00  0.00     0.149 C 
BRANCH  12  14
HETATM   14  S1  UNL     1       9.425 -12.846   2.693  1.00  0.00     0.322 S 
HETATM   15  O1  UNL     1      10.880 -12.732   2.278  1.00  0.00    -0.182 OA
HETATM   16  O2  UNL     1       8.614 -12.170   1.581  1.00  0.00    -0.182 OA
BRANCH  14  17
HETATM   17  N5  UNL     1       8.908 -14.452   2.771  1.00  0.00    -0.274 N 
HETATM   18  C13 UNL     1       8.155 -14.990   1.716  1.00  0.00     0.077 C 
HETATM   19  C14 UNL     1       8.885 -16.247   1.296  1.00  0.00     0.047 C 
HETATM   20  C15 UNL     1       9.629 -16.684   2.512  1.00  0.00     0.026 C 
HETATM   21  C16 UNL     1       9.918 -15.365   3.203  1.00  0.00     0.142 C 
ENDBRANCH  14  17
ENDBRANCH  12  14
ENDBRANCH   6   8
BRANCH   1  22
HETATM   22  C6  UNL     1      11.844 -12.483  10.827  1.00  0.00     0.318 C 
BRANCH  22  23
HETATM   23  N1  UNL     1      11.262 -13.416  11.768  1.00  0.00    -0.064 N 
ATOM     24  H12 UNL     1      11.868 -13.547  12.577  1.00  0.00     0.278 HD
ATOM     25  H11 UNL     1      11.274 -14.366  11.398  1.00  0.00     0.278 HD
BRANCH  23  26
HETATM   26  C5  UNL     1       9.937 -13.036  12.173  1.00  0.00     0.186 C 
HETATM   27  C4  UNL     1       9.927 -11.862  13.102  1.00  0.00     0.033 C 
HETATM   28  C3  UNL     1      10.822 -12.188  14.269  1.00  0.00     0.006 C 
HETATM   29  C2  UNL     1      10.173 -13.320  15.031  1.00  0.00    -0.019 C 
HETATM   30  C1  UNL     1      11.229 -14.291  15.476  1.00  0.00     0.010 C 
HETATM   31  C19 UNL     1       9.025 -13.950  14.318  1.00  0.00     0.006 C 
HETATM   32  C18 UNL     1       9.249 -14.196  12.862  1.00  0.00     0.033 C 
ENDBRANCH  23  26
ENDBRANCH  22  23
ENDBRANCH   1  22
TORSDOF 6
ENDMDL
MODEL 3
REMARK VINA RESULT: -7.900380293      2.261      3.097
REMARK  6 active torsions:
REMARK  status: ('A' for Active; 'I' for Inactive)
REMARK    1  A    between atoms: C5_5  and  N1_6 
REMARK    2  A    between atoms: N1_6  and  C6_9 
REMARK    3  A    between atoms: C6_9  and  C7_10 
REMARK    4  A    between atoms: C8_15  and  C9_16 
REMARK    5  A    between atoms: N4_20  and  S1_21 
REMARK    6  A    between atoms: S1_21  and  N5_24 
ROOT
HETATM    1  C7  UNL     1      11.762 -13.213   8.334  1.00  0.00     0.166 A 
HETATM    2  N2  UNL     1      11.149 -14.174   7.629  1.00  0.00    -0.280 N 
ATOM      3  H2  UNL     1      11.274 -15.179   7.752  1.00  0.00     0.189 HD
HETATM    4  N3  UNL     1      10.347 -13.590   6.737  1.00  0.00    -0.281 N 
ATOM      5  H3  UNL     1       9.751 -14.062   6.059  1.00  0.00     0.189 HD
HETATM    6  C8  UNL     1      10.473 -12.264   6.901  1.00  0.00     0.146 A 
HETATM    7  O3  UNL     1      11.334 -12.077   7.871  1.00  0.00    -0.280 OA
ENDROOT
BRANCH   6   8
HETATM    8  C9  UNL     1       9.759 -11.235   6.117  1.00  0.00     0.081 C 
HETATM    9  C10 UNL     1       9.227 -10.122   6.981  1.00  0.00     0.016 C 
HETATM   10  C11 UNL     1       7.744  -9.910   6.792  1.00  0.00     0.021 C 
HETATM   11  C12 UNL     1       7.358  -9.822   5.308  1.00  0.00     0.137 C 
HETATM   12  N4  UNL     1       7.954 -10.875   4.613  1.00  0.00    -0.293 N 
HETATM   13  C17 UNL     1       8.535 -11.865   5.452  1.00  0.00     0.149 C 
BRANCH  12  14
HETATM   14  S1  UNL     1       7.275 -11.444   3.184  1.00  0.00     0.322 S 
HETATM   15  O1  UNL     1       6.736 -10.319   2.320  1.00  0.00    -0.182 OA
HETATM   16  O2  UNL     1       6.063 -12.300   3.569  1.00  0.00    -0.182 OA
BRANCH  14  17
HETATM   17  N5  UNL     1       8.335 -12.448   2.335  1.00  0.00    -0.274 N 
HETATM   18  C13 UNL     1       9.627 -12.673   2.834  1.00  0.00     0.077 C 
HETATM   19  C14 UNL     1       9.779 -14.177   2.908  1.00  0.00     0.047 C 
HETATM   20  C15 UNL     1       8.840 -14.708   1.879  1.00  0.00     0.026 C 
HETATM   21  C16 UNL     1       7.740 -13.664   1.878  1.00  0.00     0.142 C 
ENDBRANCH  14  17
ENDBRANCH  12  14
ENDBRANCH   6   8
BRANCH   1  22
HETATM   22  C6  UNL     1      12.734 -13.457   9.423  1.00  0.00     0.318 C 
BRANCH  22  23
HETATM   23  N1  UNL     1      12.326 -12.754  10.620  1.00  0.00    -0.064 N 
ATOM     24  H12 UNL     1      12.765 -11.835  10.673  1.00  0.00     0.278 HD
ATOM     25  H11 UNL     1      12.733 -13.180  11.452  1.00  0.00     0.278 HD
BRANCH  23  26
HETATM   26  C5  UNL     1      10.898 -12.651  10.739  1.00  0.00     0.186 C 
HETATM   27  C4  UNL     1      10.440 -11.259  11.044  1.00  0.00     0.033 C 
HETATM   28  C3  UNL     1      11.163 -10.794  12.282  1.00  0.00     0.006 C 
HETATM   29  C2  UNL     1      10.680 -11.647  13.432  1.00  0.00    -0.019 C 
HETATM   30  C1  UNL     1      11.841 -11.988  14.321  1.00  0.00     0.010 C 
HETATM   31  C19 UNL     1       9.864 -12.823  13.013  1.00  0.00     0.006 C 
HETATM   32  C18 UNL     1      10.398 -13.570  11.834  1.00  0.00     0.033 C 
ENDBRANCH  23  26
ENDBRANCH  22  23
ENDBRANCH   1  22
TORSDOF 6
ENDMDL
MODEL 4
REMARK VINA RESULT: -7.890775358      2.423      3.412
REMARK  6 active torsions:
REMARK  status: ('A' for Active; 'I' for Inactive)
REMARK    1  A    between atoms: C5_5  and  N1_6 
REMARK    2  A    between atoms: N1_6  and  C6_9 
REMARK    3  A    between atoms: C6_9  and  C7_10 
REMARK    4  A    between atoms: C8_15  and  C9_16 
REMARK    5  A    between atoms: N4_20  and  S1_21 
REMARK    6  A    between atoms: S1_21  and  N5_24 
ROOT
HETATM    1  C7  UNL     1      11.011 -12.941   9.477  1.00  0.00     0.166 A 
HETATM    2  N2  UNL     1      10.928 -14.096   8.801  1.00  0.00    -0.280 N 
ATOM      3  H2  UNL     1      11.126 -15.024   9.176  1.00  0.00     0.189 HD
HETATM    4  N3  UNL     1      10.541 -13.822   7.555  1.00  0.00    -0.281 N 
ATOM      5  H3  UNL     1      10.390 -14.497   6.806  1.00  0.00     0.189 HD
HETATM    6  C8  UNL     1      10.388 -12.491   7.471  1.00  0.00     0.146 A 
HETATM    7  O3  UNL     1      10.681 -11.997   8.648  1.00  0.00    -0.280 OA
ENDROOT
BRANCH   6   8
HETATM    8  C9  UNL     1       9.967 -11.755   6.261  1.00  0.00     0.081 C 
HETATM    9  C10 UNL     1       8.860 -10.773   6.544  1.00  0.00     0.016 C 
HETATM   10  C11 UNL     1       7.661 -10.988   5.653  1.00  0.00     0.021 C 
HETATM   11  C12 UNL     1       8.056 -11.113   4.174  1.00  0.00     0.137 C 
HETATM   12  N4  UNL     1       9.120 -12.010   4.055  1.00  0.00    -0.293 N 
HETATM   13  C17 UNL     1       9.394 -12.741   5.243  1.00  0.00     0.149 C 
BRANCH  12  14
HETATM   14  S1  UNL     1       9.375 -12.841   2.616  1.00  0.00     0.322 S 
HETATM   15  O1  UNL     1      10.807 -12.717   2.130  1.00  0.00    -0.182 OA
HETATM   16  O2  UNL     1       8.505 -12.171   1.547  1.00  0.00    -0.182 OA
BRANCH  14  17
HETATM   17  N5  UNL     1       8.873 -14.451   2.717  1.00  0.00    -0.274 N 
HETATM   18  C13 UNL     1       8.120 -15.010   1.674  1.00  0.00     0.077 C 
HETATM   19  C14 UNL     1       8.859 -16.265   1.266  1.00  0.00     0.047 C 
HETATM   20  C15 UNL     1       9.614 -16.680   2.484  1.00  0.00     0.026 C 
HETATM   21  C16 UNL     1       9.894 -15.349   3.156  1.00  0.00     0.142 C 
ENDBRANCH  14  17
ENDBRANCH  12  14
ENDBRANCH   6   8
BRANCH   1  22
HETATM   22  C6  UNL     1      11.410 -12.823  10.897  1.00  0.00     0.318 C 
BRANCH  22  23
HETATM   23  N1  UNL     1      10.500 -11.943  11.597  1.00  0.00    -0.064 N 
ATOM     24  H12 UNL     1       9.903 -12.467  12.237  1.00  0.00     0.278 HD
ATOM     25  H11 UNL     1       9.785 -11.578  10.967  1.00  0.00     0.278 HD
BRANCH  23  26
HETATM   26  C5  UNL     1      11.178 -10.877  12.281  1.00  0.00     0.186 C 
HETATM   27  C4  UNL     1      10.248 -10.009  13.070  1.00  0.00     0.033 C 
HETATM   28  C3  UNL     1       9.174  -9.512  12.136  1.00  0.00     0.006 C 
HETATM   29  C2  UNL     1       9.838  -8.598  11.133  1.00  0.00    -0.019 C 
HETATM   30  C1  UNL     1       9.250  -8.840   9.773  1.00  0.00     0.010 C 
HETATM   31  C19 UNL     1      11.329  -8.638  11.171  1.00  0.00     0.006 C 
HETATM   32  C18 UNL     1      11.917 -10.006  11.287  1.00  0.00     0.033 C 
ENDBRANCH  23  26
ENDBRANCH  22  23
ENDBRANCH   1  22
TORSDOF 6
ENDMDL
MODEL 5
REMARK VINA RESULT: -7.889931877      5.484      9.982
REMARK  6 active torsions:
REMARK  status: ('A' for Active; 'I' for Inactive)
REMARK    1  A    between atoms: C5_5  and  N1_6 
REMARK    2  A    between atoms: N1_6  and  C6_9 
REMARK    3  A    between atoms: C6_9  and  C7_10 
REMARK    4  A    between atoms: C8_15  and  C9_16 
REMARK    5  A    between atoms: N4_20  and  S1_21 
REMARK    6  A    between atoms: S1_21  and  N5_24 
ROOT
HETATM    1  C7  UNL     1       4.505  -7.949   3.745  1.00  0.00     0.166 A 
HETATM    2  N2  UNL     1       5.174  -7.971   2.584  1.00  0.00    -0.280 N 
ATOM      3  H2  UNL     1       5.048  -7.319   1.809  1.00  0.00     0.189 HD
HETATM    4  N3  UNL     1       6.032  -8.991   2.616  1.00  0.00    -0.281 N 
ATOM      5  H3  UNL     1       6.680  -9.261   1.876  1.00  0.00     0.189 HD
HETATM    6  C8  UNL     1       5.885  -9.594   3.806  1.00  0.00     0.146 A 
HETATM    7  O3  UNL     1       4.956  -8.939   4.456  1.00  0.00    -0.280 OA
ENDROOT
BRANCH   6   8
HETATM    8  C9  UNL     1       6.645 -10.776   4.264  1.00  0.00     0.081 C 
HETATM    9  C10 UNL     1       7.187 -10.604   5.658  1.00  0.00     0.016 C 
HETATM   10  C11 UNL     1       8.679 -10.825   5.723  1.00  0.00     0.021 C 
HETATM   11  C12 UNL     1       9.102 -12.122   5.017  1.00  0.00     0.137 C 
HETATM   12  N4  UNL     1       8.494 -12.183   3.762  1.00  0.00    -0.293 N 
HETATM   13  C17 UNL     1       7.867 -10.970   3.365  1.00  0.00     0.149 C 
BRANCH  12  14
HETATM   14  S1  UNL     1       9.190 -13.080   2.522  1.00  0.00     0.322 S 
HETATM   15  O1  UNL     1      10.676 -12.806   2.384  1.00  0.00    -0.182 OA
HETATM   16  O2  UNL     1       8.549 -12.610   1.211  1.00  0.00    -0.182 OA
BRANCH  14  17
HETATM   17  N5  UNL     1       8.856 -14.729   2.669  1.00  0.00    -0.274 N 
HETATM   18  C13 UNL     1       8.295 -15.422   1.585  1.00  0.00     0.077 C 
HETATM   19  C14 UNL     1       9.208 -16.604   1.342  1.00  0.00     0.047 C 
HETATM   20  C15 UNL     1       9.854 -16.868   2.660  1.00  0.00     0.026 C 
HETATM   21  C16 UNL     1       9.909 -15.482   3.274  1.00  0.00     0.142 C 
ENDBRANCH  14  17
ENDBRANCH  12  14
ENDBRANCH   6   8
BRANCH   1  22
HETATM   22  C6  UNL     1       3.459  -6.963   4.097  1.00  0.00     0.318 C 
BRANCH  22  23
HETATM   23  N1  UNL     1       2.307  -7.134   3.239  1.00  0.00    -0.064 N 
ATOM     24  H12 UNL     1       1.562  -7.635   3.721  1.00  0.00     0.278 HD
ATOM     25  H11 UNL     1       2.500  -7.803   2.495  1.00  0.00     0.278 HD
BRANCH  23  26
HETATM   26  C5  UNL     1       1.828  -5.890   2.703  1.00  0.00     0.186 C 
HETATM   27  C4  UNL     1       0.718  -6.072   1.716  1.00  0.00     0.033 C 
HETATM   28  C3  UNL     1       1.199  -7.020   0.648  1.00  0.00     0.006 C 
HETATM   29  C2  UNL     1       2.307  -6.324  -0.106  1.00  0.00    -0.019 C 
HETATM   30  C1  UNL     1       3.400  -7.309  -0.407  1.00  0.00     0.010 C 
HETATM   31  C19 UNL     1       2.780  -5.065   0.539  1.00  0.00     0.006 C 
HETATM   32  C18 UNL     1       2.957  -5.147   2.021  1.00  0.00     0.033 C 
ENDBRANCH  23  26
ENDBRANCH  22  23
ENDBRANCH   1  22
TORSDOF 6
ENDMDL
