MODEL 1
REMARK VINA RESULT: -7.648315375      0.000      0.000
REMARK  5 active torsions:
REMARK  status: ('A' for Active; 'I' for Inactive)
REMARK    1  A    between atoms: C7_11  and  S1_12 
REMARK    2  A    between atoms: S1_12  and  C8_13 
REMARK    3  A    between atoms: C8_13  and  C9_14 
REMARK       I    between atoms: C9_14  and  N3_16 
REMARK    4  A    between atoms: C12_19  and  C13_20 
REMARK       I    between atoms: C13_20  and  N4_22 
REMARK    5  A    between atoms: N4_22  and  C14_24 
ROOT
HETATM    1  C9  UNL     1      10.701 -10.406   8.021  1.00  0.00     0.229 C 
HETATM    2  O1  UNL     1      10.505  -9.185   7.940  1.00  0.00    -0.273 OA
HETATM    3  N3  UNL     1      10.701 -10.967   9.345  1.00  0.00    -0.351 N 
HETATM    4  C10 UNL     1      10.501 -10.093  10.467  1.00  0.00     0.126 C 
HETATM    5  C11 UNL     1      10.116 -10.801  11.727  1.00  0.00     0.034 C 
HETATM    6  C12 UNL     1      11.110 -11.877  12.073  1.00  0.00     0.081 C 
HETATM    7  C19 UNL     1      11.688 -12.588  10.898  1.00  0.00     0.034 C 
HETATM    8  C20 UNL     1      10.882 -12.372   9.610  1.00  0.00     0.126 C 
ENDROOT
BRANCH   1   9
HETATM    9  C8  UNL     1      10.933 -11.347   6.925  1.00  0.00     0.183 C 
BRANCH   9  10
HETATM   10  S1  UNL     1       9.651 -12.476   6.465  1.00  0.00    -0.102 SA
BRANCH  10  11
HETATM   11  C7  UNL     1       9.258 -12.401   4.747  1.00  0.00     0.081 A 
HETATM   12  C4  UNL     1       8.339 -11.548   4.188  1.00  0.00     0.029 A 
HETATM   13  C3  UNL     1       7.381 -10.566   4.750  1.00  0.00     0.078 C 
HETATM   14  C5  UNL     1       8.112 -11.515   2.811  1.00  0.00     0.152 A 
HETATM   15  C2  UNL     1       6.305 -10.536   3.671  1.00  0.00     0.131 C 
HETATM   16  C1  UNL     1       5.501  -9.275   3.735  1.00  0.00     0.040 C 
HETATM   17  O3  UNL     1       7.134 -10.564   2.507  1.00  0.00    -0.330 OA
HETATM   18  N1  UNL     1       8.789 -12.324   1.988  1.00  0.00    -0.333 N 
HETATM   19  C6  UNL     1       9.688 -13.163   2.528  1.00  0.00     0.183 A 
ATOM     20  H1  UNL     1       8.627 -12.303   0.981  1.00  0.00     0.168 HD
HETATM   21  N2  UNL     1       9.916 -13.203   3.846  1.00  0.00    -0.346 N 
ATOM     22  H2  UNL     1      10.611 -13.861   4.200  1.00  0.00     0.167 HD
ENDBRANCH  10  11
ENDBRANCH   9  10
ENDBRANCH   1   9
BRANCH   6  23
HETATM   23  C13 UNL     1      10.434 -12.835  12.985  1.00  0.00     0.222 C 
HETATM   24  O2  UNL     1       9.957 -12.386  14.066  1.00  0.00    -0.273 OA
HETATM   25  N4  UNL     1      10.325 -14.210  12.656  1.00  0.00    -0.356 N 
ATOM     26  H4  UNL     1      10.713 -14.558  11.779  1.00  0.00     0.162 HD
BRANCH  25  27
HETATM   27  C14 UNL     1       9.673 -15.104  13.553  1.00  0.00     0.084 C 
HETATM   28  C15 UNL     1       8.186 -15.240  13.277  1.00  0.00     0.025 C 
HETATM   29  C16 UNL     1       7.847 -16.488  14.071  1.00  0.00     0.002 C 
HETATM   30  C17 UNL     1       9.091 -17.308  14.143  1.00  0.00     0.002 C 
HETATM   31  C18 UNL     1      10.116 -16.538  13.357  1.00  0.00     0.025 C 
ENDBRANCH  25  27
ENDBRANCH   6  23
TORSDOF 5
ENDMDL
MODEL 2
REMARK VINA RESULT: -7.584264460      3.824      4.433
REMARK  5 active torsions:
REMARK  status: ('A' for Active; 'I' for Inactive)
REMARK    1  A    between atoms: C7_11  and  S1_12 
REMARK    2  A    between atoms: S1_12  and  C8_13 
REMARK    3  A    between atoms: C8_13  and  C9_14 
REMARK       I    between atoms: C9_14  and  N3_16 
REMARK    4  A    between atoms: C12_19  and  C13_20 
REMARK       I    between atoms: C13_20  and  N4_22 
REMARK    5  A    between atoms: N4_22  and  C14_24 
ROOT
HETATM    1  C9  UNL     1      10.260 -10.073   8.336  1.00  0.00     0.229 C 
HETATM    2  O1  UNL     1       9.311  -9.763   9.070  1.00  0.00    -0.273 OA
HETATM    3  N3  UNL     1      11.561 -10.094   8.948  1.00  0.00    -0.351 N 
HETATM    4  C10 UNL     1      11.679  -9.741  10.336  1.00  0.00     0.126 C 
HETATM    5  C11 UNL     1      12.963 -10.178  10.967  1.00  0.00     0.034 C 
HETATM    6  C12 UNL     1      14.151  -9.671  10.194  1.00  0.00     0.081 C 
HETATM    7  C19 UNL     1      13.957  -9.627   8.717  1.00  0.00     0.034 C 
HETATM    8  C20 UNL     1      12.763 -10.465   8.243  1.00  0.00     0.126 C 
ENDROOT
BRANCH   1   9
HETATM    9  C8  UNL     1      10.213 -10.422   6.916  1.00  0.00     0.183 C 
BRANCH   9  10
HETATM   10  S1  UNL     1       9.785 -12.071   6.441  1.00  0.00    -0.102 SA
BRANCH  10  11
HETATM   11  C7  UNL     1       9.285 -12.189   4.754  1.00  0.00     0.081 A 
HETATM   12  C4  UNL     1       8.297 -11.435   4.172  1.00  0.00     0.029 A 
HETATM   13  C3  UNL     1       7.332 -10.438   4.693  1.00  0.00     0.078 C 
HETATM   14  C5  UNL     1       7.986 -11.554   2.817  1.00  0.00     0.152 A 
HETATM   15  C2  UNL     1       6.192 -10.562   3.688  1.00  0.00     0.131 C 
HETATM   16  C1  UNL     1       5.337  -9.333   3.677  1.00  0.00     0.040 C 
HETATM   17  O3  UNL     1       6.949 -10.677   2.482  1.00  0.00    -0.330 OA
HETATM   18  N1  UNL     1       8.648 -12.416   2.036  1.00  0.00    -0.333 N 
HETATM   19  C6  UNL     1       9.615 -13.159   2.599  1.00  0.00     0.183 A 
ATOM     20  H1  UNL     1       8.425 -12.506   1.046  1.00  0.00     0.168 HD
HETATM   21  N2  UNL     1       9.924 -13.054   3.898  1.00  0.00    -0.346 N 
ATOM     22  H2  UNL     1      10.668 -13.645   4.270  1.00  0.00     0.167 HD
ENDBRANCH  10  11
ENDBRANCH   9  10
ENDBRANCH   1   9
BRANCH   6  23
HETATM   23  C13 UNL     1      15.312 -10.527  10.545  1.00  0.00     0.222 C 
HETATM   24  O2  UNL     1      16.439  -9.970  10.680  1.00  0.00    -0.273 OA
HETATM   25  N4  UNL     1      15.165 -11.926  10.724  1.00  0.00    -0.356 N 
ATOM     26  H4  UNL     1      14.251 -12.363  10.614  1.00  0.00     0.162 HD
BRANCH  25  27
HETATM   27  C14 UNL     1      16.300 -12.721  11.058  1.00  0.00     0.084 C 
HETATM   28  C15 UNL     1      16.410 -13.000  12.547  1.00  0.00     0.025 C 
HETATM   29  C16 UNL     1      17.415 -14.137  12.565  1.00  0.00     0.002 C 
HETATM   30  C17 UNL     1      17.288 -14.849  11.260  1.00  0.00     0.002 C 
HETATM   31  C18 UNL     1      16.187 -14.134  10.526  1.00  0.00     0.025 C 
ENDBRANCH  25  27
ENDBRANCH   6  23
TORSDOF 5
ENDMDL
MODEL 3
REMARK VINA RESULT: -7.558943749      7.291      9.285
REMARK  5 active torsions:
REMARK  status: ('A' for Active; 'I' for Inactive)
REMARK    1  A    between atoms: C7_11  and  S1_12 
REMARK    2  A    between atoms: S1_12  and  C8_13 
REMARK    3  A    between atoms: C8_13  and  C9_14 
REMARK       I    between atoms: C9_14  and  N3_16 
REMARK    4  A    between atoms: C12_19  and  C13_20 
REMARK       I    between atoms: C13_20  and  N4_22 
REMARK    5  A    between atoms: N4_22  and  C14_24 
ROOT
HETATM    1  C9  UNL     1       3.409  -6.522   5.227  1.00  0.00     0.229 C 
HETATM    2  O1  UNL     1       3.641  -5.705   6.130  1.00  0.00    -0.273 OA
HETATM    3  N3  UNL     1       4.458  -7.458   4.928  1.00  0.00    -0.351 N 
HETATM    4  C10 UNL     1       5.690  -7.377   5.663  1.00  0.00     0.126 C 
HETATM    5  C11 UNL     1       6.533  -8.609   5.574  1.00  0.00     0.034 C 
HETATM    6  C12 UNL     1       6.802  -8.984   4.141  1.00  0.00     0.081 C 
HETATM    7  C19 UNL     1       5.672  -8.715   3.207  1.00  0.00     0.034 C 
HETATM    8  C20 UNL     1       4.338  -8.491   3.930  1.00  0.00     0.126 C 
ENDROOT
BRANCH   1   9
HETATM    9  C8  UNL     1       2.191  -6.645   4.426  1.00  0.00     0.183 C 
BRANCH   9  10
HETATM   10  S1  UNL     1       1.949  -5.569   3.043  1.00  0.00    -0.102 SA
BRANCH  10  11
HETATM   11  C7  UNL     1       2.880  -6.057   1.626  1.00  0.00     0.081 A 
HETATM   12  C4  UNL     1       4.218  -5.810   1.442  1.00  0.00     0.029 A 
HETATM   13  C3  UNL     1       5.233  -5.051   2.210  1.00  0.00     0.078 C 
HETATM   14  C5  UNL     1       4.898  -6.267   0.312  1.00  0.00     0.152 A 
HETATM   15  C2  UNL     1       6.219  -4.662   1.114  1.00  0.00     0.131 C 
HETATM   16  C1  UNL     1       7.568  -4.345   1.680  1.00  0.00     0.040 C 
HETATM   17  O3  UNL     1       6.241  -5.881   0.370  1.00  0.00    -0.330 OA
HETATM   18  N1  UNL     1       4.260  -6.965  -0.634  1.00  0.00    -0.333 N 
HETATM   19  C6  UNL     1       2.951  -7.210  -0.461  1.00  0.00     0.183 A 
ATOM     20  H1  UNL     1       4.753  -7.301  -1.461  1.00  0.00     0.168 HD
HETATM   21  N2  UNL     1       2.287  -6.778   0.618  1.00  0.00    -0.346 N 
ATOM     22  H2  UNL     1       1.293  -6.994   0.696  1.00  0.00     0.167 HD
ENDBRANCH  10  11
ENDBRANCH   9  10
ENDBRANCH   1   9
BRANCH   6  23
HETATM   23  C13 UNL     1       7.174 -10.421   4.116  1.00  0.00     0.222 C 
HETATM   24  O2  UNL     1       7.102 -11.069   5.199  1.00  0.00    -0.273 OA
HETATM   25  N4  UNL     1       7.595 -11.049   2.917  1.00  0.00    -0.356 N 
ATOM     26  H4  UNL     1       7.646 -10.515   2.050  1.00  0.00     0.162 HD
BRANCH  25  27
HETATM   27  C14 UNL     1       7.947 -12.430   2.926  1.00  0.00     0.084 C 
HETATM   28  C15 UNL     1       7.284 -13.218   1.810  1.00  0.00     0.025 C 
HETATM   29  C16 UNL     1       8.108 -14.492   1.812  1.00  0.00     0.002 C 
HETATM   30  C17 UNL     1       9.460 -14.134   2.331  1.00  0.00     0.002 C 
HETATM   31  C18 UNL     1       9.405 -12.652   2.584  1.00  0.00     0.025 C 
ENDBRANCH  25  27
ENDBRANCH   6  23
TORSDOF 5
ENDMDL
MODEL 4
REMARK VINA RESULT: -7.493324963      3.248      5.054
REMARK  5 active torsions:
REMARK  status: ('A' for Active; 'I' for Inactive)
REMARK    1  A    between atoms: C7_11  and  S1_12 
REMARK    2  A    between atoms: S1_12  and  C8_13 
REMARK    3  A    between atoms: C8_13  and  C9_14 
REMARK       I    between atoms: C9_14  and  N3_16 
REMARK    4  A    between atoms: C12_19  and  C13_20 
REMARK       I    between atoms: C13_20  and  N4_22 
REMARK    5  A    between atoms: N4_22  and  C14_24 
ROOT
HETATM    1  C9  UNL     1      10.014 -11.929   7.146  1.00  0.00     0.229 C 
HETATM    2  O1  UNL     1       9.746 -13.016   6.613  1.00  0.00    -0.273 OA
HETATM    3  N3  UNL     1      10.795 -11.984   8.352  1.00  0.00    -0.351 N 
HETATM    4  C10 UNL     1      11.189 -13.267   8.865  1.00  0.00     0.126 C 
HETATM    5  C11 UNL     1      12.308 -13.207   9.855  1.00  0.00     0.034 C 
HETATM    6  C12 UNL     1      11.987 -12.268  10.986  1.00  0.00     0.081 C 
HETATM    7  C19 UNL     1      11.203 -11.064  10.589  1.00  0.00     0.034 C 
HETATM    8  C20 UNL     1      11.218 -10.811   9.076  1.00  0.00     0.126 C 
ENDROOT
BRANCH   1   9
HETATM    9  C8  UNL     1       9.627 -10.594   6.691  1.00  0.00     0.183 C 
BRANCH   9  10
HETATM   10  S1  UNL     1       7.932 -10.097   6.803  1.00  0.00    -0.102 SA
BRANCH  10  11
HETATM   11  C7  UNL     1       7.189  -9.841   5.224  1.00  0.00     0.081 A 
HETATM   12  C4  UNL     1       7.271 -10.713   4.166  1.00  0.00     0.029 A 
HETATM   13  C3  UNL     1       8.001 -11.983   3.943  1.00  0.00     0.078 C 
HETATM   14  C5  UNL     1       6.618 -10.463   2.959  1.00  0.00     0.152 A 
HETATM   15  C2  UNL     1       8.156 -11.985   2.426  1.00  0.00     0.131 C 
HETATM   16  C1  UNL     1       8.390 -13.367   1.902  1.00  0.00     0.040 C 
HETATM   17  O3  UNL     1       6.864 -11.502   2.055  1.00  0.00    -0.330 OA
HETATM   18  N1  UNL     1       5.887  -9.355   2.793  1.00  0.00    -0.333 N 
HETATM   19  C6  UNL     1       5.804  -8.496   3.823  1.00  0.00     0.183 A 
ATOM     20  H1  UNL     1       5.409  -9.168   1.912  1.00  0.00     0.168 HD
HETATM   21  N2  UNL     1       6.425  -8.724   4.987  1.00  0.00    -0.346 N 
ATOM     22  H2  UNL     1       6.326  -8.037   5.733  1.00  0.00     0.167 HD
ENDBRANCH  10  11
ENDBRANCH   9  10
ENDBRANCH   1   9
BRANCH   6  23
HETATM   23  C13 UNL     1      13.271 -11.872  11.618  1.00  0.00     0.222 C 
HETATM   24  O2  UNL     1      13.230 -11.040  12.570  1.00  0.00    -0.273 OA
HETATM   25  N4  UNL     1      14.505 -12.407  11.170  1.00  0.00    -0.356 N 
ATOM     26  H4  UNL     1      14.524 -13.078  10.403  1.00  0.00     0.162 HD
BRANCH  25  27
HETATM   27  C14 UNL     1      15.721 -12.004  11.796  1.00  0.00     0.084 C 
HETATM   28  C15 UNL     1      16.738 -13.128  11.890  1.00  0.00     0.025 C 
HETATM   29  C16 UNL     1      18.007 -12.357  12.207  1.00  0.00     0.002 C 
HETATM   30  C17 UNL     1      17.840 -10.991  11.630  1.00  0.00     0.002 C 
HETATM   31  C18 UNL     1      16.495 -11.009  10.958  1.00  0.00     0.025 C 
ENDBRANCH  25  27
ENDBRANCH   6  23
TORSDOF 5
ENDMDL
MODEL 5
REMARK VINA RESULT: -7.492031430      2.657      7.992
REMARK  5 active torsions:
REMARK  status: ('A' for Active; 'I' for Inactive)
REMARK    1  A    between atoms: C7_11  and  S1_12 
REMARK    2  A    between atoms: S1_12  and  C8_13 
REMARK    3  A    between atoms: C8_13  and  C9_14 
REMARK       I    between atoms: C9_14  and  N3_16 
REMARK    4  A    between atoms: C12_19  and  C13_20 
REMARK       I    between atoms: C13_20  and  N4_22 
REMARK    5  A    between atoms: N4_22  and  C14_24 
ROOT
HETATM    1  C9  UNL     1      11.869  -8.327   9.104  1.00  0.00     0.229 C 
HETATM    2  O1  UNL     1      11.571  -7.392   9.863  1.00  0.00    -0.273 OA
HETATM    3  N3  UNL     1      10.803  -8.867   8.306  1.00  0.00    -0.351 N 
HETATM    4  C10 UNL     1       9.482  -8.319   8.450  1.00  0.00     0.126 C 
HETATM    5  C11 UNL     1       8.560  -8.650   7.321  1.00  0.00     0.034 C 
HETATM    6  C12 UNL     1       8.487 -10.137   7.095  1.00  0.00     0.081 C 
HETATM    7  C19 UNL     1       9.769 -10.862   7.324  1.00  0.00     0.034 C 
HETATM    8  C20 UNL     1      10.988  -9.932   7.352  1.00  0.00     0.126 C 
ENDROOT
BRANCH   1   9
HETATM    9  C8  UNL     1      13.183  -8.945   8.925  1.00  0.00     0.183 C 
BRANCH   9  10
HETATM   10  S1  UNL     1      13.686 -10.244  10.016  1.00  0.00    -0.102 SA
BRANCH  10  11
HETATM   11  C7  UNL     1      12.706 -11.700   9.843  1.00  0.00     0.081 A 
HETATM   12  C4  UNL     1      11.692 -12.071  10.691  1.00  0.00     0.029 A 
HETATM   13  C3  UNL     1      11.169 -11.517  11.962  1.00  0.00     0.078 C 
HETATM   14  C5  UNL     1      10.930 -13.218  10.464  1.00  0.00     0.152 A 
HETATM   15  C2  UNL     1      10.573 -12.759  12.615  1.00  0.00     0.131 C 
HETATM   16  C1  UNL     1       9.547 -12.398  13.643  1.00  0.00     0.040 C 
HETATM   17  O3  UNL     1       9.969 -13.364  11.470  1.00  0.00    -0.330 OA
HETATM   18  N1  UNL     1      11.169 -13.999   9.404  1.00  0.00    -0.333 N 
HETATM   19  C6  UNL     1      12.161 -13.644   8.572  1.00  0.00     0.183 A 
ATOM     20  H1  UNL     1      10.614 -14.838   9.235  1.00  0.00     0.168 HD
HETATM   21  N2  UNL     1      12.899 -12.546   8.777  1.00  0.00    -0.346 N 
ATOM     22  H2  UNL     1      13.639 -12.326   8.111  1.00  0.00     0.167 HD
ENDBRANCH  10  11
ENDBRANCH   9  10
ENDBRANCH   1   9
BRANCH   6  23
HETATM   23  C13 UNL     1       8.001 -10.356   5.710  1.00  0.00     0.222 C 
HETATM   24  O2  UNL     1       7.126  -9.563   5.257  1.00  0.00    -0.273 OA
HETATM   25  N4  UNL     1       8.499 -11.420   4.916  1.00  0.00    -0.356 N 
ATOM     26  H4  UNL     1       9.206 -12.051   5.292  1.00  0.00     0.162 HD
BRANCH  25  27
HETATM   27  C14 UNL     1       8.010 -11.606   3.590  1.00  0.00     0.084 C 
HETATM   28  C15 UNL     1       8.721 -12.723   2.848  1.00  0.00     0.025 C 
HETATM   29  C16 UNL     1       7.778 -12.956   1.682  1.00  0.00     0.002 C 
HETATM   30  C17 UNL     1       6.416 -12.552   2.139  1.00  0.00     0.002 C 
HETATM   31  C18 UNL     1       6.590 -12.130   3.571  1.00  0.00     0.025 C 
ENDBRANCH  25  27
ENDBRANCH   6  23
TORSDOF 5
ENDMDL
