MODEL 1
REMARK VINA RESULT: -6.367792107      0.000      0.000
REMARK  10 active torsions:
REMARK  status: ('A' for Active; 'I' for Inactive)
REMARK    1  A    between atoms: O1_2  and  C2_3 
REMARK    2  A    between atoms: C2_3  and  C3_5 
REMARK    3  A    between atoms: C3_5  and  C4_6 
REMARK    4  A    between atoms: C3_5  and  N1_14 
REMARK    5  A    between atoms: C4_6  and  O3_7 
REMARK    6  A    between atoms: O3_7  and  C5_8 
REMARK    7  A    between atoms: C5_8  and  C6_10 
REMARK       I    between atoms: N1_14  and  C10_16 
REMARK    8  A    between atoms: C10_16  and  C11_18 
REMARK       I    between atoms: N2_21  and  C14_22 
REMARK    9  A    between atoms: C14_22  and  O7_24 
REMARK   10  A    between atoms: O7_24  and  C15_25 
ROOT
HETATM    1  N1  UNL     1       8.704 -13.644   3.552  1.00  0.00    -0.345 N 
ATOM      2  H1  UNL     1       7.979 -14.070   4.130  1.00  0.00     0.163 HD
HETATM    3  C10 UNL     1       9.665 -12.794   4.164  1.00  0.00     0.224 C 
HETATM    4  O5  UNL     1      10.559 -12.276   3.419  1.00  0.00    -0.273 OA
ENDROOT
BRANCH   1   5
HETATM    5  C3  UNL     1       8.727 -13.922   2.129  1.00  0.00     0.208 C 
BRANCH   5   6
HETATM    6  C2  UNL     1       8.970 -15.388   1.948  1.00  0.00     0.283 C 
HETATM    7  O2  UNL     1       8.195 -16.080   1.262  1.00  0.00    -0.263 OA
BRANCH   6   8
HETATM    8  O1  UNL     1      10.089 -15.941   2.571  1.00  0.00    -0.325 OA
HETATM    9  C1  UNL     1       9.888 -16.795   3.654  1.00  0.00     0.213 C 
ENDBRANCH   6   8
ENDBRANCH   5   6
BRANCH   5  10
HETATM   10  C4  UNL     1       7.413 -13.498   1.567  1.00  0.00     0.214 C 
BRANCH  10  11
HETATM   11  O3  UNL     1       6.645 -12.657   2.363  1.00  0.00    -0.318 OA
BRANCH  11  12
HETATM   12  C5  UNL     1       6.930 -11.338   2.691  1.00  0.00     0.266 C 
HETATM   13  O4  UNL     1       7.867 -10.799   2.050  1.00  0.00    -0.264 OA
BRANCH  12  14
HETATM   14  C6  UNL     1       6.211 -10.578   3.716  1.00  0.00     0.037 C 
HETATM   15  C7  UNL     1       7.000 -10.377   4.992  1.00  0.00     0.025 C 
HETATM   16  C8  UNL     1       4.953 -11.328   4.093  1.00  0.00     0.025 C 
HETATM   17  C9  UNL     1       5.810  -9.193   3.237  1.00  0.00     0.025 C 
ENDBRANCH  12  14
ENDBRANCH  11  12
ENDBRANCH  10  11
ENDBRANCH   5  10
ENDBRANCH   1   5
BRANCH   3  18
HETATM   18  C11 UNL     1       9.680 -12.484   5.599  1.00  0.00     0.097 C 
HETATM   19  C12 UNL     1      10.047 -13.688   6.429  1.00  0.00     0.035 C 
HETATM   20  C13 UNL     1      10.464 -13.023   7.744  1.00  0.00     0.129 C 
HETATM   21  N2  UNL     1      11.192 -11.831   7.294  1.00  0.00    -0.327 N 
HETATM   22  C14 UNL     1      12.188 -11.175   8.037  1.00  0.00     0.363 C 
HETATM   23  C19 UNL     1      10.710 -11.462   5.978  1.00  0.00     0.142 C 
HETATM   24  O6  UNL     1      12.752 -10.163   7.567  1.00  0.00    -0.238 OA
BRANCH  22  25
HETATM   25  O7  UNL     1      12.606 -11.581   9.296  1.00  0.00    -0.294 OA
BRANCH  25  26
HETATM   26  C15 UNL     1      12.014 -11.085  10.444  1.00  0.00     0.061 C 
HETATM   27  C16 UNL     1      11.542 -12.278  11.277  1.00  0.00     0.046 C 
HETATM   28  C17 UNL     1      13.012 -10.340  11.315  1.00  0.00     0.046 C 
HETATM   29  C18 UNL     1      10.834 -10.200  10.230  1.00  0.00     0.046 C 
ENDBRANCH  25  26
ENDBRANCH  22  25
ENDBRANCH   3  18
TORSDOF 10
ENDMDL
MODEL 2
REMARK VINA RESULT: -6.311749885      1.524      4.343
REMARK  10 active torsions:
REMARK  status: ('A' for Active; 'I' for Inactive)
REMARK    1  A    between atoms: O1_2  and  C2_3 
REMARK    2  A    between atoms: C2_3  and  C3_5 
REMARK    3  A    between atoms: C3_5  and  C4_6 
REMARK    4  A    between atoms: C3_5  and  N1_14 
REMARK    5  A    between atoms: C4_6  and  O3_7 
REMARK    6  A    between atoms: O3_7  and  C5_8 
REMARK    7  A    between atoms: C5_8  and  C6_10 
REMARK       I    between atoms: N1_14  and  C10_16 
REMARK    8  A    between atoms: C10_16  and  C11_18 
REMARK       I    between atoms: N2_21  and  C14_22 
REMARK    9  A    between atoms: C14_22  and  O7_24 
REMARK   10  A    between atoms: O7_24  and  C15_25 
ROOT
HETATM    1  N1  UNL     1       9.024 -11.500   4.301  1.00  0.00    -0.345 N 
ATOM      2  H1  UNL     1       9.064 -10.507   4.070  1.00  0.00     0.163 HD
HETATM    3  C10 UNL     1       9.611 -11.952   5.514  1.00  0.00     0.224 C 
HETATM    4  O5  UNL     1       9.546 -13.195   5.778  1.00  0.00    -0.273 OA
ENDROOT
BRANCH   1   5
HETATM    5  C3  UNL     1       8.370 -12.413   3.384  1.00  0.00     0.208 C 
BRANCH   5   6
HETATM    6  C2  UNL     1       7.234 -11.683   2.737  1.00  0.00     0.283 C 
HETATM    7  O2  UNL     1       6.497 -12.258   1.914  1.00  0.00    -0.263 OA
BRANCH   6   8
HETATM    8  O1  UNL     1       7.037 -10.348   3.089  1.00  0.00    -0.325 OA
HETATM    9  C1  UNL     1       5.847 -10.002   3.729  1.00  0.00     0.213 C 
ENDBRANCH   6   8
ENDBRANCH   5   6
BRANCH   5  10
HETATM   10  C4  UNL     1       9.387 -12.860   2.391  1.00  0.00     0.214 C 
BRANCH  10  11
HETATM   11  O3  UNL     1       9.850 -14.162   2.529  1.00  0.00    -0.318 OA
BRANCH  11  12
HETATM   12  C5  UNL     1       9.121 -15.327   2.327  1.00  0.00     0.266 C 
HETATM   13  O4  UNL     1       8.112 -15.226   1.585  1.00  0.00    -0.264 OA
BRANCH  12  14
HETATM   14  C6  UNL     1       9.468 -16.620   2.921  1.00  0.00     0.037 C 
HETATM   15  C7  UNL     1      10.452 -16.522   4.067  1.00  0.00     0.025 C 
HETATM   16  C8  UNL     1      10.113 -17.491   1.865  1.00  0.00     0.025 C 
HETATM   17  C9  UNL     1       8.253 -17.356   3.462  1.00  0.00     0.025 C 
ENDBRANCH  12  14
ENDBRANCH  11  12
ENDBRANCH  10  11
ENDBRANCH   5  10
ENDBRANCH   1   5
BRANCH   3  18
HETATM   18  C11 UNL     1      10.285 -11.064   6.471  1.00  0.00     0.097 C 
HETATM   19  C12 UNL     1       9.319 -10.487   7.475  1.00  0.00     0.035 C 
HETATM   20  C13 UNL     1      10.279 -10.044   8.584  1.00  0.00     0.129 C 
HETATM   21  N2  UNL     1      11.264 -11.130   8.621  1.00  0.00    -0.327 N 
HETATM   22  C14 UNL     1      12.029 -11.478   9.747  1.00  0.00     0.363 C 
HETATM   23  C19 UNL     1      11.305 -11.765   7.318  1.00  0.00     0.142 C 
HETATM   24  O6  UNL     1      12.846 -12.423   9.680  1.00  0.00    -0.238 OA
BRANCH  22  25
HETATM   25  O7  UNL     1      11.942 -10.830  10.970  1.00  0.00    -0.294 OA
BRANCH  25  26
HETATM   26  C15 UNL     1      11.090 -11.280  11.964  1.00  0.00     0.061 C 
HETATM   27  C16 UNL     1      11.909 -11.433  13.246  1.00  0.00     0.046 C 
HETATM   28  C17 UNL     1      10.007 -10.264  12.281  1.00  0.00     0.046 C 
HETATM   29  C18 UNL     1      10.432 -12.592  11.702  1.00  0.00     0.046 C 
ENDBRANCH  25  26
ENDBRANCH  22  25
ENDBRANCH   3  18
TORSDOF 10
ENDMDL
MODEL 3
REMARK VINA RESULT: -6.238470137      1.677      4.533
REMARK  10 active torsions:
REMARK  status: ('A' for Active; 'I' for Inactive)
REMARK    1  A    between atoms: O1_2  and  C2_3 
REMARK    2  A    between atoms: C2_3  and  C3_5 
REMARK    3  A    between atoms: C3_5  and  C4_6 
REMARK    4  A    between atoms: C3_5  and  N1_14 
REMARK    5  A    between atoms: C4_6  and  O3_7 
REMARK    6  A    between atoms: O3_7  and  C5_8 
REMARK    7  A    between atoms: C5_8  and  C6_10 
REMARK       I    between atoms: N1_14  and  C10_16 
REMARK    8  A    between atoms: C10_16  and  C11_18 
REMARK       I    between atoms: N2_21  and  C14_22 
REMARK    9  A    between atoms: C14_22  and  O7_24 
REMARK   10  A    between atoms: O7_24  and  C15_25 
ROOT
HETATM    1  N1  UNL     1       9.966 -11.818   4.563  1.00  0.00    -0.345 N 
ATOM      2  H1  UNL     1      10.695 -11.273   4.102  1.00  0.00     0.163 HD
HETATM    3  C10 UNL     1       9.943 -11.880   5.983  1.00  0.00     0.224 C 
HETATM    4  O5  UNL     1       9.022 -12.567   6.532  1.00  0.00    -0.273 OA
ENDROOT
BRANCH   1   5
HETATM    5  C3  UNL     1       8.982 -12.509   3.753  1.00  0.00     0.208 C 
BRANCH   5   6
HETATM    6  C2  UNL     1       7.926 -11.521   3.366  1.00  0.00     0.283 C 
HETATM    7  O2  UNL     1       7.892 -11.046   2.215  1.00  0.00    -0.263 OA
BRANCH   6   8
HETATM    8  O1  UNL     1       6.991 -11.158   4.336  1.00  0.00    -0.325 OA
HETATM    9  C1  UNL     1       5.651 -11.069   3.961  1.00  0.00     0.213 C 
ENDBRANCH   6   8
ENDBRANCH   5   6
BRANCH   5  10
HETATM   10  C4  UNL     1       9.688 -13.067   2.565  1.00  0.00     0.214 C 
BRANCH  10  11
HETATM   11  O3  UNL     1       9.958 -14.430   2.595  1.00  0.00    -0.318 OA
BRANCH  11  12
HETATM   12  C5  UNL     1       9.064 -15.457   2.322  1.00  0.00     0.266 C 
HETATM   13  O4  UNL     1       8.035 -15.139   1.676  1.00  0.00    -0.264 OA
BRANCH  12  14
HETATM   14  C6  UNL     1       9.265 -16.847   2.741  1.00  0.00     0.037 C 
HETATM   15  C7  UNL     1       8.366 -17.276   3.881  1.00  0.00     0.025 C 
HETATM   16  C8  UNL     1      10.690 -17.015   3.221  1.00  0.00     0.025 C 
HETATM   17  C9  UNL     1       9.027 -17.835   1.612  1.00  0.00     0.025 C 
ENDBRANCH  12  14
ENDBRANCH  11  12
ENDBRANCH  10  11
ENDBRANCH   5  10
ENDBRANCH   1   5
BRANCH   3  18
HETATM   18  C11 UNL     1      10.919 -11.199   6.842  1.00  0.00     0.097 C 
HETATM   19  C12 UNL     1      10.248 -10.304   7.853  1.00  0.00     0.035 C 
HETATM   20  C13 UNL     1      11.370 -10.127   8.880  1.00  0.00     0.129 C 
HETATM   21  N2  UNL     1      11.978 -11.461   8.939  1.00  0.00    -0.327 N 
HETATM   22  C14 UNL     1      12.676 -11.973  10.045  1.00  0.00     0.363 C 
HETATM   23  C19 UNL     1      11.733 -12.138   7.682  1.00  0.00     0.142 C 
HETATM   24  O6  UNL     1      13.160 -13.125  10.000  1.00  0.00    -0.238 OA
BRANCH  22  25
HETATM   25  O7  UNL     1      12.876 -11.271  11.225  1.00  0.00    -0.294 OA
BRANCH  25  26
HETATM   26  C15 UNL     1      14.069 -10.617  11.479  1.00  0.00     0.061 C 
HETATM   27  C16 UNL     1      13.748  -9.360  12.290  1.00  0.00     0.046 C 
HETATM   28  C17 UNL     1      14.992 -11.449  12.352  1.00  0.00     0.046 C 
HETATM   29  C18 UNL     1      14.835 -10.183  10.276  1.00  0.00     0.046 C 
ENDBRANCH  25  26
ENDBRANCH  22  25
ENDBRANCH   3  18
TORSDOF 10
ENDMDL
MODEL 4
REMARK VINA RESULT: -6.164934006      3.862      7.534
REMARK  10 active torsions:
REMARK  status: ('A' for Active; 'I' for Inactive)
REMARK    1  A    between atoms: O1_2  and  C2_3 
REMARK    2  A    between atoms: C2_3  and  C3_5 
REMARK    3  A    between atoms: C3_5  and  C4_6 
REMARK    4  A    between atoms: C3_5  and  N1_14 
REMARK    5  A    between atoms: C4_6  and  O3_7 
REMARK    6  A    between atoms: O3_7  and  C5_8 
REMARK    7  A    between atoms: C5_8  and  C6_10 
REMARK       I    between atoms: N1_14  and  C10_16 
REMARK    8  A    between atoms: C10_16  and  C11_18 
REMARK       I    between atoms: N2_21  and  C14_22 
REMARK    9  A    between atoms: C14_22  and  O7_24 
REMARK   10  A    between atoms: O7_24  and  C15_25 
ROOT
HETATM    1  N1  UNL     1       6.407  -9.232   3.595  1.00  0.00    -0.345 N 
ATOM      2  H1  UNL     1       7.145  -8.644   3.205  1.00  0.00     0.163 HD
HETATM    3  C10 UNL     1       6.498 -10.643   3.451  1.00  0.00     0.224 C 
HETATM    4  O5  UNL     1       5.563 -11.351   3.946  1.00  0.00    -0.273 OA
ENDROOT
BRANCH   1   5
HETATM    5  C3  UNL     1       5.294  -8.604   4.280  1.00  0.00     0.208 C 
BRANCH   5   6
HETATM    6  C2  UNL     1       5.836  -7.874   5.469  1.00  0.00     0.283 C 
HETATM    7  O2  UNL     1       5.143  -7.025   6.063  1.00  0.00    -0.263 OA
BRANCH   6   8
HETATM    8  O1  UNL     1       7.132  -8.179   5.883  1.00  0.00    -0.325 OA
HETATM    9  C1  UNL     1       7.299  -8.853   7.092  1.00  0.00     0.213 C 
ENDBRANCH   6   8
ENDBRANCH   5   6
BRANCH   5  10
HETATM   10  C4  UNL     1       4.630  -7.685   3.313  1.00  0.00     0.214 C 
BRANCH  10  11
HETATM   11  O3  UNL     1       5.443  -7.134   2.330  1.00  0.00    -0.318 OA
BRANCH  11  12
HETATM   12  C5  UNL     1       5.853  -5.811   2.239  1.00  0.00     0.266 C 
HETATM   13  O4  UNL     1       6.149  -5.248   3.323  1.00  0.00    -0.264 OA
BRANCH  12  14
HETATM   14  C6  UNL     1       5.951  -5.071   0.979  1.00  0.00     0.037 C 
HETATM   15  C7  UNL     1       7.371  -4.725   0.584  1.00  0.00     0.025 C 
HETATM   16  C8  UNL     1       5.206  -3.761   1.117  1.00  0.00     0.025 C 
HETATM   17  C9  UNL     1       5.354  -5.833  -0.191  1.00  0.00     0.025 C 
ENDBRANCH  12  14
ENDBRANCH  11  12
ENDBRANCH  10  11
ENDBRANCH   5  10
ENDBRANCH   1   5
BRANCH   3  18
HETATM   18  C11 UNL     1       7.605 -11.320   2.764  1.00  0.00     0.097 C 
HETATM   19  C12 UNL     1       8.669 -11.776   3.731  1.00  0.00     0.035 C 
HETATM   20  C13 UNL     1       9.401 -12.825   2.888  1.00  0.00     0.129 C 
HETATM   21  N2  UNL     1       8.309 -13.499   2.178  1.00  0.00    -0.327 N 
HETATM   22  C14 UNL     1       8.362 -14.817   1.696  1.00  0.00     0.363 C 
HETATM   23  C19 UNL     1       7.192 -12.582   2.067  1.00  0.00     0.142 C 
HETATM   24  O6  UNL     1       7.376 -15.305   1.101  1.00  0.00    -0.238 OA
BRANCH  22  25
HETATM   25  O7  UNL     1       9.465 -15.647   1.836  1.00  0.00    -0.294 OA
BRANCH  25  26
HETATM   26  C15 UNL     1       9.417 -16.778   2.631  1.00  0.00     0.061 C 
HETATM   27  C16 UNL     1       9.053 -17.963   1.735  1.00  0.00     0.046 C 
HETATM   28  C17 UNL     1      10.776 -17.108   3.224  1.00  0.00     0.046 C 
HETATM   29  C18 UNL     1       8.422 -16.743   3.742  1.00  0.00     0.046 C 
ENDBRANCH  25  26
ENDBRANCH  22  25
ENDBRANCH   3  18
TORSDOF 10
ENDMDL
MODEL 5
REMARK VINA RESULT: -6.080776777      1.772      4.440
REMARK  10 active torsions:
REMARK  status: ('A' for Active; 'I' for Inactive)
REMARK    1  A    between atoms: O1_2  and  C2_3 
REMARK    2  A    between atoms: C2_3  and  C3_5 
REMARK    3  A    between atoms: C3_5  and  C4_6 
REMARK    4  A    between atoms: C3_5  and  N1_14 
REMARK    5  A    between atoms: C4_6  and  O3_7 
REMARK    6  A    between atoms: O3_7  and  C5_8 
REMARK    7  A    between atoms: C5_8  and  C6_10 
REMARK       I    between atoms: N1_14  and  C10_16 
REMARK    8  A    between atoms: C10_16  and  C11_18 
REMARK       I    between atoms: N2_21  and  C14_22 
REMARK    9  A    between atoms: C14_22  and  O7_24 
REMARK   10  A    between atoms: O7_24  and  C15_25 
ROOT
HETATM    1  N1  UNL     1       8.164 -11.099   4.566  1.00  0.00    -0.345 N 
ATOM      2  H1  UNL     1       8.802 -11.024   3.774  1.00  0.00     0.163 HD
HETATM    3  C10 UNL     1       8.697 -11.303   5.867  1.00  0.00     0.224 C 
HETATM    4  O5  UNL     1       7.877 -11.393   6.837  1.00  0.00    -0.273 OA
ENDROOT
BRANCH   1   5
HETATM    5  C3  UNL     1       6.736 -10.993   4.334  1.00  0.00     0.208 C 
BRANCH   5   6
HETATM    6  C2  UNL     1       6.397  -9.543   4.190  1.00  0.00     0.283 C 
HETATM    7  O2  UNL     1       6.630  -8.741   5.114  1.00  0.00    -0.263 OA
BRANCH   6   8
HETATM    8  O1  UNL     1       5.816  -9.129   2.991  1.00  0.00    -0.325 OA
HETATM    9  C1  UNL     1       5.336  -7.822   2.905  1.00  0.00     0.213 C 
ENDBRANCH   6   8
ENDBRANCH   5   6
BRANCH   5  10
HETATM   10  C4  UNL     1       6.423 -11.767   3.099  1.00  0.00     0.214 C 
BRANCH  10  11
HETATM   11  O3  UNL     1       7.508 -12.149   2.320  1.00  0.00    -0.318 OA
BRANCH  11  12
HETATM   12  C5  UNL     1       7.896 -13.448   2.019  1.00  0.00     0.266 C 
HETATM   13  O4  UNL     1       7.062 -14.142   1.385  1.00  0.00    -0.264 OA
BRANCH  12  14
HETATM   14  C6  UNL     1       9.190 -14.021   2.395  1.00  0.00     0.037 C 
HETATM   15  C7  UNL     1       9.313 -14.335   3.871  1.00  0.00     0.025 C 
HETATM   16  C8  UNL     1      10.283 -13.027   2.069  1.00  0.00     0.025 C 
HETATM   17  C9  UNL     1       9.491 -15.313   1.655  1.00  0.00     0.025 C 
ENDBRANCH  12  14
ENDBRANCH  11  12
ENDBRANCH  10  11
ENDBRANCH   5  10
ENDBRANCH   1   5
BRANCH   3  18
HETATM   18  C11 UNL     1      10.133 -11.417   6.148  1.00  0.00     0.097 C 
HETATM   19  C12 UNL     1      10.706 -10.124   6.672  1.00  0.00     0.035 C 
HETATM   20  C13 UNL     1      12.001 -10.619   7.324  1.00  0.00     0.129 C 
HETATM   21  N2  UNL     1      11.595 -11.884   7.947  1.00  0.00    -0.327 N 
HETATM   22  C14 UNL     1      12.224 -12.466   9.060  1.00  0.00     0.363 C 
HETATM   23  C19 UNL     1      10.454 -12.411   7.224  1.00  0.00     0.142 C 
HETATM   24  O6  UNL     1      11.803 -13.550   9.519  1.00  0.00    -0.238 OA
BRANCH  22  25
HETATM   25  O7  UNL     1      13.315 -11.908   9.709  1.00  0.00    -0.294 OA
BRANCH  25  26
HETATM   26  C15 UNL     1      13.151 -10.966  10.710  1.00  0.00     0.061 C 
HETATM   27  C16 UNL     1      13.972 -11.423  11.918  1.00  0.00     0.046 C 
HETATM   28  C17 UNL     1      13.718  -9.615  10.311  1.00  0.00     0.046 C 
HETATM   29  C18 UNL     1      11.751 -10.762  11.180  1.00  0.00     0.046 C 
ENDBRANCH  25  26
ENDBRANCH  22  25
ENDBRANCH   3  18
TORSDOF 10
ENDMDL
