MODEL 1
REMARK VINA RESULT: -8.001016863      0.000      0.000
REMARK  6 active torsions:
REMARK  status: ('A' for Active; 'I' for Inactive)
REMARK    1  A    between atoms: O1_2  and  C2_3 
REMARK       I    between atoms: C2_3  and  N1_5 
REMARK    2  A    between atoms: N2_9  and  C5_10 
REMARK    3  A    between atoms: C5_10  and  C6_11 
REMARK    4  A    between atoms: C6_11  and  N3_12 
REMARK    5  A    between atoms: N3_12  and  C7_15 
REMARK    6  A    between atoms: C7_15  and  C8_16 
ROOT
HETATM    1  N3  UNL     1       6.758  -9.844   3.733  1.00  0.00    -0.074 N 
ATOM      2  H31 UNL     1       5.851  -9.469   3.455  1.00  0.00     0.277 HD
ATOM      3  H32 UNL     1       7.274  -8.965   3.762  1.00  0.00     0.277 HD
ENDROOT
BRANCH   1   4
HETATM    4  C6  UNL     1       7.285 -10.748   2.773  1.00  0.00     0.248 C 
BRANCH   4   5
HETATM    5  C5  UNL     1       6.591 -12.076   2.770  1.00  0.00     0.148 C 
BRANCH   5   6
HETATM    6  N2  UNL     1       7.673 -13.041   2.409  1.00  0.00    -0.194 NA
HETATM    7  O3  UNL     1       8.716 -12.299   1.902  1.00  0.00    -0.302 OA
HETATM    8  C4  UNL     1       9.890 -12.919   2.263  1.00  0.00     0.213 C 
HETATM    9  C3  UNL     1       9.625 -14.163   3.114  1.00  0.00     0.156 C 
HETATM   10  N1  UNL     1       9.016 -15.205   2.331  1.00  0.00    -0.325 N 
HETATM   11  C2  UNL     1       9.649 -16.491   2.469  1.00  0.00     0.362 C 
HETATM   12  C21 UNL     1       7.890 -15.194   1.435  1.00  0.00     0.145 C 
HETATM   13  O2  UNL     1       9.261 -17.513   1.864  1.00  0.00    -0.238 OA
HETATM   14  C20 UNL     1       7.204 -13.846   1.325  1.00  0.00     0.140 C 
BRANCH  11  15
HETATM   15  O1  UNL     1      10.754 -16.637   3.316  1.00  0.00    -0.309 OA
HETATM   16  C1  UNL     1      10.612 -16.958   4.678  1.00  0.00     0.215 C 
ENDBRANCH  11  15
ENDBRANCH   5   6
ENDBRANCH   4   5
ENDBRANCH   1   4
BRANCH   1  17
HETATM   17  C7  UNL     1       6.712 -10.488   5.004  1.00  0.00     0.237 C 
BRANCH  17  18
HETATM   18  C8  UNL     1       7.967 -10.408   5.805  1.00  0.00     0.011 C 
HETATM   19  C9  UNL     1       8.369 -11.822   6.170  1.00  0.00     0.011 C 
HETATM   20  C10 UNL     1       9.794 -12.142   6.000  1.00  0.00     0.044 C 
HETATM   21  C11 UNL     1      10.781 -11.040   6.144  1.00  0.00     0.058 C 
HETATM   22  N4  UNL     1      11.013 -10.529   7.427  1.00  0.00    -0.388 N 
HETATM   23  C12 UNL     1      12.404 -10.375   7.768  1.00  0.00     0.122 C 
HETATM   24  C17 UNL     1      10.077  -9.748   8.104  1.00  0.00     0.087 C 
HETATM   25  C13 UNL     1      12.764  -8.931   7.880  1.00  0.00     0.020 C 
HETATM   26  C14 UNL     1      12.001  -8.391   9.063  1.00  0.00     0.008 C 
HETATM   27  C15 UNL     1      10.660  -8.976   9.276  1.00  0.00     0.004 C 
HETATM   28  C16 UNL     1      10.581  -9.819  10.549  1.00  0.00     0.012 C 
HETATM   29  C18 UNL     1       9.199  -8.829   7.288  1.00  0.00     0.026 C 
HETATM   30  C19 UNL     1       7.855  -9.463   6.928  1.00  0.00     0.008 C 
ENDBRANCH  17  18
ENDBRANCH   1  17
TORSDOF 6
ENDMDL
MODEL 2
REMARK VINA RESULT: -7.891488356      0.854      2.006
REMARK  6 active torsions:
REMARK  status: ('A' for Active; 'I' for Inactive)
REMARK    1  A    between atoms: O1_2  and  C2_3 
REMARK       I    between atoms: C2_3  and  N1_5 
REMARK    2  A    between atoms: N2_9  and  C5_10 
REMARK    3  A    between atoms: C5_10  and  C6_11 
REMARK    4  A    between atoms: C6_11  and  N3_12 
REMARK    5  A    between atoms: N3_12  and  C7_15 
REMARK    6  A    between atoms: C7_15  and  C8_16 
ROOT
HETATM    1  N3  UNL     1       6.688  -9.912   3.822  1.00  0.00    -0.074 N 
ATOM      2  H31 UNL     1       5.811  -9.434   3.619  1.00  0.00     0.277 HD
ATOM      3  H32 UNL     1       7.269  -9.088   3.978  1.00  0.00     0.277 HD
ENDROOT
BRANCH   1   4
HETATM    4  C6  UNL     1       7.142 -10.693   2.725  1.00  0.00     0.248 C 
BRANCH   4   5
HETATM    5  C5  UNL     1       6.475 -12.031   2.638  1.00  0.00     0.148 C 
BRANCH   5   6
HETATM    6  N2  UNL     1       7.599 -12.970   2.347  1.00  0.00    -0.194 NA
HETATM    7  O3  UNL     1       8.638 -12.211   1.859  1.00  0.00    -0.302 OA
HETATM    8  C4  UNL     1       9.815 -12.781   2.283  1.00  0.00     0.213 C 
HETATM    9  C3  UNL     1       9.557 -14.008   3.159  1.00  0.00     0.156 C 
HETATM   10  N1  UNL     1       9.011 -15.092   2.385  1.00  0.00    -0.325 N 
HETATM   11  C2  UNL     1       9.678 -16.352   2.586  1.00  0.00     0.362 C 
HETATM   12  C21 UNL     1       7.921 -15.142   1.447  1.00  0.00     0.145 C 
HETATM   13  O2  UNL     1       9.346 -17.403   1.996  1.00  0.00    -0.238 OA
HETATM   14  C20 UNL     1       7.198 -13.821   1.271  1.00  0.00     0.140 C 
BRANCH  11  15
HETATM   15  O1  UNL     1      10.753 -16.438   3.477  1.00  0.00    -0.309 OA
HETATM   16  C1  UNL     1      10.596 -16.921   4.790  1.00  0.00     0.215 C 
ENDBRANCH  11  15
ENDBRANCH   5   6
ENDBRANCH   4   5
ENDBRANCH   1   4
BRANCH   1  17
HETATM   17  C7  UNL     1       6.600 -10.740   4.979  1.00  0.00     0.237 C 
BRANCH  17  18
HETATM   18  C8  UNL     1       7.621 -10.475   6.033  1.00  0.00     0.011 C 
HETATM   19  C9  UNL     1       7.783  -8.974   6.147  1.00  0.00     0.011 C 
HETATM   20  C10 UNL     1       7.826  -8.441   7.516  1.00  0.00     0.044 C 
HETATM   21  C11 UNL     1       8.355  -9.318   8.594  1.00  0.00     0.058 C 
HETATM   22  N4  UNL     1       9.732  -9.576   8.614  1.00  0.00    -0.388 N 
HETATM   23  C12 UNL     1      10.349  -9.430   9.907  1.00  0.00     0.122 C 
HETATM   24  C17 UNL     1      10.355 -10.394   7.673  1.00  0.00     0.087 C 
HETATM   25  C13 UNL     1      10.793 -10.755  10.432  1.00  0.00     0.020 C 
HETATM   26  C14 UNL     1      11.893 -11.230   9.517  1.00  0.00     0.008 C 
HETATM   27  C15 UNL     1      11.739 -10.862   8.093  1.00  0.00     0.004 C 
HETATM   28  C16 UNL     1      12.795  -9.859   7.627  1.00  0.00     0.012 C 
HETATM   29  C18 UNL     1       9.576 -11.567   7.127  1.00  0.00     0.026 C 
HETATM   30  C19 UNL     1       8.859 -11.240   5.816  1.00  0.00     0.008 C 
ENDBRANCH  17  18
ENDBRANCH   1  17
TORSDOF 6
ENDMDL
MODEL 3
REMARK VINA RESULT: -7.729568107      1.048      2.154
REMARK  6 active torsions:
REMARK  status: ('A' for Active; 'I' for Inactive)
REMARK    1  A    between atoms: O1_2  and  C2_3 
REMARK       I    between atoms: C2_3  and  N1_5 
REMARK    2  A    between atoms: N2_9  and  C5_10 
REMARK    3  A    between atoms: C5_10  and  C6_11 
REMARK    4  A    between atoms: C6_11  and  N3_12 
REMARK    5  A    between atoms: N3_12  and  C7_15 
REMARK    6  A    between atoms: C7_15  and  C8_16 
ROOT
HETATM    1  N3  UNL     1       7.897 -10.988   4.600  1.00  0.00    -0.074 N 
ATOM      2  H31 UNL     1       7.795  -9.999   4.828  1.00  0.00     0.277 HD
ATOM      3  H32 UNL     1       8.605 -10.894   3.871  1.00  0.00     0.277 HD
ENDROOT
BRANCH   1   4
HETATM    4  C6  UNL     1       6.691 -11.556   4.111  1.00  0.00     0.248 C 
BRANCH   4   5
HETATM    5  C5  UNL     1       6.651 -11.662   2.618  1.00  0.00     0.148 C 
BRANCH   5   6
HETATM    6  N2  UNL     1       7.680 -12.699   2.308  1.00  0.00    -0.194 NA
HETATM    7  O3  UNL     1       8.747 -12.045   1.736  1.00  0.00    -0.302 OA
HETATM    8  C4  UNL     1       9.898 -12.692   2.122  1.00  0.00     0.213 C 
HETATM    9  C3  UNL     1       9.592 -13.861   3.061  1.00  0.00     0.156 C 
HETATM   10  N1  UNL     1       8.921 -14.925   2.361  1.00  0.00    -0.325 N 
HETATM   11  C2  UNL     1       9.497 -16.227   2.579  1.00  0.00     0.362 C 
HETATM   12  C21 UNL     1       7.781 -14.922   1.484  1.00  0.00     0.145 C 
HETATM   13  O2  UNL     1       9.051 -17.269   2.052  1.00  0.00    -0.238 OA
HETATM   14  C20 UNL     1       7.156 -13.554   1.291  1.00  0.00     0.140 C 
BRANCH  11  15
HETATM   15  O1  UNL     1      10.609 -16.366   3.417  1.00  0.00    -0.309 OA
HETATM   16  C1  UNL     1      10.500 -16.887   4.720  1.00  0.00     0.215 C 
ENDBRANCH  11  15
ENDBRANCH   5   6
ENDBRANCH   4   5
ENDBRANCH   1   4
BRANCH   1  17
HETATM   17  C7  UNL     1       8.359 -11.755   5.709  1.00  0.00     0.237 C 
BRANCH  17  18
HETATM   18  C8  UNL     1       9.298 -11.048   6.627  1.00  0.00     0.011 C 
HETATM   19  C9  UNL     1       8.743  -9.660   6.870  1.00  0.00     0.011 C 
HETATM   20  C10 UNL     1       8.765  -9.202   8.267  1.00  0.00     0.044 C 
HETATM   21  C11 UNL     1       9.827  -9.733   9.162  1.00  0.00     0.058 C 
HETATM   22  N4  UNL     1      11.140  -9.289   8.959  1.00  0.00    -0.388 N 
HETATM   23  C12 UNL     1      11.829  -8.888  10.158  1.00  0.00     0.122 C 
HETATM   24  C17 UNL     1      11.903  -9.681   7.860  1.00  0.00     0.087 C 
HETATM   25  C13 UNL     1      12.934  -9.840  10.476  1.00  0.00     0.020 C 
HETATM   26  C14 UNL     1      13.948  -9.701   9.368  1.00  0.00     0.008 C 
HETATM   27  C15 UNL     1      13.391  -9.425   8.027  1.00  0.00     0.004 C 
HETATM   28  C16 UNL     1      13.743  -8.026   7.520  1.00  0.00     0.012 C 
HETATM   29  C18 UNL     1      11.694 -11.073   7.313  1.00  0.00     0.026 C 
HETATM   30  C19 UNL     1      10.691 -11.110   6.158  1.00  0.00     0.008 C 
ENDBRANCH  17  18
ENDBRANCH   1  17
TORSDOF 6
ENDMDL
MODEL 4
REMARK VINA RESULT: -7.575204362      1.683      2.646
REMARK  6 active torsions:
REMARK  status: ('A' for Active; 'I' for Inactive)
REMARK    1  A    between atoms: O1_2  and  C2_3 
REMARK       I    between atoms: C2_3  and  N1_5 
REMARK    2  A    between atoms: N2_9  and  C5_10 
REMARK    3  A    between atoms: C5_10  and  C6_11 
REMARK    4  A    between atoms: C6_11  and  N3_12 
REMARK    5  A    between atoms: N3_12  and  C7_15 
REMARK    6  A    between atoms: C7_15  and  C8_16 
ROOT
HETATM    1  N3  UNL     1       7.513 -11.389   4.593  1.00  0.00    -0.074 N 
ATOM      2  H31 UNL     1       8.206 -12.127   4.475  1.00  0.00     0.277 HD
ATOM      3  H32 UNL     1       6.791 -11.941   5.056  1.00  0.00     0.277 HD
ENDROOT
BRANCH   1   4
HETATM    4  C6  UNL     1       7.073 -10.859   3.350  1.00  0.00     0.248 C 
BRANCH   4   5
HETATM    5  C5  UNL     1       6.452 -11.888   2.457  1.00  0.00     0.148 C 
BRANCH   5   6
HETATM    6  N2  UNL     1       7.561 -12.859   2.212  1.00  0.00    -0.194 NA
HETATM    7  O3  UNL     1       8.612 -12.141   1.689  1.00  0.00    -0.302 OA
HETATM    8  C4  UNL     1       9.780 -12.711   2.141  1.00  0.00     0.213 C 
HETATM    9  C3  UNL     1       9.500 -13.891   3.074  1.00  0.00     0.156 C 
HETATM   10  N1  UNL     1       8.936 -15.000   2.351  1.00  0.00    -0.325 N 
HETATM   11  C2  UNL     1       9.581 -16.261   2.613  1.00  0.00     0.362 C 
HETATM   12  C21 UNL     1       7.846 -15.077   1.416  1.00  0.00     0.145 C 
HETATM   13  O2  UNL     1       9.232 -17.333   2.073  1.00  0.00    -0.238 OA
HETATM   14  C20 UNL     1       7.146 -13.753   1.177  1.00  0.00     0.140 C 
BRANCH  11  15
HETATM   15  O1  UNL     1      10.654 -16.323   3.508  1.00  0.00    -0.309 OA
HETATM   16  C1  UNL     1      10.527 -16.896   4.787  1.00  0.00     0.215 C 
ENDBRANCH  11  15
ENDBRANCH   5   6
ENDBRANCH   4   5
ENDBRANCH   1   4
BRANCH   1  17
HETATM   17  C7  UNL     1       7.989 -10.323   5.412  1.00  0.00     0.237 C 
BRANCH  17  18
HETATM   18  C8  UNL     1       8.855 -10.736   6.554  1.00  0.00     0.011 C 
HETATM   19  C9  UNL     1       9.958  -9.706   6.688  1.00  0.00     0.011 C 
HETATM   20  C10 UNL     1      10.245  -9.257   8.057  1.00  0.00     0.044 C 
HETATM   21  C11 UNL     1       9.988 -10.203   9.175  1.00  0.00     0.058 C 
HETATM   22  N4  UNL     1      10.848 -11.300   9.317  1.00  0.00    -0.388 N 
HETATM   23  C12 UNL     1      11.315 -11.523  10.662  1.00  0.00     0.122 C 
HETATM   24  C17 UNL     1      10.841 -12.378   8.433  1.00  0.00     0.087 C 
HETATM   25  C13 UNL     1      10.738 -12.782  11.219  1.00  0.00     0.020 C 
HETATM   26  C14 UNL     1      11.312 -13.912  10.404  1.00  0.00     0.008 C 
HETATM   27  C15 UNL     1      11.539 -13.615   8.973  1.00  0.00     0.004 C 
HETATM   28  C16 UNL     1      13.024 -13.580   8.608  1.00  0.00     0.012 C 
HETATM   29  C18 UNL     1       9.523 -12.779   7.815  1.00  0.00     0.026 C 
HETATM   30  C19 UNL     1       9.293 -12.136   6.446  1.00  0.00     0.008 C 
ENDBRANCH  17  18
ENDBRANCH   1  17
TORSDOF 6
ENDMDL
MODEL 5
REMARK VINA RESULT: -7.541737206      0.811      1.091
REMARK  6 active torsions:
REMARK  status: ('A' for Active; 'I' for Inactive)
REMARK    1  A    between atoms: O1_2  and  C2_3 
REMARK       I    between atoms: C2_3  and  N1_5 
REMARK    2  A    between atoms: N2_9  and  C5_10 
REMARK    3  A    between atoms: C5_10  and  C6_11 
REMARK    4  A    between atoms: C6_11  and  N3_12 
REMARK    5  A    between atoms: N3_12  and  C7_15 
REMARK    6  A    between atoms: C7_15  and  C8_16 
ROOT
HETATM    1  N3  UNL     1       7.075 -10.395   4.268  1.00  0.00    -0.074 N 
ATOM      2  H31 UNL     1       6.108 -10.331   4.586  1.00  0.00     0.277 HD
ATOM      3  H32 UNL     1       7.344  -9.425   4.434  1.00  0.00     0.277 HD
ENDROOT
BRANCH   1   4
HETATM    4  C6  UNL     1       7.169 -10.754   2.897  1.00  0.00     0.248 C 
BRANCH   4   5
HETATM    5  C5  UNL     1       6.476 -12.043   2.577  1.00  0.00     0.148 C 
BRANCH   5   6
HETATM    6  N2  UNL     1       7.598 -12.988   2.296  1.00  0.00    -0.194 NA
HETATM    7  O3  UNL     1       8.637 -12.237   1.796  1.00  0.00    -0.302 OA
HETATM    8  C4  UNL     1       9.815 -12.804   2.225  1.00  0.00     0.213 C 
HETATM    9  C3  UNL     1       9.555 -14.019   3.118  1.00  0.00     0.156 C 
HETATM   10  N1  UNL     1       9.006 -15.112   2.360  1.00  0.00    -0.325 N 
HETATM   11  C2  UNL     1       9.671 -16.371   2.576  1.00  0.00     0.362 C 
HETATM   12  C21 UNL     1       7.914 -15.173   1.425  1.00  0.00     0.145 C 
HETATM   13  O2  UNL     1       9.336 -17.429   2.002  1.00  0.00    -0.238 OA
HETATM   14  C20 UNL     1       7.194 -13.853   1.232  1.00  0.00     0.140 C 
BRANCH  11  15
HETATM   15  O1  UNL     1      10.747 -16.447   3.467  1.00  0.00    -0.309 OA
HETATM   16  C1  UNL     1      10.603 -16.958   4.770  1.00  0.00     0.215 C 
ENDBRANCH  11  15
ENDBRANCH   5   6
ENDBRANCH   4   5
ENDBRANCH   1   4
BRANCH   1  17
HETATM   17  C7  UNL     1       7.842 -11.311   5.045  1.00  0.00     0.237 C 
BRANCH  17  18
HETATM   18  C8  UNL     1       8.708 -10.693   6.089  1.00  0.00     0.011 C 
HETATM   19  C9  UNL     1       9.717 -11.735   6.525  1.00  0.00     0.011 C 
HETATM   20  C10 UNL     1      11.103 -11.264   6.655  1.00  0.00     0.044 C 
HETATM   21  C11 UNL     1      11.328  -9.836   7.004  1.00  0.00     0.058 C 
HETATM   22  N4  UNL     1      11.030  -9.424   8.309  1.00  0.00    -0.388 N 
HETATM   23  C12 UNL     1      12.051  -8.622   8.932  1.00  0.00     0.122 C 
HETATM   24  C17 UNL     1       9.722  -9.308   8.778  1.00  0.00     0.087 C 
HETATM   25  C13 UNL     1      11.579  -7.219   9.120  1.00  0.00     0.020 C 
HETATM   26  C14 UNL     1      10.453  -7.277  10.119  1.00  0.00     0.008 C 
HETATM   27  C15 UNL     1       9.600  -8.483  10.048  1.00  0.00     0.004 C 
HETATM   28  C16 UNL     1       9.749  -9.383  11.275  1.00  0.00     0.012 C 
HETATM   29  C18 UNL     1       8.654  -8.881   7.800  1.00  0.00     0.026 C 
HETATM   30  C19 UNL     1       7.925 -10.067   7.166  1.00  0.00     0.008 C 
ENDBRANCH  17  18
ENDBRANCH   1  17
TORSDOF 6
ENDMDL
