MODEL 1
REMARK VINA RESULT: -6.554159007      0.000      0.000
REMARK  3 active torsions:
REMARK  status: ('A' for Active; 'I' for Inactive)
REMARK    1  A    between atoms: N1_1  and  C1_4 
REMARK    2  A    between atoms: C2_7  and  C3_8 
REMARK       I    between atoms: C3_8  and  N3_10 
REMARK    3  A    between atoms: N3_10  and  N4_12 
ROOT
HETATM    1  C1  UNL     1      56.339 -29.615   1.205  1.00  0.00     0.691 A 
HETATM    2  N2  UNL     1      56.461 -30.949   1.006  1.00  0.00    -0.180 N 
ATOM      3  H2  UNL     1      56.037 -31.366   0.177  1.00  0.00     0.184 HD
HETATM    4  C2  UNL     1      57.125 -31.743   1.868  1.00  0.00     0.187 A 
HETATM    5  C4  UNL     1      57.676 -31.109   2.974  1.00  0.00     0.293 A 
HETATM    6  O2  UNL     1      58.297 -31.820   3.789  1.00  0.00    -0.264 OA
HETATM    7  N5  UNL     1      57.561 -29.784   3.182  1.00  0.00    -0.250 N 
ATOM      8  H5  UNL     1      57.978 -29.347   4.004  1.00  0.00     0.191 HD
HETATM    9  N6  UNL     1      56.889 -29.052   2.286  1.00  0.00    -0.130 N 
ATOM     10  H6  UNL     1      56.794 -28.047   2.430  1.00  0.00     0.205 HD
ENDROOT
BRANCH   4  11
HETATM   11  C3  UNL     1      57.262 -33.178   1.665  1.00  0.00     0.292 C 
HETATM   12  O1  UNL     1      57.727 -33.617   0.587  1.00  0.00    -0.264 OA
HETATM   13  N3  UNL     1      56.873 -34.078   2.675  1.00  0.00    -0.271 N 
ATOM     14  H3  UNL     1      56.495 -33.706   3.547  1.00  0.00     0.189 HD
BRANCH  13  15
HETATM   15  N4  UNL     1      56.986 -35.457   2.526  1.00  0.00    -0.342 N 
ATOM     16  H42 UNL     1      57.641 -35.808   1.827  1.00  0.00     0.176 HD
ATOM     17  H41 UNL     1      56.441 -36.112   3.087  1.00  0.00     0.176 HD
ENDBRANCH  13  15
ENDBRANCH   4  11
BRANCH   1  18
HETATM   18  N1  UNL     1      55.696 -28.856   0.366  1.00  0.00    -0.233 N 
ATOM     19  H12 UNL     1      55.711 -29.101  -0.623  1.00  0.00     0.174 HD
ATOM     20  H11 UNL     1      55.183 -28.030   0.676  1.00  0.00     0.174 HD
ENDBRANCH   1  18
TORSDOF 3
ENDMDL
MODEL 2
REMARK VINA RESULT: -6.407967545      6.566      8.166
REMARK  3 active torsions:
REMARK  status: ('A' for Active; 'I' for Inactive)
REMARK    1  A    between atoms: N1_1  and  C1_4 
REMARK    2  A    between atoms: C2_7  and  C3_8 
REMARK       I    between atoms: C3_8  and  N3_10 
REMARK    3  A    between atoms: N3_10  and  N4_12 
ROOT
HETATM    1  C1  UNL     1      57.645 -27.895  -6.132  1.00  0.00     0.691 A 
HETATM    2  N2  UNL     1      57.011 -27.825  -4.938  1.00  0.00    -0.180 N 
ATOM      3  H2  UNL     1      56.167 -28.379  -4.794  1.00  0.00     0.184 HD
HETATM    4  C2  UNL     1      57.460 -27.048  -3.934  1.00  0.00     0.187 A 
HETATM    5  C4  UNL     1      58.614 -26.323  -4.199  1.00  0.00     0.293 A 
HETATM    6  O2  UNL     1      59.053 -25.594  -3.287  1.00  0.00    -0.264 OA
HETATM    7  N5  UNL     1      59.253 -26.384  -5.383  1.00  0.00    -0.250 N 
ATOM      8  H5  UNL     1      60.099 -25.839  -5.547  1.00  0.00     0.191 HD
HETATM    9  N6  UNL     1      58.754 -27.177  -6.338  1.00  0.00    -0.130 N 
ATOM     10  H6  UNL     1      59.228 -27.233  -7.239  1.00  0.00     0.205 HD
ENDROOT
BRANCH   4  11
HETATM   11  C3  UNL     1      56.786 -26.965  -2.646  1.00  0.00     0.292 C 
HETATM   12  O1  UNL     1      56.129 -25.942  -2.347  1.00  0.00    -0.264 OA
HETATM   13  N3  UNL     1      56.871 -28.032  -1.731  1.00  0.00    -0.271 N 
ATOM     14  H3  UNL     1      57.410 -28.859  -1.988  1.00  0.00     0.189 HD
BRANCH  13  15
HETATM   15  N4  UNL     1      56.244 -27.998  -0.489  1.00  0.00    -0.342 N 
ATOM     16  H42 UNL     1      56.285 -27.127   0.041  1.00  0.00     0.176 HD
ATOM     17  H41 UNL     1      55.754 -28.806  -0.103  1.00  0.00     0.176 HD
ENDBRANCH  13  15
ENDBRANCH   4  11
BRANCH   1  18
HETATM   18  N1  UNL     1      57.205 -28.649  -7.097  1.00  0.00    -0.233 N 
ATOM     19  H12 UNL     1      57.833 -29.345  -7.497  1.00  0.00     0.174 HD
ATOM     20  H11 UNL     1      56.254 -28.560  -7.456  1.00  0.00     0.174 HD
ENDBRANCH   1  18
TORSDOF 3
ENDMDL
MODEL 3
REMARK VINA RESULT: -6.388565771      6.537      8.320
REMARK  3 active torsions:
REMARK  status: ('A' for Active; 'I' for Inactive)
REMARK    1  A    between atoms: N1_1  and  C1_4 
REMARK    2  A    between atoms: C2_7  and  C3_8 
REMARK       I    between atoms: C3_8  and  N3_10 
REMARK    3  A    between atoms: N3_10  and  N4_12 
ROOT
HETATM    1  C1  UNL     1      58.970 -25.973  -5.619  1.00  0.00     0.691 A 
HETATM    2  N2  UNL     1      58.277 -25.948  -4.456  1.00  0.00    -0.180 N 
ATOM      3  H2  UNL     1      58.336 -25.118  -3.865  1.00  0.00     0.184 HD
HETATM    4  C2  UNL     1      57.513 -26.981  -4.055  1.00  0.00     0.187 A 
HETATM    5  C4  UNL     1      57.479 -28.076  -4.909  1.00  0.00     0.293 A 
HETATM    6  O2  UNL     1      56.779 -29.049  -4.562  1.00  0.00    -0.264 OA
HETATM    7  N5  UNL     1      58.163 -28.114  -6.068  1.00  0.00    -0.250 N 
ATOM      8  H5  UNL     1      58.118 -28.933  -6.674  1.00  0.00     0.191 HD
HETATM    9  N6  UNL     1      58.904 -27.052  -6.407  1.00  0.00    -0.130 N 
ATOM     10  H6  UNL     1      59.427 -27.067  -7.282  1.00  0.00     0.205 HD
ENDROOT
BRANCH   4  11
HETATM   11  C3  UNL     1      56.764 -26.964  -2.806  1.00  0.00     0.292 C 
HETATM   12  O1  UNL     1      56.018 -25.995  -2.536  1.00  0.00    -0.264 OA
HETATM   13  N3  UNL     1      56.875 -28.034  -1.898  1.00  0.00    -0.271 N 
ATOM     14  H3  UNL     1      57.486 -28.817  -2.132  1.00  0.00     0.189 HD
BRANCH  13  15
HETATM   15  N4  UNL     1      56.179 -28.062  -0.694  1.00  0.00    -0.342 N 
ATOM     16  H42 UNL     1      55.928 -27.169  -0.269  1.00  0.00     0.176 HD
ATOM     17  H41 UNL     1      55.919 -28.935  -0.234  1.00  0.00     0.176 HD
ENDBRANCH  13  15
ENDBRANCH   4  11
BRANCH   1  18
HETATM   18  N1  UNL     1      59.705 -24.970  -5.999  1.00  0.00    -0.233 N 
ATOM     19  H12 UNL     1      60.673 -25.148  -6.265  1.00  0.00     0.174 HD
ATOM     20  H11 UNL     1      59.337 -24.019  -6.037  1.00  0.00     0.174 HD
ENDBRANCH   1  18
TORSDOF 3
ENDMDL
MODEL 4
REMARK VINA RESULT: -6.311238430      7.873      9.085
REMARK  3 active torsions:
REMARK  status: ('A' for Active; 'I' for Inactive)
REMARK    1  A    between atoms: N1_1  and  C1_4 
REMARK    2  A    between atoms: C2_7  and  C3_8 
REMARK       I    between atoms: C3_8  and  N3_10 
REMARK    3  A    between atoms: N3_10  and  N4_12 
ROOT
HETATM    1  C1  UNL     1      57.209 -28.225  -4.933  1.00  0.00     0.691 A 
HETATM    2  N2  UNL     1      57.141 -27.146  -4.117  1.00  0.00    -0.180 N 
ATOM      3  H2  UNL     1      56.248 -26.909  -3.686  1.00  0.00     0.184 HD
HETATM    4  C2  UNL     1      58.216 -26.376  -3.858  1.00  0.00     0.187 A 
HETATM    5  C4  UNL     1      59.398 -26.758  -4.479  1.00  0.00     0.293 A 
HETATM    6  O2  UNL     1      60.409 -26.063  -4.257  1.00  0.00    -0.264 OA
HETATM    7  N5  UNL     1      59.477 -27.828  -5.291  1.00  0.00    -0.250 N 
ATOM      8  H5  UNL     1      60.361 -28.083  -5.733  1.00  0.00     0.191 HD
HETATM    9  N6  UNL     1      58.372 -28.551  -5.507  1.00  0.00    -0.130 N 
ATOM     10  H6  UNL     1      58.418 -29.364  -6.120  1.00  0.00     0.205 HD
ENDROOT
BRANCH   4  11
HETATM   11  C3  UNL     1      58.154 -25.214  -2.983  1.00  0.00     0.292 C 
HETATM   12  O1  UNL     1      57.945 -25.363  -1.757  1.00  0.00    -0.264 OA
HETATM   13  N3  UNL     1      58.328 -23.920  -3.509  1.00  0.00    -0.271 N 
ATOM     14  H3  UNL     1      58.497 -23.814  -4.510  1.00  0.00     0.189 HD
BRANCH  13  15
HETATM   15  N4  UNL     1      58.278 -22.781  -2.713  1.00  0.00    -0.342 N 
ATOM     16  H42 UNL     1      57.641 -22.785  -1.916  1.00  0.00     0.176 HD
ATOM     17  H41 UNL     1      58.850 -21.957  -2.902  1.00  0.00     0.176 HD
ENDBRANCH  13  15
ENDBRANCH   4  11
BRANCH   1  18
HETATM   18  N1  UNL     1      56.166 -28.963  -5.177  1.00  0.00    -0.233 N 
ATOM     19  H12 UNL     1      55.547 -28.694  -5.941  1.00  0.00     0.174 HD
ATOM     20  H11 UNL     1      55.959 -29.797  -4.628  1.00  0.00     0.174 HD
ENDBRANCH   1  18
TORSDOF 3
ENDMDL
MODEL 5
REMARK VINA RESULT: -6.307617897      7.701      9.178
REMARK  3 active torsions:
REMARK  status: ('A' for Active; 'I' for Inactive)
REMARK    1  A    between atoms: N1_1  and  C1_4 
REMARK    2  A    between atoms: C2_7  and  C3_8 
REMARK       I    between atoms: C3_8  and  N3_10 
REMARK    3  A    between atoms: N3_10  and  N4_12 
ROOT
HETATM    1  C1  UNL     1      57.299 -27.820  -5.950  1.00  0.00     0.691 A 
HETATM    2  N2  UNL     1      58.415 -27.111  -5.659  1.00  0.00    -0.180 N 
ATOM      3  H2  UNL     1      59.153 -27.043  -6.359  1.00  0.00     0.184 HD
HETATM    4  C2  UNL     1      58.580 -26.491  -4.474  1.00  0.00     0.187 A 
HETATM    5  C4  UNL     1      57.535 -26.625  -3.570  1.00  0.00     0.293 A 
HETATM    6  O2  UNL     1      57.662 -26.062  -2.464  1.00  0.00    -0.264 OA
HETATM    7  N5  UNL     1      56.421 -27.328  -3.848  1.00  0.00    -0.250 N 
ATOM      8  H5  UNL     1      55.670 -27.408  -3.162  1.00  0.00     0.191 HD
HETATM    9  N6  UNL     1      56.319 -27.919  -5.044  1.00  0.00    -0.130 N 
ATOM     10  H6  UNL     1      55.481 -28.454  -5.269  1.00  0.00     0.205 HD
ENDROOT
BRANCH   4  11
HETATM   11  C3  UNL     1      59.776 -25.727  -4.150  1.00  0.00     0.292 C 
HETATM   12  O1  UNL     1      60.903 -26.271  -4.207  1.00  0.00    -0.264 OA
HETATM   13  N3  UNL     1      59.673 -24.375  -3.771  1.00  0.00    -0.271 N 
ATOM     14  H3  UNL     1      58.748 -23.945  -3.729  1.00  0.00     0.189 HD
BRANCH  13  15
HETATM   15  N4  UNL     1      60.787 -23.605  -3.453  1.00  0.00    -0.342 N 
ATOM     16  H42 UNL     1      60.696 -22.926  -2.696  1.00  0.00     0.176 HD
ATOM     17  H41 UNL     1      61.675 -23.700  -3.947  1.00  0.00     0.176 HD
ENDBRANCH  13  15
ENDBRANCH   4  11
BRANCH   1  18
HETATM   18  N1  UNL     1      57.147 -28.414  -7.097  1.00  0.00    -0.233 N 
ATOM     19  H12 UNL     1      57.537 -29.349  -7.217  1.00  0.00     0.174 HD
ATOM     20  H11 UNL     1      56.650 -27.970  -7.870  1.00  0.00     0.174 HD
ENDBRANCH   1  18
TORSDOF 3
ENDMDL
