MODEL 1
REMARK VINA RESULT: -6.604742054      0.000      0.000
REMARK  3 active torsions:
REMARK  status: ('A' for Active; 'I' for Inactive)
REMARK       I    between atoms: C2_2  and  N1_4 
REMARK    1  A    between atoms: N1_4  and  N2_6 
REMARK    2  A    between atoms: N2_6  and  C3_8 
REMARK    3  A    between atoms: N6_17  and  N7_18 
ROOT
HETATM    1  C3  UNL     1      58.101 -31.621   1.216  1.00  0.00     0.747 A 
HETATM    2  N3  UNL     1      58.356 -31.218   0.033  1.00  0.00    -0.124 N 
ATOM      3  H3  UNL     1      58.762 -31.906  -0.601  1.00  0.00     0.206 HD
HETATM    4  N4  UNL     1      58.143 -29.951  -0.489  1.00  0.00    -0.236 N 
ATOM      5  H4  UNL     1      58.389 -29.753  -1.458  1.00  0.00     0.192 HD
HETATM    6  C4  UNL     1      57.580 -28.926   0.326  1.00  0.00     0.355 A 
HETATM    7  O2  UNL     1      57.387 -27.788  -0.139  1.00  0.00    -0.244 OA
HETATM    8  N5  UNL     1      57.272 -29.309   1.669  1.00  0.00    -0.214 N 
ATOM      9  H5  UNL     1      56.867 -28.630   2.313  1.00  0.00     0.194 HD
HETATM   10  N6  UNL     1      57.523 -30.608   2.098  1.00  0.00    -0.020 N 
ENDROOT
BRANCH   1  11
HETATM   11  N2  UNL     1      58.335 -32.924   1.706  1.00  0.00    -0.125 N 
ATOM     12  H2  UNL     1      58.850 -32.967   2.586  1.00  0.00     0.206 HD
BRANCH  11  13
HETATM   13  N1  UNL     1      57.980 -34.130   1.190  1.00  0.00    -0.256 N 
HETATM   14  C2  UNL     1      58.159 -35.438   1.630  1.00  0.00     0.232 C 
HETATM   15  C1  UNL     1      57.606 -36.576   0.778  1.00  0.00     0.119 C 
HETATM   16  O1  UNL     1      58.730 -35.813   2.667  1.00  0.00    -0.272 OA
ATOM     17  H1  UNL     1      57.484 -34.063   0.301  1.00  0.00     0.190 HD
ENDBRANCH  11  13
ENDBRANCH   1  11
BRANCH  10  18
HETATM   18  N7  UNL     1      57.231 -30.973   3.403  1.00  0.00    -0.309 N 
ATOM     19  H72 UNL     1      57.482 -31.903   3.739  1.00  0.00     0.179 HD
ATOM     20  H71 UNL     1      56.759 -30.291   3.996  1.00  0.00     0.179 HD
ENDBRANCH  10  18
TORSDOF 3
ENDMDL
MODEL 2
REMARK VINA RESULT: -6.443932707      2.900      5.859
REMARK  3 active torsions:
REMARK  status: ('A' for Active; 'I' for Inactive)
REMARK       I    between atoms: C2_2  and  N1_4 
REMARK    1  A    between atoms: N1_4  and  N2_6 
REMARK    2  A    between atoms: N2_6  and  C3_8 
REMARK    3  A    between atoms: N6_17  and  N7_18 
ROOT
HETATM    1  C3  UNL     1      56.778 -29.647   1.039  1.00  0.00     0.747 A 
HETATM    2  N3  UNL     1      56.620 -29.453   2.290  1.00  0.00    -0.124 N 
ATOM      3  H3  UNL     1      55.888 -28.796   2.557  1.00  0.00     0.206 HD
HETATM    4  N4  UNL     1      57.332 -30.036   3.328  1.00  0.00    -0.236 N 
ATOM      5  H4  UNL     1      57.108 -29.797   4.294  1.00  0.00     0.192 HD
HETATM    6  C4  UNL     1      58.375 -30.965   3.048  1.00  0.00     0.355 A 
HETATM    7  O2  UNL     1      59.015 -31.491   3.977  1.00  0.00    -0.244 OA
HETATM    8  N5  UNL     1      58.608 -31.228   1.661  1.00  0.00    -0.214 N 
ATOM      9  H5  UNL     1      59.339 -31.882   1.383  1.00  0.00     0.194 HD
HETATM   10  N6  UNL     1      57.838 -30.592   0.694  1.00  0.00    -0.020 N 
ENDROOT
BRANCH   1  11
HETATM   11  N2  UNL     1      56.028 -29.031   0.014  1.00  0.00    -0.125 N 
ATOM     12  H2  UNL     1      55.158 -29.505  -0.227  1.00  0.00     0.206 HD
BRANCH  11  13
HETATM   13  N1  UNL     1      56.285 -27.904  -0.702  1.00  0.00    -0.256 N 
HETATM   14  C2  UNL     1      56.898 -27.683  -1.932  1.00  0.00     0.232 C 
HETATM   15  C1  UNL     1      57.006 -26.251  -2.445  1.00  0.00     0.119 C 
HETATM   16  O1  UNL     1      57.384 -28.533  -2.695  1.00  0.00    -0.272 OA
ATOM     17  H1  UNL     1      55.965 -27.050  -0.246  1.00  0.00     0.190 HD
ENDBRANCH  11  13
ENDBRANCH   1  11
BRANCH  10  18
HETATM   18  N7  UNL     1      58.072 -30.843  -0.650  1.00  0.00    -0.309 N 
ATOM     19  H72 UNL     1      59.026 -30.823  -1.011  1.00  0.00     0.179 HD
ATOM     20  H71 UNL     1      57.269 -31.038  -1.246  1.00  0.00     0.179 HD
ENDBRANCH  10  18
TORSDOF 3
ENDMDL
MODEL 3
REMARK VINA RESULT: -6.436877439      1.935      5.635
REMARK  3 active torsions:
REMARK  status: ('A' for Active; 'I' for Inactive)
REMARK       I    between atoms: C2_2  and  N1_4 
REMARK    1  A    between atoms: N1_4  and  N2_6 
REMARK    2  A    between atoms: N2_6  and  C3_8 
REMARK    3  A    between atoms: N6_17  and  N7_18 
ROOT
HETATM    1  C3  UNL     1      56.626 -30.550   1.362  1.00  0.00     0.747 A 
HETATM    2  N3  UNL     1      56.359 -31.615   0.713  1.00  0.00    -0.124 N 
ATOM      3  H3  UNL     1      55.803 -31.502  -0.134  1.00  0.00     0.206 HD
HETATM    4  N4  UNL     1      56.740 -32.911   1.029  1.00  0.00    -0.236 N 
ATOM      5  H4  UNL     1      56.462 -33.684   0.424  1.00  0.00     0.192 HD
HETATM    6  C4  UNL     1      57.518 -33.165   2.196  1.00  0.00     0.355 A 
HETATM    7  O2  UNL     1      57.863 -34.325   2.482  1.00  0.00    -0.244 OA
HETATM    8  N5  UNL     1      57.852 -32.011   2.974  1.00  0.00    -0.214 N 
ATOM      9  H5  UNL     1      58.406 -32.114   3.824  1.00  0.00     0.194 HD
HETATM   10  N6  UNL     1      57.421 -30.752   2.572  1.00  0.00    -0.020 N 
ENDROOT
BRANCH   1  11
HETATM   11  N2  UNL     1      56.217 -29.248   1.003  1.00  0.00    -0.125 N 
ATOM     12  H2  UNL     1      55.870 -28.678   1.774  1.00  0.00     0.206 HD
BRANCH  11  13
HETATM   13  N1  UNL     1      56.212 -28.636  -0.210  1.00  0.00    -0.256 N 
HETATM   14  C2  UNL     1      56.950 -27.581  -0.742  1.00  0.00     0.232 C 
HETATM   15  C1  UNL     1      56.680 -27.155  -2.181  1.00  0.00     0.119 C 
HETATM   16  O1  UNL     1      57.835 -26.920  -0.174  1.00  0.00    -0.272 OA
ATOM     17  H1  UNL     1      55.532 -29.027  -0.862  1.00  0.00     0.190 HD
ENDBRANCH  11  13
ENDBRANCH   1  11
BRANCH  10  18
HETATM   18  N7  UNL     1      57.740 -29.638   3.333  1.00  0.00    -0.309 N 
ATOM     19  H72 UNL     1      57.661 -29.677   4.349  1.00  0.00     0.179 HD
ATOM     20  H71 UNL     1      58.045 -28.796   2.844  1.00  0.00     0.179 HD
ENDBRANCH  10  18
TORSDOF 3
ENDMDL
MODEL 4
REMARK VINA RESULT: -6.412334242      1.390      5.262
REMARK  3 active torsions:
REMARK  status: ('A' for Active; 'I' for Inactive)
REMARK       I    between atoms: C2_2  and  N1_4 
REMARK    1  A    between atoms: N1_4  and  N2_6 
REMARK    2  A    between atoms: N2_6  and  C3_8 
REMARK    3  A    between atoms: N6_17  and  N7_18 
ROOT
HETATM    1  C3  UNL     1      58.126 -31.938   1.311  1.00  0.00     0.747 A 
HETATM    2  N3  UNL     1      58.275 -33.017   0.648  1.00  0.00    -0.124 N 
ATOM      3  H3  UNL     1      58.756 -32.935  -0.247  1.00  0.00     0.206 HD
HETATM    4  N4  UNL     1      57.856 -34.290   1.006  1.00  0.00    -0.236 N 
ATOM      5  H4  UNL     1      58.037 -35.078   0.385  1.00  0.00     0.192 HD
HETATM    6  C4  UNL     1      57.174 -34.499   2.240  1.00  0.00     0.355 A 
HETATM    7  O2  UNL     1      56.798 -35.639   2.566  1.00  0.00    -0.244 OA
HETATM    8  N5  UNL     1      56.971 -33.327   3.036  1.00  0.00    -0.214 N 
ATOM      9  H5  UNL     1      56.490 -33.397   3.932  1.00  0.00     0.194 HD
HETATM   10  N6  UNL     1      57.430 -32.093   2.587  1.00  0.00    -0.020 N 
ENDROOT
BRANCH   1  11
HETATM   11  N2  UNL     1      58.570 -30.661   0.908  1.00  0.00    -0.125 N 
ATOM     12  H2  UNL     1      59.479 -30.384   1.277  1.00  0.00     0.206 HD
BRANCH  11  13
HETATM   13  N1  UNL     1      57.974 -29.741   0.104  1.00  0.00    -0.256 N 
HETATM   14  C2  UNL     1      56.930 -28.842   0.304  1.00  0.00     0.232 C 
HETATM   15  C1  UNL     1      56.522 -27.929  -0.847  1.00  0.00     0.119 C 
HETATM   16  O1  UNL     1      56.264 -28.679   1.340  1.00  0.00    -0.272 OA
ATOM     17  H1  UNL     1      58.370 -29.702  -0.835  1.00  0.00     0.190 HD
ENDBRANCH  11  13
ENDBRANCH   1  11
BRANCH  10  18
HETATM   18  N7  UNL     1      57.224 -30.959   3.358  1.00  0.00    -0.309 N 
ATOM     19  H72 UNL     1      58.023 -30.440   3.721  1.00  0.00     0.179 HD
ATOM     20  H71 UNL     1      56.262 -30.677   3.544  1.00  0.00     0.179 HD
ENDBRANCH  10  18
TORSDOF 3
ENDMDL
MODEL 5
REMARK VINA RESULT: -6.408106013      2.512      5.889
REMARK  3 active torsions:
REMARK  status: ('A' for Active; 'I' for Inactive)
REMARK       I    between atoms: C2_2  and  N1_4 
REMARK    1  A    between atoms: N1_4  and  N2_6 
REMARK    2  A    between atoms: N2_6  and  C3_8 
REMARK    3  A    between atoms: N6_17  and  N7_18 
ROOT
HETATM    1  C3  UNL     1      56.852 -29.372   0.809  1.00  0.00     0.747 A 
HETATM    2  N3  UNL     1      57.680 -30.192   0.291  1.00  0.00    -0.124 N 
ATOM      3  H3  UNL     1      57.833 -30.106  -0.713  1.00  0.00     0.206 HD
HETATM    4  N4  UNL     1      58.396 -31.188   0.939  1.00  0.00    -0.236 N 
ATOM      5  H4  UNL     1      59.033 -31.783   0.409  1.00  0.00     0.192 HD
HETATM    6  C4  UNL     1      58.244 -31.382   2.343  1.00  0.00     0.355 A 
HETATM    7  O2  UNL     1      58.885 -32.273   2.928  1.00  0.00    -0.244 OA
HETATM    8  N5  UNL     1      57.326 -30.495   2.989  1.00  0.00    -0.214 N 
ATOM      9  H5  UNL     1      57.163 -30.573   3.993  1.00  0.00     0.194 HD
HETATM   10  N6  UNL     1      56.655 -29.527   2.250  1.00  0.00    -0.020 N 
ENDROOT
BRANCH   1  11
HETATM   11  N2  UNL     1      56.144 -28.371   0.110  1.00  0.00    -0.125 N 
ATOM     12  H2  UNL     1      55.427 -27.891   0.655  1.00  0.00     0.206 HD
BRANCH  11  13
HETATM   13  N1  UNL     1      56.267 -27.948  -1.175  1.00  0.00    -0.256 N 
HETATM   14  C2  UNL     1      57.004 -26.927  -1.770  1.00  0.00     0.232 C 
HETATM   15  C1  UNL     1      56.908 -26.743  -3.280  1.00  0.00     0.119 C 
HETATM   16  O1  UNL     1      57.761 -26.119  -1.207  1.00  0.00    -0.272 OA
ATOM     17  H1  UNL     1      55.708 -28.485  -1.837  1.00  0.00     0.190 HD
ENDBRANCH  11  13
ENDBRANCH   1  11
BRANCH  10  18
HETATM   18  N7  UNL     1      55.760 -28.675   2.879  1.00  0.00    -0.309 N 
ATOM     19  H72 UNL     1      54.971 -28.293   2.357  1.00  0.00     0.179 HD
ATOM     20  H71 UNL     1      55.926 -28.447   3.859  1.00  0.00     0.179 HD
ENDBRANCH  10  18
TORSDOF 3
ENDMDL
