MODEL 1
REMARK VINA RESULT: -7.261695686      0.000      0.000
REMARK  2 active torsions:
REMARK  status: ('A' for Active; 'I' for Inactive)
REMARK    1  A    between atoms: N1_1  and  N2_4 
REMARK       I    between atoms: N2_4  and  C1_5 
REMARK    2  A    between atoms: C1_5  and  C2_7 
ROOT
HETATM    1  C2  UNL     1      58.503 -26.640  -4.400  1.00  0.00     0.151 A 
HETATM    2  N3  UNL     1      58.213 -25.452  -3.874  1.00  0.00    -0.301 N 
ATOM      3  H3  UNL     1      58.520 -24.600  -4.343  1.00  0.00     0.171 HD
HETATM    4  C3  UNL     1      57.504 -25.369  -2.708  1.00  0.00     0.327 A 
HETATM    5  O2  UNL     1      57.215 -24.255  -2.187  1.00  0.00    -0.247 OA
HETATM    6  N4  UNL     1      57.086 -26.471  -2.074  1.00  0.00    -0.274 N 
ATOM      7  H4  UNL     1      56.556 -26.401  -1.205  1.00  0.00     0.173 HD
HETATM    8  C4  UNL     1      57.381 -27.686  -2.609  1.00  0.00     0.276 A 
HETATM    9  O3  UNL     1      56.987 -28.712  -2.001  1.00  0.00    -0.266 OA
HETATM   10  C5  UNL     1      58.091 -27.787  -3.775  1.00  0.00     0.147 A 
HETATM   11  N5  UNL     1      58.403 -29.077  -4.317  1.00  0.00    -0.094 NA
ENDROOT
BRANCH   1  12
HETATM   12  C1  UNL     1      59.257 -26.771  -5.674  1.00  0.00     0.363 C 
HETATM   13  N2  UNL     1      60.587 -27.126  -5.592  1.00  0.00    -0.287 NA
HETATM   14  O1  UNL     1      58.602 -26.544  -6.749  1.00  0.00    -0.247 OA
BRANCH  13  15
HETATM   15  N1  UNL     1      61.839 -27.460  -5.515  1.00  0.00    -0.276 N 
ATOM     16  H12 UNL     1      60.849 -27.218  -5.574  1.00  0.00     0.191 HD
ATOM     17  H11 UNL     1      62.823 -27.722  -5.455  1.00  0.00     0.191 HD
ENDBRANCH  13  15
ENDBRANCH   1  12
TORSDOF 2
ENDMDL
MODEL 2
REMARK VINA RESULT: -7.114665751      1.553      1.773
REMARK  2 active torsions:
REMARK  status: ('A' for Active; 'I' for Inactive)
REMARK    1  A    between atoms: N1_1  and  N2_4 
REMARK       I    between atoms: N2_4  and  C1_5 
REMARK    2  A    between atoms: C1_5  and  C2_7 
ROOT
HETATM    1  C2  UNL     1      58.133 -26.958  -4.055  1.00  0.00     0.151 A 
HETATM    2  N3  UNL     1      57.990 -25.709  -3.621  1.00  0.00    -0.301 N 
ATOM      3  H3  UNL     1      58.282 -24.930  -4.211  1.00  0.00     0.171 HD
HETATM    4  C3  UNL     1      57.454 -25.464  -2.387  1.00  0.00     0.327 A 
HETATM    5  O2  UNL     1      57.308 -24.287  -1.951  1.00  0.00    -0.247 OA
HETATM    6  N4  UNL     1      57.060 -26.467  -1.594  1.00  0.00    -0.274 N 
ATOM      7  H4  UNL     1      56.659 -26.277  -0.676  1.00  0.00     0.173 HD
HETATM    8  C4  UNL     1      57.204 -27.746  -2.035  1.00  0.00     0.276 A 
HETATM    9  O3  UNL     1      56.835 -28.679  -1.279  1.00  0.00    -0.266 OA
HETATM   10  C5  UNL     1      57.741 -28.008  -3.267  1.00  0.00     0.147 A 
HETATM   11  N5  UNL     1      57.896 -29.363  -3.709  1.00  0.00    -0.094 NA
ENDROOT
BRANCH   1  12
HETATM   12  C1  UNL     1      58.696 -27.265  -5.396  1.00  0.00     0.363 C 
HETATM   13  N2  UNL     1      57.902 -27.974  -6.272  1.00  0.00    -0.287 NA
HETATM   14  O1  UNL     1      59.881 -26.840  -5.627  1.00  0.00    -0.247 OA
BRANCH  13  15
HETATM   15  N1  UNL     1      57.154 -28.642  -7.097  1.00  0.00    -0.276 N 
ATOM     16  H12 UNL     1      57.725 -28.115  -6.435  1.00  0.00     0.191 HD
ATOM     17  H11 UNL     1      56.567 -29.166  -7.745  1.00  0.00     0.191 HD
ENDBRANCH  13  15
ENDBRANCH   1  12
TORSDOF 2
ENDMDL
MODEL 3
REMARK VINA RESULT: -7.016072292      5.536      7.622
REMARK  2 active torsions:
REMARK  status: ('A' for Active; 'I' for Inactive)
REMARK    1  A    between atoms: N1_1  and  N2_4 
REMARK       I    between atoms: N2_4  and  C1_5 
REMARK    2  A    between atoms: C1_5  and  C2_7 
ROOT
HETATM    1  C2  UNL     1      57.713 -31.143   0.656  1.00  0.00     0.151 A 
HETATM    2  N3  UNL     1      57.767 -32.381   0.170  1.00  0.00    -0.301 N 
ATOM      3  H3  UNL     1      57.926 -32.528  -0.827  1.00  0.00     0.171 HD
HETATM    4  C3  UNL     1      57.609 -33.455   1.000  1.00  0.00     0.327 A 
HETATM    5  O2  UNL     1      57.655 -34.640   0.564  1.00  0.00    -0.247 OA
HETATM    6  N4  UNL     1      57.402 -33.290   2.311  1.00  0.00    -0.274 N 
ATOM      7  H4  UNL     1      57.287 -34.097   2.925  1.00  0.00     0.173 HD
HETATM    8  C4  UNL     1      57.347 -32.026   2.812  1.00  0.00     0.276 A 
HETATM    9  O3  UNL     1      57.147 -31.885   4.044  1.00  0.00    -0.266 OA
HETATM   10  C5  UNL     1      57.502 -30.940   1.994  1.00  0.00     0.147 A 
HETATM   11  N5  UNL     1      57.428 -29.615   2.537  1.00  0.00    -0.094 NA
ENDROOT
BRANCH   1  12
HETATM   12  C1  UNL     1      57.896 -29.950  -0.212  1.00  0.00     0.363 C 
HETATM   13  N2  UNL     1      56.895 -29.001  -0.208  1.00  0.00    -0.287 NA
HETATM   14  O1  UNL     1      58.977 -29.902  -0.894  1.00  0.00    -0.247 OA
BRANCH  13  15
HETATM   15  N1  UNL     1      55.953 -28.109  -0.204  1.00  0.00    -0.276 N 
ATOM     16  H12 UNL     1      56.708 -28.795  -0.212  1.00  0.00     0.191 HD
ATOM     17  H11 UNL     1      55.213 -27.407  -0.200  1.00  0.00     0.191 HD
ENDBRANCH  13  15
ENDBRANCH   1  12
TORSDOF 2
ENDMDL
MODEL 4
REMARK VINA RESULT: -6.991672700      2.352      4.061
REMARK  2 active torsions:
REMARK  status: ('A' for Active; 'I' for Inactive)
REMARK    1  A    between atoms: N1_1  and  N2_4 
REMARK       I    between atoms: N2_4  and  C1_5 
REMARK    2  A    between atoms: C1_5  and  C2_7 
ROOT
HETATM    1  C2  UNL     1      58.429 -28.844  -3.710  1.00  0.00     0.151 A 
HETATM    2  N3  UNL     1      58.339 -28.825  -5.037  1.00  0.00    -0.301 N 
ATOM      3  H3  UNL     1      58.919 -29.453  -5.594  1.00  0.00     0.171 HD
HETATM    4  C3  UNL     1      57.474 -27.968  -5.658  1.00  0.00     0.327 A 
HETATM    5  O2  UNL     1      57.370 -27.930  -6.917  1.00  0.00    -0.247 OA
HETATM    6  N4  UNL     1      56.700 -27.137  -4.952  1.00  0.00    -0.274 N 
ATOM      7  H4  UNL     1      56.056 -26.501  -5.422  1.00  0.00     0.173 HD
HETATM    8  C4  UNL     1      56.789 -27.153  -3.595  1.00  0.00     0.276 A 
HETATM    9  O3  UNL     1      56.060 -26.364  -2.944  1.00  0.00    -0.266 OA
HETATM   10  C5  UNL     1      57.651 -28.004  -2.958  1.00  0.00     0.147 A 
HETATM   11  N5  UNL     1      57.739 -27.999  -1.527  1.00  0.00    -0.094 NA
ENDROOT
BRANCH   1  12
HETATM   12  C1  UNL     1      59.345 -29.773  -2.997  1.00  0.00     0.363 C 
HETATM   13  N2  UNL     1      58.800 -30.579  -2.020  1.00  0.00    -0.287 NA
HETATM   14  O1  UNL     1      60.573 -29.745  -3.353  1.00  0.00    -0.247 OA
BRANCH  13  15
HETATM   15  N1  UNL     1      58.286 -31.338  -1.101  1.00  0.00    -0.276 N 
ATOM     16  H12 UNL     1      58.703 -30.758  -1.830  1.00  0.00     0.191 HD
ATOM     17  H11 UNL     1      57.883 -31.934  -0.379  1.00  0.00     0.191 HD
ENDBRANCH  13  15
ENDBRANCH   1  12
TORSDOF 2
ENDMDL
MODEL 5
REMARK VINA RESULT: -6.985934652      1.617      2.724
REMARK  2 active torsions:
REMARK  status: ('A' for Active; 'I' for Inactive)
REMARK    1  A    between atoms: N1_1  and  N2_4 
REMARK       I    between atoms: N2_4  and  C1_5 
REMARK    2  A    between atoms: C1_5  and  C2_7 
ROOT
HETATM    1  C2  UNL     1      58.729 -25.977  -4.531  1.00  0.00     0.151 A 
HETATM    2  N3  UNL     1      57.600 -26.421  -3.985  1.00  0.00    -0.301 N 
ATOM      3  H3  UNL     1      57.116 -27.220  -4.395  1.00  0.00     0.171 HD
HETATM    4  C3  UNL     1      57.084 -25.810  -2.875  1.00  0.00     0.327 A 
HETATM    5  O2  UNL     1      56.013 -26.211  -2.337  1.00  0.00    -0.247 OA
HETATM    6  N4  UNL     1      57.699 -24.762  -2.316  1.00  0.00    -0.274 N 
ATOM      7  H4  UNL     1      57.309 -24.312  -1.487  1.00  0.00     0.173 HD
HETATM    8  C4  UNL     1      58.854 -24.306  -2.872  1.00  0.00     0.276 A 
HETATM    9  O3  UNL     1      59.419 -23.319  -2.340  1.00  0.00    -0.266 OA
HETATM   10  C5  UNL     1      59.382 -24.906  -3.983  1.00  0.00     0.147 A 
HETATM   11  N5  UNL     1      60.594 -24.403  -4.563  1.00  0.00    -0.094 NA
ENDROOT
BRANCH   1  12
HETATM   12  C1  UNL     1      59.330 -26.624  -5.727  1.00  0.00     0.363 C 
HETATM   13  N2  UNL     1      60.618 -27.102  -5.612  1.00  0.00    -0.287 NA
HETATM   14  O1  UNL     1      58.594 -26.685  -6.772  1.00  0.00    -0.247 OA
BRANCH  13  15
HETATM   15  N1  UNL     1      61.831 -27.551  -5.503  1.00  0.00    -0.276 N 
ATOM     16  H12 UNL     1      60.873 -27.208  -5.570  1.00  0.00     0.191 HD
ATOM     17  H11 UNL     1      62.784 -27.904  -5.418  1.00  0.00     0.191 HD
ENDBRANCH  13  15
ENDBRANCH   1  12
TORSDOF 2
ENDMDL
