MODEL 1
REMARK VINA RESULT: -9.705775804      0.000      0.000
REMARK  8 active torsions:
REMARK  status: ('A' for Active; 'I' for Inactive)
REMARK    1  A    between atoms: C9_9  and  O1_11 
REMARK    2  A    between atoms: O1_11  and  C11_12 
REMARK    3  A    between atoms: C11_12  and  C12_14 
REMARK    4  A    between atoms: C12_14  and  C13_15 
REMARK    5  A    between atoms: C13_15  and  C14_17 
REMARK    6  A    between atoms: C22_27  and  O5_28 
REMARK    7  A    between atoms: O5_28  and  C23_29 
REMARK       I    between atoms: C23_29  and  N2_31 
REMARK    8  A    between atoms: N2_31  and  C24_33 
ROOT
HETATM    1  C14 UNL     1       2.079  34.258  24.111  1.00  0.00     0.103 C 
HETATM    2  C15 UNL     1       0.772  35.016  24.382  1.00  0.00     0.057 C 
HETATM    3  C16 UNL     1      -0.128  34.673  23.224  1.00  0.00     0.004 C 
HETATM    4  C17 UNL     1       0.405  34.993  22.057  1.00  0.00     0.024 C 
HETATM    5  N1  UNL     1      -0.336  34.727  20.875  1.00  0.00    -0.107 NA
HETATM    6  C18 UNL     1       1.719  35.604  21.937  1.00  0.00     0.097 C 
HETATM    7  C19 UNL     1       2.249  36.278  23.184  1.00  0.00     0.126 A 
HETATM    8  O4  UNL     1       3.544  36.210  23.313  1.00  0.00    -0.359 OA
HETATM    9  C20 UNL     1       3.046  35.387  24.191  1.00  0.00     0.103 A 
HETATM   10  C21 UNL     1       3.121  35.934  25.629  1.00  0.00     0.050 C 
HETATM   11  C22 UNL     1       1.126  36.492  24.113  1.00  0.00     0.180 C 
ENDROOT
BRANCH   1  12
HETATM   12  C13 UNL     1       2.355  33.341  25.278  1.00  0.00     0.144 C 
HETATM   13  O3  UNL     1       1.445  32.846  25.889  1.00  0.00    -0.297 OA
BRANCH  12  14
HETATM   14  C12 UNL     1       3.755  33.065  25.650  1.00  0.00     0.190 C 
BRANCH  14  15
HETATM   15  C11 UNL     1       4.191  31.778  25.066  1.00  0.00     0.266 C 
HETATM   16  O2  UNL     1       3.445  31.000  24.463  1.00  0.00    -0.265 OA
BRANCH  15  17
HETATM   17  O1  UNL     1       5.523  31.447  25.215  1.00  0.00    -0.309 OA
BRANCH  17  18
HETATM   18  C9  UNL     1       6.377  30.970  24.204  1.00  0.00     0.075 C 
HETATM   19  C8  UNL     1       5.837  31.346  22.871  1.00  0.00     0.039 C 
HETATM   20  C7  UNL     1       6.898  30.987  21.818  1.00  0.00     0.004 C 
HETATM   21  C6  UNL     1       8.057  31.911  22.058  1.00  0.00     0.010 C 
HETATM   22  C4  UNL     1       8.699  31.535  23.373  1.00  0.00    -0.030 C 
HETATM   23  C3  UNL     1       9.247  32.816  24.021  1.00  0.00     0.043 C 
HETATM   24  C5  UNL     1       9.705  30.438  23.253  1.00  0.00     0.016 C 
HETATM   25  C28 UNL     1       7.751  31.490  24.511  1.00  0.00     0.057 C 
HETATM   26  C2  UNL     1       7.913  32.936  24.687  1.00  0.00    -0.081 C 
HETATM   27  C1  UNL     1       7.192  33.924  25.211  1.00  0.00     0.015 C 
HETATM   28  C10 UNL     1       6.470  29.441  24.310  1.00  0.00     0.047 C 
ENDBRANCH  17  18
ENDBRANCH  15  17
ENDBRANCH  14  15
ENDBRANCH  12  14
ENDBRANCH   1  12
BRANCH  11  29
HETATM   29  O5  UNL     1       0.006  37.136  23.486  1.00  0.00    -0.295 OA
BRANCH  29  30
HETATM   30  C23 UNL     1       0.112  38.384  22.884  1.00  0.00     0.361 C 
HETATM   31  O6  UNL     1      -0.471  38.523  21.780  1.00  0.00    -0.238 OA
HETATM   32  N2  UNL     1       0.816  39.465  23.433  1.00  0.00    -0.329 N 
ATOM     33  H2  UNL     1       1.292  39.361  24.329  1.00  0.00     0.165 HD
BRANCH  32  34
HETATM   34  C24 UNL     1       0.869  40.727  22.731  1.00  0.00     0.024 C 
HETATM   35  C25 UNL     1      -0.487  41.344  22.523  1.00  0.00     0.037 C 
HETATM   36  C26 UNL     1       1.667  41.704  23.603  1.00  0.00     0.037 C 
HETATM   37  C27 UNL     1       1.537  40.587  21.381  1.00  0.00     0.037 C 
ENDBRANCH  32  34
ENDBRANCH  29  30
ENDBRANCH  11  29
TORSDOF 8
ENDMDL
MODEL 2
REMARK VINA RESULT: -9.683063481      2.554      5.009
REMARK  8 active torsions:
REMARK  status: ('A' for Active; 'I' for Inactive)
REMARK    1  A    between atoms: C9_9  and  O1_11 
REMARK    2  A    between atoms: O1_11  and  C11_12 
REMARK    3  A    between atoms: C11_12  and  C12_14 
REMARK    4  A    between atoms: C12_14  and  C13_15 
REMARK    5  A    between atoms: C13_15  and  C14_17 
REMARK    6  A    between atoms: C22_27  and  O5_28 
REMARK    7  A    between atoms: O5_28  and  C23_29 
REMARK       I    between atoms: C23_29  and  N2_31 
REMARK    8  A    between atoms: N2_31  and  C24_33 
ROOT
HETATM    1  C14 UNL     1       5.600  36.926  25.851  1.00  0.00     0.103 C 
HETATM    2  C15 UNL     1       4.642  36.075  25.007  1.00  0.00     0.057 C 
HETATM    3  C16 UNL     1       4.255  36.952  23.845  1.00  0.00     0.004 C 
HETATM    4  C17 UNL     1       3.706  38.091  24.232  1.00  0.00     0.024 C 
HETATM    5  N1  UNL     1       3.290  39.017  23.240  1.00  0.00    -0.107 NA
HETATM    6  C18 UNL     1       3.513  38.431  25.633  1.00  0.00     0.097 C 
HETATM    7  C19 UNL     1       3.529  37.269  26.602  1.00  0.00     0.126 A 
HETATM    8  O4  UNL     1       4.021  37.563  27.773  1.00  0.00    -0.359 OA
HETATM    9  C20 UNL     1       4.920  36.837  27.172  1.00  0.00     0.103 A 
HETATM   10  C21 UNL     1       4.983  35.397  27.715  1.00  0.00     0.050 C 
HETATM   11  C22 UNL     1       3.346  36.022  25.841  1.00  0.00     0.180 C 
ENDROOT
BRANCH   1  12
HETATM   12  C13 UNL     1       6.916  36.197  25.968  1.00  0.00     0.144 C 
HETATM   13  O3  UNL     1       7.953  36.793  25.841  1.00  0.00    -0.297 OA
BRANCH  12  14
HETATM   14  C12 UNL     1       6.905  34.749  26.242  1.00  0.00     0.190 C 
BRANCH  14  15
HETATM   15  C11 UNL     1       7.586  34.021  25.148  1.00  0.00     0.266 C 
HETATM   16  O2  UNL     1       8.810  33.994  24.988  1.00  0.00    -0.265 OA
BRANCH  15  17
HETATM   17  O1  UNL     1       6.780  33.332  24.263  1.00  0.00    -0.309 OA
BRANCH  17  18
HETATM   18  C9  UNL     1       6.952  31.998  23.851  1.00  0.00     0.075 C 
HETATM   19  C8  UNL     1       7.727  31.251  24.876  1.00  0.00     0.039 C 
HETATM   20  C7  UNL     1       7.712  29.766  24.483  1.00  0.00     0.004 C 
HETATM   21  C6  UNL     1       6.291  29.305  24.639  1.00  0.00     0.010 C 
HETATM   22  C4  UNL     1       5.455  29.977  23.575  1.00  0.00    -0.030 C 
HETATM   23  C3  UNL     1       4.051  30.216  24.152  1.00  0.00     0.043 C 
HETATM   24  C5  UNL     1       5.459  29.254  22.268  1.00  0.00     0.016 C 
HETATM   25  C28 UNL     1       5.585  31.453  23.556  1.00  0.00     0.057 C 
HETATM   26  C2  UNL     1       4.568  31.544  24.607  1.00  0.00    -0.081 C 
HETATM   27  C1  UNL     1       4.245  32.422  25.553  1.00  0.00     0.015 C 
HETATM   28  C10 UNL     1       7.711  31.982  22.516  1.00  0.00     0.047 C 
ENDBRANCH  17  18
ENDBRANCH  15  17
ENDBRANCH  14  15
ENDBRANCH  12  14
ENDBRANCH   1  12
BRANCH  11  29
HETATM   29  O5  UNL     1       2.216  36.077  24.955  1.00  0.00    -0.295 OA
BRANCH  29  30
HETATM   30  C23 UNL     1       1.613  34.932  24.451  1.00  0.00     0.361 C 
HETATM   31  O6  UNL     1       2.213  34.351  23.514  1.00  0.00    -0.238 OA
HETATM   32  N2  UNL     1       0.401  34.408  24.925  1.00  0.00    -0.329 N 
ATOM     33  H2  UNL     1      -0.093  34.874  25.686  1.00  0.00     0.165 HD
BRANCH  32  34
HETATM   34  C24 UNL     1      -0.148  33.209  24.335  1.00  0.00     0.024 C 
HETATM   35  C25 UNL     1       0.799  32.041  24.381  1.00  0.00     0.037 C 
HETATM   36  C26 UNL     1      -1.376  32.812  25.165  1.00  0.00     0.037 C 
HETATM   37  C27 UNL     1      -0.557  33.430  22.896  1.00  0.00     0.037 C 
ENDBRANCH  32  34
ENDBRANCH  29  30
ENDBRANCH  11  29
TORSDOF 8
ENDMDL
MODEL 3
REMARK VINA RESULT: -9.634911038      2.372      5.110
REMARK  8 active torsions:
REMARK  status: ('A' for Active; 'I' for Inactive)
REMARK    1  A    between atoms: C9_9  and  O1_11 
REMARK    2  A    between atoms: O1_11  and  C11_12 
REMARK    3  A    between atoms: C11_12  and  C12_14 
REMARK    4  A    between atoms: C12_14  and  C13_15 
REMARK    5  A    between atoms: C13_15  and  C14_17 
REMARK    6  A    between atoms: C22_27  and  O5_28 
REMARK    7  A    between atoms: O5_28  and  C23_29 
REMARK       I    between atoms: C23_29  and  N2_31 
REMARK    8  A    between atoms: N2_31  and  C24_33 
ROOT
HETATM    1  C14 UNL     1       4.575  37.240  25.074  1.00  0.00     0.103 C 
HETATM    2  C15 UNL     1       3.883  36.015  24.460  1.00  0.00     0.057 C 
HETATM    3  C16 UNL     1       3.239  36.520  23.195  1.00  0.00     0.004 C 
HETATM    4  C17 UNL     1       2.395  37.512  23.419  1.00  0.00     0.024 C 
HETATM    5  N1  UNL     1       1.713  38.087  22.313  1.00  0.00    -0.107 NA
HETATM    6  C18 UNL     1       2.140  38.039  24.749  1.00  0.00     0.097 C 
HETATM    7  C19 UNL     1       2.507  37.128  25.901  1.00  0.00     0.126 A 
HETATM    8  O4  UNL     1       2.917  37.759  26.966  1.00  0.00    -0.359 OA
HETATM    9  C20 UNL     1       3.973  37.212  26.436  1.00  0.00     0.103 A 
HETATM   10  C21 UNL     1       4.456  35.973  27.213  1.00  0.00     0.050 C 
HETATM   11  C22 UNL     1       2.673  35.760  25.380  1.00  0.00     0.180 C 
ENDROOT
BRANCH   1  12
HETATM   12  C13 UNL     1       6.046  36.939  25.221  1.00  0.00     0.144 C 
HETATM   13  O3  UNL     1       6.756  37.678  25.851  1.00  0.00    -0.297 OA
BRANCH  12  14
HETATM   14  C12 UNL     1       6.592  35.728  24.582  1.00  0.00     0.190 C 
BRANCH  14  15
HETATM   15  C11 UNL     1       7.412  34.969  25.551  1.00  0.00     0.266 C 
HETATM   16  O2  UNL     1       8.343  35.451  26.202  1.00  0.00    -0.265 OA
BRANCH  15  17
HETATM   17  O1  UNL     1       7.094  33.636  25.725  1.00  0.00    -0.309 OA
BRANCH  17  18
HETATM   18  C9  UNL     1       7.451  32.580  24.866  1.00  0.00     0.075 C 
HETATM   19  C8  UNL     1       7.893  31.409  25.667  1.00  0.00     0.039 C 
HETATM   20  C7  UNL     1       8.075  30.225  24.703  1.00  0.00     0.004 C 
HETATM   21  C6  UNL     1       6.702  29.876  24.204  1.00  0.00     0.010 C 
HETATM   22  C4  UNL     1       6.218  31.001  23.321  1.00  0.00    -0.030 C 
HETATM   23  C3  UNL     1       4.694  31.112  23.480  1.00  0.00     0.043 C 
HETATM   24  C5  UNL     1       6.673  30.884  21.903  1.00  0.00     0.016 C 
HETATM   25  C28 UNL     1       6.278  32.335  23.963  1.00  0.00     0.057 C 
HETATM   26  C2  UNL     1       4.975  32.079  24.585  1.00  0.00    -0.081 C 
HETATM   27  C1  UNL     1       4.326  32.516  25.662  1.00  0.00     0.015 C 
HETATM   28  C10 UNL     1       8.597  33.044  23.954  1.00  0.00     0.047 C 
ENDBRANCH  17  18
ENDBRANCH  15  17
ENDBRANCH  14  15
ENDBRANCH  12  14
ENDBRANCH   1  12
BRANCH  11  29
HETATM   29  O5  UNL     1       1.557  35.335  24.582  1.00  0.00    -0.295 OA
BRANCH  29  30
HETATM   30  C23 UNL     1       1.040  34.049  24.657  1.00  0.00     0.361 C 
HETATM   31  O6  UNL     1       0.517  33.594  23.609  1.00  0.00    -0.238 OA
HETATM   32  N2  UNL     1       1.072  33.254  25.812  1.00  0.00    -0.329 N 
ATOM     33  H2  UNL     1       1.495  33.615  26.667  1.00  0.00     0.165 HD
BRANCH  32  34
HETATM   34  C24 UNL     1       0.508  31.924  25.792  1.00  0.00     0.024 C 
HETATM   35  C25 UNL     1       1.156  31.022  24.779  1.00  0.00     0.037 C 
HETATM   36  C26 UNL     1       0.766  31.297  27.168  1.00  0.00     0.037 C 
HETATM   37  C27 UNL     1      -0.979  31.953  25.517  1.00  0.00     0.037 C 
ENDBRANCH  32  34
ENDBRANCH  29  30
ENDBRANCH  11  29
TORSDOF 8
ENDMDL
MODEL 4
REMARK VINA RESULT: -9.470451326      2.593      5.611
REMARK  8 active torsions:
REMARK  status: ('A' for Active; 'I' for Inactive)
REMARK    1  A    between atoms: C9_9  and  O1_11 
REMARK    2  A    between atoms: O1_11  and  C11_12 
REMARK    3  A    between atoms: C11_12  and  C12_14 
REMARK    4  A    between atoms: C12_14  and  C13_15 
REMARK    5  A    between atoms: C13_15  and  C14_17 
REMARK    6  A    between atoms: C22_27  and  O5_28 
REMARK    7  A    between atoms: O5_28  and  C23_29 
REMARK       I    between atoms: C23_29  and  N2_31 
REMARK    8  A    between atoms: N2_31  and  C24_33 
ROOT
HETATM    1  C14 UNL     1       2.197  38.069  23.359  1.00  0.00     0.103 C 
HETATM    2  C15 UNL     1       2.505  36.568  23.281  1.00  0.00     0.057 C 
HETATM    3  C16 UNL     1       2.518  36.245  21.809  1.00  0.00     0.004 C 
HETATM    4  C17 UNL     1       1.379  36.554  21.214  1.00  0.00     0.024 C 
HETATM    5  N1  UNL     1       1.249  36.303  19.822  1.00  0.00    -0.107 NA
HETATM    6  C18 UNL     1       0.257  37.144  21.927  1.00  0.00     0.097 C 
HETATM    7  C19 UNL     1       0.263  36.963  23.429  1.00  0.00     0.126 A 
HETATM    8  O4  UNL     1      -0.264  37.959  24.085  1.00  0.00    -0.359 OA
HETATM    9  C20 UNL     1       1.022  38.037  24.273  1.00  0.00     0.103 A 
HETATM   10  C21 UNL     1       1.447  37.580  25.681  1.00  0.00     0.050 C 
HETATM   11  C22 UNL     1       1.211  35.888  23.768  1.00  0.00     0.180 C 
ENDROOT
BRANCH   1  12
HETATM   12  C13 UNL     1       3.324  38.755  24.092  1.00  0.00     0.144 C 
HETATM   13  O3  UNL     1       3.116  39.756  24.724  1.00  0.00    -0.297 OA
BRANCH  12  14
HETATM   14  C12 UNL     1       4.677  38.175  24.018  1.00  0.00     0.190 C 
BRANCH  14  15
HETATM   15  C11 UNL     1       5.265  38.085  25.372  1.00  0.00     0.266 C 
HETATM   16  O2  UNL     1       5.668  39.056  26.020  1.00  0.00    -0.265 OA
BRANCH  15  17
HETATM   17  O1  UNL     1       5.357  36.824  25.928  1.00  0.00    -0.309 OA
BRANCH  17  18
HETATM   18  C9  UNL     1       6.424  35.922  25.764  1.00  0.00     0.075 C 
HETATM   19  C8  UNL     1       7.007  35.587  27.090  1.00  0.00     0.039 C 
HETATM   20  C7  UNL     1       8.022  34.453  26.881  1.00  0.00     0.004 C 
HETATM   21  C6  UNL     1       7.226  33.246  26.476  1.00  0.00     0.010 C 
HETATM   22  C4  UNL     1       6.659  33.493  25.097  1.00  0.00    -0.030 C 
HETATM   23  C3  UNL     1       5.299  32.785  25.007  1.00  0.00     0.043 C 
HETATM   24  C5  UNL     1       7.601  33.140  23.993  1.00  0.00     0.016 C 
HETATM   25  C28 UNL     1       5.893  34.756  24.983  1.00  0.00     0.057 C 
HETATM   26  C2  UNL     1       4.706  34.067  25.498  1.00  0.00    -0.081 C 
HETATM   27  C1  UNL     1       3.590  34.425  26.127  1.00  0.00     0.015 C 
HETATM   28  C10 UNL     1       7.496  36.572  24.878  1.00  0.00     0.047 C 
ENDBRANCH  17  18
ENDBRANCH  15  17
ENDBRANCH  14  15
ENDBRANCH  12  14
ENDBRANCH   1  12
BRANCH  11  29
HETATM   29  O5  UNL     1       0.989  34.695  22.998  1.00  0.00    -0.295 OA
BRANCH  29  30
HETATM   30  C23 UNL     1       0.681  33.477  23.591  1.00  0.00     0.361 C 
HETATM   31  O6  UNL     1      -0.060  32.706  22.932  1.00  0.00    -0.238 OA
HETATM   32  N2  UNL     1       1.144  33.078  24.853  1.00  0.00    -0.329 N 
ATOM     33  H2  UNL     1       1.746  33.698  25.395  1.00  0.00     0.165 HD
BRANCH  32  34
HETATM   34  C24 UNL     1       0.769  31.789  25.387  1.00  0.00     0.024 C 
HETATM   35  C25 UNL     1       1.373  30.637  24.631  1.00  0.00     0.037 C 
HETATM   36  C26 UNL     1       1.317  31.709  26.818  1.00  0.00     0.037 C 
HETATM   37  C27 UNL     1      -0.732  31.608  25.406  1.00  0.00     0.037 C 
ENDBRANCH  32  34
ENDBRANCH  29  30
ENDBRANCH  11  29
TORSDOF 8
ENDMDL
MODEL 5
REMARK VINA RESULT: -9.450254661      2.528      4.497
REMARK  8 active torsions:
REMARK  status: ('A' for Active; 'I' for Inactive)
REMARK    1  A    between atoms: C9_9  and  O1_11 
REMARK    2  A    between atoms: O1_11  and  C11_12 
REMARK    3  A    between atoms: C11_12  and  C12_14 
REMARK    4  A    between atoms: C12_14  and  C13_15 
REMARK    5  A    between atoms: C13_15  and  C14_17 
REMARK    6  A    between atoms: C22_27  and  O5_28 
REMARK    7  A    between atoms: O5_28  and  C23_29 
REMARK       I    between atoms: C23_29  and  N2_31 
REMARK    8  A    between atoms: N2_31  and  C24_33 
ROOT
HETATM    1  C14 UNL     1       5.403  36.875  26.222  1.00  0.00     0.103 C 
HETATM    2  C15 UNL     1       5.149  38.140  25.392  1.00  0.00     0.057 C 
HETATM    3  C16 UNL     1       5.226  39.279  26.376  1.00  0.00     0.004 C 
HETATM    4  C17 UNL     1       4.361  39.148  27.368  1.00  0.00     0.024 C 
HETATM    5  N1  UNL     1       4.322  40.151  28.372  1.00  0.00    -0.107 NA
HETATM    6  C18 UNL     1       3.453  38.018  27.472  1.00  0.00     0.097 C 
HETATM    7  C19 UNL     1       3.205  37.251  26.191  1.00  0.00     0.126 A 
HETATM    8  O4  UNL     1       3.001  35.975  26.368  1.00  0.00    -0.359 OA
HETATM    9  C20 UNL     1       4.194  36.087  25.856  1.00  0.00     0.103 A 
HETATM   10  C21 UNL     1       4.244  35.681  24.371  1.00  0.00     0.050 C 
HETATM   11  C22 UNL     1       3.646  38.080  25.057  1.00  0.00     0.180 C 
ENDROOT
BRANCH   1  12
HETATM   12  C13 UNL     1       6.602  36.157  25.653  1.00  0.00     0.144 C 
HETATM   13  O3  UNL     1       7.238  36.652  24.761  1.00  0.00    -0.297 OA
BRANCH  12  14
HETATM   14  C12 UNL     1       6.976  34.845  26.211  1.00  0.00     0.190 C 
BRANCH  14  15
HETATM   15  C11 UNL     1       7.595  34.005  25.162  1.00  0.00     0.266 C 
HETATM   16  O2  UNL     1       8.813  33.885  24.998  1.00  0.00    -0.265 OA
BRANCH  15  17
HETATM   17  O1  UNL     1       6.736  33.321  24.326  1.00  0.00    -0.309 OA
BRANCH  17  18
HETATM   18  C9  UNL     1       6.885  31.991  23.892  1.00  0.00     0.075 C 
HETATM   19  C8  UNL     1       7.661  31.218  24.897  1.00  0.00     0.039 C 
HETATM   20  C7  UNL     1       7.622  29.739  24.483  1.00  0.00     0.004 C 
HETATM   21  C6  UNL     1       6.197  29.295  24.646  1.00  0.00     0.010 C 
HETATM   22  C4  UNL     1       5.358  29.994  23.602  1.00  0.00    -0.030 C 
HETATM   23  C3  UNL     1       3.964  30.244  24.197  1.00  0.00     0.043 C 
HETATM   24  C5  UNL     1       5.339  29.291  22.284  1.00  0.00     0.016 C 
HETATM   25  C28 UNL     1       5.508  31.468  23.603  1.00  0.00     0.057 C 
HETATM   26  C2  UNL     1       4.503  31.557  24.667  1.00  0.00    -0.081 C 
HETATM   27  C1  UNL     1       4.202  32.425  25.629  1.00  0.00     0.015 C 
HETATM   28  C10 UNL     1       7.630  31.985  22.549  1.00  0.00     0.047 C 
ENDBRANCH  17  18
ENDBRANCH  15  17
ENDBRANCH  14  15
ENDBRANCH  12  14
ENDBRANCH   1  12
BRANCH  11  29
HETATM   29  O5  UNL     1       3.102  39.409  25.101  1.00  0.00    -0.295 OA
BRANCH  29  30
HETATM   30  C23 UNL     1       2.373  39.947  24.049  1.00  0.00     0.361 C 
HETATM   31  O6  UNL     1       2.714  41.091  23.659  1.00  0.00    -0.238 OA
HETATM   32  N2  UNL     1       1.305  39.293  23.416  1.00  0.00    -0.329 N 
ATOM     33  H2  UNL     1       1.021  38.363  23.725  1.00  0.00     0.165 HD
BRANCH  32  34
HETATM   34  C24 UNL     1       0.606  39.934  22.326  1.00  0.00     0.024 C 
HETATM   35  C25 UNL     1       1.516  40.342  21.200  1.00  0.00     0.037 C 
HETATM   36  C26 UNL     1      -0.378  38.910  21.747  1.00  0.00     0.037 C 
HETATM   37  C27 UNL     1      -0.149  41.159  22.791  1.00  0.00     0.037 C 
ENDBRANCH  32  34
ENDBRANCH  29  30
ENDBRANCH  11  29
TORSDOF 8
ENDMDL
