MODEL 1
REMARK VINA RESULT: -8.344288565      0.000      0.000
REMARK  8 active torsions:
REMARK  status: ('A' for Active; 'I' for Inactive)
REMARK    1  A    between atoms: C2_2  and  O1_3 
REMARK    2  A    between atoms: O1_3  and  C3_4 
REMARK    3  A    between atoms: C8_9  and  C9_10 
REMARK    4  A    between atoms: C9_10  and  O3_12 
REMARK       I    between atoms: N1_17  and  C13_19 
REMARK    5  A    between atoms: C16_24  and  C17_25 
REMARK    6  A    between atoms: C17_25  and  O6_26 
REMARK    7  A    between atoms: C21_31  and  O7_32 
REMARK    8  A    between atoms: C22_35  and  C23_36 
ROOT
HETATM    1  C3  UNL     1       4.316  37.891  25.355  1.00  0.00     0.161 C 
HETATM    2  C4  UNL     1       5.719  37.763  24.940  1.00  0.00     0.040 C 
HETATM    3  C5  UNL     1       6.296  36.437  24.616  1.00  0.00    -0.007 C 
HETATM    4  C6  UNL     1       5.383  35.310  24.356  1.00  0.00     0.011 C 
HETATM    5  C7  UNL     1       4.999  34.429  25.489  1.00  0.00     0.012 C 
HETATM    6  C8  UNL     1       4.425  33.161  24.874  1.00  0.00     0.166 C 
HETATM    7  C11 UNL     1       5.453  32.350  24.192  1.00  0.00     0.185 C 
HETATM    8  O4  UNL     1       5.265  32.032  22.967  1.00  0.00    -0.290 OA
HETATM    9  C12 UNL     1       6.713  31.817  24.688  1.00  0.00     0.060 C 
HETATM   10  N1  UNL     1       7.264  30.848  24.051  1.00  0.00    -0.311 N 
ATOM     11  H1  UNL     1       6.783  30.500  23.222  1.00  0.00     0.170 HD
HETATM   12  C13 UNL     1       8.481  30.223  24.403  1.00  0.00     0.333 C 
HETATM   13  N2  UNL     1       9.671  30.290  23.624  1.00  0.00    -0.040 NA
HETATM   14  O5  UNL     1       8.535  29.547  25.487  1.00  0.00    -0.251 OA
HETATM   15  C14 UNL     1       7.438  32.281  25.878  1.00  0.00     0.066 C 
HETATM   16  C15 UNL     1       7.359  33.748  26.149  1.00  0.00     0.003 C 
HETATM   17  C16 UNL     1       7.967  34.671  25.167  1.00  0.00     0.018 C 
HETATM   18  C18 UNL     1       7.426  36.069  25.507  1.00  0.00    -0.003 C 
HETATM   19  C19 UNL     1       7.239  36.177  26.982  1.00  0.00     0.015 C 
HETATM   20  C20 UNL     1       6.168  35.292  27.545  1.00  0.00     0.046 C 
HETATM   21  C21 UNL     1       4.958  35.951  28.033  1.00  0.00     0.262 C 
HETATM   22  O8  UNL     1       4.141  36.828  27.463  1.00  0.00    -0.349 OA
HETATM   23  C22 UNL     1       4.071  38.024  26.845  1.00  0.00     0.176 C 
HETATM   24  C26 UNL     1       5.948  34.179  26.554  1.00  0.00     0.004 C 
ENDROOT
BRANCH   6  25
HETATM   25  C9  UNL     1       3.528  32.421  25.756  1.00  0.00     0.270 C 
HETATM   26  O2  UNL     1       2.987  32.984  26.728  1.00  0.00    -0.264 OA
BRANCH  25  27
HETATM   27  O3  UNL     1       3.273  31.094  25.515  1.00  0.00    -0.326 OA
HETATM   28  C10 UNL     1       2.123  30.648  24.800  1.00  0.00     0.213 C 
ENDBRANCH  25  27
ENDBRANCH   6  25
BRANCH  17  29
HETATM   29  C17 UNL     1       9.471  34.714  25.290  1.00  0.00     0.169 C 
BRANCH  29  30
HETATM   30  O6  UNL     1      10.103  33.746  24.539  1.00  0.00    -0.400 OA
ATOM     31  H6  UNL     1      10.654  33.172  25.058  1.00  0.00     0.209 HD
ENDBRANCH  29  30
ENDBRANCH  17  29
BRANCH  21  32
HETATM   32  O7  UNL     1       4.599  35.636  29.243  1.00  0.00    -0.371 OA
ATOM     33  H7  UNL     1       4.114  36.304  29.713  1.00  0.00     0.212 HD
ENDBRANCH  21  32
BRANCH   1  34
HETATM   34  O1  UNL     1       3.693  39.019  24.760  1.00  0.00    -0.356 OA
BRANCH  34  35
HETATM   35  C2  UNL     1       3.298  39.018  23.434  1.00  0.00     0.125 C 
HETATM   36  C1  UNL     1       2.760  37.950  22.869  1.00  0.00     0.037 C 
ENDBRANCH  34  35
ENDBRANCH   1  34
BRANCH  23  37
HETATM   37  C23 UNL     1       4.739  39.164  27.486  1.00  0.00     0.003 C 
HETATM   38  C24 UNL     1       4.092  40.290  27.833  1.00  0.00    -0.032 C 
HETATM   39  C25 UNL     1       4.721  41.446  28.472  1.00  0.00     0.036 C 
ENDBRANCH  23  37
TORSDOF 8
ENDMDL
MODEL 2
REMARK VINA RESULT: -6.992972527      3.600      6.430
REMARK  8 active torsions:
REMARK  status: ('A' for Active; 'I' for Inactive)
REMARK    1  A    between atoms: C2_2  and  O1_3 
REMARK    2  A    between atoms: O1_3  and  C3_4 
REMARK    3  A    between atoms: C8_9  and  C9_10 
REMARK    4  A    between atoms: C9_10  and  O3_12 
REMARK       I    between atoms: N1_17  and  C13_19 
REMARK    5  A    between atoms: C16_24  and  C17_25 
REMARK    6  A    between atoms: C17_25  and  O6_26 
REMARK    7  A    between atoms: C21_31  and  O7_32 
REMARK    8  A    between atoms: C22_35  and  C23_36 
ROOT
HETATM    1  C3  UNL     1       4.378  36.434  28.217  1.00  0.00     0.161 C 
HETATM    2  C4  UNL     1       4.718  37.609  27.405  1.00  0.00     0.040 C 
HETATM    3  C5  UNL     1       3.938  37.942  26.189  1.00  0.00    -0.007 C 
HETATM    4  C6  UNL     1       2.616  37.319  26.003  1.00  0.00     0.011 C 
HETATM    5  C7  UNL     1       2.528  36.051  25.234  1.00  0.00     0.012 C 
HETATM    6  C8  UNL     1       1.066  35.878  24.850  1.00  0.00     0.166 C 
HETATM    7  C11 UNL     1       0.625  36.871  23.851  1.00  0.00     0.185 C 
HETATM    8  O4  UNL     1      -0.396  37.595  24.120  1.00  0.00    -0.290 OA
HETATM    9  C12 UNL     1       1.171  37.195  22.542  1.00  0.00     0.060 C 
HETATM   10  N1  UNL     1       0.426  37.817  21.702  1.00  0.00    -0.311 N 
ATOM     11  H1  UNL     1      -0.519  38.054  22.001  1.00  0.00     0.170 HD
HETATM   12  C13 UNL     1       0.806  38.202  20.396  1.00  0.00     0.333 C 
HETATM   13  N2  UNL     1       0.956  39.552  19.970  1.00  0.00    -0.040 NA
HETATM   14  O5  UNL     1       1.033  37.291  19.528  1.00  0.00    -0.251 OA
HETATM   15  C14 UNL     1       2.521  36.870  22.065  1.00  0.00     0.066 C 
HETATM   16  C15 UNL     1       3.599  36.923  23.099  1.00  0.00     0.003 C 
HETATM   17  C16 UNL     1       3.909  38.231  23.714  1.00  0.00     0.018 C 
HETATM   18  C18 UNL     1       4.763  37.924  24.955  1.00  0.00    -0.003 C 
HETATM   19  C19 UNL     1       5.616  36.732  24.681  1.00  0.00     0.015 C 
HETATM   20  C20 UNL     1       4.862  35.448  24.506  1.00  0.00     0.046 C 
HETATM   21  C21 UNL     1       5.004  34.452  25.566  1.00  0.00     0.262 C 
HETATM   22  O8  UNL     1       4.849  34.537  26.882  1.00  0.00    -0.349 OA
HETATM   23  C22 UNL     1       5.229  35.199  27.992  1.00  0.00     0.176 C 
HETATM   24  C26 UNL     1       3.447  35.812  24.140  1.00  0.00     0.004 C 
ENDROOT
BRANCH   6  25
HETATM   25  C9  UNL     1       0.678  34.498  24.576  1.00  0.00     0.270 C 
HETATM   26  O2  UNL     1       1.309  33.549  25.082  1.00  0.00    -0.264 OA
BRANCH  25  27
HETATM   27  O3  UNL     1      -0.390  34.239  23.755  1.00  0.00    -0.326 OA
HETATM   28  C10 UNL     1      -1.456  33.369  24.130  1.00  0.00     0.213 C 
ENDBRANCH  25  27
ENDBRANCH   6  25
BRANCH  17  29
HETATM   29  C17 UNL     1       4.726  39.107  22.795  1.00  0.00     0.169 C 
BRANCH  29  30
HETATM   30  O6  UNL     1       3.969  40.044  22.125  1.00  0.00    -0.400 OA
ATOM     31  H6  UNL     1       4.379  40.353  21.326  1.00  0.00     0.209 HD
ENDBRANCH  29  30
ENDBRANCH  17  29
BRANCH  21  32
HETATM   32  O7  UNL     1       5.343  33.260  25.171  1.00  0.00    -0.371 OA
ATOM     33  H7  UNL     1       5.732  33.210  24.307  1.00  0.00     0.212 HD
ENDBRANCH  21  32
BRANCH   1  34
HETATM   34  O1  UNL     1       4.465  36.712  29.607  1.00  0.00    -0.356 OA
BRANCH  34  35
HETATM   35  C2  UNL     1       4.146  37.957  30.121  1.00  0.00     0.125 C 
HETATM   36  C1  UNL     1       3.682  38.104  31.351  1.00  0.00     0.037 C 
ENDBRANCH  34  35
ENDBRANCH   1  34
BRANCH  23  37
HETATM   37  C23 UNL     1       6.668  35.386  28.217  1.00  0.00     0.003 C 
HETATM   38  C24 UNL     1       7.598  35.077  27.297  1.00  0.00    -0.032 C 
HETATM   39  C25 UNL     1       9.039  35.248  27.482  1.00  0.00     0.036 C 
ENDBRANCH  23  37
TORSDOF 8
ENDMDL
MODEL 3
REMARK VINA RESULT: -6.988545169      3.447      7.672
REMARK  8 active torsions:
REMARK  status: ('A' for Active; 'I' for Inactive)
REMARK    1  A    between atoms: C2_2  and  O1_3 
REMARK    2  A    between atoms: O1_3  and  C3_4 
REMARK    3  A    between atoms: C8_9  and  C9_10 
REMARK    4  A    between atoms: C9_10  and  O3_12 
REMARK       I    between atoms: N1_17  and  C13_19 
REMARK    5  A    between atoms: C16_24  and  C17_25 
REMARK    6  A    between atoms: C17_25  and  O6_26 
REMARK    7  A    between atoms: C21_31  and  O7_32 
REMARK    8  A    between atoms: C22_35  and  C23_36 
ROOT
HETATM    1  C3  UNL     1       4.374  33.933  24.629  1.00  0.00     0.161 C 
HETATM    2  C4  UNL     1       3.983  34.155  26.027  1.00  0.00     0.040 C 
HETATM    3  C5  UNL     1       3.614  35.509  26.504  1.00  0.00    -0.007 C 
HETATM    4  C6  UNL     1       3.288  36.547  25.511  1.00  0.00     0.011 C 
HETATM    5  C7  UNL     1       4.375  37.441  25.032  1.00  0.00     0.012 C 
HETATM    6  C8  UNL     1       3.696  38.633  24.374  1.00  0.00     0.166 C 
HETATM    7  C11 UNL     1       3.000  39.495  25.350  1.00  0.00     0.185 C 
HETATM    8  O4  UNL     1       1.759  39.747  25.166  1.00  0.00    -0.290 OA
HETATM    9  C12 UNL     1       3.497  40.146  26.552  1.00  0.00     0.060 C 
HETATM   10  N1  UNL     1       2.832  41.130  27.039  1.00  0.00    -0.311 N 
ATOM     11  H1  UNL     1       1.979  41.404  26.551  1.00  0.00     0.170 HD
HETATM   12  C13 UNL     1       3.180  41.865  28.194  1.00  0.00     0.333 C 
HETATM   13  N2  UNL     1       2.428  41.861  29.403  1.00  0.00    -0.040 NA
HETATM   14  O5  UNL     1       4.236  42.586  28.170  1.00  0.00    -0.251 OA
HETATM   15  C14 UNL     1       4.720  39.792  27.284  1.00  0.00     0.066 C 
HETATM   16  C15 UNL     1       5.052  38.335  27.315  1.00  0.00     0.003 C 
HETATM   17  C16 UNL     1       4.122  37.424  28.016  1.00  0.00     0.018 C 
HETATM   18  C18 UNL     1       4.510  36.003  27.580  1.00  0.00    -0.003 C 
HETATM   19  C19 UNL     1       5.985  35.940  27.369  1.00  0.00     0.015 C 
HETATM   20  C20 UNL     1       6.488  36.759  26.218  1.00  0.00     0.046 C 
HETATM   21  C21 UNL     1       6.980  36.025  25.054  1.00  0.00     0.262 C 
HETATM   22  O8  UNL     1       6.432  35.063  24.322  1.00  0.00    -0.349 OA
HETATM   23  C22 UNL     1       5.864  33.841  24.361  1.00  0.00     0.176 C 
HETATM   24  C26 UNL     1       5.447  37.809  25.933  1.00  0.00     0.004 C 
ENDROOT
BRANCH   6  25
HETATM   25  C9  UNL     1       4.527  39.334  23.401  1.00  0.00     0.270 C 
HETATM   26  O2  UNL     1       5.660  39.748  23.716  1.00  0.00    -0.264 OA
BRANCH  25  27
HETATM   27  O3  UNL     1       4.062  39.540  22.127  1.00  0.00    -0.326 OA
HETATM   28  C10 UNL     1       2.906  38.881  21.612  1.00  0.00     0.213 C 
ENDBRANCH  25  27
ENDBRANCH   6  25
BRANCH  17  29
HETATM   29  C17 UNL     1       4.277  37.507  29.516  1.00  0.00     0.169 C 
BRANCH  29  30
HETATM   30  O6  UNL     1       4.249  36.274  30.132  1.00  0.00    -0.400 OA
ATOM     31  H6  UNL     1       4.877  36.197  30.841  1.00  0.00     0.209 HD
ENDBRANCH  29  30
ENDBRANCH  17  29
BRANCH  21  32
HETATM   32  O7  UNL     1       8.168  36.360  24.643  1.00  0.00    -0.371 OA
ATOM     33  H7  UNL     1       8.754  36.692  25.312  1.00  0.00     0.212 HD
ENDBRANCH  21  32
BRANCH   1  34
HETATM   34  O1  UNL     1       3.817  32.735  24.111  1.00  0.00    -0.356 OA
BRANCH  34  35
HETATM   35  C2  UNL     1       2.942  31.960  24.852  1.00  0.00     0.125 C 
HETATM   36  C1  UNL     1       2.941  30.639  24.769  1.00  0.00     0.037 C 
ENDBRANCH  34  35
ENDBRANCH   1  34
BRANCH  23  37
HETATM   37  C23 UNL     1       6.566  32.786  25.102  1.00  0.00     0.003 C 
HETATM   38  C24 UNL     1       7.182  31.754  24.499  1.00  0.00    -0.032 C 
HETATM   39  C25 UNL     1       7.891  30.685  25.201  1.00  0.00     0.036 C 
ENDBRANCH  23  37
TORSDOF 8
ENDMDL
MODEL 4
REMARK VINA RESULT: -6.810731001      3.018      5.116
REMARK  8 active torsions:
REMARK  status: ('A' for Active; 'I' for Inactive)
REMARK    1  A    between atoms: C2_2  and  O1_3 
REMARK    2  A    between atoms: O1_3  and  C3_4 
REMARK    3  A    between atoms: C8_9  and  C9_10 
REMARK    4  A    between atoms: C9_10  and  O3_12 
REMARK       I    between atoms: N1_17  and  C13_19 
REMARK    5  A    between atoms: C16_24  and  C17_25 
REMARK    6  A    between atoms: C17_25  and  O6_26 
REMARK    7  A    between atoms: C21_31  and  O7_32 
REMARK    8  A    between atoms: C22_35  and  C23_36 
ROOT
HETATM    1  C3  UNL     1       1.242  37.087  21.077  1.00  0.00     0.161 C 
HETATM    2  C4  UNL     1       2.523  37.764  21.319  1.00  0.00     0.040 C 
HETATM    3  C5  UNL     1       3.497  37.217  22.293  1.00  0.00    -0.007 C 
HETATM    4  C6  UNL     1       3.346  35.821  22.740  1.00  0.00     0.011 C 
HETATM    5  C7  UNL     1       2.558  35.548  23.970  1.00  0.00     0.012 C 
HETATM    6  C8  UNL     1       2.918  34.137  24.410  1.00  0.00     0.166 C 
HETATM    7  C11 UNL     1       4.305  34.037  24.907  1.00  0.00     0.185 C 
HETATM    8  O4  UNL     1       5.084  33.174  24.373  1.00  0.00    -0.290 OA
HETATM    9  C12 UNL     1       4.985  34.786  25.953  1.00  0.00     0.060 C 
HETATM   10  N1  UNL     1       6.054  34.294  26.465  1.00  0.00    -0.311 N 
ATOM     11  H1  UNL     1       6.373  33.394  26.106  1.00  0.00     0.170 HD
HETATM   12  C13 UNL     1       6.827  34.894  27.484  1.00  0.00     0.333 C 
HETATM   13  N2  UNL     1       8.153  35.380  27.304  1.00  0.00    -0.040 NA
HETATM   14  O5  UNL     1       6.318  35.014  28.652  1.00  0.00    -0.251 OA
HETATM   15  C14 UNL     1       4.561  36.078  26.506  1.00  0.00     0.066 C 
HETATM   16  C15 UNL     1       3.927  37.018  25.531  1.00  0.00     0.003 C 
HETATM   17  C16 UNL     1       4.757  37.532  24.421  1.00  0.00     0.018 C 
HETATM   18  C18 UNL     1       3.777  38.153  23.411  1.00  0.00    -0.003 C 
HETATM   19  C19 UNL     1       2.628  38.753  24.149  1.00  0.00     0.015 C 
HETATM   20  C20 UNL     1       1.751  37.763  24.854  1.00  0.00     0.046 C 
HETATM   21  C21 UNL     1       0.410  37.565  24.307  1.00  0.00     0.262 C 
HETATM   22  O8  UNL     1      -0.007  37.284  23.078  1.00  0.00    -0.349 OA
HETATM   23  C22 UNL     1       0.036  37.670  21.788  1.00  0.00     0.176 C 
HETATM   24  C26 UNL     1       2.565  36.512  25.052  1.00  0.00     0.004 C 
ENDROOT
BRANCH   6  25
HETATM   25  C9  UNL     1       1.907  33.493  25.241  1.00  0.00     0.270 C 
HETATM   26  O2  UNL     1       2.234  32.882  26.279  1.00  0.00    -0.264 OA
BRANCH  25  27
HETATM   27  O3  UNL     1       0.584  33.557  24.884  1.00  0.00    -0.326 OA
HETATM   28  C10 UNL     1       0.046  32.824  23.785  1.00  0.00     0.213 C 
ENDBRANCH  25  27
ENDBRANCH   6  25
BRANCH  17  29
HETATM   29  C17 UNL     1       5.700  38.619  24.878  1.00  0.00     0.169 C 
BRANCH  29  30
HETATM   30  O6  UNL     1       6.980  38.162  25.108  1.00  0.00    -0.400 OA
ATOM     31  H6  UNL     1       7.062  37.220  25.018  1.00  0.00     0.209 HD
ENDBRANCH  29  30
ENDBRANCH  17  29
BRANCH  21  32
HETATM   32  O7  UNL     1      -0.565  37.679  25.160  1.00  0.00    -0.371 OA
ATOM     33  H7  UNL     1      -1.333  38.139  24.843  1.00  0.00     0.212 HD
ENDBRANCH  21  32
BRANCH   1  34
HETATM   34  O1  UNL     1       0.906  37.073  19.698  1.00  0.00    -0.356 OA
BRANCH  34  35
HETATM   35  C2  UNL     1       1.793  37.507  18.729  1.00  0.00     0.125 C 
HETATM   36  C1  UNL     1       1.377  37.957  17.556  1.00  0.00     0.037 C 
ENDBRANCH  34  35
ENDBRANCH   1  34
BRANCH  23  37
HETATM   37  C23 UNL     1      -0.242  39.080  21.488  1.00  0.00     0.003 C 
HETATM   38  C24 UNL     1      -0.215  40.046  22.422  1.00  0.00    -0.032 C 
HETATM   39  C25 UNL     1      -0.486  41.460  22.164  1.00  0.00     0.036 C 
ENDBRANCH  23  37
TORSDOF 8
ENDMDL
MODEL 5
REMARK VINA RESULT: -6.810467478      2.671      4.345
REMARK  8 active torsions:
REMARK  status: ('A' for Active; 'I' for Inactive)
REMARK    1  A    between atoms: C2_2  and  O1_3 
REMARK    2  A    between atoms: O1_3  and  C3_4 
REMARK    3  A    between atoms: C8_9  and  C9_10 
REMARK    4  A    between atoms: C9_10  and  O3_12 
REMARK       I    between atoms: N1_17  and  C13_19 
REMARK    5  A    between atoms: C16_24  and  C17_25 
REMARK    6  A    between atoms: C17_25  and  O6_26 
REMARK    7  A    between atoms: C21_31  and  O7_32 
REMARK    8  A    between atoms: C22_35  and  C23_36 
ROOT
HETATM    1  C3  UNL     1       6.016  39.266  24.459  1.00  0.00     0.161 C 
HETATM    2  C4  UNL     1       6.682  37.958  24.483  1.00  0.00     0.040 C 
HETATM    3  C5  UNL     1       5.898  36.706  24.357  1.00  0.00    -0.007 C 
HETATM    4  C6  UNL     1       4.519  36.782  23.844  1.00  0.00     0.011 C 
HETATM    5  C7  UNL     1       3.404  36.917  24.816  1.00  0.00     0.012 C 
HETATM    6  C8  UNL     1       2.131  36.552  24.068  1.00  0.00     0.166 C 
HETATM    7  C11 UNL     1       2.068  35.116  23.729  1.00  0.00     0.185 C 
HETATM    8  O4  UNL     1       1.889  34.785  22.506  1.00  0.00    -0.290 OA
HETATM    9  C12 UNL     1       2.179  33.943  24.583  1.00  0.00     0.060 C 
HETATM   10  N1  UNL     1       1.733  32.822  24.148  1.00  0.00    -0.311 N 
ATOM     11  H1  UNL     1       1.320  32.813  23.215  1.00  0.00     0.170 HD
HETATM   12  C13 UNL     1       1.765  31.597  24.851  1.00  0.00     0.333 C 
HETATM   13  N2  UNL     1       2.543  30.470  24.463  1.00  0.00    -0.040 NA
HETATM   14  O5  UNL     1       1.054  31.475  25.907  1.00  0.00    -0.251 OA
HETATM   15  C14 UNL     1       2.758  33.908  25.932  1.00  0.00     0.066 C 
HETATM   16  C15 UNL     1       3.922  34.819  26.157  1.00  0.00     0.003 C 
HETATM   17  C16 UNL     1       5.163  34.563  25.394  1.00  0.00     0.018 C 
HETATM   18  C18 UNL     1       6.023  35.827  25.546  1.00  0.00    -0.003 C 
HETATM   19  C19 UNL     1       5.796  36.415  26.898  1.00  0.00     0.015 C 
HETATM   20  C20 UNL     1       4.416  36.957  27.121  1.00  0.00     0.046 C 
HETATM   21  C21 UNL     1       4.288  38.410  27.221  1.00  0.00     0.262 C 
HETATM   22  O8  UNL     1       4.706  39.388  26.427  1.00  0.00    -0.349 OA
HETATM   23  C22 UNL     1       5.779  39.919  25.807  1.00  0.00     0.176 C 
HETATM   24  C26 UNL     1       3.511  36.292  26.118  1.00  0.00     0.004 C 
ENDROOT
BRANCH   6  25
HETATM   25  C9  UNL     1       0.914  37.113  24.646  1.00  0.00     0.270 C 
HETATM   26  O2  UNL     1       0.846  37.356  25.867  1.00  0.00    -0.264 OA
BRANCH  25  27
HETATM   27  O3  UNL     1      -0.165  37.379  23.843  1.00  0.00    -0.326 OA
HETATM   28  C10 UNL     1      -0.044  38.025  22.577  1.00  0.00     0.213 C 
ENDBRANCH  25  27
ENDBRANCH   6  25
BRANCH  17  29
HETATM   29  C17 UNL     1       5.943  33.400  25.961  1.00  0.00     0.169 C 
BRANCH  29  30
HETATM   30  O6  UNL     1       5.764  32.232  25.252  1.00  0.00    -0.400 OA
ATOM     31  H6  UNL     1       6.036  31.458  25.733  1.00  0.00     0.209 HD
ENDBRANCH  29  30
ENDBRANCH  17  29
BRANCH  21  32
HETATM   32  O7  UNL     1       3.655  38.845  28.271  1.00  0.00    -0.371 OA
ATOM     33  H7  UNL     1       2.712  38.909  28.182  1.00  0.00     0.212 HD
ENDBRANCH  21  32
BRANCH   1  34
HETATM   34  O1  UNL     1       6.748  40.215  23.697  1.00  0.00    -0.356 OA
BRANCH  34  35
HETATM   35  C2  UNL     1       6.140  40.999  22.733  1.00  0.00     0.125 C 
HETATM   36  C1  UNL     1       5.169  40.530  21.966  1.00  0.00     0.037 C 
ENDBRANCH  34  35
ENDBRANCH   1  34
BRANCH  23  37
HETATM   37  C23 UNL     1       6.987  40.146  26.610  1.00  0.00     0.003 C 
HETATM   38  C24 UNL     1       7.571  41.351  26.727  1.00  0.00    -0.032 C 
HETATM   39  C25 UNL     1       8.774  41.619  27.515  1.00  0.00     0.036 C 
ENDBRANCH  23  37
TORSDOF 8
ENDMDL
