MODEL 1
REMARK VINA RESULT: -5.787147151      0.000      0.000
REMARK  5 active torsions:
REMARK  status: ('A' for Active; 'I' for Inactive)
REMARK    1  A    between atoms: C2_2  and  C3_3 
REMARK    2  A    between atoms: C3_3  and  N1_4 
REMARK    3  A    between atoms: N1_4  and  S1_6 
REMARK    4  A    between atoms: S1_6  and  C4_8 
REMARK    5  A    between atoms: C4_8  and  N2_9 
ROOT
HETATM    1  N2  UNL     1      11.174 194.835  87.671  1.00  0.00    -0.316 N 
ATOM      2  H2  UNL     1      10.348 194.377  88.058  1.00  0.00     0.172 HD
HETATM    3  C5  UNL     1      11.895 195.801  88.399  1.00  0.00     0.178 C 
HETATM    4  N3  UNL     1      12.483 196.589  89.004  1.00  0.00    -0.172 NA
ENDROOT
BRANCH   1   5
HETATM    5  C4  UNL     1      11.676 194.524  86.324  1.00  0.00     0.262 C 
BRANCH   5   6
HETATM    6  S1  UNL     1      11.206 195.800  85.242  1.00  0.00     0.129 S 
HETATM    7  O1  UNL     1      12.518 196.623  84.673  1.00  0.00    -0.234 OA
BRANCH   6   8
HETATM    8  N1  UNL     1      10.001 195.391  84.153  1.00  0.00    -0.336 N 
ATOM      9  H1  UNL     1       9.853 195.913  83.289  1.00  0.00     0.170 HD
BRANCH   8  10
HETATM   10  C3  UNL     1       9.176 194.245  84.515  1.00  0.00     0.156 C 
BRANCH  10  11
HETATM   11  C2  UNL     1       8.094 194.735  85.431  1.00  0.00    -0.017 C 
HETATM   12  C1  UNL     1       6.876 194.682  84.965  1.00  0.00     0.008 C 
ENDBRANCH  10  11
ENDBRANCH   8  10
ENDBRANCH   6   8
ENDBRANCH   5   6
ENDBRANCH   1   5
TORSDOF 5
ENDMDL
MODEL 2
REMARK VINA RESULT: -5.565490436      1.065      1.163
REMARK  5 active torsions:
REMARK  status: ('A' for Active; 'I' for Inactive)
REMARK    1  A    between atoms: C2_2  and  C3_3 
REMARK    2  A    between atoms: C3_3  and  N1_4 
REMARK    3  A    between atoms: N1_4  and  S1_6 
REMARK    4  A    between atoms: S1_6  and  C4_8 
REMARK    5  A    between atoms: C4_8  and  N2_9 
ROOT
HETATM    1  N2  UNL     1      12.123 195.817  87.888  1.00  0.00    -0.316 N 
ATOM      2  H2  UNL     1      12.771 196.590  88.036  1.00  0.00     0.172 HD
HETATM    3  C5  UNL     1      11.179 195.443  88.864  1.00  0.00     0.178 C 
HETATM    4  N3  UNL     1      10.407 195.144  89.667  1.00  0.00    -0.172 NA
ENDROOT
BRANCH   1   5
HETATM    5  C4  UNL     1      12.123 195.031  86.645  1.00  0.00     0.262 C 
BRANCH   5   6
HETATM    6  S1  UNL     1      11.338 195.953  85.399  1.00  0.00     0.129 S 
HETATM    7  O1  UNL     1      12.432 196.749  84.455  1.00  0.00    -0.234 OA
BRANCH   6   8
HETATM    8  N1  UNL     1      10.066 195.171  84.640  1.00  0.00    -0.336 N 
ATOM      9  H1  UNL     1       9.878 195.285  83.644  1.00  0.00     0.170 HD
BRANCH   8  10
HETATM   10  C3  UNL     1       9.245 194.317  85.489  1.00  0.00     0.156 C 
BRANCH  10  11
HETATM   11  C2  UNL     1       7.814 194.514  85.084  1.00  0.00    -0.017 C 
HETATM   12  C1  UNL     1       7.207 193.472  84.584  1.00  0.00     0.008 C 
ENDBRANCH  10  11
ENDBRANCH   8  10
ENDBRANCH   6   8
ENDBRANCH   5   6
ENDBRANCH   1   5
TORSDOF 5
ENDMDL
MODEL 3
REMARK VINA RESULT: -5.530071427      2.600      2.682
REMARK  5 active torsions:
REMARK  status: ('A' for Active; 'I' for Inactive)
REMARK    1  A    between atoms: C2_2  and  C3_3 
REMARK    2  A    between atoms: C3_3  and  N1_4 
REMARK    3  A    between atoms: N1_4  and  S1_6 
REMARK    4  A    between atoms: S1_6  and  C4_8 
REMARK    5  A    between atoms: C4_8  and  N2_9 
ROOT
HETATM    1  N2  UNL     1      11.412 193.791  85.730  1.00  0.00    -0.316 N 
ATOM      2  H2  UNL     1      11.616 193.136  84.976  1.00  0.00     0.172 HD
HETATM    3  C5  UNL     1      12.299 194.832  86.067  1.00  0.00     0.178 C 
HETATM    4  N3  UNL     1      13.029 195.684  86.335  1.00  0.00    -0.172 NA
ENDROOT
BRANCH   1   5
HETATM    5  C4  UNL     1      10.178 193.702  86.525  1.00  0.00     0.262 C 
BRANCH   5   6
HETATM    6  S1  UNL     1       8.855 194.307  85.576  1.00  0.00     0.129 S 
HETATM    7  O1  UNL     1       8.529 195.885  85.928  1.00  0.00    -0.234 OA
BRANCH   6   8
HETATM    8  N1  UNL     1       8.878 193.850  83.964  1.00  0.00    -0.336 N 
ATOM      9  H1  UNL     1       9.116 194.505  83.219  1.00  0.00     0.170 HD
BRANCH   8  10
HETATM   10  C3  UNL     1       8.537 192.459  83.691  1.00  0.00     0.156 C 
BRANCH  10  11
HETATM   11  C2  UNL     1       7.284 192.140  84.450  1.00  0.00    -0.017 C 
HETATM   12  C1  UNL     1       6.158 192.387  83.836  1.00  0.00     0.008 C 
ENDBRANCH  10  11
ENDBRANCH   8  10
ENDBRANCH   6   8
ENDBRANCH   5   6
ENDBRANCH   1   5
TORSDOF 5
ENDMDL
MODEL 4
REMARK VINA RESULT: -5.510489910      2.595      5.070
REMARK  5 active torsions:
REMARK  status: ('A' for Active; 'I' for Inactive)
REMARK    1  A    between atoms: C2_2  and  C3_3 
REMARK    2  A    between atoms: C3_3  and  N1_4 
REMARK    3  A    between atoms: N1_4  and  S1_6 
REMARK    4  A    between atoms: S1_6  and  C4_8 
REMARK    5  A    between atoms: C4_8  and  N2_9 
ROOT
HETATM    1  N2  UNL     1       6.910 193.724  84.240  1.00  0.00    -0.316 N 
ATOM      2  H2  UNL     1       6.270 194.141  83.564  1.00  0.00     0.172 HD
HETATM    3  C5  UNL     1       7.168 192.340  84.262  1.00  0.00     0.178 C 
HETATM    4  N3  UNL     1       7.376 191.205  84.271  1.00  0.00    -0.172 NA
ENDROOT
BRANCH   1   5
HETATM    5  C4  UNL     1       7.614 194.535  85.246  1.00  0.00     0.262 C 
BRANCH   5   6
HETATM    6  S1  UNL     1       9.317 194.211  85.135  1.00  0.00     0.129 S 
HETATM    7  O1  UNL     1      10.171 195.578  84.778  1.00  0.00    -0.234 OA
BRANCH   6   8
HETATM    8  N1  UNL     1       9.919 193.196  86.323  1.00  0.00    -0.336 N 
ATOM      9  H1  UNL     1       9.522 192.273  86.498  1.00  0.00     0.170 HD
BRANCH   8  10
HETATM   10  C3  UNL     1      11.045 193.712  87.092  1.00  0.00     0.156 C 
BRANCH  10  11
HETATM   11  C2  UNL     1      10.499 194.664  88.114  1.00  0.00    -0.017 C 
HETATM   12  C1  UNL     1      11.334 195.554  88.577  1.00  0.00     0.008 C 
ENDBRANCH  10  11
ENDBRANCH   8  10
ENDBRANCH   6   8
ENDBRANCH   5   6
ENDBRANCH   1   5
TORSDOF 5
ENDMDL
MODEL 5
REMARK VINA RESULT: -5.479975382      1.614      1.677
REMARK  5 active torsions:
REMARK  status: ('A' for Active; 'I' for Inactive)
REMARK    1  A    between atoms: C2_2  and  C3_3 
REMARK    2  A    between atoms: C3_3  and  N1_4 
REMARK    3  A    between atoms: N1_4  and  S1_6 
REMARK    4  A    between atoms: S1_6  and  C4_8 
REMARK    5  A    between atoms: C4_8  and  N2_9 
ROOT
HETATM    1  N2  UNL     1      10.636 195.758  88.394  1.00  0.00    -0.316 N 
ATOM      2  H2  UNL     1      10.643 196.728  88.079  1.00  0.00     0.172 HD
HETATM    3  C5  UNL     1      10.048 195.379  89.616  1.00  0.00     0.178 C 
HETATM    4  N3  UNL     1       9.561 195.077  90.618  1.00  0.00    -0.172 NA
ENDROOT
BRANCH   1   5
HETATM    5  C4  UNL     1      11.238 194.678  87.597  1.00  0.00     0.262 C 
BRANCH   5   6
HETATM    6  S1  UNL     1      11.504 195.256  85.981  1.00  0.00     0.129 S 
HETATM    7  O1  UNL     1      13.101 195.190  85.570  1.00  0.00    -0.234 OA
BRANCH   6   8
HETATM    8  N1  UNL     1      10.381 194.736  84.853  1.00  0.00    -0.336 N 
ATOM      9  H1  UNL     1      10.455 194.975  83.864  1.00  0.00     0.170 HD
BRANCH   8  10
HETATM   10  C3  UNL     1       9.289 193.920  85.371  1.00  0.00     0.156 C 
BRANCH  10  11
HETATM   11  C2  UNL     1       8.100 194.815  85.555  1.00  0.00    -0.017 C 
HETATM   12  C1  UNL     1       7.021 194.485  84.899  1.00  0.00     0.008 C 
ENDBRANCH  10  11
ENDBRANCH   8  10
ENDBRANCH   6   8
ENDBRANCH   5   6
ENDBRANCH   1   5
TORSDOF 5
ENDMDL
