MODEL 1
REMARK VINA RESULT: -5.473162861      0.000      0.000
REMARK  6 active torsions:
REMARK  status: ('A' for Active; 'I' for Inactive)
REMARK    1  A    between atoms: O1_2  and  C2_3 
REMARK    2  A    between atoms: C2_3  and  C3_4 
REMARK    3  A    between atoms: C3_4  and  N1_5 
REMARK    4  A    between atoms: C3_4  and  C4_9 
REMARK    5  A    between atoms: C4_9  and  N2_11 
REMARK    6  A    between atoms: N2_11  and  C6_14 
ROOT
HETATM    1  C3  UNL     1       8.431 194.863  85.001  1.00  0.00     0.237 C 
ENDROOT
BRANCH   1   2
HETATM    2  C2  UNL     1       7.140 194.136  84.838  1.00  0.00     0.201 C 
BRANCH   2   3
HETATM    3  O1  UNL     1       7.083 193.336  83.695  1.00  0.00    -0.394 OA
HETATM    4  C1  UNL     1       6.979 192.016  84.192  1.00  0.00     0.201 C 
ENDBRANCH   2   3
ENDBRANCH   1   2
BRANCH   1   5
HETATM    5  N1  UNL     1       9.273 194.761  83.800  1.00  0.00    -0.071 N 
ATOM      6  H13 UNL     1       9.063 193.914  83.271  1.00  0.00     0.274 HD
ATOM      7  H12 UNL     1       9.009 195.456  83.101  1.00  0.00     0.274 HD
ATOM      8  H11 UNL     1      10.266 194.821  84.025  1.00  0.00     0.274 HD
ENDBRANCH   1   5
BRANCH   1   9
HETATM    9  C4  UNL     1       9.185 194.296  86.162  1.00  0.00     0.214 C 
HETATM   10  C5  UNL     1      10.179 193.233  85.759  1.00  0.00     0.042 C 
BRANCH   9  11
HETATM   11  N2  UNL     1       9.894 195.300  86.920  1.00  0.00    -0.065 N 
ATOM     12  H22 UNL     1      10.592 195.769  86.343  1.00  0.00     0.278 HD
ATOM     13  H21 UNL     1       9.290 196.096  87.128  1.00  0.00     0.278 HD
BRANCH  11  14
HETATM   14  C6  UNL     1      10.486 194.773  88.122  1.00  0.00     0.186 A 
HETATM   15  C7  UNL     1      11.502 195.771  88.756  1.00  0.00     0.035 A 
HETATM   16  C8  UNL     1      10.205 195.431  89.414  1.00  0.00     0.035 A 
ENDBRANCH  11  14
ENDBRANCH   9  11
ENDBRANCH   1   9
TORSDOF 6
ENDMDL
MODEL 2
REMARK VINA RESULT: -5.456467930      1.254      1.477
REMARK  6 active torsions:
REMARK  status: ('A' for Active; 'I' for Inactive)
REMARK    1  A    between atoms: O1_2  and  C2_3 
REMARK    2  A    between atoms: C2_3  and  C3_4 
REMARK    3  A    between atoms: C3_4  and  N1_5 
REMARK    4  A    between atoms: C3_4  and  C4_9 
REMARK    5  A    between atoms: C4_9  and  N2_11 
REMARK    6  A    between atoms: N2_11  and  C6_14 
ROOT
HETATM    1  C3  UNL     1       9.567 194.948  85.462  1.00  0.00     0.237 C 
ENDROOT
BRANCH   1   2
HETATM    2  C2  UNL     1       8.326 194.178  85.165  1.00  0.00     0.201 C 
BRANCH   2   3
HETATM    3  O1  UNL     1       8.500 192.793  85.191  1.00  0.00    -0.394 OA
HETATM    4  C1  UNL     1       7.786 192.325  84.065  1.00  0.00     0.201 C 
ENDBRANCH   2   3
ENDBRANCH   1   2
BRANCH   1   5
HETATM    5  N1  UNL     1      10.211 195.443  84.237  1.00  0.00    -0.071 N 
ATOM      6  H13 UNL     1      11.183 195.704  84.408  1.00  0.00     0.274 HD
ATOM      7  H12 UNL     1      10.364 194.688  83.567  1.00  0.00     0.274 HD
ATOM      8  H11 UNL     1       9.689 196.211  83.816  1.00  0.00     0.274 HD
ENDBRANCH   1   5
BRANCH   1   9
HETATM    9  C4  UNL     1      10.538 194.075  86.193  1.00  0.00     0.214 C 
HETATM   10  C5  UNL     1      11.978 194.453  85.943  1.00  0.00     0.042 C 
BRANCH   9  11
HETATM   11  N2  UNL     1      10.325 194.067  87.621  1.00  0.00    -0.065 N 
ATOM     12  H22 UNL     1       9.544 193.460  87.871  1.00  0.00     0.278 HD
ATOM     13  H21 UNL     1      11.077 193.573  88.101  1.00  0.00     0.278 HD
BRANCH  11  14
HETATM   14  C6  UNL     1      10.147 195.389  88.163  1.00  0.00     0.186 A 
HETATM   15  C7  UNL     1       9.951 195.362  89.709  1.00  0.00     0.035 A 
HETATM   16  C8  UNL     1      11.173 195.940  89.073  1.00  0.00     0.035 A 
ENDBRANCH  11  14
ENDBRANCH   9  11
ENDBRANCH   1   9
TORSDOF 6
ENDMDL
MODEL 3
REMARK VINA RESULT: -5.342709939      2.373      4.675
REMARK  6 active torsions:
REMARK  status: ('A' for Active; 'I' for Inactive)
REMARK    1  A    between atoms: O1_2  and  C2_3 
REMARK    2  A    between atoms: C2_3  and  C3_4 
REMARK    3  A    between atoms: C3_4  and  N1_5 
REMARK    4  A    between atoms: C3_4  and  C4_9 
REMARK    5  A    between atoms: C4_9  and  N2_11 
REMARK    6  A    between atoms: N2_11  and  C6_14 
ROOT
HETATM    1  C3  UNL     1      11.007 194.331  86.422  1.00  0.00     0.237 C 
ENDROOT
BRANCH   1   2
HETATM    2  C2  UNL     1      11.097 194.869  87.809  1.00  0.00     0.201 C 
BRANCH   2   3
HETATM    3  O1  UNL     1       9.985 195.619  88.198  1.00  0.00    -0.394 OA
HETATM    4  C1  UNL     1       9.987 195.550  89.610  1.00  0.00     0.201 C 
ENDBRANCH   2   3
ENDBRANCH   1   2
BRANCH   1   5
HETATM    5  N1  UNL     1      12.330 193.984  85.883  1.00  0.00    -0.071 N 
ATOM      6  H13 UNL     1      12.864 194.820  85.642  1.00  0.00     0.274 HD
ATOM      7  H12 UNL     1      12.941 193.609  86.609  1.00  0.00     0.274 HD
ATOM      8  H11 UNL     1      12.262 193.347  85.090  1.00  0.00     0.274 HD
ENDBRANCH   1   5
BRANCH   1   9
HETATM    9  C4  UNL     1      10.379 195.352  85.527  1.00  0.00     0.214 C 
HETATM   10  C5  UNL     1      11.389 196.131  84.719  1.00  0.00     0.042 C 
BRANCH   9  11
HETATM   11  N2  UNL     1       9.422 194.782  84.608  1.00  0.00    -0.065 N 
ATOM     12  H22 UNL     1       8.984 195.507  84.039  1.00  0.00     0.278 HD
ATOM     13  H21 UNL     1       9.891 194.256  83.870  1.00  0.00     0.278 HD
BRANCH  11  14
HETATM   14  C6  UNL     1       8.430 193.974  85.269  1.00  0.00     0.186 A 
HETATM   15  C7  UNL     1       6.983 194.367  84.844  1.00  0.00     0.035 A 
HETATM   16  C8  UNL     1       7.595 193.057  84.467  1.00  0.00     0.035 A 
ENDBRANCH  11  14
ENDBRANCH   9  11
ENDBRANCH   1   9
TORSDOF 6
ENDMDL
MODEL 4
REMARK VINA RESULT: -5.320362162      1.176      1.638
REMARK  6 active torsions:
REMARK  status: ('A' for Active; 'I' for Inactive)
REMARK    1  A    between atoms: O1_2  and  C2_3 
REMARK    2  A    between atoms: C2_3  and  C3_4 
REMARK    3  A    between atoms: C3_4  and  N1_5 
REMARK    4  A    between atoms: C3_4  and  C4_9 
REMARK    5  A    between atoms: C4_9  and  N2_11 
REMARK    6  A    between atoms: N2_11  and  C6_14 
ROOT
HETATM    1  C3  UNL     1       9.528 194.629  85.267  1.00  0.00     0.237 C 
ENDROOT
BRANCH   1   2
HETATM    2  C2  UNL     1       8.620 193.693  84.546  1.00  0.00     0.201 C 
BRANCH   2   3
HETATM    3  O1  UNL     1       7.471 194.301  84.035  1.00  0.00    -0.394 OA
HETATM    4  C1  UNL     1       6.882 194.939  85.151  1.00  0.00     0.201 C 
ENDBRANCH   2   3
ENDBRANCH   1   2
BRANCH   1   5
HETATM    5  N1  UNL     1      10.303 195.465  84.338  1.00  0.00    -0.071 N 
ATOM      6  H13 UNL     1      10.863 194.894  83.704  1.00  0.00     0.274 HD
ATOM      7  H12 UNL     1       9.698 195.917  83.652  1.00  0.00     0.274 HD
ATOM      8  H11 UNL     1      10.879 196.147  84.830  1.00  0.00     0.274 HD
ENDBRANCH   1   5
BRANCH   1   9
HETATM    9  C4  UNL     1      10.482 193.850  86.117  1.00  0.00     0.214 C 
HETATM   10  C5  UNL     1      11.924 194.244  85.901  1.00  0.00     0.042 C 
BRANCH   9  11
HETATM   11  N2  UNL     1      10.200 193.961  87.529  1.00  0.00    -0.065 N 
ATOM     12  H22 UNL     1       9.320 193.501  87.764  1.00  0.00     0.278 HD
ATOM     13  H21 UNL     1      10.839 193.385  88.076  1.00  0.00     0.278 HD
BRANCH  11  14
HETATM   14  C6  UNL     1      10.209 195.325  87.991  1.00  0.00     0.186 A 
HETATM   15  C7  UNL     1       9.983 195.419  89.530  1.00  0.00     0.035 A 
HETATM   16  C8  UNL     1      11.288 195.773  88.895  1.00  0.00     0.035 A 
ENDBRANCH  11  14
ENDBRANCH   9  11
ENDBRANCH   1   9
TORSDOF 6
ENDMDL
MODEL 5
REMARK VINA RESULT: -5.295227110      0.814      1.029
REMARK  6 active torsions:
REMARK  status: ('A' for Active; 'I' for Inactive)
REMARK    1  A    between atoms: O1_2  and  C2_3 
REMARK    2  A    between atoms: C2_3  and  C3_4 
REMARK    3  A    between atoms: C3_4  and  N1_5 
REMARK    4  A    between atoms: C3_4  and  C4_9 
REMARK    5  A    between atoms: C4_9  and  N2_11 
REMARK    6  A    between atoms: N2_11  and  C6_14 
ROOT
HETATM    1  C3  UNL     1       8.412 194.870  84.933  1.00  0.00     0.237 C 
ENDROOT
BRANCH   1   2
HETATM    2  C2  UNL     1       7.161 194.063  84.860  1.00  0.00     0.201 C 
BRANCH   2   3
HETATM    3  O1  UNL     1       7.055 193.288  83.703  1.00  0.00    -0.394 OA
HETATM    4  C1  UNL     1       6.958 191.959  84.174  1.00  0.00     0.201 C 
ENDBRANCH   2   3
ENDBRANCH   1   2
BRANCH   1   5
HETATM    5  N1  UNL     1       9.236 194.714  83.725  1.00  0.00    -0.071 N 
ATOM      6  H13 UNL     1      10.095 195.260  83.789  1.00  0.00     0.274 HD
ATOM      7  H12 UNL     1       9.643 193.781  83.671  1.00  0.00     0.274 HD
ATOM      8  H11 UNL     1       8.715 194.941  82.878  1.00  0.00     0.274 HD
ENDBRANCH   1   5
BRANCH   1   9
HETATM    9  C4  UNL     1       9.219 194.441  86.118  1.00  0.00     0.214 C 
HETATM   10  C5  UNL     1       9.992 193.166  85.878  1.00  0.00     0.042 C 
BRANCH   9  11
HETATM   11  N2  UNL     1      10.154 195.449  86.558  1.00  0.00    -0.065 N 
ATOM     12  H22 UNL     1      10.462 196.029  85.777  1.00  0.00     0.278 HD
ATOM     13  H21 UNL     1       9.688 196.163  87.119  1.00  0.00     0.278 HD
BRANCH  11  14
HETATM   14  C6  UNL     1      11.280 194.892  87.264  1.00  0.00     0.186 A 
HETATM   15  C7  UNL     1      12.622 195.558  86.835  1.00  0.00     0.035 A 
HETATM   16  C8  UNL     1      12.040 195.747  88.198  1.00  0.00     0.035 A 
ENDBRANCH  11  14
ENDBRANCH   9  11
ENDBRANCH   1   9
TORSDOF 6
ENDMDL
