MODEL 1
REMARK VINA RESULT: -5.588902454      0.000      0.000
REMARK  4 active torsions:
REMARK  status: ('A' for Active; 'I' for Inactive)
REMARK    1  A    between atoms: C2_2  and  C3_3 
REMARK    2  A    between atoms: C3_3  and  O1_4 
REMARK    3  A    between atoms: O1_4  and  C4_5 
REMARK    4  A    between atoms: C4_5  and  C5_6 
ROOT
HETATM    1  C5  UNL     1       9.322 193.444  85.687  1.00  0.00     0.235 C 
HETATM    2  C6  UNL     1       8.602 194.568  85.007  1.00  0.00     0.267 C 
HETATM    3  N1  UNL     1       7.194 194.179  84.907  1.00  0.00    -0.071 N 
ATOM      4  H11 UNL     1       6.649 194.864  84.384  1.00  0.00     0.277 HD
ATOM      5  H12 UNL     1       6.715 194.256  85.805  1.00  0.00     0.277 HD
HETATM    6  C7  UNL     1       7.072 192.856  84.348  1.00  0.00     0.259 C 
HETATM    7  C8  UNL     1       8.362 192.330  83.778  1.00  0.00     0.260 C 
HETATM    8  N2  UNL     1       9.436 192.353  84.749  1.00  0.00    -0.066 N 
ATOM      9  H21 UNL     1       9.507 191.459  85.236  1.00  0.00     0.277 HD
ATOM     10  H22 UNL     1      10.346 192.363  84.288  1.00  0.00     0.277 HD
ENDROOT
BRANCH   1  11
HETATM   11  C4  UNL     1      10.675 193.858  86.210  1.00  0.00     0.202 C 
BRANCH  11  12
HETATM   12  O1  UNL     1      10.737 193.800  87.601  1.00  0.00    -0.385 OA
BRANCH  12  13
HETATM   13  C3  UNL     1      10.784 195.145  88.033  1.00  0.00     0.194 C 
BRANCH  13  14
HETATM   14  C2  UNL     1      10.109 195.350  89.310  1.00  0.00    -0.011 C 
HETATM   15  C1  UNL     1       9.563 196.515  89.585  1.00  0.00     0.009 C 
ENDBRANCH  13  14
ENDBRANCH  12  13
ENDBRANCH  11  12
ENDBRANCH   1  11
TORSDOF 4
ENDMDL
MODEL 2
REMARK VINA RESULT: -5.576285385      2.512      5.008
REMARK  4 active torsions:
REMARK  status: ('A' for Active; 'I' for Inactive)
REMARK    1  A    between atoms: C2_2  and  C3_3 
REMARK    2  A    between atoms: C3_3  and  O1_4 
REMARK    3  A    between atoms: O1_4  and  C4_5 
REMARK    4  A    between atoms: C4_5  and  C5_6 
ROOT
HETATM    1  C5  UNL     1      10.145 195.201  86.473  1.00  0.00     0.235 C 
HETATM    2  C6  UNL     1      10.439 194.323  87.651  1.00  0.00     0.267 C 
HETATM    3  N1  UNL     1      11.174 195.137  88.620  1.00  0.00    -0.071 N 
ATOM      4  H11 UNL     1      11.480 194.586  89.422  1.00  0.00     0.277 HD
ATOM      5  H12 UNL     1      10.562 195.791  89.108  1.00  0.00     0.277 HD
HETATM    6  C7  UNL     1      12.277 195.812  87.983  1.00  0.00     0.259 C 
HETATM    7  C8  UNL     1      12.549 195.320  86.587  1.00  0.00     0.260 C 
HETATM    8  N2  UNL     1      11.375 195.398  85.743  1.00  0.00    -0.066 N 
ATOM      9  H21 UNL     1      11.355 196.277  85.225  1.00  0.00     0.277 HD
ATOM     10  H22 UNL     1      11.443 194.746  84.961  1.00  0.00     0.277 HD
ENDROOT
BRANCH   1  11
HETATM   11  C4  UNL     1       9.068 194.630  85.584  1.00  0.00     0.202 C 
BRANCH  11  12
HETATM   12  O1  UNL     1       7.891 195.375  85.646  1.00  0.00    -0.385 OA
BRANCH  12  13
HETATM   13  C3  UNL     1       6.935 194.628  84.922  1.00  0.00     0.194 C 
BRANCH  13  14
HETATM   14  C2  UNL     1       7.419 193.302  84.552  1.00  0.00    -0.011 C 
HETATM   15  C1  UNL     1       6.587 192.415  84.051  1.00  0.00     0.009 C 
ENDBRANCH  13  14
ENDBRANCH  12  13
ENDBRANCH  11  12
ENDBRANCH   1  11
TORSDOF 4
ENDMDL
MODEL 3
REMARK VINA RESULT: -5.546888648      1.138      1.913
REMARK  4 active torsions:
REMARK  status: ('A' for Active; 'I' for Inactive)
REMARK    1  A    between atoms: C2_2  and  C3_3 
REMARK    2  A    between atoms: C3_3  and  O1_4 
REMARK    3  A    between atoms: O1_4  and  C4_5 
REMARK    4  A    between atoms: C4_5  and  C5_6 
ROOT
HETATM    1  C5  UNL     1      10.239 194.699  85.786  1.00  0.00     0.235 C 
HETATM    2  C6  UNL     1       9.968 193.269  86.142  1.00  0.00     0.267 C 
HETATM    3  N1  UNL     1       9.411 192.627  84.951  1.00  0.00    -0.071 N 
ATOM      4  H11 UNL     1       9.128 191.665  85.137  1.00  0.00     0.277 HD
ATOM      5  H12 UNL     1      10.129 192.441  84.250  1.00  0.00     0.277 HD
HETATM    6  C7  UNL     1       8.328 193.410  84.412  1.00  0.00     0.259 C 
HETATM    7  C8  UNL     1       7.880 194.516  85.330  1.00  0.00     0.260 C 
HETATM    8  N2  UNL     1       8.973 195.388  85.707  1.00  0.00    -0.066 N 
ATOM      9  H21 UNL     1       9.033 196.191  85.079  1.00  0.00     0.277 HD
ATOM     10  H22 UNL     1       8.768 195.874  86.579  1.00  0.00     0.277 HD
ENDROOT
BRANCH   1  11
HETATM   11  C4  UNL     1      11.167 195.371  86.767  1.00  0.00     0.202 C 
BRANCH  11  12
HETATM   12  O1  UNL     1      11.201 194.708  87.992  1.00  0.00    -0.385 OA
BRANCH  12  13
HETATM   13  C3  UNL     1      11.127 195.722  88.973  1.00  0.00     0.194 C 
BRANCH  13  14
HETATM   14  C2  UNL     1       9.858 195.716  89.694  1.00  0.00    -0.011 C 
HETATM   15  C1  UNL     1       9.187 196.836  89.854  1.00  0.00     0.009 C 
ENDBRANCH  13  14
ENDBRANCH  12  13
ENDBRANCH  11  12
ENDBRANCH   1  11
TORSDOF 4
ENDMDL
MODEL 4
REMARK VINA RESULT: -5.357635295      2.337      4.977
REMARK  4 active torsions:
REMARK  status: ('A' for Active; 'I' for Inactive)
REMARK    1  A    between atoms: C2_2  and  C3_3 
REMARK    2  A    between atoms: C3_3  and  O1_4 
REMARK    3  A    between atoms: O1_4  and  C4_5 
REMARK    4  A    between atoms: C4_5  and  C5_6 
ROOT
HETATM    1  C5  UNL     1      10.506 194.342  85.956  1.00  0.00     0.235 C 
HETATM    2  C6  UNL     1      10.998 195.604  85.316  1.00  0.00     0.267 C 
HETATM    3  N1  UNL     1      12.425 195.714  85.624  1.00  0.00    -0.071 N 
ATOM      4  H11 UNL     1      12.818 196.592  85.285  1.00  0.00     0.277 HD
ATOM      5  H12 UNL     1      12.983 195.070  85.062  1.00  0.00     0.277 HD
HETATM    6  C7  UNL     1      12.656 195.531  87.034  1.00  0.00     0.259 C 
HETATM    7  C8  UNL     1      11.391 195.540  87.850  1.00  0.00     0.260 C 
HETATM    8  N2  UNL     1      10.432 194.560  87.381  1.00  0.00    -0.066 N 
ATOM      9  H21 UNL     1      10.530 193.681  87.890  1.00  0.00     0.277 HD
ATOM     10  H22 UNL     1       9.485 194.812  87.662  1.00  0.00     0.277 HD
ENDROOT
BRANCH   1  11
HETATM   11  C4  UNL     1       9.174 193.897  85.402  1.00  0.00     0.202 C 
BRANCH  11  12
HETATM   12  O1  UNL     1       8.284 194.961  85.267  1.00  0.00    -0.385 OA
BRANCH  12  13
HETATM   13  C3  UNL     1       7.066 194.381  84.846  1.00  0.00     0.194 C 
BRANCH  13  14
HETATM   14  C2  UNL     1       7.209 192.976  84.480  1.00  0.00    -0.011 C 
HETATM   15  C1  UNL     1       6.219 192.348  83.884  1.00  0.00     0.009 C 
ENDBRANCH  13  14
ENDBRANCH  12  13
ENDBRANCH  11  12
ENDBRANCH   1  11
TORSDOF 4
ENDMDL
MODEL 5
REMARK VINA RESULT: -5.314817265      0.973      1.037
REMARK  4 active torsions:
REMARK  status: ('A' for Active; 'I' for Inactive)
REMARK    1  A    between atoms: C2_2  and  C3_3 
REMARK    2  A    between atoms: C3_3  and  O1_4 
REMARK    3  A    between atoms: O1_4  and  C4_5 
REMARK    4  A    between atoms: C4_5  and  C5_6 
ROOT
HETATM    1  C5  UNL     1       8.581 193.840  85.524  1.00  0.00     0.235 C 
HETATM    2  C6  UNL     1       7.502 194.381  84.637  1.00  0.00     0.267 C 
HETATM    3  N1  UNL     1       6.482 193.338  84.516  1.00  0.00    -0.071 N 
ATOM      4  H11 UNL     1       5.745 193.603  83.862  1.00  0.00     0.277 HD
ATOM      5  H12 UNL     1       5.915 193.263  85.361  1.00  0.00     0.277 HD
HETATM    6  C7  UNL     1       7.084 192.078  84.163  1.00  0.00     0.259 C 
HETATM    7  C8  UNL     1       8.529 192.202  83.758  1.00  0.00     0.260 C 
HETATM    8  N2  UNL     1       9.326 192.856  84.775  1.00  0.00    -0.066 N 
ATOM      9  H21 UNL     1       9.756 192.172  85.398  1.00  0.00     0.277 HD
ATOM     10  H22 UNL     1      10.168 193.267  84.372  1.00  0.00     0.277 HD
ENDROOT
BRANCH   1  11
HETATM   11  C4  UNL     1       9.488 194.923  86.055  1.00  0.00     0.202 C 
BRANCH  11  12
HETATM   12  O1  UNL     1      10.758 194.438  86.358  1.00  0.00    -0.385 OA
BRANCH  12  13
HETATM   13  C3  UNL     1      10.790 194.318  87.765  1.00  0.00     0.194 C 
BRANCH  13  14
HETATM   14  C2  UNL     1      10.287 195.510  88.442  1.00  0.00    -0.011 C 
HETATM   15  C1  UNL     1       9.964 195.454  89.716  1.00  0.00     0.009 C 
ENDBRANCH  13  14
ENDBRANCH  12  13
ENDBRANCH  11  12
ENDBRANCH   1  11
TORSDOF 4
ENDMDL
