MODEL 1
REMARK VINA RESULT: -6.045149447      0.000      0.000
REMARK  17 active torsions:
REMARK  status: ('A' for Active; 'I' for Inactive)
REMARK    1  A    between atoms: C3_4  and  C4_5 
REMARK    2  A    between atoms: C4_5  and  O2_8 
REMARK    3  A    between atoms: C9_12  and  C10_13 
REMARK    4  A    between atoms: C10_13  and  C12_15 
REMARK    5  A    between atoms: C14_17  and  O3_18 
REMARK    6  A    between atoms: O3_18  and  C15_19 
REMARK    7  A    between atoms: C18_23  and  O5_24 
REMARK    8  A    between atoms: C19_26  and  O6_27 
REMARK    9  A    between atoms: C22_31  and  C23_32 
REMARK   10  A    between atoms: C23_32  and  O7_33 
REMARK   11  A    between atoms: C23_32  and  C24_35 
REMARK   12  A    between atoms: C24_35  and  O8_37 
REMARK   13  A    between atoms: C24_35  and  C26_39 
REMARK   14  A    between atoms: C26_39  and  O9_40 
REMARK   15  A    between atoms: C26_39  and  C27_42 
REMARK   16  A    between atoms: C27_42  and  O10_45 
REMARK   17  A    between atoms: C32_49  and  O11_50 
ROOT
HETATM    1  C12 UNL     1      42.872  12.120 -48.015  1.00  0.00     0.022 C 
HETATM    2  C13 UNL     1      43.111  13.144 -49.087  1.00  0.00     0.042 C 
HETATM    3  C14 UNL     1      41.704  13.633 -49.454  1.00  0.00     0.157 C 
HETATM    4  C19 UNL     1      40.772  12.544 -49.851  1.00  0.00     0.094 C 
HETATM    5  C20 UNL     1      39.491  12.630 -49.028  1.00  0.00     0.042 C 
HETATM    6  C21 UNL     1      38.861  11.284 -49.487  1.00  0.00     0.011 C 
HETATM    7  C22 UNL     1      39.960  10.402 -49.136  1.00  0.00     0.031 C 
HETATM    8  C30 UNL     1      41.205  11.156 -49.657  1.00  0.00     0.022 C 
HETATM    9  C31 UNL     1      41.652  10.603 -50.988  1.00  0.00     0.021 C 
HETATM   10  C32 UNL     1      42.290  10.893 -48.678  1.00  0.00     0.134 C 
ENDROOT
BRANCH   7  11
HETATM   11  C23 UNL     1      40.027   8.980 -49.414  1.00  0.00     0.159 C 
BRANCH  11  12
HETATM   12  O7  UNL     1      39.069   8.381 -50.204  1.00  0.00    -0.392 OA
ATOM     13  H7  UNL     1      38.253   8.079 -49.822  1.00  0.00     0.210 HD
ENDBRANCH  11  12
BRANCH  11  14
HETATM   14  C24 UNL     1      40.352   8.001 -48.334  1.00  0.00     0.109 C 
HETATM   15  C25 UNL     1      41.629   7.270 -48.866  1.00  0.00     0.051 C 
BRANCH  14  16
HETATM   16  O8  UNL     1      40.886   8.561 -47.174  1.00  0.00    -0.385 OA
ATOM     17  H8  UNL     1      40.836   8.009 -46.402  1.00  0.00     0.210 HD
ENDBRANCH  14  16
BRANCH  14  18
HETATM   18  C26 UNL     1      39.267   7.053 -48.025  1.00  0.00     0.188 C 
BRANCH  18  19
HETATM   19  O9  UNL     1      38.207   7.777 -47.463  1.00  0.00    -0.389 OA
ATOM     20  H9  UNL     1      37.717   7.190 -46.899  1.00  0.00     0.210 HD
ENDBRANCH  18  19
BRANCH  18  21
HETATM   21  C27 UNL     1      39.480   5.925 -47.086  1.00  0.00     0.079 C 
HETATM   22  C28 UNL     1      40.737   5.144 -47.237  1.00  0.00     0.048 C 
HETATM   23  C29 UNL     1      38.284   5.032 -46.838  1.00  0.00     0.048 C 
BRANCH  21  24
HETATM   24  O10 UNL     1      39.611   6.596 -45.824  1.00  0.00    -0.388 OA
ATOM     25  H10 UNL     1      39.581   5.875 -45.206  1.00  0.00     0.210 HD
ENDBRANCH  21  24
ENDBRANCH  18  21
ENDBRANCH  14  18
ENDBRANCH  11  14
ENDBRANCH   7  11
BRANCH   4  26
HETATM   26  O6  UNL     1      40.313  12.876 -51.117  1.00  0.00    -0.386 OA
ATOM     27  H6  UNL     1      40.004  12.066 -51.505  1.00  0.00     0.210 HD
ENDBRANCH   4  26
BRANCH  10  28
HETATM   28  O11 UNL     1      43.382  10.220 -49.249  1.00  0.00    -0.394 OA
ATOM     29  H11 UNL     1      43.219   9.296 -49.097  1.00  0.00     0.210 HD
ENDBRANCH  10  28
BRANCH   3  30
HETATM   30  O3  UNL     1      41.751  14.679 -50.356  1.00  0.00    -0.373 OA
BRANCH  30  31
HETATM   31  C15 UNL     1      41.659  15.930 -49.878  1.00  0.00     0.176 C 
HETATM   32  C16 UNL     1      42.332  16.984 -50.754  1.00  0.00     0.202 C 
HETATM   33  O4  UNL     1      41.698  18.144 -50.349  1.00  0.00    -0.386 OA
HETATM   34  C17 UNL     1      40.338  17.847 -50.309  1.00  0.00     0.201 C 
HETATM   35  C18 UNL     1      40.220  16.400 -49.938  1.00  0.00     0.173 C 
BRANCH  35  36
HETATM   36  O5  UNL     1      39.544  16.209 -48.737  1.00  0.00    -0.391 OA
ATOM     37  H5  UNL     1      38.600  16.232 -48.842  1.00  0.00     0.210 HD
ENDBRANCH  35  36
ENDBRANCH  30  31
ENDBRANCH   3  30
BRANCH   1  38
HETATM   38  C10 UNL     1      44.118  11.677 -47.305  1.00  0.00    -0.006 C 
HETATM   39  C11 UNL     1      43.736  10.525 -46.411  1.00  0.00     0.011 C 
BRANCH  38  40
HETATM   40  C9  UNL     1      44.846  12.755 -46.582  1.00  0.00     0.018 C 
HETATM   41  C2  UNL     1      46.332  12.522 -46.542  1.00  0.00     0.122 C 
HETATM   42  C1  UNL     1      46.896  11.917 -47.803  1.00  0.00     0.040 C 
HETATM   43  O1  UNL     1      46.717  11.879 -45.383  1.00  0.00    -0.378 OA
HETATM   44  C3  UNL     1      46.703  12.835 -44.361  1.00  0.00     0.155 C 
HETATM   45  C7  UNL     1      45.365  13.506 -44.235  1.00  0.00     0.035 C 
HETATM   46  C8  UNL     1      44.330  12.983 -45.182  1.00  0.00     0.010 C 
BRANCH  44  47
HETATM   47  C4  UNL     1      47.208  12.268 -43.067  1.00  0.00     0.076 C 
HETATM   48  C5  UNL     1      47.112  13.239 -41.920  1.00  0.00     0.048 C 
HETATM   49  C6  UNL     1      48.588  11.723 -43.255  1.00  0.00     0.048 C 
BRANCH  47  50
HETATM   50  O2  UNL     1      46.362  11.186 -42.740  1.00  0.00    -0.388 OA
ATOM     51  H2  UNL     1      46.893  10.556 -42.268  1.00  0.00     0.210 HD
ENDBRANCH  47  50
ENDBRANCH  44  47
ENDBRANCH  38  40
ENDBRANCH   1  38
TORSDOF 17
ENDMDL
MODEL 2
REMARK VINA RESULT: -5.596976103      2.735      7.240
REMARK  17 active torsions:
REMARK  status: ('A' for Active; 'I' for Inactive)
REMARK    1  A    between atoms: C3_4  and  C4_5 
REMARK    2  A    between atoms: C4_5  and  O2_8 
REMARK    3  A    between atoms: C9_12  and  C10_13 
REMARK    4  A    between atoms: C10_13  and  C12_15 
REMARK    5  A    between atoms: C14_17  and  O3_18 
REMARK    6  A    between atoms: O3_18  and  C15_19 
REMARK    7  A    between atoms: C18_23  and  O5_24 
REMARK    8  A    between atoms: C19_26  and  O6_27 
REMARK    9  A    between atoms: C22_31  and  C23_32 
REMARK   10  A    between atoms: C23_32  and  O7_33 
REMARK   11  A    between atoms: C23_32  and  C24_35 
REMARK   12  A    between atoms: C24_35  and  O8_37 
REMARK   13  A    between atoms: C24_35  and  C26_39 
REMARK   14  A    between atoms: C26_39  and  O9_40 
REMARK   15  A    between atoms: C26_39  and  C27_42 
REMARK   16  A    between atoms: C27_42  and  O10_45 
REMARK   17  A    between atoms: C32_49  and  O11_50 
ROOT
HETATM    1  C12 UNL     1      40.648  10.977 -50.115  1.00  0.00     0.022 C 
HETATM    2  C13 UNL     1      41.486  11.579 -49.024  1.00  0.00     0.042 C 
HETATM    3  C14 UNL     1      42.824  10.837 -49.129  1.00  0.00     0.157 C 
HETATM    4  C19 UNL     1      42.699   9.357 -49.052  1.00  0.00     0.094 C 
HETATM    5  C20 UNL     1      43.401   8.713 -50.243  1.00  0.00     0.042 C 
HETATM    6  C21 UNL     1      42.907   7.256 -50.008  1.00  0.00     0.011 C 
HETATM    7  C22 UNL     1      41.478   7.515 -49.987  1.00  0.00     0.031 C 
HETATM    8  C30 UNL     1      41.355   8.771 -49.095  1.00  0.00     0.022 C 
HETATM    9  C31 UNL     1      40.950   8.396 -47.690  1.00  0.00     0.021 C 
HETATM   10  C32 UNL     1      40.256   9.585 -49.673  1.00  0.00     0.134 C 
ENDROOT
BRANCH   7  11
HETATM   11  C23 UNL     1      40.444   6.538 -49.701  1.00  0.00     0.159 C 
BRANCH  11  12
HETATM   12  O7  UNL     1      40.765   5.348 -49.083  1.00  0.00    -0.392 OA
ATOM     13  H7  UNL     1      41.007   4.589 -49.601  1.00  0.00     0.210 HD
ENDBRANCH  11  12
BRANCH  11  14
HETATM   14  C24 UNL     1      39.392   6.216 -50.710  1.00  0.00     0.109 C 
HETATM   15  C25 UNL     1      39.961   6.806 -52.044  1.00  0.00     0.051 C 
BRANCH  14  16
HETATM   16  O8  UNL     1      39.321   4.873 -51.078  1.00  0.00    -0.385 OA
ATOM     17  H8  UNL     1      39.920   4.613 -51.768  1.00  0.00     0.210 HD
ENDBRANCH  14  16
BRANCH  14  18
HETATM   18  C26 UNL     1      38.060   6.761 -50.395  1.00  0.00     0.188 C 
BRANCH  18  19
HETATM   19  O9  UNL     1      37.547   6.045 -49.304  1.00  0.00    -0.389 OA
ATOM     20  H9  UNL     1      37.747   6.532 -48.514  1.00  0.00     0.210 HD
ENDBRANCH  18  19
BRANCH  18  21
HETATM   21  C27 UNL     1      36.966   6.737 -51.397  1.00  0.00     0.079 C 
HETATM   22  C28 UNL     1      36.864   5.532 -52.262  1.00  0.00     0.048 C 
HETATM   23  C29 UNL     1      36.752   8.015 -52.178  1.00  0.00     0.048 C 
BRANCH  21  24
HETATM   24  O10 UNL     1      35.793   6.699 -50.570  1.00  0.00    -0.388 OA
ATOM     25  H10 UNL     1      36.149   6.852 -49.703  1.00  0.00     0.210 HD
ENDBRANCH  21  24
ENDBRANCH  18  21
ENDBRANCH  14  18
ENDBRANCH  11  14
ENDBRANCH   7  11
BRANCH   4  26
HETATM   26  O6  UNL     1      43.512   8.959 -48.000  1.00  0.00    -0.386 OA
ATOM     27  H6  UNL     1      44.362   8.771 -48.381  1.00  0.00     0.210 HD
ENDBRANCH   4  26
BRANCH  10  28
HETATM   28  O11 UNL     1      39.186   9.762 -48.780  1.00  0.00    -0.394 OA
ATOM     29  H11 UNL     1      39.457   9.341 -47.973  1.00  0.00     0.210 HD
ENDBRANCH  10  28
BRANCH   3  30
HETATM   30  O3  UNL     1      43.763  11.360 -48.260  1.00  0.00    -0.373 OA
BRANCH  30  31
HETATM   31  C15 UNL     1      43.324  12.062 -47.204  1.00  0.00     0.176 C 
HETATM   32  C16 UNL     1      43.773  11.506 -45.855  1.00  0.00     0.202 C 
HETATM   33  O4  UNL     1      43.639  12.608 -45.029  1.00  0.00    -0.386 OA
HETATM   34  C17 UNL     1      44.211  13.676 -45.716  1.00  0.00     0.201 C 
HETATM   35  C18 UNL     1      43.988  13.423 -47.176  1.00  0.00     0.173 C 
BRANCH  35  36
HETATM   36  O5  UNL     1      43.213  14.410 -47.778  1.00  0.00    -0.391 OA
ATOM     37  H5  UNL     1      43.528  14.645 -48.643  1.00  0.00     0.210 HD
ENDBRANCH  35  36
ENDBRANCH  30  31
ENDBRANCH   3  30
BRANCH   1  38
HETATM   38  C10 UNL     1      39.372  11.720 -50.386  1.00  0.00    -0.006 C 
HETATM   39  C11 UNL     1      38.803  11.172 -51.670  1.00  0.00     0.011 C 
BRANCH  38  40
HETATM   40  C9  UNL     1      39.498  13.201 -50.394  1.00  0.00     0.018 C 
HETATM   41  C2  UNL     1      38.630  13.860 -49.357  1.00  0.00     0.122 C 
HETATM   42  C1  UNL     1      38.531  13.098 -48.060  1.00  0.00     0.040 C 
HETATM   43  O1  UNL     1      37.413  14.247 -49.881  1.00  0.00    -0.378 OA
HETATM   44  C3  UNL     1      37.640  15.412 -50.625  1.00  0.00     0.155 C 
HETATM   45  C7  UNL     1      38.688  15.209 -51.681  1.00  0.00     0.035 C 
HETATM   46  C8  UNL     1      39.226  13.813 -51.747  1.00  0.00     0.010 C 
BRANCH  44  47
HETATM   47  C4  UNL     1      36.360  15.984 -51.159  1.00  0.00     0.076 C 
HETATM   48  C5  UNL     1      35.670  15.071 -52.138  1.00  0.00     0.048 C 
HETATM   49  C6  UNL     1      36.607  17.352 -51.712  1.00  0.00     0.048 C 
BRANCH  47  50
HETATM   50  O2  UNL     1      35.485  16.117 -50.060  1.00  0.00    -0.388 OA
ATOM     51  H2  UNL     1      34.601  16.084 -50.408  1.00  0.00     0.210 HD
ENDBRANCH  47  50
ENDBRANCH  44  47
ENDBRANCH  38  40
ENDBRANCH   1  38
TORSDOF 17
ENDMDL
MODEL 3
REMARK VINA RESULT: -5.564570597      4.968     11.494
REMARK  17 active torsions:
REMARK  status: ('A' for Active; 'I' for Inactive)
REMARK    1  A    between atoms: C3_4  and  C4_5 
REMARK    2  A    between atoms: C4_5  and  O2_8 
REMARK    3  A    between atoms: C9_12  and  C10_13 
REMARK    4  A    between atoms: C10_13  and  C12_15 
REMARK    5  A    between atoms: C14_17  and  O3_18 
REMARK    6  A    between atoms: O3_18  and  C15_19 
REMARK    7  A    between atoms: C18_23  and  O5_24 
REMARK    8  A    between atoms: C19_26  and  O6_27 
REMARK    9  A    between atoms: C22_31  and  C23_32 
REMARK   10  A    between atoms: C23_32  and  O7_33 
REMARK   11  A    between atoms: C23_32  and  C24_35 
REMARK   12  A    between atoms: C24_35  and  O8_37 
REMARK   13  A    between atoms: C24_35  and  C26_39 
REMARK   14  A    between atoms: C26_39  and  O9_40 
REMARK   15  A    between atoms: C26_39  and  C27_42 
REMARK   16  A    between atoms: C27_42  and  O10_45 
REMARK   17  A    between atoms: C32_49  and  O11_50 
ROOT
HETATM    1  C12 UNL     1      38.246   6.732 -51.367  1.00  0.00     0.022 C 
HETATM    2  C13 UNL     1      39.142   5.553 -51.116  1.00  0.00     0.042 C 
HETATM    3  C14 UNL     1      39.308   5.530 -49.591  1.00  0.00     0.157 C 
HETATM    4  C19 UNL     1      39.813   6.806 -49.021  1.00  0.00     0.094 C 
HETATM    5  C20 UNL     1      38.890   7.277 -47.901  1.00  0.00     0.042 C 
HETATM    6  C21 UNL     1      39.525   8.682 -47.690  1.00  0.00     0.011 C 
HETATM    7  C22 UNL     1      39.417   9.173 -49.051  1.00  0.00     0.031 C 
HETATM    8  C30 UNL     1      39.895   7.976 -49.903  1.00  0.00     0.022 C 
HETATM    9  C31 UNL     1      41.333   8.156 -50.327  1.00  0.00     0.021 C 
HETATM   10  C32 UNL     1      39.064   7.982 -51.133  1.00  0.00     0.134 C 
ENDROOT
BRANCH   7  11
HETATM   11  C23 UNL     1      39.940  10.435 -49.540  1.00  0.00     0.159 C 
BRANCH  11  12
HETATM   12  O7  UNL     1      40.896  11.118 -48.818  1.00  0.00    -0.392 OA
ATOM     13  H7  UNL     1      41.414  10.666 -48.163  1.00  0.00     0.210 HD
ENDBRANCH  11  12
BRANCH  11  14
HETATM   14  C24 UNL     1      39.032  11.470 -50.118  1.00  0.00     0.109 C 
HETATM   15  C25 UNL     1      39.625  11.733 -51.542  1.00  0.00     0.051 C 
BRANCH  14  16
HETATM   16  O8  UNL     1      37.770  11.006 -50.488  1.00  0.00    -0.385 OA
ATOM     17  H8  UNL     1      37.612  10.978 -51.424  1.00  0.00     0.210 HD
ENDBRANCH  14  16
BRANCH  14  18
HETATM   18  C26 UNL     1      38.941  12.710 -49.326  1.00  0.00     0.188 C 
BRANCH  18  19
HETATM   19  O9  UNL     1      38.400  12.384 -48.074  1.00  0.00    -0.389 OA
ATOM     20  H9  UNL     1      37.693  11.765 -48.213  1.00  0.00     0.210 HD
ENDBRANCH  18  19
BRANCH  18  21
HETATM   21  C27 UNL     1      38.125  13.857 -49.791  1.00  0.00     0.079 C 
HETATM   22  C28 UNL     1      37.834  13.938 -51.248  1.00  0.00     0.048 C 
HETATM   23  C29 UNL     1      38.484  15.207 -49.211  1.00  0.00     0.048 C 
BRANCH  21  24
HETATM   24  O10 UNL     1      36.854  13.601 -49.174  1.00  0.00    -0.388 OA
ATOM     25  H10 UNL     1      36.804  12.653 -49.196  1.00  0.00     0.210 HD
ENDBRANCH  21  24
ENDBRANCH  18  21
ENDBRANCH  14  18
ENDBRANCH  11  14
ENDBRANCH   7  11
BRANCH   4  26
HETATM   26  O6  UNL     1      40.964   6.483 -48.317  1.00  0.00    -0.386 OA
ATOM     27  H6  UNL     1      41.561   6.101 -48.949  1.00  0.00     0.210 HD
ENDBRANCH   4  26
BRANCH  10  28
HETATM   28  O11 UNL     1      39.825   8.156 -52.301  1.00  0.00    -0.394 OA
ATOM     29  H11 UNL     1      40.516   8.764 -52.065  1.00  0.00     0.210 HD
ENDBRANCH  10  28
BRANCH   3  30
HETATM   30  O3  UNL     1      40.018   4.418 -49.176  1.00  0.00    -0.373 OA
BRANCH  30  31
HETATM   31  C15 UNL     1      40.772   3.777 -50.082  1.00  0.00     0.176 C 
HETATM   32  C16 UNL     1      42.255   3.712 -49.725  1.00  0.00     0.202 C 
HETATM   33  O4  UNL     1      42.690   2.642 -50.487  1.00  0.00    -0.386 OA
HETATM   34  C17 UNL     1      41.749   1.632 -50.305  1.00  0.00     0.201 C 
HETATM   35  C18 UNL     1      40.426   2.302 -50.092  1.00  0.00     0.173 C 
BRANCH  35  36
HETATM   36  O5  UNL     1      39.496   1.976 -51.074  1.00  0.00    -0.391 OA
ATOM     37  H5  UNL     1      39.897   1.587 -51.842  1.00  0.00     0.210 HD
ENDBRANCH  35  36
ENDBRANCH  30  31
ENDBRANCH   3  30
BRANCH   1  38
HETATM   38  C10 UNL     1      37.722   6.814 -52.771  1.00  0.00    -0.006 C 
HETATM   39  C11 UNL     1      36.680   7.902 -52.794  1.00  0.00     0.011 C 
BRANCH  38  40
HETATM   40  C9  UNL     1      37.230   5.528 -53.333  1.00  0.00     0.018 C 
HETATM   41  C2  UNL     1      37.362   5.464 -54.830  1.00  0.00     0.122 C 
HETATM   42  C1  UNL     1      38.610   6.117 -55.368  1.00  0.00     0.040 C 
HETATM   43  O1  UNL     1      36.200   5.855 -55.463  1.00  0.00    -0.378 OA
HETATM   44  C3  UNL     1      35.299   4.788 -55.361  1.00  0.00     0.155 C 
HETATM   45  C7  UNL     1      35.073   4.375 -53.935  1.00  0.00     0.035 C 
HETATM   46  C8  UNL     1      35.809   5.212 -52.935  1.00  0.00     0.010 C 
BRANCH  44  47
HETATM   47  C4  UNL     1      34.029   5.064 -56.109  1.00  0.00     0.076 C 
HETATM   48  C5  UNL     1      33.868   4.206 -57.336  1.00  0.00     0.048 C 
HETATM   49  C6  UNL     1      33.919   6.526 -56.402  1.00  0.00     0.048 C 
BRANCH  47  50
HETATM   50  O2  UNL     1      32.966   4.719 -55.246  1.00  0.00    -0.388 OA
ATOM     51  H2  UNL     1      32.175   4.716 -55.773  1.00  0.00     0.210 HD
ENDBRANCH  47  50
ENDBRANCH  44  47
ENDBRANCH  38  40
ENDBRANCH   1  38
TORSDOF 17
ENDMDL
MODEL 4
REMARK VINA RESULT: -5.521010568      3.819      7.319
REMARK  17 active torsions:
REMARK  status: ('A' for Active; 'I' for Inactive)
REMARK    1  A    between atoms: C3_4  and  C4_5 
REMARK    2  A    between atoms: C4_5  and  O2_8 
REMARK    3  A    between atoms: C9_12  and  C10_13 
REMARK    4  A    between atoms: C10_13  and  C12_15 
REMARK    5  A    between atoms: C14_17  and  O3_18 
REMARK    6  A    between atoms: O3_18  and  C15_19 
REMARK    7  A    between atoms: C18_23  and  O5_24 
REMARK    8  A    between atoms: C19_26  and  O6_27 
REMARK    9  A    between atoms: C22_31  and  C23_32 
REMARK   10  A    between atoms: C23_32  and  O7_33 
REMARK   11  A    between atoms: C23_32  and  C24_35 
REMARK   12  A    between atoms: C24_35  and  O8_37 
REMARK   13  A    between atoms: C24_35  and  C26_39 
REMARK   14  A    between atoms: C26_39  and  O9_40 
REMARK   15  A    between atoms: C26_39  and  C27_42 
REMARK   16  A    between atoms: C27_42  and  O10_45 
REMARK   17  A    between atoms: C32_49  and  O11_50 
ROOT
HETATM    1  C12 UNL     1      43.667   8.712 -48.409  1.00  0.00     0.022 C 
HETATM    2  C13 UNL     1      42.292   8.945 -48.967  1.00  0.00     0.042 C 
HETATM    3  C14 UNL     1      41.662   7.547 -48.996  1.00  0.00     0.157 C 
HETATM    4  C19 UNL     1      42.459   6.542 -49.748  1.00  0.00     0.094 C 
HETATM    5  C20 UNL     1      42.698   5.312 -48.878  1.00  0.00     0.042 C 
HETATM    6  C21 UNL     1      43.710   4.592 -49.815  1.00  0.00     0.011 C 
HETATM    7  C22 UNL     1      44.683   5.662 -49.943  1.00  0.00     0.031 C 
HETATM    8  C30 UNL     1      43.809   6.914 -50.184  1.00  0.00     0.022 C 
HETATM    9  C31 UNL     1      43.760   7.262 -51.652  1.00  0.00     0.021 C 
HETATM   10  C32 UNL     1      44.487   8.034 -49.483  1.00  0.00     0.134 C 
ENDROOT
BRANCH   7  11
HETATM   11  C23 UNL     1      45.857   5.642 -50.795  1.00  0.00     0.159 C 
BRANCH  11  12
HETATM   12  O7  UNL     1      45.907   4.805 -51.889  1.00  0.00    -0.392 OA
ATOM     13  H7  UNL     1      46.525   4.970 -52.591  1.00  0.00     0.210 HD
ENDBRANCH  11  12
BRANCH  11  14
HETATM   14  C24 UNL     1      47.231   5.650 -50.210  1.00  0.00     0.109 C 
HETATM   15  C25 UNL     1      46.979   5.744 -48.669  1.00  0.00     0.051 C 
BRANCH  14  16
HETATM   16  O8  UNL     1      47.894   4.424 -50.250  1.00  0.00    -0.385 OA
ATOM     17  H8  UNL     1      48.786   4.461 -50.576  1.00  0.00     0.210 HD
ENDBRANCH  14  16
BRANCH  14  18
HETATM   18  C26 UNL     1      48.091   6.745 -50.692  1.00  0.00     0.188 C 
BRANCH  18  19
HETATM   19  O9  UNL     1      47.308   7.591 -51.490  1.00  0.00    -0.389 OA
ATOM     20  H9  UNL     1      47.798   8.391 -51.637  1.00  0.00     0.210 HD
ENDBRANCH  18  19
BRANCH  18  21
HETATM   21  C27 UNL     1      49.291   6.469 -51.518  1.00  0.00     0.079 C 
HETATM   22  C28 UNL     1      50.401   5.718 -50.874  1.00  0.00     0.048 C 
HETATM   23  C29 UNL     1      49.800   7.621 -52.357  1.00  0.00     0.048 C 
BRANCH  21  24
HETATM   24  O10 UNL     1      48.777   5.581 -52.521  1.00  0.00    -0.388 OA
ATOM     25  H10 UNL     1      49.153   5.934 -53.319  1.00  0.00     0.210 HD
ENDBRANCH  21  24
ENDBRANCH  18  21
ENDBRANCH  14  18
ENDBRANCH  11  14
ENDBRANCH   7  11
BRANCH   4  26
HETATM   26  O6  UNL     1      41.614   6.034 -50.723  1.00  0.00    -0.386 OA
ATOM     27  H6  UNL     1      41.673   5.088 -50.656  1.00  0.00     0.210 HD
ENDBRANCH   4  26
BRANCH  10  28
HETATM   28  O11 UNL     1      44.881   9.060 -50.358  1.00  0.00    -0.394 OA
ATOM     29  H11 UNL     1      45.057   8.632 -51.188  1.00  0.00     0.210 HD
ENDBRANCH  10  28
BRANCH   3  30
HETATM   30  O3  UNL     1      40.334   7.600 -49.378  1.00  0.00    -0.373 OA
BRANCH  30  31
HETATM   31  C15 UNL     1      39.404   7.239 -48.480  1.00  0.00     0.176 C 
HETATM   32  C16 UNL     1      38.957   5.784 -48.594  1.00  0.00     0.202 C 
HETATM   33  O4  UNL     1      38.432   5.543 -47.337  1.00  0.00    -0.386 OA
HETATM   34  C17 UNL     1      39.354   6.058 -46.429  1.00  0.00     0.201 C 
HETATM   35  C18 UNL     1      40.004   7.235 -47.089  1.00  0.00     0.173 C 
BRANCH  35  36
HETATM   36  O5  UNL     1      39.777   8.425 -46.404  1.00  0.00    -0.391 OA
ATOM     37  H5  UNL     1      38.959   8.419 -45.921  1.00  0.00     0.210 HD
ENDBRANCH  35  36
ENDBRANCH  30  31
ENDBRANCH   3  30
BRANCH   1  38
HETATM   38  C10 UNL     1      44.397   9.970 -48.038  1.00  0.00    -0.006 C 
HETATM   39  C11 UNL     1      45.609   9.563 -47.240  1.00  0.00     0.011 C 
BRANCH  38  40
HETATM   40  C9  UNL     1      43.569  10.997 -47.351  1.00  0.00     0.018 C 
HETATM   41  C2  UNL     1      43.626  12.337 -48.034  1.00  0.00     0.122 C 
HETATM   42  C1  UNL     1      43.673  12.260 -49.539  1.00  0.00     0.040 C 
HETATM   43  O1  UNL     1      44.588  13.154 -47.477  1.00  0.00    -0.378 OA
HETATM   44  C3  UNL     1      44.065  13.639 -46.272  1.00  0.00     0.155 C 
HETATM   45  C7  UNL     1      43.644  12.529 -45.353  1.00  0.00     0.035 C 
HETATM   46  C8  UNL     1      43.914  11.157 -45.890  1.00  0.00     0.010 C 
BRANCH  44  47
HETATM   47  C4  UNL     1      44.992  14.627 -45.627  1.00  0.00     0.076 C 
HETATM   48  C5  UNL     1      46.335  14.705 -46.303  1.00  0.00     0.048 C 
HETATM   49  C6  UNL     1      45.092  14.347 -44.161  1.00  0.00     0.048 C 
BRANCH  47  50
HETATM   50  O2  UNL     1      44.399  15.900 -45.780  1.00  0.00    -0.388 OA
ATOM     51  H2  UNL     1      44.744  16.267 -46.586  1.00  0.00     0.210 HD
ENDBRANCH  47  50
ENDBRANCH  44  47
ENDBRANCH  38  40
ENDBRANCH   1  38
TORSDOF 17
ENDMDL
MODEL 5
REMARK VINA RESULT: -5.485207606      1.250      1.480
REMARK  17 active torsions:
REMARK  status: ('A' for Active; 'I' for Inactive)
REMARK    1  A    between atoms: C3_4  and  C4_5 
REMARK    2  A    between atoms: C4_5  and  O2_8 
REMARK    3  A    between atoms: C9_12  and  C10_13 
REMARK    4  A    between atoms: C10_13  and  C12_15 
REMARK    5  A    between atoms: C14_17  and  O3_18 
REMARK    6  A    between atoms: O3_18  and  C15_19 
REMARK    7  A    between atoms: C18_23  and  O5_24 
REMARK    8  A    between atoms: C19_26  and  O6_27 
REMARK    9  A    between atoms: C22_31  and  C23_32 
REMARK   10  A    between atoms: C23_32  and  O7_33 
REMARK   11  A    between atoms: C23_32  and  C24_35 
REMARK   12  A    between atoms: C24_35  and  O8_37 
REMARK   13  A    between atoms: C24_35  and  C26_39 
REMARK   14  A    between atoms: C26_39  and  O9_40 
REMARK   15  A    between atoms: C26_39  and  C27_42 
REMARK   16  A    between atoms: C27_42  and  O10_45 
REMARK   17  A    between atoms: C32_49  and  O11_50 
ROOT
HETATM    1  C12 UNL     1      42.938  12.280 -48.529  1.00  0.00     0.022 C 
HETATM    2  C13 UNL     1      43.000  13.290 -49.639  1.00  0.00     0.042 C 
HETATM    3  C14 UNL     1      41.553  13.778 -49.778  1.00  0.00     0.157 C 
HETATM    4  C19 UNL     1      40.569  12.688 -50.005  1.00  0.00     0.094 C 
HETATM    5  C20 UNL     1      39.438  12.786 -48.987  1.00  0.00     0.042 C 
HETATM    6  C21 UNL     1      38.741  11.436 -49.322  1.00  0.00     0.011 C 
HETATM    7  C22 UNL     1      39.882  10.556 -49.143  1.00  0.00     0.031 C 
HETATM    8  C30 UNL     1      41.026  11.301 -49.868  1.00  0.00     0.022 C 
HETATM    9  C31 UNL     1      41.251  10.731 -51.247  1.00  0.00     0.021 C 
HETATM   10  C32 UNL     1      42.255  11.046 -49.074  1.00  0.00     0.134 C 
ENDROOT
BRANCH   7  11
HETATM   11  C23 UNL     1      39.902   9.130 -49.411  1.00  0.00     0.159 C 
BRANCH  11  12
HETATM   12  O7  UNL     1      38.869   8.540 -50.108  1.00  0.00    -0.392 OA
ATOM     13  H7  UNL     1      39.009   8.220 -50.992  1.00  0.00     0.210 HD
ENDBRANCH  11  12
BRANCH  11  14
HETATM   14  C24 UNL     1      40.305   8.156 -48.354  1.00  0.00     0.109 C 
HETATM   15  C25 UNL     1      41.601   7.495 -48.930  1.00  0.00     0.051 C 
BRANCH  14  16
HETATM   16  O8  UNL     1      40.843   8.728 -47.202  1.00  0.00    -0.385 OA
ATOM     17  H8  UNL     1      41.379   8.144 -46.677  1.00  0.00     0.210 HD
ENDBRANCH  14  16
BRANCH  14  18
HETATM   18  C26 UNL     1      39.277   7.152 -48.028  1.00  0.00     0.188 C 
BRANCH  18  19
HETATM   19  O9  UNL     1      38.206   7.813 -47.411  1.00  0.00    -0.389 OA
ATOM     20  H9  UNL     1      37.402   7.385 -47.681  1.00  0.00     0.210 HD
ENDBRANCH  18  19
BRANCH  18  21
HETATM   21  C27 UNL     1      39.576   6.015 -47.124  1.00  0.00     0.079 C 
HETATM   22  C28 UNL     1      40.857   5.291 -47.343  1.00  0.00     0.048 C 
HETATM   23  C29 UNL     1      38.431   5.067 -46.846  1.00  0.00     0.048 C 
BRANCH  21  24
HETATM   24  O10 UNL     1      39.733   6.666 -45.854  1.00  0.00    -0.388 OA
ATOM     25  H10 UNL     1      40.110   5.978 -45.317  1.00  0.00     0.210 HD
ENDBRANCH  21  24
ENDBRANCH  18  21
ENDBRANCH  14  18
ENDBRANCH  11  14
ENDBRANCH   7  11
BRANCH   4  26
HETATM   26  O6  UNL     1      39.910  13.005 -51.185  1.00  0.00    -0.386 OA
ATOM     27  H6  UNL     1      40.566  13.382 -51.759  1.00  0.00     0.210 HD
ENDBRANCH   4  26
BRANCH  10  28
HETATM   28  O11 UNL     1      43.240  10.364 -49.807  1.00  0.00    -0.394 OA
ATOM     29  H11 UNL     1      44.046  10.845 -49.659  1.00  0.00     0.210 HD
ENDBRANCH  10  28
BRANCH   3  30
HETATM   30  O3  UNL     1      41.454  14.814 -50.689  1.00  0.00    -0.373 OA
BRANCH  30  31
HETATM   31  C15 UNL     1      41.469  16.071 -50.219  1.00  0.00     0.176 C 
HETATM   32  C16 UNL     1      42.030  17.097 -51.201  1.00  0.00     0.202 C 
HETATM   33  O4  UNL     1      41.497  18.279 -50.720  1.00  0.00    -0.386 OA
HETATM   34  C17 UNL     1      40.152  18.022 -50.470  1.00  0.00     0.201 C 
HETATM   35  C18 UNL     1      40.052  16.583 -50.065  1.00  0.00     0.173 C 
BRANCH  35  36
HETATM   36  O5  UNL     1      39.562  16.422 -48.773  1.00  0.00    -0.391 OA
ATOM     37  H5  UNL     1      38.623  16.557 -48.719  1.00  0.00     0.210 HD
ENDBRANCH  35  36
ENDBRANCH  30  31
ENDBRANCH   3  30
BRANCH   1  38
HETATM   38  C10 UNL     1      44.283  11.842 -48.026  1.00  0.00    -0.006 C 
HETATM   39  C11 UNL     1      44.073  11.247 -46.657  1.00  0.00     0.011 C 
BRANCH  38  40
HETATM   40  C9  UNL     1      45.333  12.895 -48.045  1.00  0.00     0.018 C 
HETATM   41  C2  UNL     1      46.689  12.351 -48.405  1.00  0.00     0.122 C 
HETATM   42  C1  UNL     1      46.661  11.266 -49.452  1.00  0.00     0.040 C 
HETATM   43  O1  UNL     1      47.428  12.037 -47.283  1.00  0.00    -0.378 OA
HETATM   44  C3  UNL     1      47.904  13.244 -46.755  1.00  0.00     0.155 C 
HETATM   45  C7  UNL     1      46.790  14.209 -46.465  1.00  0.00     0.035 C 
HETATM   46  C8  UNL     1      45.424  13.667 -46.751  1.00  0.00     0.010 C 
BRANCH  44  47
HETATM   47  C4  UNL     1      48.812  13.015 -45.584  1.00  0.00     0.076 C 
HETATM   48  C5  UNL     1      48.365  11.878 -44.704  1.00  0.00     0.048 C 
HETATM   49  C6  UNL     1      49.005  14.293 -44.832  1.00  0.00     0.048 C 
BRANCH  47  50
HETATM   50  O2  UNL     1      50.067  12.635 -46.111  1.00  0.00    -0.388 OA
ATOM     51  H2  UNL     1      50.646  12.504 -45.370  1.00  0.00     0.210 HD
ENDBRANCH  47  50
ENDBRANCH  44  47
ENDBRANCH  38  40
ENDBRANCH   1  38
TORSDOF 17
ENDMDL
