MODEL 1
REMARK VINA RESULT: -6.581472901      0.000      0.000
REMARK  11 active torsions:
REMARK  status: ('A' for Active; 'I' for Inactive)
REMARK    1  A    between atoms: C2_2  and  O1_3 
REMARK    2  A    between atoms: C2_2  and  C23_41 
REMARK    3  A    between atoms: O1_3  and  C3_4 
REMARK       I    between atoms: C3_4  and  N1_6 
REMARK    4  A    between atoms: N1_6  and  C4_8 
REMARK    5  A    between atoms: C4_8  and  C5_9 
REMARK    6  A    between atoms: C5_9  and  C6_10 
REMARK    7  A    between atoms: C6_10  and  C7_11 
REMARK    8  A    between atoms: C7_11  and  S1_12 
REMARK    9  A    between atoms: S1_12  and  S2_13 
REMARK   10  A    between atoms: S2_13  and  C8_14 
REMARK   11  A    between atoms: C24_44  and  N7_45 
ROOT
HETATM    1  S2  UNL     1      42.244  12.790 -49.231  1.00  0.00    -0.044 SA
ENDROOT
BRANCH   1   2
HETATM    2  S1  UNL     1      40.710  14.212 -49.256  1.00  0.00    -0.091 SA
BRANCH   2   3
HETATM    3  C7  UNL     1      39.217  13.642 -48.356  1.00  0.00     0.086 C 
BRANCH   3   4
HETATM    4  C6  UNL     1      38.286  13.028 -49.329  1.00  0.00     0.012 C 
BRANCH   4   5
HETATM    5  C5  UNL     1      37.332  13.936 -50.022  1.00  0.00     0.020 C 
BRANCH   5   6
HETATM    6  C4  UNL     1      36.957  13.617 -51.417  1.00  0.00     0.125 C 
BRANCH   6   7
HETATM    7  N1  UNL     1      35.918  12.653 -51.555  1.00  0.00    -0.337 N 
HETATM    8  C3  UNL     1      36.112  11.330 -52.041  1.00  0.00     0.361 C 
HETATM    9  O2  UNL     1      37.254  10.935 -52.383  1.00  0.00    -0.238 OA
ATOM     10  H1  UNL     1      34.973  12.928 -51.287  1.00  0.00     0.164 HD
BRANCH   8  11
HETATM   11  O1  UNL     1      35.060  10.457 -52.147  1.00  0.00    -0.291 OA
BRANCH  11  12
HETATM   12  C2  UNL     1      34.840   9.584 -53.232  1.00  0.00     0.198 C 
HETATM   13  C1  UNL     1      33.344   9.549 -53.527  1.00  0.00     0.048 C 
BRANCH  12  14
HETATM   14  C23 UNL     1      35.225   8.201 -52.863  1.00  0.00     0.142 A 
HETATM   15  N6  UNL     1      35.925   8.005 -51.734  1.00  0.00    -0.177 N 
HETATM   16  C24 UNL     1      36.296   6.774 -51.342  1.00  0.00     0.691 A 
ATOM     17  H6  UNL     1      36.182   8.809 -51.161  1.00  0.00     0.185 HD
HETATM   18  N8  UNL     1      35.978   5.700 -52.066  1.00  0.00    -0.023 N 
HETATM   19  C25 UNL     1      35.278   5.869 -53.197  1.00  0.00     0.691 A 
ATOM     20  H8  UNL     1      36.261   4.768 -51.764  1.00  0.00     0.203 HD
HETATM   21  N9  UNL     1      34.947   4.875 -53.924  1.00  0.00    -0.234 N 
HETATM   22  N10 UNL     1      34.905   7.127 -53.587  1.00  0.00    -0.177 N 
ATOM     23  H92 UNL     1      35.225   3.938 -53.634  1.00  0.00     0.174 HD
ATOM     24  H91 UNL     1      34.415   5.004 -54.785  1.00  0.00     0.174 HD
ATOM     25  H10 UNL     1      34.372   7.246 -54.448  1.00  0.00     0.185 HD
BRANCH  16  26
HETATM   26  N7  UNL     1      36.978   6.667 -50.232  1.00  0.00    -0.234 N 
ATOM     27  H72 UNL     1      37.438   7.474 -49.812  1.00  0.00     0.174 HD
ATOM     28  H71 UNL     1      37.035   5.747 -49.795  1.00  0.00     0.174 HD
ENDBRANCH  16  26
ENDBRANCH  12  14
ENDBRANCH  11  12
ENDBRANCH   8  11
ENDBRANCH   6   7
ENDBRANCH   5   6
ENDBRANCH   4   5
ENDBRANCH   3   4
ENDBRANCH   2   3
ENDBRANCH   1   2
BRANCH   1  29
HETATM   29  C8  UNL     1      41.649  11.113 -49.525  1.00  0.00     0.059 C 
HETATM   30  N2  UNL     1      41.952  10.210 -48.657  1.00  0.00    -0.324 N 
HETATM   31  C9  UNL     1      41.639   8.866 -48.619  1.00  0.00     0.223 C 
ATOM     32  H2  UNL     1      42.512  10.542 -47.872  1.00  0.00     0.169 HD
HETATM   33  O3  UNL     1      42.433   7.887 -48.849  1.00  0.00    -0.273 OA
HETATM   34  C10 UNL     1      40.236   8.438 -48.276  1.00  0.00     0.130 C 
HETATM   35  C11 UNL     1      40.234   7.809 -46.895  1.00  0.00     0.241 C 
HETATM   36  N3  UNL     1      39.065   7.020 -46.665  1.00  0.00    -0.074 N 
HETATM   37  C12 UNL     1      38.988   5.822 -47.468  1.00  0.00     0.241 C 
ATOM     38  H32 UNL     1      38.978   6.791 -45.675  1.00  0.00     0.277 HD
ATOM     39  H31 UNL     1      38.224   7.585 -46.787  1.00  0.00     0.277 HD
HETATM   40  C13 UNL     1      40.235   5.000 -47.396  1.00  0.00     0.130 C 
HETATM   41  C14 UNL     1      39.980   3.698 -48.031  1.00  0.00     0.219 C 
HETATM   42  O4  UNL     1      39.007   3.009 -47.569  1.00  0.00    -0.274 OA
HETATM   43  N4  UNL     1      40.706   3.148 -49.096  1.00  0.00    -0.361 N 
HETATM   44  C15 UNL     1      41.657   3.836 -49.929  1.00  0.00     0.122 C 
ATOM     45  H4  UNL     1      40.545   2.162 -49.301  1.00  0.00     0.162 HD
HETATM   46  C16 UNL     1      41.321   3.715 -51.399  1.00  0.00     0.020 C 
HETATM   47  C17 UNL     1      40.053   4.405 -51.776  1.00  0.00     0.003 C 
HETATM   48  C18 UNL     1      40.199   5.904 -51.693  1.00  0.00     0.027 C 
HETATM   49  C19 UNL     1      40.881   6.489 -52.889  1.00  0.00     0.232 C 
HETATM   50  N5  UNL     1      41.558   7.720 -52.623  1.00  0.00    -0.075 N 
HETATM   51  C20 UNL     1      40.701   8.782 -52.137  1.00  0.00     0.232 C 
ATOM     52  H52 UNL     1      42.334   7.566 -51.979  1.00  0.00     0.277 HD
ATOM     53  H51 UNL     1      42.073   8.028 -53.447  1.00  0.00     0.277 HD
HETATM   54  C21 UNL     1      41.555   9.938 -51.705  1.00  0.00     0.034 C 
HETATM   55  C22 UNL     1      40.848  10.884 -50.746  1.00  0.00     0.067 C 
ENDBRANCH   1  29
TORSDOF 11
ENDMDL
MODEL 2
REMARK VINA RESULT: -6.492744456      2.695      6.784
REMARK  11 active torsions:
REMARK  status: ('A' for Active; 'I' for Inactive)
REMARK    1  A    between atoms: C2_2  and  O1_3 
REMARK    2  A    between atoms: C2_2  and  C23_41 
REMARK    3  A    between atoms: O1_3  and  C3_4 
REMARK       I    between atoms: C3_4  and  N1_6 
REMARK    4  A    between atoms: N1_6  and  C4_8 
REMARK    5  A    between atoms: C4_8  and  C5_9 
REMARK    6  A    between atoms: C5_9  and  C6_10 
REMARK    7  A    between atoms: C6_10  and  C7_11 
REMARK    8  A    between atoms: C7_11  and  S1_12 
REMARK    9  A    between atoms: S1_12  and  S2_13 
REMARK   10  A    between atoms: S2_13  and  C8_14 
REMARK   11  A    between atoms: C24_44  and  N7_45 
ROOT
HETATM    1  S2  UNL     1      36.042  11.526 -52.101  1.00  0.00    -0.044 SA
ENDROOT
BRANCH   1   2
HETATM    2  S1  UNL     1      35.842  10.456 -53.888  1.00  0.00    -0.091 SA
BRANCH   2   3
HETATM    3  C7  UNL     1      36.700   8.835 -53.828  1.00  0.00     0.086 C 
BRANCH   3   4
HETATM    4  C6  UNL     1      35.932   7.866 -54.641  1.00  0.00     0.012 C 
BRANCH   4   5
HETATM    5  C5  UNL     1      35.510   6.604 -53.973  1.00  0.00     0.020 C 
BRANCH   5   6
HETATM    6  C4  UNL     1      35.705   6.493 -52.511  1.00  0.00     0.125 C 
BRANCH   6   7
HETATM    7  N1  UNL     1      36.747   5.609 -52.109  1.00  0.00    -0.337 N 
HETATM    8  C3  UNL     1      37.856   5.994 -51.305  1.00  0.00     0.361 C 
HETATM    9  O2  UNL     1      37.971   7.176 -50.896  1.00  0.00    -0.238 OA
ATOM     10  H1  UNL     1      36.695   4.639 -52.416  1.00  0.00     0.164 HD
BRANCH   8  11
HETATM   11  O1  UNL     1      38.824   5.086 -50.959  1.00  0.00    -0.291 OA
BRANCH  11  12
HETATM   12  C2  UNL     1      40.023   5.398 -50.287  1.00  0.00     0.198 C 
HETATM   13  C1  UNL     1      40.885   4.141 -50.231  1.00  0.00     0.048 C 
BRANCH  12  14
HETATM   14  C23 UNL     1      39.740   5.772 -48.881  1.00  0.00     0.142 A 
HETATM   15  N6  UNL     1      39.191   4.856 -48.067  1.00  0.00    -0.177 N 
HETATM   16  C24 UNL     1      38.919   5.132 -46.780  1.00  0.00     0.691 A 
ATOM     17  H6  UNL     1      38.976   3.928 -48.433  1.00  0.00     0.185 HD
HETATM   18  N8  UNL     1      39.187   6.333 -46.266  1.00  0.00    -0.023 N 
HETATM   19  C25 UNL     1      39.736   7.266 -47.058  1.00  0.00     0.691 A 
ATOM     20  H8  UNL     1      38.979   6.538 -45.289  1.00  0.00     0.203 HD
HETATM   21  N9  UNL     1      40.014   8.428 -46.616  1.00  0.00    -0.234 N 
HETATM   22  N10 UNL     1      40.010   6.973 -48.367  1.00  0.00    -0.177 N 
ATOM     23  H92 UNL     1      39.810   8.647 -45.641  1.00  0.00     0.174 HD
ATOM     24  H91 UNL     1      40.431   9.138 -47.219  1.00  0.00     0.174 HD
ATOM     25  H10 UNL     1      40.428   7.688 -48.962  1.00  0.00     0.185 HD
BRANCH  16  26
HETATM   26  N7  UNL     1      38.383   4.187 -46.053  1.00  0.00    -0.234 N 
ATOM     27  H72 UNL     1      38.274   3.239 -46.413  1.00  0.00     0.174 HD
ATOM     28  H71 UNL     1      38.077   4.427 -45.110  1.00  0.00     0.174 HD
ENDBRANCH  16  26
ENDBRANCH  12  14
ENDBRANCH  11  12
ENDBRANCH   8  11
ENDBRANCH   6   7
ENDBRANCH   5   6
ENDBRANCH   4   5
ENDBRANCH   3   4
ENDBRANCH   2   3
ENDBRANCH   1   2
BRANCH   1  29
HETATM   29  C8  UNL     1      37.730  11.518 -51.465  1.00  0.00     0.059 C 
HETATM   30  N2  UNL     1      38.216  10.390 -51.075  1.00  0.00    -0.324 N 
HETATM   31  C9  UNL     1      39.458  10.084 -50.554  1.00  0.00     0.223 C 
ATOM     32  H2  UNL     1      37.582   9.597 -51.166  1.00  0.00     0.169 HD
HETATM   33  O3  UNL     1      39.730   9.804 -49.334  1.00  0.00    -0.273 OA
HETATM   34  C10 UNL     1      40.659  10.058 -51.462  1.00  0.00     0.130 C 
HETATM   35  C11 UNL     1      41.107   8.620 -51.649  1.00  0.00     0.241 C 
HETATM   36  N3  UNL     1      42.448   8.534 -52.139  1.00  0.00    -0.074 N 
HETATM   37  C12 UNL     1      43.453   8.973 -51.199  1.00  0.00     0.241 C 
ATOM     38  H32 UNL     1      42.650   7.588 -52.460  1.00  0.00     0.277 HD
ATOM     39  H31 UNL     1      42.538   9.041 -53.020  1.00  0.00     0.277 HD
HETATM   40  C13 UNL     1      43.310   8.326 -49.859  1.00  0.00     0.130 C 
HETATM   41  C14 UNL     1      44.503   8.634 -49.055  1.00  0.00     0.219 C 
HETATM   42  O4  UNL     1      45.635   8.305 -49.551  1.00  0.00    -0.274 OA
HETATM   43  N4  UNL     1      44.509   9.256 -47.800  1.00  0.00    -0.361 N 
HETATM   44  C15 UNL     1      43.404   9.932 -47.174  1.00  0.00     0.122 C 
ATOM     45  H4  UNL     1      45.384   9.225 -47.277  1.00  0.00     0.162 HD
HETATM   46  C16 UNL     1      43.754  11.348 -46.772  1.00  0.00     0.020 C 
HETATM   47  C17 UNL     1      44.023  12.245 -47.933  1.00  0.00     0.003 C 
HETATM   48  C18 UNL     1      42.762  12.529 -48.709  1.00  0.00     0.027 C 
HETATM   49  C19 UNL     1      41.916  13.589 -48.077  1.00  0.00     0.232 C 
HETATM   50  N5  UNL     1      40.525  13.480 -48.390  1.00  0.00    -0.075 N 
HETATM   51  C20 UNL     1      40.220  13.566 -49.803  1.00  0.00     0.232 C 
ATOM     52  H52 UNL     1      40.138  12.623 -47.994  1.00  0.00     0.277 HD
ATOM     53  H51 UNL     1      39.988  14.172 -47.868  1.00  0.00     0.277 HD
HETATM   54  C21 UNL     1      38.771  13.232 -50.011  1.00  0.00     0.034 C 
HETATM   55  C22 UNL     1      38.448  12.809 -51.436  1.00  0.00     0.067 C 
ENDBRANCH   1  29
TORSDOF 11
ENDMDL
MODEL 3
REMARK VINA RESULT: -6.316052227      3.282      7.648
REMARK  11 active torsions:
REMARK  status: ('A' for Active; 'I' for Inactive)
REMARK    1  A    between atoms: C2_2  and  O1_3 
REMARK    2  A    between atoms: C2_2  and  C23_41 
REMARK    3  A    between atoms: O1_3  and  C3_4 
REMARK       I    between atoms: C3_4  and  N1_6 
REMARK    4  A    between atoms: N1_6  and  C4_8 
REMARK    5  A    between atoms: C4_8  and  C5_9 
REMARK    6  A    between atoms: C5_9  and  C6_10 
REMARK    7  A    between atoms: C6_10  and  C7_11 
REMARK    8  A    between atoms: C7_11  and  S1_12 
REMARK    9  A    between atoms: S1_12  and  S2_13 
REMARK   10  A    between atoms: S2_13  and  C8_14 
REMARK   11  A    between atoms: C24_44  and  N7_45 
ROOT
HETATM    1  S2  UNL     1      43.551  13.006 -46.858  1.00  0.00    -0.044 SA
ENDROOT
BRANCH   1   2
HETATM    2  S1  UNL     1      43.868  11.088 -46.084  1.00  0.00    -0.091 SA
BRANCH   2   3
HETATM    3  C7  UNL     1      45.175  10.177 -46.995  1.00  0.00     0.086 C 
BRANCH   3   4
HETATM    4  C6  UNL     1      44.531   9.354 -48.043  1.00  0.00     0.012 C 
BRANCH   4   5
HETATM    5  C5  UNL     1      45.240   9.241 -49.348  1.00  0.00     0.020 C 
BRANCH   5   6
HETATM    6  C4  UNL     1      45.016   8.022 -50.156  1.00  0.00     0.125 C 
BRANCH   6   7
HETATM    7  N1  UNL     1      43.671   7.553 -50.177  1.00  0.00    -0.337 N 
HETATM    8  C3  UNL     1      42.752   7.807 -51.233  1.00  0.00     0.361 C 
HETATM    9  O2  UNL     1      43.097   8.480 -52.235  1.00  0.00    -0.238 OA
ATOM     10  H1  UNL     1      43.346   7.001 -49.384  1.00  0.00     0.164 HD
BRANCH   8  11
HETATM   11  O1  UNL     1      41.469   7.324 -51.181  1.00  0.00    -0.291 OA
BRANCH  11  12
HETATM   12  C2  UNL     1      41.017   6.325 -50.294  1.00  0.00     0.198 C 
HETATM   13  C1  UNL     1      39.942   5.506 -51.000  1.00  0.00     0.048 C 
BRANCH  12  14
HETATM   14  C23 UNL     1      40.363   6.944 -49.117  1.00  0.00     0.142 A 
HETATM   15  N6  UNL     1      39.853   8.181 -49.237  1.00  0.00    -0.177 N 
HETATM   16  C24 UNL     1      39.241   8.791 -48.207  1.00  0.00     0.691 A 
ATOM     17  H6  UNL     1      39.932   8.668 -50.129  1.00  0.00     0.185 HD
HETATM   18  N8  UNL     1      39.120   8.186 -47.026  1.00  0.00    -0.023 N 
HETATM   19  C25 UNL     1      39.620   6.950 -46.880  1.00  0.00     0.691 A 
ATOM     20  H8  UNL     1      38.654   8.653 -46.248  1.00  0.00     0.203 HD
HETATM   21  N9  UNL     1      39.529   6.326 -45.772  1.00  0.00    -0.234 N 
HETATM   22  N10 UNL     1      40.241   6.337 -47.935  1.00  0.00    -0.177 N 
ATOM     23  H92 UNL     1      39.067   6.783 -44.986  1.00  0.00     0.174 HD
ATOM     24  H91 UNL     1      39.909   5.387 -45.661  1.00  0.00     0.174 HD
ATOM     25  H10 UNL     1      40.618   5.397 -47.816  1.00  0.00     0.185 HD
BRANCH  16  26
HETATM   26  N7  UNL     1      38.773   9.996 -48.404  1.00  0.00    -0.234 N 
ATOM     27  H72 UNL     1      38.349  10.262 -49.293  1.00  0.00     0.174 HD
ATOM     28  H71 UNL     1      38.843  10.666 -47.638  1.00  0.00     0.174 HD
ENDBRANCH  16  26
ENDBRANCH  12  14
ENDBRANCH  11  12
ENDBRANCH   8  11
ENDBRANCH   6   7
ENDBRANCH   5   6
ENDBRANCH   4   5
ENDBRANCH   3   4
ENDBRANCH   2   3
ENDBRANCH   1   2
BRANCH   1  29
HETATM   29  C8  UNL     1      42.372  13.024 -48.223  1.00  0.00     0.059 C 
HETATM   30  N2  UNL     1      41.169  13.408 -47.969  1.00  0.00    -0.324 N 
HETATM   31  C9  UNL     1      40.072  13.524 -48.800  1.00  0.00     0.223 C 
ATOM     32  H2  UNL     1      40.999  13.669 -46.998  1.00  0.00     0.169 HD
HETATM   33  O3  UNL     1      39.051  12.752 -48.834  1.00  0.00    -0.273 OA
HETATM   34  C10 UNL     1      40.009  14.654 -49.793  1.00  0.00     0.130 C 
HETATM   35  C11 UNL     1      38.953  15.649 -49.345  1.00  0.00     0.241 C 
HETATM   36  N3  UNL     1      38.541  16.511 -50.407  1.00  0.00    -0.074 N 
HETATM   37  C12 UNL     1      37.807  15.849 -51.460  1.00  0.00     0.241 C 
ATOM     38  H32 UNL     1      38.005  17.298 -50.040  1.00  0.00     0.277 HD
ATOM     39  H31 UNL     1      39.343  17.011 -50.792  1.00  0.00     0.277 HD
HETATM   40  C13 UNL     1      36.671  15.027 -50.941  1.00  0.00     0.130 C 
HETATM   41  C14 UNL     1      35.840  14.598 -52.076  1.00  0.00     0.219 C 
HETATM   42  O4  UNL     1      35.369  15.519 -52.829  1.00  0.00    -0.274 OA
HETATM   43  N4  UNL     1      35.520  13.275 -52.406  1.00  0.00    -0.361 N 
HETATM   44  C15 UNL     1      36.131  12.088 -51.870  1.00  0.00     0.122 C 
ATOM     45  H4  UNL     1      34.780  13.140 -53.094  1.00  0.00     0.162 HD
HETATM   46  C16 UNL     1      36.667  11.181 -52.956  1.00  0.00     0.020 C 
HETATM   47  C17 UNL     1      37.805  11.774 -53.717  1.00  0.00     0.003 C 
HETATM   48  C18 UNL     1      39.044  11.872 -52.864  1.00  0.00     0.027 C 
HETATM   49  C19 UNL     1      39.781  10.574 -52.759  1.00  0.00     0.232 C 
HETATM   50  N5  UNL     1      40.554  10.444 -51.563  1.00  0.00    -0.075 N 
HETATM   51  C20 UNL     1      41.575  11.457 -51.396  1.00  0.00     0.232 C 
ATOM     52  H52 UNL     1      39.943  10.417 -50.747  1.00  0.00     0.277 HD
ATOM     53  H51 UNL     1      40.965   9.512 -51.505  1.00  0.00     0.277 HD
HETATM   54  C21 UNL     1      42.166  11.332 -50.022  1.00  0.00     0.034 C 
HETATM   55  C22 UNL     1      42.866  12.597 -49.549  1.00  0.00     0.067 C 
ENDBRANCH   1  29
TORSDOF 11
ENDMDL
MODEL 4
REMARK VINA RESULT: -6.296000280      3.152      7.090
REMARK  11 active torsions:
REMARK  status: ('A' for Active; 'I' for Inactive)
REMARK    1  A    between atoms: C2_2  and  O1_3 
REMARK    2  A    between atoms: C2_2  and  C23_41 
REMARK    3  A    between atoms: O1_3  and  C3_4 
REMARK       I    between atoms: C3_4  and  N1_6 
REMARK    4  A    between atoms: N1_6  and  C4_8 
REMARK    5  A    between atoms: C4_8  and  C5_9 
REMARK    6  A    between atoms: C5_9  and  C6_10 
REMARK    7  A    between atoms: C6_10  and  C7_11 
REMARK    8  A    between atoms: C7_11  and  S1_12 
REMARK    9  A    between atoms: S1_12  and  S2_13 
REMARK   10  A    between atoms: S2_13  and  C8_14 
REMARK   11  A    between atoms: C24_44  and  N7_45 
ROOT
HETATM    1  S2  UNL     1      41.423   5.793 -50.865  1.00  0.00    -0.044 SA
ENDROOT
BRANCH   1   2
HETATM    2  S1  UNL     1      41.775   4.329 -49.412  1.00  0.00    -0.091 SA
BRANCH   2   3
HETATM    3  C7  UNL     1      40.337   4.095 -48.296  1.00  0.00     0.086 C 
BRANCH   3   4
HETATM    4  C6  UNL     1      40.407   5.109 -47.220  1.00  0.00     0.012 C 
BRANCH   4   5
HETATM    5  C5  UNL     1      39.372   6.179 -47.227  1.00  0.00     0.020 C 
BRANCH   5   6
HETATM    6  C4  UNL     1      38.246   6.050 -48.179  1.00  0.00     0.125 C 
BRANCH   6   7
HETATM    7  N1  UNL     1      38.160   7.087 -49.152  1.00  0.00    -0.337 N 
HETATM    8  C3  UNL     1      37.885   6.870 -50.531  1.00  0.00     0.361 C 
HETATM    9  O2  UNL     1      37.696   5.710 -50.971  1.00  0.00    -0.238 OA
ATOM     10  H1  UNL     1      38.306   8.047 -48.840  1.00  0.00     0.164 HD
BRANCH   8  11
HETATM   11  O1  UNL     1      37.820   7.921 -51.409  1.00  0.00    -0.291 OA
BRANCH  11  12
HETATM   12  C2  UNL     1      37.144   7.901 -52.647  1.00  0.00     0.198 C 
HETATM   13  C1  UNL     1      38.126   8.310 -53.739  1.00  0.00     0.048 C 
BRANCH  12  14
HETATM   14  C23 UNL     1      36.063   8.915 -52.657  1.00  0.00     0.142 A 
HETATM   15  N6  UNL     1      34.834   8.545 -53.052  1.00  0.00    -0.177 N 
HETATM   16  C24 UNL     1      33.811   9.416 -53.075  1.00  0.00     0.691 A 
ATOM     17  H6  UNL     1      34.673   7.580 -53.341  1.00  0.00     0.185 HD
HETATM   18  N8  UNL     1      33.984  10.685 -52.703  1.00  0.00    -0.023 N 
HETATM   19  C25 UNL     1      35.202  11.080 -52.304  1.00  0.00     0.691 A 
ATOM     20  H8  UNL     1      33.205  11.342 -52.722  1.00  0.00     0.203 HD
HETATM   21  N9  UNL     1      35.420  12.281 -51.936  1.00  0.00    -0.234 N 
HETATM   22  N10 UNL     1      36.236  10.184 -52.284  1.00  0.00    -0.177 N 
ATOM     23  H92 UNL     1      34.650  12.948 -51.951  1.00  0.00     0.174 HD
ATOM     24  H91 UNL     1      36.346  12.581 -51.633  1.00  0.00     0.174 HD
ATOM     25  H10 UNL     1      37.159  10.492 -51.977  1.00  0.00     0.185 HD
BRANCH  16  26
HETATM   26  N7  UNL     1      32.645   8.979 -53.474  1.00  0.00    -0.234 N 
ATOM     27  H72 UNL     1      31.823   9.038 -52.873  1.00  0.00     0.174 HD
ATOM     28  H71 UNL     1      32.582   8.575 -54.408  1.00  0.00     0.174 HD
ENDBRANCH  16  26
ENDBRANCH  12  14
ENDBRANCH  11  12
ENDBRANCH   8  11
ENDBRANCH   6   7
ENDBRANCH   5   6
ENDBRANCH   4   5
ENDBRANCH   3   4
ENDBRANCH   2   3
ENDBRANCH   1   2
BRANCH   1  29
HETATM   29  C8  UNL     1      41.572   7.470 -50.219  1.00  0.00     0.059 C 
HETATM   30  N2  UNL     1      40.995   8.417 -50.875  1.00  0.00    -0.324 N 
HETATM   31  C9  UNL     1      40.938   9.774 -50.624  1.00  0.00     0.223 C 
ATOM     32  H2  UNL     1      40.501   8.116 -51.715  1.00  0.00     0.169 HD
HETATM   33  O3  UNL     1      41.566  10.697 -51.252  1.00  0.00    -0.273 OA
HETATM   34  C10 UNL     1      40.065  10.287 -49.510  1.00  0.00     0.130 C 
HETATM   35  C11 UNL     1      38.872  11.011 -50.109  1.00  0.00     0.241 C 
HETATM   36  N3  UNL     1      38.231  11.866 -49.160  1.00  0.00    -0.074 N 
HETATM   37  C12 UNL     1      39.020  13.007 -48.759  1.00  0.00     0.241 C 
ATOM     38  H32 UNL     1      37.321  12.168 -49.510  1.00  0.00     0.277 HD
ATOM     39  H31 UNL     1      37.934  11.333 -48.342  1.00  0.00     0.277 HD
HETATM   40  C13 UNL     1      39.556  13.776 -49.924  1.00  0.00     0.130 C 
HETATM   41  C14 UNL     1      40.127  15.039 -49.435  1.00  0.00     0.219 C 
HETATM   42  O4  UNL     1      39.352  15.803 -48.762  1.00  0.00    -0.274 OA
HETATM   43  N4  UNL     1      41.441  15.480 -49.638  1.00  0.00    -0.361 N 
HETATM   44  C15 UNL     1      42.541  14.694 -50.131  1.00  0.00     0.122 C 
ATOM     45  H4  UNL     1      41.638  16.455 -49.415  1.00  0.00     0.162 HD
HETATM   46  C16 UNL     1      43.730  14.726 -49.196  1.00  0.00     0.020 C 
HETATM   47  C17 UNL     1      43.470  14.069 -47.882  1.00  0.00     0.003 C 
HETATM   48  C18 UNL     1      43.334  12.575 -48.033  1.00  0.00     0.027 C 
HETATM   49  C19 UNL     1      44.654  11.877 -48.129  1.00  0.00     0.232 C 
HETATM   50  N5  UNL     1      44.602  10.638 -48.841  1.00  0.00    -0.075 N 
HETATM   51  C20 UNL     1      43.710   9.653 -48.265  1.00  0.00     0.232 C 
ATOM     52  H52 UNL     1      44.367  10.801 -49.820  1.00  0.00     0.277 HD
ATOM     53  H51 UNL     1      45.539  10.250 -48.948  1.00  0.00     0.277 HD
HETATM   54  C21 UNL     1      43.591   8.493 -49.210  1.00  0.00     0.034 C 
HETATM   55  C22 UNL     1      42.347   7.649 -48.973  1.00  0.00     0.067 C 
ENDBRANCH   1  29
TORSDOF 11
ENDMDL
MODEL 5
REMARK VINA RESULT: -6.224508996      3.441      8.534
REMARK  11 active torsions:
REMARK  status: ('A' for Active; 'I' for Inactive)
REMARK    1  A    between atoms: C2_2  and  O1_3 
REMARK    2  A    between atoms: C2_2  and  C23_41 
REMARK    3  A    between atoms: O1_3  and  C3_4 
REMARK       I    between atoms: C3_4  and  N1_6 
REMARK    4  A    between atoms: N1_6  and  C4_8 
REMARK    5  A    between atoms: C4_8  and  C5_9 
REMARK    6  A    between atoms: C5_9  and  C6_10 
REMARK    7  A    between atoms: C6_10  and  C7_11 
REMARK    8  A    between atoms: C7_11  and  S1_12 
REMARK    9  A    between atoms: S1_12  and  S2_13 
REMARK   10  A    between atoms: S2_13  and  C8_14 
REMARK   11  A    between atoms: C24_44  and  N7_45 
ROOT
HETATM    1  S2  UNL     1      37.076   4.030 -53.238  1.00  0.00    -0.044 SA
ENDROOT
BRANCH   1   2
HETATM    2  S1  UNL     1      37.753   3.361 -55.101  1.00  0.00    -0.091 SA
BRANCH   2   3
HETATM    3  C7  UNL     1      38.764   1.836 -54.968  1.00  0.00     0.086 C 
BRANCH   3   4
HETATM    4  C6  UNL     1      38.306   1.070 -53.787  1.00  0.00     0.012 C 
BRANCH   4   5
HETATM    5  C5  UNL     1      39.313   0.215 -53.100  1.00  0.00     0.020 C 
BRANCH   5   6
HETATM    6  C4  UNL     1      40.500   0.876 -52.513  1.00  0.00     0.125 C 
BRANCH   6   7
HETATM    7  N1  UNL     1      40.232   1.699 -51.382  1.00  0.00    -0.337 N 
HETATM    8  C3  UNL     1      40.292   3.121 -51.395  1.00  0.00     0.361 C 
HETATM    9  O2  UNL     1      40.593   3.739 -52.445  1.00  0.00    -0.238 OA
ATOM     10  H1  UNL     1      39.981   1.240 -50.507  1.00  0.00     0.164 HD
BRANCH   8  11
HETATM   11  O1  UNL     1      40.022   3.846 -50.263  1.00  0.00    -0.291 OA
BRANCH  11  12
HETATM   12  C2  UNL     1      40.912   4.755 -49.654  1.00  0.00     0.198 C 
HETATM   13  C1  UNL     1      42.134   3.981 -49.172  1.00  0.00     0.048 C 
BRANCH  12  14
HETATM   14  C23 UNL     1      40.291   5.348 -48.446  1.00  0.00     0.142 A 
HETATM   15  N6  UNL     1      39.497   4.579 -47.683  1.00  0.00    -0.177 N 
HETATM   16  C24 UNL     1      38.912   5.058 -46.572  1.00  0.00     0.691 A 
ATOM     17  H6  UNL     1      39.334   3.609 -47.954  1.00  0.00     0.185 HD
HETATM   18  N8  UNL     1      39.103   6.320 -46.187  1.00  0.00    -0.023 N 
HETATM   19  C25 UNL     1      39.892   7.109 -46.931  1.00  0.00     0.691 A 
ATOM     20  H8  UNL     1      38.657   6.679 -45.343  1.00  0.00     0.203 HD
HETATM   21  N9  UNL     1      40.109   8.322 -46.607  1.00  0.00    -0.234 N 
HETATM   22  N10 UNL     1      40.483   6.611 -48.061  1.00  0.00    -0.177 N 
ATOM     23  H92 UNL     1      39.668   8.694 -45.765  1.00  0.00     0.174 HD
ATOM     24  H91 UNL     1      40.708   8.922 -47.173  1.00  0.00     0.174 HD
ATOM     25  H10 UNL     1      41.082   7.218 -48.620  1.00  0.00     0.185 HD
BRANCH  16  26
HETATM   26  N7  UNL     1      38.152   4.246 -45.885  1.00  0.00    -0.234 N 
ATOM     27  H72 UNL     1      38.433   3.283 -45.703  1.00  0.00     0.174 HD
ATOM     28  H71 UNL     1      37.265   4.607 -45.533  1.00  0.00     0.174 HD
ENDBRANCH  16  26
ENDBRANCH  12  14
ENDBRANCH  11  12
ENDBRANCH   8  11
ENDBRANCH   6   7
ENDBRANCH   5   6
ENDBRANCH   4   5
ENDBRANCH   3   4
ENDBRANCH   2   3
ENDBRANCH   1   2
BRANCH   1  29
HETATM   29  C8  UNL     1      37.534   5.742 -52.900  1.00  0.00     0.059 C 
HETATM   30  N2  UNL     1      38.324   5.965 -51.907  1.00  0.00    -0.324 N 
HETATM   31  C9  UNL     1      38.837   7.151 -51.420  1.00  0.00     0.223 C 
ATOM     32  H2  UNL     1      38.617   5.131 -51.398  1.00  0.00     0.169 HD
HETATM   33  O3  UNL     1      38.486   7.756 -50.347  1.00  0.00    -0.273 OA
HETATM   34  C10 UNL     1      39.926   7.858 -52.184  1.00  0.00     0.130 C 
HETATM   35  C11 UNL     1      41.229   7.737 -51.414  1.00  0.00     0.241 C 
HETATM   36  N3  UNL     1      42.195   8.702 -51.837  1.00  0.00    -0.074 N 
HETATM   37  C12 UNL     1      41.855  10.066 -51.509  1.00  0.00     0.241 C 
ATOM     38  H32 UNL     1      43.117   8.467 -51.471  1.00  0.00     0.277 HD
ATOM     39  H31 UNL     1      42.376   8.610 -52.837  1.00  0.00     0.277 HD
HETATM   40  C13 UNL     1      41.492  10.240 -50.069  1.00  0.00     0.130 C 
HETATM   41  C14 UNL     1      41.405  11.677 -49.773  1.00  0.00     0.219 C 
HETATM   42  O4  UNL     1      42.442  12.383 -50.022  1.00  0.00    -0.274 OA
HETATM   43  N4  UNL     1      40.290  12.341 -49.244  1.00  0.00    -0.361 N 
HETATM   44  C15 UNL     1      38.956  11.815 -49.129  1.00  0.00     0.122 C 
ATOM     45  H4  UNL     1      40.439  13.292 -48.908  1.00  0.00     0.162 HD
HETATM   46  C16 UNL     1      37.930  12.708 -49.791  1.00  0.00     0.020 C 
HETATM   47  C17 UNL     1      38.082  12.789 -51.273  1.00  0.00     0.003 C 
HETATM   48  C18 UNL     1      37.715  11.485 -51.934  1.00  0.00     0.027 C 
HETATM   49  C19 UNL     1      36.238  11.305 -52.088  1.00  0.00     0.232 C 
HETATM   50  N5  UNL     1      35.824   9.937 -52.132  1.00  0.00    -0.075 N 
HETATM   51  C20 UNL     1      36.398   9.172 -53.219  1.00  0.00     0.232 C 
ATOM     52  H52 UNL     1      36.009   9.481 -51.239  1.00  0.00     0.277 HD
ATOM     53  H51 UNL     1      34.806   9.875 -52.152  1.00  0.00     0.277 HD
HETATM   54  C21 UNL     1      36.052   7.724 -53.031  1.00  0.00     0.034 C 
HETATM   55  C22 UNL     1      36.973   6.780 -53.790  1.00  0.00     0.067 C 
ENDBRANCH   1  29
TORSDOF 11
ENDMDL
