MODEL 1
REMARK VINA RESULT: -6.258544298      0.000      0.000
REMARK  15 active torsions:
REMARK  status: ('A' for Active; 'I' for Inactive)
REMARK    1  A    between atoms: O1_2  and  C2_3 
REMARK    2  A    between atoms: C2_3  and  O2_4 
REMARK    3  A    between atoms: C4_8  and  O4_9 
REMARK    4  A    between atoms: C4_8  and  C5_11 
REMARK    5  A    between atoms: C5_11  and  C6_12 
REMARK    6  A    between atoms: C6_12  and  O5_13 
REMARK    7  A    between atoms: C6_12  and  C7_15 
REMARK    8  A    between atoms: C7_15  and  O6_16 
REMARK    9  A    between atoms: C8_18  and  O7_19 
REMARK   10  A    between atoms: C9_21  and  O8_22 
REMARK   11  A    between atoms: C10_24  and  C12_26 
REMARK   12  A    between atoms: C23_38  and  C25_40 
REMARK   13  A    between atoms: C25_40  and  C26_41 
REMARK   14  A    between atoms: C26_41  and  O10_42 
REMARK   15  A    between atoms: C26_41  and  C27_44 
ROOT
HETATM    1  C7  UNL     1      38.916  11.428 -49.986  1.00  0.00     0.120 C 
HETATM    2  C8  UNL     1      38.774  12.292 -48.806  1.00  0.00     0.185 C 
HETATM    3  C9  UNL     1      39.893  13.343 -48.905  1.00  0.00     0.163 C 
HETATM    4  C10 UNL     1      39.996  13.547 -50.440  1.00  0.00     0.021 C 
HETATM    5  C11 UNL     1      38.770  14.292 -50.863  1.00  0.00     0.024 C 
HETATM    6  C30 UNL     1      39.962  12.113 -50.919  1.00  0.00     0.002 C 
HETATM    7  C31 UNL     1      39.453  11.919 -52.307  1.00  0.00     0.019 C 
HETATM    8  C32 UNL     1      41.307  11.452 -50.811  1.00  0.00     0.019 C 
ENDROOT
BRANCH   4   9
HETATM    9  C12 UNL     1      41.232  14.311 -50.725  1.00  0.00    -0.038 C 
HETATM   10  C13 UNL     1      41.992  14.144 -51.810  1.00  0.00    -0.019 C 
HETATM   11  C14 UNL     1      43.151  15.043 -51.815  1.00  0.00     0.038 C 
HETATM   12  C15 UNL     1      43.236  15.637 -50.455  1.00  0.00     0.063 C 
HETATM   13  C16 UNL     1      41.852  15.345 -49.901  1.00  0.00     0.089 C 
HETATM   14  C18 UNL     1      43.781  14.822 -49.359  1.00  0.00     0.077 C 
HETATM   15  C17 UNL     1      41.172  16.612 -49.571  1.00  0.00     0.051 C 
HETATM   16  O9  UNL     1      42.524  14.736 -48.827  1.00  0.00    -0.363 OA
HETATM   17  C19 UNL     1      44.442  13.505 -49.707  1.00  0.00     0.040 C 
HETATM   18  C23 UNL     1      44.816  15.407 -48.442  1.00  0.00    -0.007 C 
HETATM   19  C20 UNL     1      45.917  13.809 -49.762  1.00  0.00     0.008 C 
HETATM   20  C21 UNL     1      46.090  15.225 -49.232  1.00  0.00    -0.007 C 
HETATM   21  C22 UNL     1      46.344  16.125 -50.354  1.00  0.00     0.011 C 
HETATM   22  C24 UNL     1      44.643  16.823 -48.060  1.00  0.00     0.019 C 
BRANCH  18  23
HETATM   23  C25 UNL     1      45.024  14.583 -47.211  1.00  0.00     0.044 C 
BRANCH  23  24
HETATM   24  C26 UNL     1      44.300  14.913 -45.986  1.00  0.00     0.122 C 
BRANCH  24  25
HETATM   25  O10 UNL     1      44.947  15.625 -45.015  1.00  0.00    -0.395 OA
ATOM     26  H10 UNL     1      45.524  15.162 -44.419  1.00  0.00     0.210 HD
ENDBRANCH  24  25
BRANCH  24  27
HETATM   27  C27 UNL     1      43.944  13.562 -45.328  1.00  0.00     0.006 C 
HETATM   28  C28 UNL     1      45.110  13.071 -44.495  1.00  0.00     0.012 C 
HETATM   29  C29 UNL     1      43.537  12.562 -46.367  1.00  0.00     0.012 C 
ENDBRANCH  24  27
ENDBRANCH  23  24
ENDBRANCH  18  23
ENDBRANCH   4   9
BRANCH   3  30
HETATM   30  O8  UNL     1      39.601  14.502 -48.258  1.00  0.00    -0.392 OA
ATOM     31  H8  UNL     1      40.364  15.044 -48.096  1.00  0.00     0.210 HD
ENDBRANCH   3  30
BRANCH   2  32
HETATM   32  O7  UNL     1      37.612  13.075 -48.757  1.00  0.00    -0.390 OA
ATOM     33  H7  UNL     1      36.909  12.740 -48.213  1.00  0.00     0.210 HD
ENDBRANCH   2  32
BRANCH   1  34
HETATM   34  C6  UNL     1      39.314  10.039 -49.676  1.00  0.00     0.161 C 
BRANCH  34  35
HETATM   35  C5  UNL     1      38.943   9.522 -48.341  1.00  0.00     0.103 C 
BRANCH  35  36
HETATM   36  C4  UNL     1      39.574   8.373 -47.700  1.00  0.00     0.169 C 
HETATM   37  O3  UNL     1      40.384   7.575 -48.507  1.00  0.00    -0.350 OA
HETATM   38  C3  UNL     1      40.622   6.439 -47.736  1.00  0.00     0.240 C 
HETATM   39  C2  UNL     1      39.343   6.169 -46.979  1.00  0.00     0.188 C 
HETATM   40  C33 UNL     1      38.442   7.266 -47.485  1.00  0.00     0.139 C 
BRANCH  39  41
HETATM   41  O1  UNL     1      38.865   4.897 -47.157  1.00  0.00    -0.358 OA
HETATM   42  C1  UNL     1      39.754   3.961 -47.608  1.00  0.00     0.205 C 
ENDBRANCH  39  41
BRANCH  39  43
HETATM   43  O2  UNL     1      39.574   6.344 -45.614  1.00  0.00    -0.363 OA
ATOM     44  H2  UNL     1      39.862   7.240 -45.486  1.00  0.00     0.213 HD
ENDBRANCH  39  43
BRANCH  36  45
HETATM   45  O4  UNL     1      40.056   8.500 -46.419  1.00  0.00    -0.365 OA
ATOM     46  H4  UNL     1      39.533   8.031 -45.780  1.00  0.00     0.213 HD
ENDBRANCH  36  45
ENDBRANCH  35  36
ENDBRANCH  34  35
BRANCH  34  47
HETATM   47  O5  UNL     1      38.487   9.166 -50.539  1.00  0.00    -0.392 OA
ATOM     48  H5  UNL     1      39.049   8.402 -50.597  1.00  0.00     0.210 HD
ENDBRANCH  34  47
ENDBRANCH   1  34
BRANCH   1  49
HETATM   49  O6  UNL     1      37.707  11.356 -50.678  1.00  0.00    -0.384 OA
ATOM     50  H6  UNL     1      37.340  12.232 -50.681  1.00  0.00     0.210 HD
ENDBRANCH   1  49
TORSDOF 15
ENDMDL
MODEL 2
REMARK VINA RESULT: -6.194645707      3.477      6.412
REMARK  15 active torsions:
REMARK  status: ('A' for Active; 'I' for Inactive)
REMARK    1  A    between atoms: O1_2  and  C2_3 
REMARK    2  A    between atoms: C2_3  and  O2_4 
REMARK    3  A    between atoms: C4_8  and  O4_9 
REMARK    4  A    between atoms: C4_8  and  C5_11 
REMARK    5  A    between atoms: C5_11  and  C6_12 
REMARK    6  A    between atoms: C6_12  and  O5_13 
REMARK    7  A    between atoms: C6_12  and  C7_15 
REMARK    8  A    between atoms: C7_15  and  O6_16 
REMARK    9  A    between atoms: C8_18  and  O7_19 
REMARK   10  A    between atoms: C9_21  and  O8_22 
REMARK   11  A    between atoms: C10_24  and  C12_26 
REMARK   12  A    between atoms: C23_38  and  C25_40 
REMARK   13  A    between atoms: C25_40  and  C26_41 
REMARK   14  A    between atoms: C26_41  and  O10_42 
REMARK   15  A    between atoms: C26_41  and  C27_44 
ROOT
HETATM    1  C7  UNL     1      39.670  10.886 -50.737  1.00  0.00     0.120 C 
HETATM    2  C8  UNL     1      38.211  10.976 -50.587  1.00  0.00     0.185 C 
HETATM    3  C9  UNL     1      37.908  12.435 -50.201  1.00  0.00     0.163 C 
HETATM    4  C10 UNL     1      39.006  13.201 -50.986  1.00  0.00     0.021 C 
HETATM    5  C11 UNL     1      38.635  13.132 -52.432  1.00  0.00     0.024 C 
HETATM    6  C30 UNL     1      40.217  12.346 -50.686  1.00  0.00     0.002 C 
HETATM    7  C31 UNL     1      41.304  12.406 -51.704  1.00  0.00     0.019 C 
HETATM    8  C32 UNL     1      40.808  12.662 -49.341  1.00  0.00     0.019 C 
ENDROOT
BRANCH   4   9
HETATM    9  C12 UNL     1      39.042  14.596 -50.490  1.00  0.00    -0.038 C 
HETATM   10  C13 UNL     1      39.022  14.942 -49.201  1.00  0.00    -0.019 C 
HETATM   11  C14 UNL     1      39.068  16.397 -49.020  1.00  0.00     0.038 C 
HETATM   12  C15 UNL     1      38.830  17.001 -50.357  1.00  0.00     0.063 C 
HETATM   13  C16 UNL     1      39.087  15.823 -51.281  1.00  0.00     0.089 C 
HETATM   14  C18 UNL     1      37.458  17.037 -50.884  1.00  0.00     0.077 C 
HETATM   15  C17 UNL     1      40.204  16.141 -52.191  1.00  0.00     0.051 C 
HETATM   16  O9  UNL     1      37.808  16.084 -51.799  1.00  0.00    -0.363 OA
HETATM   17  C19 UNL     1      36.324  16.672 -49.950  1.00  0.00     0.040 C 
HETATM   18  C23 UNL     1      36.921  18.311 -51.472  1.00  0.00    -0.007 C 
HETATM   19  C20 UNL     1      35.800  17.987 -49.435  1.00  0.00     0.008 C 
HETATM   20  C21 UNL     1      36.487  19.077 -50.244  1.00  0.00    -0.007 C 
HETATM   21  C22 UNL     1      37.516  19.704 -49.419  1.00  0.00     0.011 C 
HETATM   22  C24 UNL     1      37.857  19.118 -52.280  1.00  0.00     0.019 C 
BRANCH  18  23
HETATM   23  C25 UNL     1      35.655  18.099 -52.240  1.00  0.00     0.044 C 
BRANCH  23  24
HETATM   24  C26 UNL     1      35.590  18.483 -53.648  1.00  0.00     0.122 C 
BRANCH  24  25
HETATM   25  O10 UNL     1      34.574  19.299 -54.058  1.00  0.00    -0.395 OA
ATOM     26  H10 UNL     1      33.679  18.989 -53.976  1.00  0.00     0.210 HD
ENDBRANCH  24  25
BRANCH  24  27
HETATM   27  C27 UNL     1      35.397  17.169 -54.436  1.00  0.00     0.006 C 
HETATM   28  C28 UNL     1      34.755  16.124 -53.548  1.00  0.00     0.012 C 
HETATM   29  C29 UNL     1      36.703  16.698 -55.002  1.00  0.00     0.012 C 
ENDBRANCH  24  27
ENDBRANCH  23  24
ENDBRANCH  18  23
ENDBRANCH   4   9
BRANCH   3  30
HETATM   30  O8  UNL     1      36.658  12.836 -50.554  1.00  0.00    -0.392 OA
ATOM     31  H8  UNL     1      36.651  13.447 -51.281  1.00  0.00     0.210 HD
ENDBRANCH   3  30
BRANCH   2  32
HETATM   32  O7  UNL     1      37.463  10.801 -51.761  1.00  0.00    -0.390 OA
ATOM     33  H7  UNL     1      36.819  11.475 -51.945  1.00  0.00     0.210 HD
ENDBRANCH   2  32
BRANCH   1  34
HETATM   34  C6  UNL     1      40.332  10.039 -49.723  1.00  0.00     0.161 C 
BRANCH  34  35
HETATM   35  C5  UNL     1      39.453   9.193 -48.887  1.00  0.00     0.103 C 
BRANCH  35  36
HETATM   36  C4  UNL     1      39.931   8.139 -47.997  1.00  0.00     0.169 C 
HETATM   37  O3  UNL     1      40.646   7.099 -48.588  1.00  0.00    -0.350 OA
HETATM   38  C3  UNL     1      40.735   6.133 -47.590  1.00  0.00     0.240 C 
HETATM   39  C2  UNL     1      39.425   6.180 -46.840  1.00  0.00     0.188 C 
HETATM   40  C33 UNL     1      38.670   7.244 -47.596  1.00  0.00     0.139 C 
BRANCH  39  41
HETATM   41  O1  UNL     1      38.797   4.965 -46.766  1.00  0.00    -0.358 OA
HETATM   42  C1  UNL     1      39.473   3.889 -47.269  1.00  0.00     0.205 C 
ENDBRANCH  39  41
BRANCH  39  43
HETATM   43  O2  UNL     1      39.660   6.613 -45.535  1.00  0.00    -0.363 OA
ATOM     44  H2  UNL     1      40.468   6.209 -45.241  1.00  0.00     0.213 HD
ENDBRANCH  39  43
BRANCH  36  45
HETATM   45  O4  UNL     1      40.411   8.477 -46.754  1.00  0.00    -0.365 OA
ATOM     46  H4  UNL     1      39.720   8.657 -46.128  1.00  0.00     0.213 HD
ENDBRANCH  36  45
ENDBRANCH  35  36
ENDBRANCH  34  35
BRANCH  34  47
HETATM   47  O5  UNL     1      41.072   8.997 -50.469  1.00  0.00    -0.392 OA
ATOM     48  H5  UNL     1      40.564   8.968 -51.272  1.00  0.00     0.210 HD
ENDBRANCH  34  47
ENDBRANCH   1  34
BRANCH   1  49
HETATM   49  O6  UNL     1      39.994  10.351 -51.983  1.00  0.00    -0.384 OA
ATOM     50  H6  UNL     1      39.500  10.842 -52.629  1.00  0.00     0.210 HD
ENDBRANCH   1  49
TORSDOF 15
ENDMDL
MODEL 3
REMARK VINA RESULT: -6.163024646      3.552      7.044
REMARK  15 active torsions:
REMARK  status: ('A' for Active; 'I' for Inactive)
REMARK    1  A    between atoms: O1_2  and  C2_3 
REMARK    2  A    between atoms: C2_3  and  O2_4 
REMARK    3  A    between atoms: C4_8  and  O4_9 
REMARK    4  A    between atoms: C4_8  and  C5_11 
REMARK    5  A    between atoms: C5_11  and  C6_12 
REMARK    6  A    between atoms: C6_12  and  O5_13 
REMARK    7  A    between atoms: C6_12  and  C7_15 
REMARK    8  A    between atoms: C7_15  and  O6_16 
REMARK    9  A    between atoms: C8_18  and  O7_19 
REMARK   10  A    between atoms: C9_21  and  O8_22 
REMARK   11  A    between atoms: C10_24  and  C12_26 
REMARK   12  A    between atoms: C23_38  and  C25_40 
REMARK   13  A    between atoms: C25_40  and  C26_41 
REMARK   14  A    between atoms: C26_41  and  O10_42 
REMARK   15  A    between atoms: C26_41  and  C27_44 
ROOT
HETATM    1  C7  UNL     1      39.730  11.215 -50.294  1.00  0.00     0.120 C 
HETATM    2  C8  UNL     1      38.565  10.777 -51.075  1.00  0.00     0.185 C 
HETATM    3  C9  UNL     1      37.610  11.982 -51.135  1.00  0.00     0.163 C 
HETATM    4  C10 UNL     1      38.607  13.171 -51.176  1.00  0.00     0.021 C 
HETATM    5  C11 UNL     1      39.246  13.156 -52.527  1.00  0.00     0.024 C 
HETATM    6  C30 UNL     1      39.586  12.756 -50.099  1.00  0.00     0.002 C 
HETATM    7  C31 UNL     1      40.961  13.312 -50.243  1.00  0.00     0.019 C 
HETATM    8  C32 UNL     1      39.082  13.088 -48.723  1.00  0.00     0.019 C 
ENDROOT
BRANCH   4   9
HETATM    9  C12 UNL     1      37.850  14.420 -50.935  1.00  0.00    -0.038 C 
HETATM   10  C13 UNL     1      36.749  14.506 -50.183  1.00  0.00    -0.019 C 
HETATM   11  C14 UNL     1      36.223  15.874 -50.131  1.00  0.00     0.038 C 
HETATM   12  C15 UNL     1      36.941  16.647 -51.177  1.00  0.00     0.063 C 
HETATM   13  C16 UNL     1      38.133  15.751 -51.464  1.00  0.00     0.089 C 
HETATM   14  C18 UNL     1      36.548  16.472 -52.583  1.00  0.00     0.077 C 
HETATM   15  C17 UNL     1      39.382  16.477 -51.163  1.00  0.00     0.051 C 
HETATM   16  O9  UNL     1      37.723  15.810 -52.806  1.00  0.00    -0.363 OA
HETATM   17  C19 UNL     1      35.283  15.692 -52.880  1.00  0.00     0.040 C 
HETATM   18  C23 UNL     1      36.328  17.678 -53.449  1.00  0.00    -0.007 C 
HETATM   19  C20 UNL     1      34.213  16.736 -53.063  1.00  0.00     0.008 C 
HETATM   20  C21 UNL     1      34.918  18.085 -53.089  1.00  0.00    -0.007 C 
HETATM   21  C22 UNL     1      34.696  18.761 -51.814  1.00  0.00     0.011 C 
HETATM   22  C24 UNL     1      37.255  18.812 -53.261  1.00  0.00     0.019 C 
BRANCH  18  23
HETATM   23  C25 UNL     1      36.252  17.335 -54.903  1.00  0.00     0.044 C 
BRANCH  23  24
HETATM   24  C26 UNL     1      37.306  17.784 -55.809  1.00  0.00     0.122 C 
BRANCH  24  25
HETATM   25  O10 UNL     1      36.964  18.574 -56.871  1.00  0.00    -0.395 OA
ATOM     26  H10 UNL     1      36.556  18.169 -57.627  1.00  0.00     0.210 HD
ENDBRANCH  24  25
BRANCH  24  27
HETATM   27  C27 UNL     1      37.901  16.502 -56.434  1.00  0.00     0.006 C 
HETATM   28  C28 UNL     1      36.940  15.346 -56.252  1.00  0.00     0.012 C 
HETATM   29  C29 UNL     1      39.249  16.209 -55.848  1.00  0.00     0.012 C 
ENDBRANCH  24  27
ENDBRANCH  23  24
ENDBRANCH  18  23
ENDBRANCH   4   9
BRANCH   3  30
HETATM   30  O8  UNL     1      36.793  11.968 -52.221  1.00  0.00    -0.392 OA
ATOM     31  H8  UNL     1      35.892  11.754 -52.011  1.00  0.00     0.210 HD
ENDBRANCH   3  30
BRANCH   2  32
HETATM   32  O7  UNL     1      38.805  10.501 -52.429  1.00  0.00    -0.390 OA
ATOM     33  H7  UNL     1      38.398   9.713 -52.770  1.00  0.00     0.210 HD
ENDBRANCH   2  32
BRANCH   1  34
HETATM   34  C6  UNL     1      39.879  10.530 -48.993  1.00  0.00     0.161 C 
BRANCH  34  35
HETATM   35  C5  UNL     1      39.252   9.196 -48.868  1.00  0.00     0.103 C 
BRANCH  35  36
HETATM   36  C4  UNL     1      39.679   8.173 -47.919  1.00  0.00     0.169 C 
HETATM   37  O3  UNL     1      40.569   7.211 -48.395  1.00  0.00    -0.350 OA
HETATM   38  C3  UNL     1      40.588   6.239 -47.399  1.00  0.00     0.240 C 
HETATM   39  C2  UNL     1      39.178   6.156 -46.864  1.00  0.00     0.188 C 
HETATM   40  C33 UNL     1      38.457   7.162 -47.724  1.00  0.00     0.139 C 
BRANCH  39  41
HETATM   41  O1  UNL     1      38.659   4.889 -46.893  1.00  0.00    -0.358 OA
HETATM   42  C1  UNL     1      39.504   3.884 -47.276  1.00  0.00     0.205 C 
ENDBRANCH  39  41
BRANCH  39  43
HETATM   43  O2  UNL     1      39.168   6.584 -45.535  1.00  0.00    -0.363 OA
ATOM     44  H2  UNL     1      39.251   5.814 -44.986  1.00  0.00     0.213 HD
ENDBRANCH  39  43
BRANCH  36  45
HETATM   45  O4  UNL     1      39.928   8.530 -46.614  1.00  0.00    -0.365 OA
ATOM     46  H4  UNL     1      39.419   9.281 -46.334  1.00  0.00     0.213 HD
ENDBRANCH  36  45
ENDBRANCH  35  36
ENDBRANCH  34  35
BRANCH  34  47
HETATM   47  O5  UNL     1      41.308  10.164 -48.876  1.00  0.00    -0.392 OA
ATOM     48  H5  UNL     1      41.407  10.162 -47.931  1.00  0.00     0.210 HD
ENDBRANCH  34  47
ENDBRANCH   1  34
BRANCH   1  49
HETATM   49  O6  UNL     1      40.904  10.982 -51.009  1.00  0.00    -0.384 OA
ATOM     50  H6  UNL     1      40.815  10.126 -51.412  1.00  0.00     0.210 HD
ENDBRANCH   1  49
TORSDOF 15
ENDMDL
MODEL 4
REMARK VINA RESULT: -6.130760754      3.593      7.813
REMARK  15 active torsions:
REMARK  status: ('A' for Active; 'I' for Inactive)
REMARK    1  A    between atoms: O1_2  and  C2_3 
REMARK    2  A    between atoms: C2_3  and  O2_4 
REMARK    3  A    between atoms: C4_8  and  O4_9 
REMARK    4  A    between atoms: C4_8  and  C5_11 
REMARK    5  A    between atoms: C5_11  and  C6_12 
REMARK    6  A    between atoms: C6_12  and  O5_13 
REMARK    7  A    between atoms: C6_12  and  C7_15 
REMARK    8  A    between atoms: C7_15  and  O6_16 
REMARK    9  A    between atoms: C8_18  and  O7_19 
REMARK   10  A    between atoms: C9_21  and  O8_22 
REMARK   11  A    between atoms: C10_24  and  C12_26 
REMARK   12  A    between atoms: C23_38  and  C25_40 
REMARK   13  A    between atoms: C25_40  and  C26_41 
REMARK   14  A    between atoms: C26_41  and  O10_42 
REMARK   15  A    between atoms: C26_41  and  C27_44 
ROOT
HETATM    1  C7  UNL     1      38.891  12.323 -50.973  1.00  0.00     0.120 C 
HETATM    2  C8  UNL     1      38.472  11.567 -49.785  1.00  0.00     0.185 C 
HETATM    3  C9  UNL     1      39.325  10.287 -49.768  1.00  0.00     0.163 C 
HETATM    4  C10 UNL     1      40.666  10.796 -50.360  1.00  0.00     0.021 C 
HETATM    5  C11 UNL     1      41.301  11.661 -49.318  1.00  0.00     0.024 C 
HETATM    6  C30 UNL     1      40.166  11.618 -51.528  1.00  0.00     0.002 C 
HETATM    7  C31 UNL     1      41.075  12.714 -51.969  1.00  0.00     0.019 C 
HETATM    8  C32 UNL     1      39.843  10.762 -52.719  1.00  0.00     0.019 C 
ENDROOT
BRANCH   4   9
HETATM    9  C12 UNL     1      41.504   9.620 -50.689  1.00  0.00    -0.038 C 
HETATM   10  C13 UNL     1      41.956   9.331 -51.912  1.00  0.00    -0.019 C 
HETATM   11  C14 UNL     1      42.760   8.104 -51.926  1.00  0.00     0.038 C 
HETATM   12  C15 UNL     1      42.554   7.444 -50.611  1.00  0.00     0.063 C 
HETATM   13  C16 UNL     1      41.971   8.576 -49.782  1.00  0.00     0.089 C 
HETATM   14  C18 UNL     1      41.304   6.708 -50.376  1.00  0.00     0.077 C 
HETATM   15  C17 UNL     1      42.855   8.856 -48.634  1.00  0.00     0.051 C 
HETATM   16  O9  UNL     1      40.911   7.693 -49.513  1.00  0.00    -0.363 OA
HETATM   17  C19 UNL     1      40.387   6.460 -51.556  1.00  0.00     0.040 C 
HETATM   18  C23 UNL     1      41.353   5.330 -49.781  1.00  0.00    -0.007 C 
HETATM   19  C20 UNL     1      40.721   5.068 -52.026  1.00  0.00     0.008 C 
HETATM   20  C21 UNL     1      41.653   4.467 -50.984  1.00  0.00    -0.007 C 
HETATM   21  C22 UNL     1      43.015   4.463 -51.511  1.00  0.00     0.011 C 
HETATM   22  C24 UNL     1      42.352   5.099 -48.718  1.00  0.00     0.019 C 
BRANCH  18  23
HETATM   23  C25 UNL     1      40.012   4.858 -49.314  1.00  0.00     0.044 C 
BRANCH  23  24
HETATM   24  C26 UNL     1      39.817   4.505 -47.910  1.00  0.00     0.122 C 
BRANCH  24  25
HETATM   25  O10 UNL     1      39.236   3.304 -47.612  1.00  0.00    -0.395 OA
ATOM     26  H10 UNL     1      38.349   3.141 -47.910  1.00  0.00     0.210 HD
ENDBRANCH  24  25
BRANCH  24  27
HETATM   27  C27 UNL     1      38.859   5.571 -47.335  1.00  0.00     0.006 C 
HETATM   28  C28 UNL     1      38.111   6.254 -48.462  1.00  0.00     0.012 C 
HETATM   29  C29 UNL     1      39.612   6.551 -46.487  1.00  0.00     0.012 C 
ENDBRANCH  24  27
ENDBRANCH  23  24
ENDBRANCH  18  23
ENDBRANCH   4   9
BRANCH   3  30
HETATM   30  O8  UNL     1      39.486   9.764 -48.523  1.00  0.00    -0.392 OA
ATOM     31  H8  UNL     1      39.422   8.817 -48.502  1.00  0.00     0.210 HD
ENDBRANCH   3  30
BRANCH   2  32
HETATM   32  O7  UNL     1      38.769  12.158 -48.548  1.00  0.00    -0.390 OA
ATOM     33  H7  UNL     1      39.666  12.067 -48.251  1.00  0.00     0.210 HD
ENDBRANCH   2  32
BRANCH   1  34
HETATM   34  C6  UNL     1      37.851  12.433 -52.018  1.00  0.00     0.161 C 
BRANCH  34  35
HETATM   35  C5  UNL     1      36.553  11.784 -51.737  1.00  0.00     0.103 C 
BRANCH  35  36
HETATM   36  C4  UNL     1      36.040  10.626 -52.461  1.00  0.00     0.169 C 
HETATM   37  O3  UNL     1      35.865  10.775 -53.836  1.00  0.00    -0.350 OA
HETATM   38  C3  UNL     1      35.130   9.653 -54.212  1.00  0.00     0.240 C 
HETATM   39  C2  UNL     1      34.169   9.380 -53.079  1.00  0.00     0.188 C 
HETATM   40  C33 UNL     1      34.482  10.504 -52.125  1.00  0.00     0.139 C 
BRANCH  39  41
HETATM   41  O1  UNL     1      32.862   9.307 -53.482  1.00  0.00    -0.358 OA
HETATM   42  C1  UNL     1      32.309  10.448 -53.993  1.00  0.00     0.205 C 
ENDBRANCH  39  41
BRANCH  39  43
HETATM   43  O2  UNL     1      34.495   8.159 -52.487  1.00  0.00    -0.363 OA
ATOM     44  H2  UNL     1      33.799   7.941 -51.879  1.00  0.00     0.213 HD
ENDBRANCH  39  43
BRANCH  36  45
HETATM   45  O4  UNL     1      36.476   9.369 -52.112  1.00  0.00    -0.365 OA
ATOM     46  H4  UNL     1      36.909   9.351 -51.267  1.00  0.00     0.213 HD
ENDBRANCH  36  45
ENDBRANCH  35  36
ENDBRANCH  34  35
BRANCH  34  47
HETATM   47  O5  UNL     1      37.437  13.854 -52.047  1.00  0.00    -0.392 OA
ATOM     48  H5  UNL     1      37.366  14.030 -51.116  1.00  0.00     0.210 HD
ENDBRANCH  34  47
ENDBRANCH   1  34
BRANCH   1  49
HETATM   49  O6  UNL     1      39.242  13.625 -50.616  1.00  0.00    -0.384 OA
ATOM     50  H6  UNL     1      39.712  13.566 -49.793  1.00  0.00     0.210 HD
ENDBRANCH   1  49
TORSDOF 15
ENDMDL
MODEL 5
REMARK VINA RESULT: -6.087612317      3.101      8.936
REMARK  15 active torsions:
REMARK  status: ('A' for Active; 'I' for Inactive)
REMARK    1  A    between atoms: O1_2  and  C2_3 
REMARK    2  A    between atoms: C2_3  and  O2_4 
REMARK    3  A    between atoms: C4_8  and  O4_9 
REMARK    4  A    between atoms: C4_8  and  C5_11 
REMARK    5  A    between atoms: C5_11  and  C6_12 
REMARK    6  A    between atoms: C6_12  and  O5_13 
REMARK    7  A    between atoms: C6_12  and  C7_15 
REMARK    8  A    between atoms: C7_15  and  O6_16 
REMARK    9  A    between atoms: C8_18  and  O7_19 
REMARK   10  A    between atoms: C9_21  and  O8_22 
REMARK   11  A    between atoms: C10_24  and  C12_26 
REMARK   12  A    between atoms: C23_38  and  C25_40 
REMARK   13  A    between atoms: C25_40  and  C26_41 
REMARK   14  A    between atoms: C26_41  and  O10_42 
REMARK   15  A    between atoms: C26_41  and  C27_44 
ROOT
HETATM    1  C7  UNL     1      39.356  14.254 -49.727  1.00  0.00     0.120 C 
HETATM    2  C8  UNL     1      37.985  13.871 -50.094  1.00  0.00     0.185 C 
HETATM    3  C9  UNL     1      38.105  12.560 -50.892  1.00  0.00     0.163 C 
HETATM    4  C10 UNL     1      39.314  11.879 -50.196  1.00  0.00     0.021 C 
HETATM    5  C11 UNL     1      38.846  11.434 -48.848  1.00  0.00     0.024 C 
HETATM    6  C30 UNL     1      40.272  13.045 -50.089  1.00  0.00     0.002 C 
HETATM    7  C31 UNL     1      41.269  12.949 -48.985  1.00  0.00     0.019 C 
HETATM    8  C32 UNL     1      41.011  13.285 -51.375  1.00  0.00     0.019 C 
ENDROOT
BRANCH   4   9
HETATM    9  C12 UNL     1      39.750  10.740 -51.035  1.00  0.00    -0.038 C 
HETATM   10  C13 UNL     1      39.317  10.504 -52.276  1.00  0.00    -0.019 C 
HETATM   11  C14 UNL     1      39.929   9.302 -52.854  1.00  0.00     0.038 C 
HETATM   12  C15 UNL     1      40.612   8.594 -51.740  1.00  0.00     0.063 C 
HETATM   13  C16 UNL     1      40.691   9.680 -50.681  1.00  0.00     0.089 C 
HETATM   14  C18 UNL     1      39.801   7.814 -50.793  1.00  0.00     0.077 C 
HETATM   15  C17 UNL     1      42.103   9.949 -50.351  1.00  0.00     0.051 C 
HETATM   16  O9  UNL     1      40.049   8.759 -49.837  1.00  0.00    -0.363 OA
HETATM   17  C19 UNL     1      38.343   7.578 -51.126  1.00  0.00     0.040 C 
HETATM   18  C23 UNL     1      40.221   6.420 -50.427  1.00  0.00    -0.007 C 
HETATM   19  C20 UNL     1      38.302   6.213 -51.762  1.00  0.00     0.008 C 
HETATM   20  C21 UNL     1      39.685   5.605 -51.581  1.00  0.00    -0.007 C 
HETATM   21  C22 UNL     1      40.397   5.658 -52.856  1.00  0.00     0.011 C 
HETATM   22  C24 UNL     1      41.669   6.183 -50.258  1.00  0.00     0.019 C 
BRANCH  18  23
HETATM   23  C25 UNL     1      39.489   5.894 -49.234  1.00  0.00     0.044 C 
BRANCH  23  24
HETATM   24  C26 UNL     1      40.071   4.809 -48.447  1.00  0.00     0.122 C 
BRANCH  24  25
HETATM   25  O10 UNL     1      39.687   3.525 -48.718  1.00  0.00    -0.395 OA
ATOM     26  H10 UNL     1      40.359   2.878 -48.898  1.00  0.00     0.210 HD
ENDBRANCH  24  25
BRANCH  24  27
HETATM   27  C27 UNL     1      39.632   5.062 -46.988  1.00  0.00     0.006 C 
HETATM   28  C28 UNL     1      38.361   4.294 -46.691  1.00  0.00     0.012 C 
HETATM   29  C29 UNL     1      39.472   6.531 -46.735  1.00  0.00     0.012 C 
ENDBRANCH  24  27
ENDBRANCH  23  24
ENDBRANCH  18  23
ENDBRANCH   4   9
BRANCH   3  30
HETATM   30  O8  UNL     1      36.986  11.791 -50.833  1.00  0.00    -0.392 OA
ATOM     31  H8  UNL     1      36.667  11.659 -49.948  1.00  0.00     0.210 HD
ENDBRANCH   3  30
BRANCH   2  32
HETATM   32  O7  UNL     1      37.144  13.514 -49.030  1.00  0.00    -0.390 OA
ATOM     33  H7  UNL     1      36.332  14.001 -48.963  1.00  0.00     0.210 HD
ENDBRANCH   2  32
BRANCH   1  34
HETATM   34  C6  UNL     1      39.833  15.492 -50.378  1.00  0.00     0.161 C 
BRANCH  34  35
HETATM   35  C5  UNL     1      38.800  16.390 -50.940  1.00  0.00     0.103 C 
BRANCH  35  36
HETATM   36  C4  UNL     1      38.277  17.569 -50.257  1.00  0.00     0.169 C 
HETATM   37  O3  UNL     1      37.920  17.409 -48.919  1.00  0.00    -0.350 OA
HETATM   38  C3  UNL     1      37.220  18.572 -48.610  1.00  0.00     0.240 C 
HETATM   39  C2  UNL     1      36.430  18.930 -49.847  1.00  0.00     0.188 C 
HETATM   40  C33 UNL     1      36.787  17.802 -50.783  1.00  0.00     0.139 C 
BRANCH  39  41
HETATM   41  O1  UNL     1      35.090  19.085 -49.610  1.00  0.00    -0.358 OA
HETATM   42  C1  UNL     1      34.367  17.948 -49.382  1.00  0.00     0.205 C 
ENDBRANCH  39  41
BRANCH  39  43
HETATM   43  O2  UNL     1      36.909  20.135 -50.363  1.00  0.00    -0.363 OA
ATOM     44  H2  UNL     1      37.390  20.571 -49.671  1.00  0.00     0.213 HD
ENDBRANCH  39  43
BRANCH  36  45
HETATM   45  O4  UNL     1      38.836  18.798 -50.517  1.00  0.00    -0.365 OA
ATOM     46  H4  UNL     1      39.597  18.978 -49.978  1.00  0.00     0.213 HD
ENDBRANCH  36  45
ENDBRANCH  35  36
ENDBRANCH  34  35
BRANCH  34  47
HETATM   47  O5  UNL     1      40.373  16.349 -49.299  1.00  0.00    -0.392 OA
ATOM     48  H5  UNL     1      39.895  16.006 -48.553  1.00  0.00     0.210 HD
ENDBRANCH  34  47
ENDBRANCH   1  34
BRANCH   1  49
HETATM   49  O6  UNL     1      39.445  14.463 -48.351  1.00  0.00    -0.384 OA
ATOM     50  H6  UNL     1      40.173  15.056 -48.210  1.00  0.00     0.210 HD
ENDBRANCH   1  49
TORSDOF 15
ENDMDL
