MODEL 1
REMARK VINA RESULT: -5.460591441      0.000      0.000
REMARK  16 active torsions:
REMARK  status: ('A' for Active; 'I' for Inactive)
REMARK    1  A    between atoms: C2_2  and  O2_4 
REMARK    2  A    between atoms: O2_4  and  C3_5 
REMARK    3  A    between atoms: C3_5  and  C4_6 
REMARK    4  A    between atoms: C3_5  and  C9_12 
REMARK    5  A    between atoms: C4_6  and  C5_7 
REMARK    6  A    between atoms: C6_8  and  C8_10 
REMARK    7  A    between atoms: C9_12  and  O4_14 
REMARK    8  A    between atoms: C9_12  and  C11_16 
REMARK    9  A    between atoms: C13_18  and  O5_19 
REMARK   10  A    between atoms: O5_19  and  C14_20 
REMARK   11  A    between atoms: C22_28  and  O6_29 
REMARK   12  A    between atoms: C25_33  and  O7_34 
REMARK   13  A    between atoms: C26_36  and  O8_37 
REMARK   14  A    between atoms: C28_40  and  O9_41 
REMARK   15  A    between atoms: C29_43  and  O10_45 
REMARK   16  A    between atoms: C31_47  and  O11_48 
ROOT
HETATM    1  C11 UNL     1      41.306   7.350 -50.326  1.00  0.00     0.048 C 
HETATM    2  C12 UNL     1      41.733   8.097 -51.623  1.00  0.00     0.024 C 
HETATM    3  C13 UNL     1      39.908   6.869 -50.662  1.00  0.00     0.143 C 
HETATM    4  C19 UNL     1      39.070   8.156 -50.659  1.00  0.00     0.048 C 
HETATM    5  C20 UNL     1      39.564   8.796 -49.434  1.00  0.00     0.022 C 
HETATM    6  C21 UNL     1      38.797   8.074 -48.296  1.00  0.00     0.022 C 
HETATM    7  C22 UNL     1      39.438  10.219 -49.234  1.00  0.00     0.083 C 
HETATM    8  C23 UNL     1      40.835  10.765 -48.974  1.00  0.00     0.059 C 
HETATM    9  C24 UNL     1      41.781   9.718 -49.537  1.00  0.00     0.050 C 
HETATM   10  C25 UNL     1      41.055   8.395 -49.322  1.00  0.00     0.081 C 
HETATM   11  C26 UNL     1      40.617  11.850 -50.037  1.00  0.00     0.076 C 
HETATM   12  C27 UNL     1      40.597  13.191 -49.448  1.00  0.00     0.073 C 
HETATM   13  C28 UNL     1      39.331  13.673 -48.846  1.00  0.00     0.157 C 
HETATM   14  C29 UNL     1      38.197  13.384 -49.765  1.00  0.00     0.106 C 
HETATM   15  C30 UNL     1      38.275  14.419 -50.898  1.00  0.00     0.051 C 
HETATM   16  C31 UNL     1      38.118  12.037 -50.336  1.00  0.00     0.164 C 
HETATM   17  C32 UNL     1      39.329  11.196 -50.353  1.00  0.00     0.088 C 
ENDROOT
BRANCH   1  18
HETATM   18  C9  UNL     1      42.252   6.265 -50.184  1.00  0.00     0.093 C 
HETATM   19  C10 UNL     1      43.614   6.851 -49.660  1.00  0.00     0.049 C 
BRANCH  18  20
HETATM   20  C3  UNL     1      42.100   5.049 -49.413  1.00  0.00     0.170 C 
BRANCH  20  21
HETATM   21  O2  UNL     1      41.919   5.130 -48.060  1.00  0.00    -0.313 OA
BRANCH  21  22
HETATM   22  C2  UNL     1      40.694   5.005 -47.393  1.00  0.00     0.255 C 
HETATM   23  C1  UNL     1      39.780   3.936 -47.788  1.00  0.00     0.126 C 
HETATM   24  O1  UNL     1      40.421   5.800 -46.490  1.00  0.00    -0.266 OA
ENDBRANCH  21  22
ENDBRANCH  20  21
BRANCH  20  25
HETATM   25  C4  UNL     1      43.390   4.190 -49.621  1.00  0.00     0.063 C 
BRANCH  25  26
HETATM   26  C5  UNL     1      43.066   2.800 -49.865  1.00  0.00    -0.014 C 
HETATM   27  C6  UNL     1      43.194   2.145 -50.958  1.00  0.00    -0.028 C 
HETATM   28  C7  UNL     1      42.777   0.673 -50.946  1.00  0.00     0.051 C 
BRANCH  27  29
HETATM   29  C8  UNL     1      43.668   2.624 -52.204  1.00  0.00     0.265 C 
HETATM   30  O3  UNL     1      43.048   3.337 -52.987  1.00  0.00    -0.302 OA
ENDBRANCH  27  29
ENDBRANCH  25  26
ENDBRANCH  20  25
ENDBRANCH  18  20
BRANCH  18  31
HETATM   31  O4  UNL     1      42.603   5.894 -51.512  1.00  0.00    -0.387 OA
ATOM     32  H4  UNL     1      43.490   5.552 -51.492  1.00  0.00     0.210 HD
ENDBRANCH  18  31
ENDBRANCH   1  18
BRANCH   3  33
HETATM   33  O5  UNL     1      39.839   6.290 -51.927  1.00  0.00    -0.349 OA
BRANCH  33  34
HETATM   34  C14 UNL     1      39.205   5.123 -52.238  1.00  0.00     0.044 C 
HETATM   35  C15 UNL     1      39.765   3.795 -51.794  1.00  0.00     0.076 C 
HETATM   36  C16 UNL     1      38.097   5.115 -52.924  1.00  0.00    -0.059 C 
HETATM   37  C17 UNL     1      37.436   3.828 -53.243  1.00  0.00     0.045 C 
HETATM   38  C18 UNL     1      37.471   6.366 -53.402  1.00  0.00     0.045 C 
ENDBRANCH  33  34
ENDBRANCH   3  33
BRANCH  10  39
HETATM   39  O7  UNL     1      41.234   8.142 -48.000  1.00  0.00    -0.388 OA
ATOM     40  H7  UNL     1      41.245   8.851 -47.368  1.00  0.00     0.210 HD
ENDBRANCH  10  39
BRANCH   7  41
HETATM   41  O6  UNL     1      38.517  10.580 -48.221  1.00  0.00    -0.388 OA
ATOM     42  H6  UNL     1      37.738  11.016 -48.544  1.00  0.00     0.210 HD
ENDBRANCH   7  41
BRANCH  11  43
HETATM   43  O8  UNL     1      41.586  11.805 -51.069  1.00  0.00    -0.389 OA
ATOM     44  H8  UNL     1      41.202  11.650 -51.925  1.00  0.00     0.210 HD
ENDBRANCH  11  43
BRANCH  16  45
HETATM   45  O11 UNL     1      37.560  12.152 -51.634  1.00  0.00    -0.392 OA
ATOM     46  H11 UNL     1      37.096  11.345 -51.822  1.00  0.00     0.210 HD
ENDBRANCH  16  45
BRANCH  14  47
HETATM   47  O10 UNL     1      37.008  13.715 -49.071  1.00  0.00    -0.385 OA
ATOM     48  H10 UNL     1      36.282  13.491 -49.641  1.00  0.00     0.210 HD
ENDBRANCH  14  47
BRANCH  13  49
HETATM   49  O9  UNL     1      39.438  15.086 -48.770  1.00  0.00    -0.392 OA
ATOM     50  H9  UNL     1      38.631  15.394 -48.377  1.00  0.00     0.210 HD
ENDBRANCH  13  49
TORSDOF 16
ENDMDL
MODEL 2
REMARK VINA RESULT: -5.190207273      2.865      8.353
REMARK  16 active torsions:
REMARK  status: ('A' for Active; 'I' for Inactive)
REMARK    1  A    between atoms: C2_2  and  O2_4 
REMARK    2  A    between atoms: O2_4  and  C3_5 
REMARK    3  A    between atoms: C3_5  and  C4_6 
REMARK    4  A    between atoms: C3_5  and  C9_12 
REMARK    5  A    between atoms: C4_6  and  C5_7 
REMARK    6  A    between atoms: C6_8  and  C8_10 
REMARK    7  A    between atoms: C9_12  and  O4_14 
REMARK    8  A    between atoms: C9_12  and  C11_16 
REMARK    9  A    between atoms: C13_18  and  O5_19 
REMARK   10  A    between atoms: O5_19  and  C14_20 
REMARK   11  A    between atoms: C22_28  and  O6_29 
REMARK   12  A    between atoms: C25_33  and  O7_34 
REMARK   13  A    between atoms: C26_36  and  O8_37 
REMARK   14  A    between atoms: C28_40  and  O9_41 
REMARK   15  A    between atoms: C29_43  and  O10_45 
REMARK   16  A    between atoms: C31_47  and  O11_48 
ROOT
HETATM    1  C11 UNL     1      39.295  11.419 -51.592  1.00  0.00     0.048 C 
HETATM    2  C12 UNL     1      38.162  11.583 -50.538  1.00  0.00     0.024 C 
HETATM    3  C13 UNL     1      38.626  10.596 -52.676  1.00  0.00     0.143 C 
HETATM    4  C19 UNL     1      38.486   9.204 -52.042  1.00  0.00     0.048 C 
HETATM    5  C20 UNL     1      39.817   9.046 -51.442  1.00  0.00     0.022 C 
HETATM    6  C21 UNL     1      40.717   8.618 -52.630  1.00  0.00     0.022 C 
HETATM    7  C22 UNL     1      40.039   8.130 -50.351  1.00  0.00     0.083 C 
HETATM    8  C23 UNL     1      40.636   8.930 -49.201  1.00  0.00     0.059 C 
HETATM    9  C24 UNL     1      40.265  10.375 -49.490  1.00  0.00     0.050 C 
HETATM   10  C25 UNL     1      40.254  10.468 -51.011  1.00  0.00     0.081 C 
HETATM   11  C26 UNL     1      39.596   8.340 -48.240  1.00  0.00     0.076 C 
HETATM   12  C27 UNL     1      40.216   7.488 -47.224  1.00  0.00     0.073 C 
HETATM   13  C28 UNL     1      40.529   6.084 -47.582  1.00  0.00     0.157 C 
HETATM   14  C29 UNL     1      39.362   5.472 -48.274  1.00  0.00     0.106 C 
HETATM   15  C30 UNL     1      38.319   5.164 -47.187  1.00  0.00     0.051 C 
HETATM   16  C31 UNL     1      38.735   6.243 -49.350  1.00  0.00     0.164 C 
HETATM   17  C32 UNL     1      38.965   7.698 -49.413  1.00  0.00     0.088 C 
ENDROOT
BRANCH   1  18
HETATM   18  C9  UNL     1      39.608  12.763 -52.025  1.00  0.00     0.093 C 
HETATM   19  C10 UNL     1      40.104  12.709 -53.516  1.00  0.00     0.049 C 
BRANCH  18  20
HETATM   20  C3  UNL     1      38.744  13.925 -52.009  1.00  0.00     0.170 C 
BRANCH  20  21
HETATM   21  O2  UNL     1      37.868  14.125 -53.039  1.00  0.00    -0.313 OA
BRANCH  21  22
HETATM   22  C2  UNL     1      36.479  14.249 -52.915  1.00  0.00     0.255 C 
HETATM   23  C1  UNL     1      35.915  14.620 -51.620  1.00  0.00     0.126 C 
HETATM   24  O1  UNL     1      35.769  14.042 -53.903  1.00  0.00    -0.266 OA
ENDBRANCH  21  22
ENDBRANCH  20  21
BRANCH  20  25
HETATM   25  C4  UNL     1      39.656  15.194 -51.971  1.00  0.00     0.063 C 
BRANCH  25  26
HETATM   26  C5  UNL     1      39.107  16.214 -51.102  1.00  0.00    -0.014 C 
HETATM   27  C6  UNL     1      38.916  16.149 -49.837  1.00  0.00    -0.028 C 
HETATM   28  C7  UNL     1      38.319  17.380 -49.153  1.00  0.00     0.051 C 
BRANCH  27  29
HETATM   29  C8  UNL     1      39.180  15.054 -48.978  1.00  0.00     0.265 C 
HETATM   30  O3  UNL     1      40.289  14.620 -48.681  1.00  0.00    -0.302 OA
ENDBRANCH  27  29
ENDBRANCH  25  26
ENDBRANCH  20  25
ENDBRANCH  18  20
BRANCH  18  31
HETATM   31  O4  UNL     1      40.810  13.109 -51.346  1.00  0.00    -0.387 OA
ATOM     32  H4  UNL     1      40.898  12.527 -50.601  1.00  0.00     0.210 HD
ENDBRANCH  18  31
ENDBRANCH   1  18
BRANCH   3  33
HETATM   33  O5  UNL     1      37.357  11.074 -52.995  1.00  0.00    -0.349 OA
BRANCH  33  34
HETATM   34  C14 UNL     1      36.478  10.490 -53.860  1.00  0.00     0.044 C 
HETATM   35  C15 UNL     1      36.938   9.968 -55.198  1.00  0.00     0.076 C 
HETATM   36  C16 UNL     1      35.216  10.363 -53.561  1.00  0.00    -0.059 C 
HETATM   37  C17 UNL     1      34.290   9.724 -54.524  1.00  0.00     0.045 C 
HETATM   38  C18 UNL     1      34.672  10.843 -52.272  1.00  0.00     0.045 C 
ENDBRANCH  33  34
ENDBRANCH   3  33
BRANCH  10  39
HETATM   39  O7  UNL     1      41.571  10.525 -51.339  1.00  0.00    -0.388 OA
ATOM     40  H7  UNL     1      41.951   9.888 -51.931  1.00  0.00     0.210 HD
ENDBRANCH  10  39
BRANCH   7  41
HETATM   41  O6  UNL     1      40.825   7.004 -50.694  1.00  0.00    -0.388 OA
ATOM     42  H6  UNL     1      41.245   6.584 -49.952  1.00  0.00     0.210 HD
ENDBRANCH   7  41
BRANCH  11  43
HETATM   43  O8  UNL     1      38.814   9.336 -47.605  1.00  0.00    -0.389 OA
ATOM     44  H8  UNL     1      37.881   9.166 -47.671  1.00  0.00     0.210 HD
ENDBRANCH  11  43
BRANCH  16  45
HETATM   45  O11 UNL     1      37.348   5.946 -49.341  1.00  0.00    -0.392 OA
ATOM     46  H11 UNL     1      37.246   5.040 -49.605  1.00  0.00     0.210 HD
ENDBRANCH  16  45
BRANCH  14  47
HETATM   47  O10 UNL     1      39.775   4.197 -48.733  1.00  0.00    -0.385 OA
ATOM     48  H10 UNL     1      39.060   3.843 -49.248  1.00  0.00     0.210 HD
ENDBRANCH  14  47
BRANCH  13  49
HETATM   49  O9  UNL     1      40.683   5.384 -46.357  1.00  0.00    -0.392 OA
ATOM     50  H9  UNL     1      41.381   4.755 -46.495  1.00  0.00     0.210 HD
ENDBRANCH  13  49
TORSDOF 16
ENDMDL
MODEL 3
REMARK VINA RESULT: -5.102254922      3.169      6.123
REMARK  16 active torsions:
REMARK  status: ('A' for Active; 'I' for Inactive)
REMARK    1  A    between atoms: C2_2  and  O2_4 
REMARK    2  A    between atoms: O2_4  and  C3_5 
REMARK    3  A    between atoms: C3_5  and  C4_6 
REMARK    4  A    between atoms: C3_5  and  C9_12 
REMARK    5  A    between atoms: C4_6  and  C5_7 
REMARK    6  A    between atoms: C6_8  and  C8_10 
REMARK    7  A    between atoms: C9_12  and  O4_14 
REMARK    8  A    between atoms: C9_12  and  C11_16 
REMARK    9  A    between atoms: C13_18  and  O5_19 
REMARK   10  A    between atoms: O5_19  and  C14_20 
REMARK   11  A    between atoms: C22_28  and  O6_29 
REMARK   12  A    between atoms: C25_33  and  O7_34 
REMARK   13  A    between atoms: C26_36  and  O8_37 
REMARK   14  A    between atoms: C28_40  and  O9_41 
REMARK   15  A    between atoms: C29_43  and  O10_45 
REMARK   16  A    between atoms: C31_47  and  O11_48 
ROOT
HETATM    1  C11 UNL     1      41.171   8.976 -50.321  1.00  0.00     0.048 C 
HETATM    2  C12 UNL     1      40.083   9.752 -49.525  1.00  0.00     0.024 C 
HETATM    3  C13 UNL     1      41.523   7.837 -49.385  1.00  0.00     0.143 C 
HETATM    4  C19 UNL     1      42.294   8.524 -48.249  1.00  0.00     0.048 C 
HETATM    5  C20 UNL     1      43.183   9.402 -49.020  1.00  0.00     0.022 C 
HETATM    6  C21 UNL     1      44.329   8.465 -49.481  1.00  0.00     0.022 C 
HETATM    7  C22 UNL     1      43.769  10.577 -48.424  1.00  0.00     0.083 C 
HETATM    8  C23 UNL     1      43.373  11.768 -49.287  1.00  0.00     0.059 C 
HETATM    9  C24 UNL     1      42.151  11.305 -50.063  1.00  0.00     0.050 C 
HETATM   10  C25 UNL     1      42.379   9.814 -50.277  1.00  0.00     0.081 C 
HETATM   11  C26 UNL     1      42.902  12.526 -48.039  1.00  0.00     0.076 C 
HETATM   12  C27 UNL     1      43.725  13.709 -47.779  1.00  0.00     0.073 C 
HETATM   13  C28 UNL     1      45.007  13.525 -47.057  1.00  0.00     0.157 C 
HETATM   14  C29 UNL     1      44.794  12.648 -45.875  1.00  0.00     0.106 C 
HETATM   15  C30 UNL     1      44.096  13.507 -44.809  1.00  0.00     0.051 C 
HETATM   16  C31 UNL     1      44.037  11.410 -46.080  1.00  0.00     0.164 C 
HETATM   17  C32 UNL     1      43.167  11.294 -47.265  1.00  0.00     0.088 C 
ENDROOT
BRANCH   1  18
HETATM   18  C9  UNL     1      40.510   8.525 -51.526  1.00  0.00     0.093 C 
HETATM   19  C10 UNL     1      41.295   7.289 -52.098  1.00  0.00     0.049 C 
BRANCH  18  20
HETATM   20  C3  UNL     1      39.125   8.135 -51.687  1.00  0.00     0.170 C 
BRANCH  20  21
HETATM   21  O2  UNL     1      38.812   6.813 -51.837  1.00  0.00    -0.313 OA
BRANCH  21  22
HETATM   22  C2  UNL     1      37.657   6.189 -51.351  1.00  0.00     0.255 C 
HETATM   23  C1  UNL     1      37.135   6.584 -50.045  1.00  0.00     0.126 C 
HETATM   24  O1  UNL     1      37.111   5.322 -52.039  1.00  0.00    -0.266 OA
ENDBRANCH  21  22
ENDBRANCH  20  21
BRANCH  20  25
HETATM   25  C4  UNL     1      38.574   8.853 -52.962  1.00  0.00     0.063 C 
BRANCH  25  26
HETATM   26  C5  UNL     1      37.609   9.876 -52.618  1.00  0.00    -0.014 C 
HETATM   27  C6  UNL     1      36.331   9.788 -52.635  1.00  0.00    -0.028 C 
HETATM   28  C7  UNL     1      35.537  11.028 -52.219  1.00  0.00     0.051 C 
BRANCH  27  29
HETATM   29  C8  UNL     1      35.546   8.670 -53.011  1.00  0.00     0.265 C 
HETATM   30  O3  UNL     1      34.753   8.070 -52.293  1.00  0.00    -0.302 OA
ENDBRANCH  27  29
ENDBRANCH  25  26
ENDBRANCH  20  25
ENDBRANCH  18  20
BRANCH  18  31
HETATM   31  O4  UNL     1      40.797   9.514 -52.508  1.00  0.00    -0.387 OA
ATOM     32  H4  UNL     1      40.109  10.167 -52.470  1.00  0.00     0.210 HD
ENDBRANCH  18  31
ENDBRANCH   1  18
BRANCH   3  33
HETATM   33  O5  UNL     1      40.391   7.222 -48.852  1.00  0.00    -0.349 OA
BRANCH  33  34
HETATM   34  C14 UNL     1      40.255   5.891 -48.587  1.00  0.00     0.044 C 
HETATM   35  C15 UNL     1      40.742   4.852 -49.565  1.00  0.00     0.076 C 
HETATM   36  C16 UNL     1      39.704   5.473 -47.482  1.00  0.00    -0.059 C 
HETATM   37  C17 UNL     1      39.573   4.020 -47.226  1.00  0.00     0.045 C 
HETATM   38  C18 UNL     1      39.199   6.417 -46.461  1.00  0.00     0.045 C 
ENDBRANCH  33  34
ENDBRANCH   3  33
BRANCH  10  39
HETATM   39  O7  UNL     1      43.289   9.769 -51.284  1.00  0.00    -0.388 OA
ATOM     40  H7  UNL     1      43.417   8.974 -51.787  1.00  0.00     0.210 HD
ENDBRANCH  10  39
BRANCH   7  41
HETATM   41  O6  UNL     1      45.169  10.490 -48.231  1.00  0.00    -0.388 OA
ATOM     42  H6  UNL     1      45.443  10.610 -47.329  1.00  0.00     0.210 HD
ENDBRANCH   7  41
BRANCH  11  43
HETATM   43  O8  UNL     1      41.540  12.909 -48.115  1.00  0.00    -0.389 OA
ATOM     44  H8  UNL     1      41.395  13.804 -47.832  1.00  0.00     0.210 HD
ENDBRANCH  11  43
BRANCH  16  45
HETATM   45  O11 UNL     1      43.313  11.147 -44.889  1.00  0.00    -0.392 OA
ATOM     46  H11 UNL     1      43.202  10.206 -44.821  1.00  0.00     0.210 HD
ENDBRANCH  16  45
BRANCH  14  47
HETATM   47  O10 UNL     1      46.072  12.379 -45.325  1.00  0.00    -0.385 OA
ATOM     48  H10 UNL     1      46.004  12.512 -44.387  1.00  0.00     0.210 HD
ENDBRANCH  14  47
BRANCH  13  49
HETATM   49  O9  UNL     1      45.366  14.802 -46.552  1.00  0.00    -0.392 OA
ATOM     50  H9  UNL     1      45.984  14.646 -45.848  1.00  0.00     0.210 HD
ENDBRANCH  13  49
TORSDOF 16
ENDMDL
MODEL 4
REMARK VINA RESULT: -4.999406975      3.067      6.220
REMARK  16 active torsions:
REMARK  status: ('A' for Active; 'I' for Inactive)
REMARK    1  A    between atoms: C2_2  and  O2_4 
REMARK    2  A    between atoms: O2_4  and  C3_5 
REMARK    3  A    between atoms: C3_5  and  C4_6 
REMARK    4  A    between atoms: C3_5  and  C9_12 
REMARK    5  A    between atoms: C4_6  and  C5_7 
REMARK    6  A    between atoms: C6_8  and  C8_10 
REMARK    7  A    between atoms: C9_12  and  O4_14 
REMARK    8  A    between atoms: C9_12  and  C11_16 
REMARK    9  A    between atoms: C13_18  and  O5_19 
REMARK   10  A    between atoms: O5_19  and  C14_20 
REMARK   11  A    between atoms: C22_28  and  O6_29 
REMARK   12  A    between atoms: C25_33  and  O7_34 
REMARK   13  A    between atoms: C26_36  and  O8_37 
REMARK   14  A    between atoms: C28_40  and  O9_41 
REMARK   15  A    between atoms: C29_43  and  O10_45 
REMARK   16  A    between atoms: C31_47  and  O11_48 
ROOT
HETATM    1  C11 UNL     1      41.291   9.028 -50.241  1.00  0.00     0.048 C 
HETATM    2  C12 UNL     1      40.195   9.799 -49.451  1.00  0.00     0.024 C 
HETATM    3  C13 UNL     1      41.625   7.877 -49.313  1.00  0.00     0.143 C 
HETATM    4  C19 UNL     1      42.383   8.548 -48.159  1.00  0.00     0.048 C 
HETATM    5  C20 UNL     1      43.286   9.431 -48.907  1.00  0.00     0.022 C 
HETATM    6  C21 UNL     1      44.435   8.495 -49.363  1.00  0.00     0.022 C 
HETATM    7  C22 UNL     1      43.868  10.597 -48.291  1.00  0.00     0.083 C 
HETATM    8  C23 UNL     1      43.488  11.799 -49.146  1.00  0.00     0.059 C 
HETATM    9  C24 UNL     1      42.276  11.350 -49.944  1.00  0.00     0.050 C 
HETATM   10  C25 UNL     1      42.501   9.860 -50.171  1.00  0.00     0.081 C 
HETATM   11  C26 UNL     1      43.003  12.545 -47.896  1.00  0.00     0.076 C 
HETATM   12  C27 UNL     1      43.827  13.721 -47.611  1.00  0.00     0.073 C 
HETATM   13  C28 UNL     1      45.098  13.525 -46.874  1.00  0.00     0.157 C 
HETATM   14  C29 UNL     1      44.866  12.635 -45.704  1.00  0.00     0.106 C 
HETATM   15  C30 UNL     1      44.156  13.486 -44.639  1.00  0.00     0.051 C 
HETATM   16  C31 UNL     1      44.106  11.403 -45.934  1.00  0.00     0.164 C 
HETATM   17  C32 UNL     1      43.253  11.304 -47.132  1.00  0.00     0.088 C 
ENDROOT
BRANCH   1  18
HETATM   18  C9  UNL     1      40.644   8.593 -51.460  1.00  0.00     0.093 C 
HETATM   19  C10 UNL     1      41.439   7.366 -52.041  1.00  0.00     0.049 C 
BRANCH  18  20
HETATM   20  C3  UNL     1      39.262   8.203 -51.643  1.00  0.00     0.170 C 
BRANCH  20  21
HETATM   21  O2  UNL     1      38.965   6.906 -51.957  1.00  0.00    -0.313 OA
BRANCH  21  22
HETATM   22  C2  UNL     1      37.905   6.161 -51.427  1.00  0.00     0.255 C 
HETATM   23  C1  UNL     1      37.251   6.630 -50.207  1.00  0.00     0.126 C 
HETATM   24  O1  UNL     1      37.552   5.129 -52.004  1.00  0.00    -0.266 OA
ENDBRANCH  21  22
ENDBRANCH  20  21
BRANCH  20  25
HETATM   25  C4  UNL     1      38.673   9.070 -52.803  1.00  0.00     0.063 C 
BRANCH  25  26
HETATM   26  C5  UNL     1      37.575   9.894 -52.343  1.00  0.00    -0.014 C 
HETATM   27  C6  UNL     1      37.534  11.172 -52.258  1.00  0.00    -0.028 C 
HETATM   28  C7  UNL     1      36.239  11.799 -51.737  1.00  0.00     0.051 C 
BRANCH  27  29
HETATM   29  C8  UNL     1      38.561  12.093 -52.577  1.00  0.00     0.265 C 
HETATM   30  O3  UNL     1      39.591  12.278 -51.935  1.00  0.00    -0.302 OA
ENDBRANCH  27  29
ENDBRANCH  25  26
ENDBRANCH  20  25
ENDBRANCH  18  20
BRANCH  18  31
HETATM   31  O4  UNL     1      40.942   9.596 -52.424  1.00  0.00    -0.387 OA
ATOM     32  H4  UNL     1      40.851   9.205 -53.285  1.00  0.00     0.210 HD
ENDBRANCH  18  31
ENDBRANCH   1  18
BRANCH   3  33
HETATM   33  O5  UNL     1      40.483   7.261 -48.803  1.00  0.00    -0.349 OA
BRANCH  33  34
HETATM   34  C14 UNL     1      40.337   5.927 -48.557  1.00  0.00     0.044 C 
HETATM   35  C15 UNL     1      40.845   4.898 -49.535  1.00  0.00     0.076 C 
HETATM   36  C16 UNL     1      39.758   5.497 -47.472  1.00  0.00    -0.059 C 
HETATM   37  C17 UNL     1      39.617   4.042 -47.237  1.00  0.00     0.045 C 
HETATM   38  C18 UNL     1      39.229   6.430 -46.452  1.00  0.00     0.045 C 
ENDBRANCH  33  34
ENDBRANCH   3  33
BRANCH  10  39
HETATM   39  O7  UNL     1      43.425   9.823 -51.166  1.00  0.00    -0.388 OA
ATOM     40  H7  UNL     1      43.442  10.495 -51.836  1.00  0.00     0.210 HD
ENDBRANCH  10  39
BRANCH   7  41
HETATM   41  O6  UNL     1      45.264  10.502 -48.079  1.00  0.00    -0.388 OA
ATOM     42  H6  UNL     1      45.564  10.921 -47.280  1.00  0.00     0.210 HD
ENDBRANCH   7  41
BRANCH  11  43
HETATM   43  O8  UNL     1      41.644  12.934 -47.986  1.00  0.00    -0.389 OA
ATOM     44  H8  UNL     1      41.048  12.249 -47.705  1.00  0.00     0.210 HD
ENDBRANCH  11  43
BRANCH  16  45
HETATM   45  O11 UNL     1      43.365  11.129 -44.756  1.00  0.00    -0.392 OA
ATOM     46  H11 UNL     1      43.928  10.640 -44.168  1.00  0.00     0.210 HD
ENDBRANCH  16  45
BRANCH  14  47
HETATM   47  O10 UNL     1      46.134  12.355 -45.140  1.00  0.00    -0.385 OA
ATOM     48  H10 UNL     1      46.008  12.266 -44.202  1.00  0.00     0.210 HD
ENDBRANCH  14  47
BRANCH  13  49
HETATM   49  O9  UNL     1      45.455  14.794 -46.350  1.00  0.00    -0.392 OA
ATOM     50  H9  UNL     1      45.190  14.791 -45.438  1.00  0.00     0.210 HD
ENDBRANCH  13  49
TORSDOF 16
ENDMDL
MODEL 5
REMARK VINA RESULT: -4.972182041      2.435      6.949
REMARK  16 active torsions:
REMARK  status: ('A' for Active; 'I' for Inactive)
REMARK    1  A    between atoms: C2_2  and  O2_4 
REMARK    2  A    between atoms: O2_4  and  C3_5 
REMARK    3  A    between atoms: C3_5  and  C4_6 
REMARK    4  A    between atoms: C3_5  and  C9_12 
REMARK    5  A    between atoms: C4_6  and  C5_7 
REMARK    6  A    between atoms: C6_8  and  C8_10 
REMARK    7  A    between atoms: C9_12  and  O4_14 
REMARK    8  A    between atoms: C9_12  and  C11_16 
REMARK    9  A    between atoms: C13_18  and  O5_19 
REMARK   10  A    between atoms: O5_19  and  C14_20 
REMARK   11  A    between atoms: C22_28  and  O6_29 
REMARK   12  A    between atoms: C25_33  and  O7_34 
REMARK   13  A    between atoms: C26_36  and  O8_37 
REMARK   14  A    between atoms: C28_40  and  O9_41 
REMARK   15  A    between atoms: C29_43  and  O10_45 
REMARK   16  A    between atoms: C31_47  and  O11_48 
ROOT
HETATM    1  C11 UNL     1      40.995   8.141 -49.428  1.00  0.00     0.048 C 
HETATM    2  C12 UNL     1      41.657   7.848 -50.805  1.00  0.00     0.024 C 
HETATM    3  C13 UNL     1      40.990   6.779 -48.763  1.00  0.00     0.143 C 
HETATM    4  C19 UNL     1      39.924   5.996 -49.543  1.00  0.00     0.048 C 
HETATM    5  C20 UNL     1      38.854   6.999 -49.616  1.00  0.00     0.022 C 
HETATM    6  C21 UNL     1      38.166   6.916 -48.230  1.00  0.00     0.022 C 
HETATM    7  C22 UNL     1      37.835   6.929 -50.634  1.00  0.00     0.083 C 
HETATM    8  C23 UNL     1      37.857   8.251 -51.389  1.00  0.00     0.059 C 
HETATM    9  C24 UNL     1      39.228   8.843 -51.112  1.00  0.00     0.050 C 
HETATM   10  C25 UNL     1      39.569   8.370 -49.704  1.00  0.00     0.081 C 
HETATM   11  C26 UNL     1      37.909   7.497 -52.725  1.00  0.00     0.076 C 
HETATM   12  C27 UNL     1      36.698   7.712 -53.518  1.00  0.00     0.073 C 
HETATM   13  C28 UNL     1      35.506   6.884 -53.216  1.00  0.00     0.157 C 
HETATM   14  C29 UNL     1      35.909   5.458 -53.077  1.00  0.00     0.106 C 
HETATM   15  C30 UNL     1      36.153   4.930 -54.499  1.00  0.00     0.051 C 
HETATM   16  C31 UNL     1      37.075   5.166 -52.238  1.00  0.00     0.164 C 
HETATM   17  C32 UNL     1      38.032   6.247 -51.944  1.00  0.00     0.088 C 
ENDROOT
BRANCH   1  18
HETATM   18  C9  UNL     1      41.881   9.079 -48.773  1.00  0.00     0.093 C 
HETATM   19  C10 UNL     1      43.367   8.634 -49.035  1.00  0.00     0.049 C 
BRANCH  18  20
HETATM   20  C3  UNL     1      41.936  10.516 -48.943  1.00  0.00     0.170 C 
BRANCH  20  21
HETATM   21  O2  UNL     1      41.595  11.063 -50.149  1.00  0.00    -0.313 OA
BRANCH  21  22
HETATM   22  C2  UNL     1      40.620  12.048 -50.349  1.00  0.00     0.255 C 
HETATM   23  C1  UNL     1      40.822  13.040 -51.403  1.00  0.00     0.126 C 
HETATM   24  O1  UNL     1      39.616  12.052 -49.631  1.00  0.00    -0.266 OA
ENDBRANCH  21  22
ENDBRANCH  20  21
BRANCH  20  25
HETATM   25  C4  UNL     1      43.406  10.971 -48.667  1.00  0.00     0.063 C 
BRANCH  25  26
HETATM   26  C5  UNL     1      43.445  12.170 -47.857  1.00  0.00    -0.014 C 
HETATM   27  C6  UNL     1      43.601  12.255 -46.588  1.00  0.00    -0.028 C 
HETATM   28  C7  UNL     1      43.607  13.657 -45.975  1.00  0.00     0.051 C 
BRANCH  27  29
HETATM   29  C8  UNL     1      43.756  11.194 -45.662  1.00  0.00     0.265 C 
HETATM   30  O3  UNL     1      43.770  11.298 -44.440  1.00  0.00    -0.302 OA
ENDBRANCH  27  29
ENDBRANCH  25  26
ENDBRANCH  20  25
ENDBRANCH  18  20
BRANCH  18  31
HETATM   31  O4  UNL     1      41.753   8.812 -47.382  1.00  0.00    -0.387 OA
ATOM     32  H4  UNL     1      41.739   9.647 -46.928  1.00  0.00     0.210 HD
ENDBRANCH  18  31
ENDBRANCH   1  18
BRANCH   3  33
HETATM   33  O5  UNL     1      42.213   6.123 -48.893  1.00  0.00    -0.349 OA
BRANCH  33  34
HETATM   34  C14 UNL     1      42.384   4.788 -49.117  1.00  0.00     0.044 C 
HETATM   35  C15 UNL     1      41.320   3.793 -48.726  1.00  0.00     0.076 C 
HETATM   36  C16 UNL     1      43.467   4.328 -49.678  1.00  0.00    -0.059 C 
HETATM   37  C17 UNL     1      43.619   2.873 -49.907  1.00  0.00     0.045 C 
HETATM   38  C18 UNL     1      44.565   5.226 -50.098  1.00  0.00     0.045 C 
ENDBRANCH  33  34
ENDBRANCH   3  33
BRANCH  10  39
HETATM   39  O7  UNL     1      38.831   9.183 -48.905  1.00  0.00    -0.388 OA
ATOM     40  H7  UNL     1      39.098   9.355 -48.010  1.00  0.00     0.210 HD
ENDBRANCH  10  39
BRANCH   7  41
HETATM   41  O6  UNL     1      36.548   6.607 -50.141  1.00  0.00    -0.388 OA
ATOM     42  H6  UNL     1      36.252   5.734 -50.372  1.00  0.00     0.210 HD
ENDBRANCH   7  41
BRANCH  11  43
HETATM   43  O8  UNL     1      39.046   7.838 -53.499  1.00  0.00    -0.389 OA
ATOM     44  H8  UNL     1      39.827   7.954 -52.971  1.00  0.00     0.210 HD
ENDBRANCH  11  43
BRANCH  16  45
HETATM   45  O11 UNL     1      37.733   4.039 -52.795  1.00  0.00    -0.392 OA
ATOM     46  H11 UNL     1      38.255   3.642 -52.108  1.00  0.00     0.210 HD
ENDBRANCH  16  45
BRANCH  14  47
HETATM   47  O10 UNL     1      34.768   4.748 -52.631  1.00  0.00    -0.385 OA
ATOM     48  H10 UNL     1      34.560   4.108 -53.302  1.00  0.00     0.210 HD
ENDBRANCH  14  47
BRANCH  13  49
HETATM   49  O9  UNL     1      34.670   6.956 -54.360  1.00  0.00    -0.392 OA
ATOM     50  H9  UNL     1      34.397   6.066 -54.548  1.00  0.00     0.210 HD
ENDBRANCH  13  49
TORSDOF 16
ENDMDL
