MODEL 1
REMARK VINA RESULT: -6.329201945      0.000      0.000
REMARK  14 active torsions:
REMARK  status: ('A' for Active; 'I' for Inactive)
REMARK    1  A    between atoms: O1_2  and  N1_3 
REMARK    2  A    between atoms: N1_3  and  C2_5 
REMARK    3  A    between atoms: C6_9  and  C7_10 
REMARK    4  A    between atoms: C7_10  and  O2_11 
REMARK    5  A    between atoms: C7_10  and  C8_13 
REMARK    6  A    between atoms: C8_13  and  O3_14 
REMARK    7  A    between atoms: C8_13  and  C9_16 
REMARK    8  A    between atoms: C9_16  and  O4_17 
REMARK    9  A    between atoms: C9_16  and  C10_19 
REMARK   10  A    between atoms: C10_19  and  O5_20 
REMARK   11  A    between atoms: C11_22  and  C13_24 
REMARK   12  A    between atoms: C20_34  and  O9_35 
REMARK   13  A    between atoms: C21_37  and  O10_38 
REMARK   14  A    between atoms: O10_38  and  S1_39 
ROOT
HETATM    1  C2  UNL     1      41.968  11.833 -49.475  1.00  0.00     0.043 C 
HETATM    2  C3  UNL     1      41.636  10.496 -49.855  1.00  0.00     0.039 C 
HETATM    3  C4  UNL     1      42.389   9.304 -49.484  1.00  0.00     0.088 C 
HETATM    4  C5  UNL     1      41.730   8.683 -48.228  1.00  0.00     0.053 C 
HETATM    5  C6  UNL     1      41.625   7.240 -48.582  1.00  0.00     0.065 C 
HETATM    6  C11 UNL     1      41.465   7.269 -50.036  1.00  0.00     0.152 C 
HETATM    7  C12 UNL     1      42.344   6.150 -50.652  1.00  0.00     0.059 C 
HETATM    8  O8  UNL     1      41.990   8.422 -50.535  1.00  0.00    -0.353 OA
HETATM    9  C14 UNL     1      43.812   9.159 -49.334  1.00  0.00     0.041 A 
HETATM   10  C15 UNL     1      44.851  10.030 -49.792  1.00  0.00     0.007 A 
HETATM   11  C16 UNL     1      44.582  11.239 -50.602  1.00  0.00     0.012 C 
HETATM   12  C17 UNL     1      44.416  12.415 -49.827  1.00  0.00     0.003 C 
HETATM   13  C18 UNL     1      44.951  13.773 -50.241  1.00  0.00     0.009 C 
HETATM   14  C19 UNL     1      44.418  14.556 -49.032  1.00  0.00     0.042 C 
HETATM   15  C20 UNL     1      43.338  13.646 -48.381  1.00  0.00     0.102 C 
HETATM   16  C21 UNL     1      43.847  12.996 -47.172  1.00  0.00     0.203 C 
HETATM   17  C22 UNL     1      43.627  11.581 -46.826  1.00  0.00     0.006 C 
HETATM   18  C23 UNL     1      44.554  10.515 -47.224  1.00  0.00    -0.018 C 
HETATM   19  C24 UNL     1      44.803   9.804 -48.428  1.00  0.00    -0.015 A 
HETATM   20  C25 UNL     1      46.004   8.822 -48.012  1.00  0.00     0.020 C 
HETATM   21  C26 UNL     1      43.020  12.809 -49.562  1.00  0.00     0.038 C 
HETATM   22  C27 UNL     1      42.579  13.703 -50.735  1.00  0.00     0.025 C 
ENDROOT
BRANCH   1  23
HETATM   23  N1  UNL     1      40.988  12.439 -48.843  1.00  0.00    -0.271 N 
ATOM     24  H1  UNL     1      41.233  13.022 -48.043  1.00  0.00     0.194 HD
BRANCH  23  25
HETATM   25  O1  UNL     1      39.683  12.348 -49.172  1.00  0.00    -0.285 OA
HETATM   26  C1  UNL     1      38.804  13.357 -48.705  1.00  0.00     0.237 C 
ENDBRANCH  23  25
ENDBRANCH   1  23
BRANCH   5  27
HETATM   27  C7  UNL     1      40.922   6.326 -47.705  1.00  0.00     0.157 C 
BRANCH  27  28
HETATM   28  O2  UNL     1      41.010   5.045 -48.284  1.00  0.00    -0.392 OA
ATOM     29  H2  UNL     1      40.217   4.578 -48.051  1.00  0.00     0.210 HD
ENDBRANCH  27  28
BRANCH  27  30
HETATM   30  C8  UNL     1      39.610   6.632 -47.120  1.00  0.00     0.178 C 
BRANCH  30  31
HETATM   31  O3  UNL     1      39.657   6.574 -45.715  1.00  0.00    -0.390 OA
ATOM     32  H3  UNL     1      38.801   6.376 -45.353  1.00  0.00     0.210 HD
ENDBRANCH  30  31
BRANCH  30  33
HETATM   33  C9  UNL     1      38.522   5.659 -47.502  1.00  0.00     0.172 C 
BRANCH  33  34
HETATM   34  O4  UNL     1      38.287   5.547 -48.853  1.00  0.00    -0.391 OA
ATOM     35  H4  UNL     1      37.765   6.245 -49.231  1.00  0.00     0.210 HD
ENDBRANCH  33  34
BRANCH  33  36
HETATM   36  C10 UNL     1      38.530   4.367 -46.759  1.00  0.00     0.198 C 
BRANCH  36  37
HETATM   37  O5  UNL     1      38.890   3.251 -47.495  1.00  0.00    -0.398 OA
ATOM     38  H5  UNL     1      38.673   2.412 -47.106  1.00  0.00     0.209 HD
ENDBRANCH  36  37
ENDBRANCH  33  36
ENDBRANCH  30  33
ENDBRANCH  27  30
ENDBRANCH   5  27
BRANCH   6  39
HETATM   39  C13 UNL     1      40.121   7.121 -50.624  1.00  0.00     0.209 C 
HETATM   40  O6  UNL     1      39.802   6.165 -51.376  1.00  0.00    -0.646 OA
HETATM   41  O7  UNL     1      39.076   8.000 -50.414  1.00  0.00    -0.646 OA
ENDBRANCH   6  39
BRANCH  15  42
HETATM   42  O9  UNL     1      42.234  14.504 -48.184  1.00  0.00    -0.386 OA
ATOM     43  H9  UNL     1      41.480  13.929 -48.234  1.00  0.00     0.210 HD
ENDBRANCH  15  42
BRANCH  16  44
HETATM   44  O10 UNL     1      43.373  13.867 -46.136  1.00  0.00    -0.244 OA
BRANCH  44  45
HETATM   45  S1  UNL     1      44.551  14.715 -45.375  1.00  0.00     0.252 S 
HETATM   46  O11 UNL     1      44.491  14.652 -43.881  1.00  0.00    -0.572 OA
HETATM   47  O12 UNL     1      44.442  16.169 -45.763  1.00  0.00    -0.572 OA
HETATM   48  O13 UNL     1      46.058  14.187 -45.944  1.00  0.00    -0.572 OA
ENDBRANCH  44  45
ENDBRANCH  16  44
TORSDOF 14
ENDMDL
MODEL 2
REMARK VINA RESULT: -6.195649924      1.011      1.370
REMARK  14 active torsions:
REMARK  status: ('A' for Active; 'I' for Inactive)
REMARK    1  A    between atoms: O1_2  and  N1_3 
REMARK    2  A    between atoms: N1_3  and  C2_5 
REMARK    3  A    between atoms: C6_9  and  C7_10 
REMARK    4  A    between atoms: C7_10  and  O2_11 
REMARK    5  A    between atoms: C7_10  and  C8_13 
REMARK    6  A    between atoms: C8_13  and  O3_14 
REMARK    7  A    between atoms: C8_13  and  C9_16 
REMARK    8  A    between atoms: C9_16  and  O4_17 
REMARK    9  A    between atoms: C9_16  and  C10_19 
REMARK   10  A    between atoms: C10_19  and  O5_20 
REMARK   11  A    between atoms: C11_22  and  C13_24 
REMARK   12  A    between atoms: C20_34  and  O9_35 
REMARK   13  A    between atoms: C21_37  and  O10_38 
REMARK   14  A    between atoms: O10_38  and  S1_39 
ROOT
HETATM    1  C2  UNL     1      41.179  11.814 -49.519  1.00  0.00     0.043 C 
HETATM    2  C3  UNL     1      40.765  10.475 -49.794  1.00  0.00     0.039 C 
HETATM    3  C4  UNL     1      41.530   9.275 -49.478  1.00  0.00     0.088 C 
HETATM    4  C5  UNL     1      41.031   8.724 -48.120  1.00  0.00     0.053 C 
HETATM    5  C6  UNL     1      40.843   7.272 -48.395  1.00  0.00     0.065 C 
HETATM    6  C11 UNL     1      40.489   7.250 -49.815  1.00  0.00     0.152 C 
HETATM    7  C12 UNL     1      41.248   6.081 -50.495  1.00  0.00     0.059 C 
HETATM    8  O8  UNL     1      40.971   8.366 -50.427  1.00  0.00    -0.353 OA
HETATM    9  C14 UNL     1      42.956   9.092 -49.513  1.00  0.00     0.041 A 
HETATM   10  C15 UNL     1      43.946   9.912 -50.142  1.00  0.00     0.007 A 
HETATM   11  C16 UNL     1      43.601  11.097 -50.959  1.00  0.00     0.012 C 
HETATM   12  C17 UNL     1      43.571  12.307 -50.220  1.00  0.00     0.003 C 
HETATM   13  C18 UNL     1      44.079  13.630 -50.759  1.00  0.00     0.009 C 
HETATM   14  C19 UNL     1      43.734  14.475 -49.524  1.00  0.00     0.042 C 
HETATM   15  C20 UNL     1      42.729  13.625 -48.697  1.00  0.00     0.102 C 
HETATM   16  C21 UNL     1      43.380  13.007 -47.540  1.00  0.00     0.203 C 
HETATM   17  C22 UNL     1      43.173  11.613 -47.108  1.00  0.00     0.006 C 
HETATM   18  C23 UNL     1      44.011  10.505 -47.581  1.00  0.00    -0.018 C 
HETATM   19  C24 UNL     1      44.077   9.740 -48.776  1.00  0.00    -0.015 A 
HETATM   20  C25 UNL     1      45.297   8.739 -48.484  1.00  0.00     0.020 C 
HETATM   21  C26 UNL     1      42.234  12.753 -49.787  1.00  0.00     0.038 C 
HETATM   22  C27 UNL     1      41.661  13.615 -50.928  1.00  0.00     0.025 C 
ENDROOT
BRANCH   1  23
HETATM   23  N1  UNL     1      40.309  12.474 -48.788  1.00  0.00    -0.271 N 
ATOM     24  H1  UNL     1      40.674  13.073 -48.048  1.00  0.00     0.194 HD
BRANCH  23  25
HETATM   25  O1  UNL     1      38.970  12.419 -48.942  1.00  0.00    -0.285 OA
HETATM   26  C1  UNL     1      38.276  13.628 -49.199  1.00  0.00     0.237 C 
ENDBRANCH  23  25
ENDBRANCH   1  23
BRANCH   5  27
HETATM   27  C7  UNL     1      40.241   6.415 -47.394  1.00  0.00     0.157 C 
BRANCH  27  28
HETATM   28  O2  UNL     1      40.055   7.196 -46.237  1.00  0.00    -0.392 OA
ATOM     29  H2  UNL     1      39.732   6.617 -45.557  1.00  0.00     0.210 HD
ENDBRANCH  27  28
BRANCH  27  30
HETATM   30  C8  UNL     1      40.709   5.049 -47.127  1.00  0.00     0.178 C 
BRANCH  30  31
HETATM   31  O3  UNL     1      41.781   4.708 -47.972  1.00  0.00    -0.390 OA
ATOM     32  H3  UNL     1      41.565   4.875 -48.882  1.00  0.00     0.210 HD
ENDBRANCH  30  31
BRANCH  30  33
HETATM   33  C9  UNL     1      39.674   3.981 -47.383  1.00  0.00     0.172 C 
BRANCH  33  34
HETATM   34  O4  UNL     1      38.374   4.428 -47.427  1.00  0.00    -0.391 OA
ATOM     35  H4  UNL     1      37.929   4.293 -48.256  1.00  0.00     0.210 HD
ENDBRANCH  33  34
BRANCH  33  36
HETATM   36  C10 UNL     1      40.029   2.984 -48.432  1.00  0.00     0.198 C 
BRANCH  36  37
HETATM   37  O5  UNL     1      39.807   3.381 -49.740  1.00  0.00    -0.398 OA
ATOM     38  H5  UNL     1      39.925   2.709 -50.401  1.00  0.00     0.209 HD
ENDBRANCH  36  37
ENDBRANCH  33  36
ENDBRANCH  30  33
ENDBRANCH  27  30
ENDBRANCH   5  27
BRANCH   6  39
HETATM   39  C13 UNL     1      39.074   7.120 -50.211  1.00  0.00     0.209 C 
HETATM   40  O6  UNL     1      38.432   8.042 -50.775  1.00  0.00    -0.646 OA
HETATM   41  O7  UNL     1      38.309   5.988 -50.012  1.00  0.00    -0.646 OA
ENDBRANCH   6  39
BRANCH  15  42
HETATM   42  O9  UNL     1      41.684  14.524 -48.391  1.00  0.00    -0.386 OA
ATOM     43  H9  UNL     1      40.912  13.973 -48.338  1.00  0.00     0.210 HD
ENDBRANCH  15  42
BRANCH  16  44
HETATM   44  O10 UNL     1      43.073  13.931 -46.488  1.00  0.00    -0.244 OA
BRANCH  44  45
HETATM   45  S1  UNL     1      44.386  14.574 -45.748  1.00  0.00     0.252 S 
HETATM   46  O11 UNL     1      44.442  14.335 -44.271  1.00  0.00    -0.572 OA
HETATM   47  O12 UNL     1      44.389  16.068 -45.957  1.00  0.00    -0.572 OA
HETATM   48  O13 UNL     1      45.783  13.989 -46.509  1.00  0.00    -0.572 OA
ENDBRANCH  44  45
ENDBRANCH  16  44
TORSDOF 14
ENDMDL
MODEL 3
REMARK VINA RESULT: -6.160993035      3.927      5.823
REMARK  14 active torsions:
REMARK  status: ('A' for Active; 'I' for Inactive)
REMARK    1  A    between atoms: O1_2  and  N1_3 
REMARK    2  A    between atoms: N1_3  and  C2_5 
REMARK    3  A    between atoms: C6_9  and  C7_10 
REMARK    4  A    between atoms: C7_10  and  O2_11 
REMARK    5  A    between atoms: C7_10  and  C8_13 
REMARK    6  A    between atoms: C8_13  and  O3_14 
REMARK    7  A    between atoms: C8_13  and  C9_16 
REMARK    8  A    between atoms: C9_16  and  O4_17 
REMARK    9  A    between atoms: C9_16  and  C10_19 
REMARK   10  A    between atoms: C10_19  and  O5_20 
REMARK   11  A    between atoms: C11_22  and  C13_24 
REMARK   12  A    between atoms: C20_34  and  O9_35 
REMARK   13  A    between atoms: C21_37  and  O10_38 
REMARK   14  A    between atoms: O10_38  and  S1_39 
ROOT
HETATM    1  C2  UNL     1      37.611   9.225 -52.824  1.00  0.00     0.043 C 
HETATM    2  C3  UNL     1      38.249   7.970 -52.584  1.00  0.00     0.039 C 
HETATM    3  C4  UNL     1      39.503   7.787 -51.861  1.00  0.00     0.088 C 
HETATM    4  C5  UNL     1      39.169   7.444 -50.388  1.00  0.00     0.053 C 
HETATM    5  C6  UNL     1      40.043   6.271 -50.110  1.00  0.00     0.065 C 
HETATM    6  C11 UNL     1      40.150   5.623 -51.418  1.00  0.00     0.152 C 
HETATM    7  C12 UNL     1      41.622   5.185 -51.633  1.00  0.00     0.059 C 
HETATM    8  O8  UNL     1      39.922   6.534 -52.403  1.00  0.00    -0.353 OA
HETATM    9  C14 UNL     1      40.657   8.645 -51.847  1.00  0.00     0.041 A 
HETATM   10  C15 UNL     1      40.991   9.707 -52.746  1.00  0.00     0.007 A 
HETATM   11  C16 UNL     1      40.173  10.034 -53.935  1.00  0.00     0.012 C 
HETATM   12  C17 UNL     1      39.185  11.021 -53.690  1.00  0.00     0.003 C 
HETATM   13  C18 UNL     1      38.824  12.109 -54.683  1.00  0.00     0.009 C 
HETATM   14  C19 UNL     1      37.725  12.770 -53.839  1.00  0.00     0.042 C 
HETATM   15  C20 UNL     1      37.350  11.732 -52.743  1.00  0.00     0.102 C 
HETATM   16  C21 UNL     1      37.938  12.087 -51.450  1.00  0.00     0.203 C 
HETATM   17  C22 UNL     1      38.588  11.132 -50.535  1.00  0.00     0.006 C 
HETATM   18  C23 UNL     1      40.026  10.845 -50.581  1.00  0.00    -0.018 C 
HETATM   19  C24 UNL     1      40.863  10.055 -51.414  1.00  0.00    -0.015 A 
HETATM   20  C25 UNL     1      42.320  10.314 -50.792  1.00  0.00     0.020 C 
HETATM   21  C26 UNL     1      37.827  10.510 -53.432  1.00  0.00     0.038 C 
HETATM   22  C27 UNL     1      37.134  10.375 -54.801  1.00  0.00     0.025 C 
ENDROOT
BRANCH   1  23
HETATM   23  N1  UNL     1      36.377   9.261 -52.373  1.00  0.00    -0.271 N 
ATOM     24  H1  UNL     1      36.083  10.100 -51.873  1.00  0.00     0.194 HD
BRANCH  23  25
HETATM   25  O1  UNL     1      35.471   8.273 -52.521  1.00  0.00    -0.285 OA
HETATM   26  C1  UNL     1      34.363   8.504 -53.374  1.00  0.00     0.237 C 
ENDBRANCH  23  25
ENDBRANCH   1  23
BRANCH   5  27
HETATM   27  C7  UNL     1      39.921   5.555 -48.856  1.00  0.00     0.157 C 
BRANCH  27  28
HETATM   28  O2  UNL     1      38.570   5.182 -48.721  1.00  0.00    -0.392 OA
ATOM     29  H2  UNL     1      38.411   5.037 -47.797  1.00  0.00     0.210 HD
ENDBRANCH  27  28
BRANCH  27  30
HETATM   30  C8  UNL     1      40.544   6.017 -47.610  1.00  0.00     0.178 C 
BRANCH  30  31
HETATM   31  O3  UNL     1      40.787   4.941 -46.736  1.00  0.00    -0.390 OA
ATOM     32  H3  UNL     1      41.511   5.133 -46.151  1.00  0.00     0.210 HD
ENDBRANCH  30  31
BRANCH  30  33
HETATM   33  C9  UNL     1      39.689   6.967 -46.808  1.00  0.00     0.172 C 
BRANCH  33  34
HETATM   34  O4  UNL     1      39.666   6.730 -45.453  1.00  0.00    -0.391 OA
ATOM     35  H4  UNL     1      38.884   6.296 -45.133  1.00  0.00     0.210 HD
ENDBRANCH  33  34
BRANCH  33  36
HETATM   36  C10 UNL     1      39.798   8.404 -47.191  1.00  0.00     0.198 C 
BRANCH  36  37
HETATM   37  O5  UNL     1      38.598   9.073 -47.366  1.00  0.00    -0.398 OA
ATOM     38  H5  UNL     1      37.830   8.645 -47.005  1.00  0.00     0.209 HD
ENDBRANCH  36  37
ENDBRANCH  33  36
ENDBRANCH  30  33
ENDBRANCH  27  30
ENDBRANCH   5  27
BRANCH   6  39
HETATM   39  C13 UNL     1      39.312   4.447 -51.719  1.00  0.00     0.209 C 
HETATM   40  O6  UNL     1      39.707   3.264 -51.561  1.00  0.00    -0.646 OA
HETATM   41  O7  UNL     1      38.017   4.514 -52.197  1.00  0.00    -0.646 OA
ENDBRANCH   6  39
BRANCH  15  42
HETATM   42  O9  UNL     1      35.940  11.690 -52.773  1.00  0.00    -0.386 OA
ATOM     43  H9  UNL     1      35.714  11.007 -52.152  1.00  0.00     0.210 HD
ENDBRANCH  15  42
BRANCH  16  44
HETATM   44  O10 UNL     1      36.859  12.777 -50.805  1.00  0.00    -0.244 OA
BRANCH  44  45
HETATM   45  S1  UNL     1      37.306  14.141 -50.016  1.00  0.00     0.252 S 
HETATM   46  O11 UNL     1      36.213  15.153 -49.864  1.00  0.00    -0.572 OA
HETATM   47  O12 UNL     1      38.425  14.809 -50.777  1.00  0.00    -0.572 OA
HETATM   48  O13 UNL     1      37.950  13.715 -48.508  1.00  0.00    -0.572 OA
ENDBRANCH  44  45
ENDBRANCH  16  44
TORSDOF 14
ENDMDL
MODEL 4
REMARK VINA RESULT: -6.063698795      1.608      2.375
REMARK  14 active torsions:
REMARK  status: ('A' for Active; 'I' for Inactive)
REMARK    1  A    between atoms: O1_2  and  N1_3 
REMARK    2  A    between atoms: N1_3  and  C2_5 
REMARK    3  A    between atoms: C6_9  and  C7_10 
REMARK    4  A    between atoms: C7_10  and  O2_11 
REMARK    5  A    between atoms: C7_10  and  C8_13 
REMARK    6  A    between atoms: C8_13  and  O3_14 
REMARK    7  A    between atoms: C8_13  and  C9_16 
REMARK    8  A    between atoms: C9_16  and  O4_17 
REMARK    9  A    between atoms: C9_16  and  C10_19 
REMARK   10  A    between atoms: C10_19  and  O5_20 
REMARK   11  A    between atoms: C11_22  and  C13_24 
REMARK   12  A    between atoms: C20_34  and  O9_35 
REMARK   13  A    between atoms: C21_37  and  O10_38 
REMARK   14  A    between atoms: O10_38  and  S1_39 
ROOT
HETATM    1  C2  UNL     1      42.136  12.593 -49.050  1.00  0.00     0.043 C 
HETATM    2  C3  UNL     1      41.341  11.720 -49.854  1.00  0.00     0.039 C 
HETATM    3  C4  UNL     1      41.607  10.304 -50.077  1.00  0.00     0.088 C 
HETATM    4  C5  UNL     1      40.764   9.486 -49.068  1.00  0.00     0.053 C 
HETATM    5  C6  UNL     1      40.142   8.436 -49.923  1.00  0.00     0.065 C 
HETATM    6  C11 UNL     1      40.007   9.105 -51.218  1.00  0.00     0.152 C 
HETATM    7  C12 UNL     1      40.420   8.109 -52.333  1.00  0.00     0.059 C 
HETATM    8  O8  UNL     1      40.917  10.113 -51.313  1.00  0.00    -0.353 OA
HETATM    9  C14 UNL     1      42.879   9.645 -50.202  1.00  0.00     0.041 A 
HETATM   10  C15 UNL     1      44.166  10.225 -50.441  1.00  0.00     0.007 A 
HETATM   11  C16 UNL     1      44.357  11.672 -50.684  1.00  0.00     0.012 C 
HETATM   12  C17 UNL     1      44.628  12.414 -49.507  1.00  0.00     0.003 C 
HETATM   13  C18 UNL     1      45.622  13.559 -49.449  1.00  0.00     0.009 C 
HETATM   14  C19 UNL     1      45.407  13.913 -47.970  1.00  0.00     0.042 C 
HETATM   15  C20 UNL     1      44.068  13.235 -47.562  1.00  0.00     0.102 C 
HETATM   16  C21 UNL     1      44.303  12.022 -46.778  1.00  0.00     0.203 C 
HETATM   17  C22 UNL     1      43.582  10.750 -46.965  1.00  0.00     0.006 C 
HETATM   18  C23 UNL     1      44.059   9.695 -47.867  1.00  0.00    -0.018 C 
HETATM   19  C24 UNL     1      44.035   9.495 -49.273  1.00  0.00    -0.015 A 
HETATM   20  C25 UNL     1      44.795   8.091 -49.440  1.00  0.00     0.020 C 
HETATM   21  C26 UNL     1      43.471  13.108 -48.912  1.00  0.00     0.038 C 
HETATM   22  C27 UNL     1      43.388  14.492 -49.582  1.00  0.00     0.025 C 
ENDROOT
BRANCH   1  23
HETATM   23  N1  UNL     1      41.442  13.179 -48.100  1.00  0.00    -0.271 N 
ATOM     24  H1  UNL     1      41.592  12.861 -47.142  1.00  0.00     0.194 HD
BRANCH  23  25
HETATM   25  O1  UNL     1      40.547  14.169 -48.295  1.00  0.00    -0.285 OA
HETATM   26  C1  UNL     1      39.169  13.851 -48.211  1.00  0.00     0.237 C 
ENDBRANCH  23  25
ENDBRANCH   1  23
BRANCH   5  27
HETATM   27  C7  UNL     1      39.152   7.538 -49.365  1.00  0.00     0.157 C 
BRANCH  27  28
HETATM   28  O2  UNL     1      38.491   8.237 -48.337  1.00  0.00    -0.392 OA
ATOM     29  H2  UNL     1      38.374   7.630 -47.616  1.00  0.00     0.210 HD
ENDBRANCH  27  28
BRANCH  27  30
HETATM   30  C8  UNL     1      39.438   6.133 -49.050  1.00  0.00     0.178 C 
BRANCH  30  31
HETATM   31  O3  UNL     1      38.739   5.269 -49.913  1.00  0.00    -0.390 OA
ATOM     32  H3  UNL     1      38.384   5.743 -50.656  1.00  0.00     0.210 HD
ENDBRANCH  30  31
BRANCH  30  33
HETATM   33  C9  UNL     1      39.008   5.712 -47.666  1.00  0.00     0.172 C 
BRANCH  33  34
HETATM   34  O4  UNL     1      38.304   4.531 -47.608  1.00  0.00    -0.391 OA
ATOM     35  H4  UNL     1      38.796   3.784 -47.286  1.00  0.00     0.210 HD
ENDBRANCH  33  34
BRANCH  33  36
HETATM   36  C10 UNL     1      40.033   5.883 -46.598  1.00  0.00     0.198 C 
BRANCH  36  37
HETATM   37  O5  UNL     1      39.773   6.875 -45.667  1.00  0.00    -0.398 OA
ATOM     38  H5  UNL     1      39.084   6.684 -45.042  1.00  0.00     0.209 HD
ENDBRANCH  36  37
ENDBRANCH  33  36
ENDBRANCH  30  33
ENDBRANCH  27  30
ENDBRANCH   5  27
BRANCH   6  39
HETATM   39  C13 UNL     1      38.703   9.666 -51.616  1.00  0.00     0.209 C 
HETATM   40  O6  UNL     1      38.266  10.762 -51.182  1.00  0.00    -0.646 OA
HETATM   41  O7  UNL     1      37.830   9.060 -52.499  1.00  0.00    -0.646 OA
ENDBRANCH   6  39
BRANCH  15  42
HETATM   42  O9  UNL     1      43.353  14.254 -46.897  1.00  0.00    -0.386 OA
ATOM     43  H9  UNL     1      42.954  14.755 -47.599  1.00  0.00     0.210 HD
ENDBRANCH  15  42
BRANCH  16  44
HETATM   44  O10 UNL     1      44.176  12.501 -45.432  1.00  0.00    -0.244 OA
BRANCH  44  45
HETATM   45  S1  UNL     1      45.535  12.348 -44.529  1.00  0.00     0.252 S 
HETATM   46  O11 UNL     1      46.761  11.998 -45.313  1.00  0.00    -0.572 OA
HETATM   47  O12 UNL     1      45.332  11.253 -43.511  1.00  0.00    -0.572 OA
HETATM   48  O13 UNL     1      45.768  13.775 -43.646  1.00  0.00    -0.572 OA
ENDBRANCH  44  45
ENDBRANCH  16  44
TORSDOF 14
ENDMDL
MODEL 5
REMARK VINA RESULT: -6.062085216      1.345      1.871
REMARK  14 active torsions:
REMARK  status: ('A' for Active; 'I' for Inactive)
REMARK    1  A    between atoms: O1_2  and  N1_3 
REMARK    2  A    between atoms: N1_3  and  C2_5 
REMARK    3  A    between atoms: C6_9  and  C7_10 
REMARK    4  A    between atoms: C7_10  and  O2_11 
REMARK    5  A    between atoms: C7_10  and  C8_13 
REMARK    6  A    between atoms: C8_13  and  O3_14 
REMARK    7  A    between atoms: C8_13  and  C9_16 
REMARK    8  A    between atoms: C9_16  and  O4_17 
REMARK    9  A    between atoms: C9_16  and  C10_19 
REMARK   10  A    between atoms: C10_19  and  O5_20 
REMARK   11  A    between atoms: C11_22  and  C13_24 
REMARK   12  A    between atoms: C20_34  and  O9_35 
REMARK   13  A    between atoms: C21_37  and  O10_38 
REMARK   14  A    between atoms: O10_38  and  S1_39 
ROOT
HETATM    1  C2  UNL     1      41.563  10.437 -49.815  1.00  0.00     0.043 C 
HETATM    2  C3  UNL     1      41.369   9.093 -50.256  1.00  0.00     0.039 C 
HETATM    3  C4  UNL     1      42.304   7.994 -50.044  1.00  0.00     0.088 C 
HETATM    4  C5  UNL     1      41.863   7.217 -48.780  1.00  0.00     0.053 C 
HETATM    5  C6  UNL     1      41.910   5.796 -49.224  1.00  0.00     0.065 C 
HETATM    6  C11 UNL     1      41.598   5.888 -50.651  1.00  0.00     0.152 C 
HETATM    7  C12 UNL     1      42.547   4.936 -51.426  1.00  0.00     0.059 C 
HETATM    8  O8  UNL     1      41.916   7.129 -51.113  1.00  0.00    -0.353 OA
HETATM    9  C14 UNL     1      43.741   8.035 -50.039  1.00  0.00     0.041 A 
HETATM   10  C15 UNL     1      44.607   9.064 -50.529  1.00  0.00     0.007 A 
HETATM   11  C16 UNL     1      44.102  10.270 -51.222  1.00  0.00     0.012 C 
HETATM   12  C17 UNL     1      43.865  11.366 -50.353  1.00  0.00     0.003 C 
HETATM   13  C18 UNL     1      44.175  12.806 -50.717  1.00  0.00     0.009 C 
HETATM   14  C19 UNL     1      43.673  13.437 -49.411  1.00  0.00     0.042 C 
HETATM   15  C20 UNL     1      42.792  12.353 -48.728  1.00  0.00     0.102 C 
HETATM   16  C21 UNL     1      43.503  11.708 -47.622  1.00  0.00     0.203 C 
HETATM   17  C22 UNL     1      43.504  10.258 -47.358  1.00  0.00     0.006 C 
HETATM   18  C23 UNL     1      44.515   9.353 -47.917  1.00  0.00    -0.018 C 
HETATM   19  C24 UNL     1      44.729   8.754 -49.187  1.00  0.00    -0.015 A 
HETATM   20  C25 UNL     1      46.082   7.922 -48.958  1.00  0.00     0.020 C 
HETATM   21  C26 UNL     1      42.465  11.551 -49.930  1.00  0.00     0.038 C 
HETATM   22  C27 UNL     1      41.794  12.444 -50.990  1.00  0.00     0.025 C 
ENDROOT
BRANCH   1  23
HETATM   23  N1  UNL     1      40.583  10.867 -49.051  1.00  0.00    -0.271 N 
ATOM     24  H1  UNL     1      40.835  11.359 -48.194  1.00  0.00     0.194 HD
BRANCH  23  25
HETATM   25  O1  UNL     1      39.270  10.706 -49.316  1.00  0.00    -0.285 OA
HETATM   26  C1  UNL     1      38.501  11.860 -49.608  1.00  0.00     0.237 C 
ENDBRANCH  23  25
ENDBRANCH   1  23
BRANCH   5  27
HETATM   27  C7  UNL     1      41.424   4.746 -48.352  1.00  0.00     0.157 C 
BRANCH  27  28
HETATM   28  O2  UNL     1      41.624   3.524 -49.024  1.00  0.00    -0.392 OA
ATOM     29  H2  UNL     1      40.840   3.004 -48.898  1.00  0.00     0.210 HD
ENDBRANCH  27  28
BRANCH  27  30
HETATM   30  C8  UNL     1      40.148   4.833 -47.632  1.00  0.00     0.178 C 
BRANCH  30  31
HETATM   31  O3  UNL     1      39.313   3.747 -47.949  1.00  0.00    -0.390 OA
ATOM     32  H3  UNL     1      39.657   2.936 -47.593  1.00  0.00     0.210 HD
ENDBRANCH  30  31
BRANCH  30  33
HETATM   33  C9  UNL     1      39.328   6.052 -47.976  1.00  0.00     0.172 C 
BRANCH  33  34
HETATM   34  O4  UNL     1      38.214   5.808 -48.744  1.00  0.00    -0.391 OA
ATOM     35  H4  UNL     1      38.050   6.445 -49.431  1.00  0.00     0.210 HD
ENDBRANCH  33  34
BRANCH  33  36
HETATM   36  C10 UNL     1      39.119   7.019 -46.860  1.00  0.00     0.198 C 
BRANCH  36  37
HETATM   37  O5  UNL     1      39.722   6.689 -45.658  1.00  0.00    -0.398 OA
ATOM     38  H5  UNL     1      40.517   7.165 -45.449  1.00  0.00     0.209 HD
ENDBRANCH  36  37
ENDBRANCH  33  36
ENDBRANCH  30  33
ENDBRANCH  27  30
ENDBRANCH   5  27
BRANCH   6  39
HETATM   39  C13 UNL     1      40.231   5.593 -51.119  1.00  0.00     0.209 C 
HETATM   40  O6  UNL     1      39.468   6.468 -51.602  1.00  0.00    -0.646 OA
HETATM   41  O7  UNL     1      39.647   4.342 -51.082  1.00  0.00    -0.646 OA
ENDBRANCH   6  39
BRANCH  15  42
HETATM   42  O9  UNL     1      41.613  13.040 -48.367  1.00  0.00    -0.386 OA
ATOM     43  H9  UNL     1      41.498  12.838 -47.446  1.00  0.00     0.210 HD
ENDBRANCH  15  42
BRANCH  16  44
HETATM   44  O10 UNL     1      43.029  12.445 -46.486  1.00  0.00    -0.244 OA
BRANCH  44  45
HETATM   45  S1  UNL     1      44.112  12.569 -45.263  1.00  0.00     0.252 S 
HETATM   46  O11 UNL     1      44.037  11.464 -44.255  1.00  0.00    -0.572 OA
HETATM   47  O12 UNL     1      43.875  13.863 -44.522  1.00  0.00    -0.572 OA
HETATM   48  O13 UNL     1      45.670  12.682 -45.921  1.00  0.00    -0.572 OA
ENDBRANCH  44  45
ENDBRANCH  16  44
TORSDOF 14
ENDMDL
