MODEL 1
REMARK VINA RESULT: -3.133637758      0.000      0.000
REMARK  1 active torsions:
REMARK  status: ('A' for Active; 'I' for Inactive)
REMARK    1  A    between atoms: N1_2  and  N2_4 
ROOT
HETATM    1  N2  UNL     1      25.274  17.584  -8.535  1.00  0.00    -0.004 N 
HETATM    2  C2  UNL     1      25.163  18.527  -9.662  1.00  0.00     0.300 C 
HETATM    3  C3  UNL     1      26.157  16.532  -8.968  1.00  0.00     0.300 C 
HETATM    4  C4  UNL     1      25.777  18.323  -7.414  1.00  0.00     0.300 C 
ENDROOT
BRANCH   1   5
HETATM    5  N1  UNL     1      23.995  17.139  -8.278  1.00  0.00    -0.258 N 
HETATM    6  C1  UNL     1      23.272  17.869  -7.305  1.00  0.00     0.174 C 
ATOM      7  H1  UNL     1      23.595  16.333  -8.759  1.00  0.00     0.186 HD
ENDBRANCH   1   5
TORSDOF 1
ENDMDL
MODEL 2
REMARK VINA RESULT: -3.100167042      0.294      1.679
REMARK  1 active torsions:
REMARK  status: ('A' for Active; 'I' for Inactive)
REMARK    1  A    between atoms: N1_2  and  N2_4 
ROOT
HETATM    1  N2  UNL     1      25.309  17.754  -8.780  1.00  0.00    -0.004 N 
HETATM    2  C2  UNL     1      25.719  18.362  -7.502  1.00  0.00     0.300 C 
HETATM    3  C3  UNL     1      25.510  18.756  -9.793  1.00  0.00     0.300 C 
HETATM    4  C4  UNL     1      26.115  16.583  -8.969  1.00  0.00     0.300 C 
ENDROOT
BRANCH   1   5
HETATM    5  N1  UNL     1      23.984  17.401  -8.631  1.00  0.00    -0.258 N 
HETATM    6  C1  UNL     1      23.367  17.819  -7.428  1.00  0.00     0.174 C 
ATOM      7  H1  UNL     1      23.481  16.871  -9.343  1.00  0.00     0.186 HD
ENDBRANCH   1   5
TORSDOF 1
ENDMDL
MODEL 3
REMARK VINA RESULT: -3.088405562      0.428      1.718
REMARK  1 active torsions:
REMARK  status: ('A' for Active; 'I' for Inactive)
REMARK    1  A    between atoms: N1_2  and  N2_4 
ROOT
HETATM    1  N2  UNL     1      25.350  17.865  -8.765  1.00  0.00    -0.004 N 
HETATM    2  C2  UNL     1      26.146  16.642  -8.971  1.00  0.00     0.300 C 
HETATM    3  C3  UNL     1      25.722  18.382  -7.475  1.00  0.00     0.300 C 
HETATM    4  C4  UNL     1      25.656  18.756  -9.846  1.00  0.00     0.300 C 
ENDROOT
BRANCH   1   5
HETATM    5  N1  UNL     1      24.028  17.478  -8.826  1.00  0.00    -0.258 N 
HETATM    6  C1  UNL     1      23.307  17.553  -7.611  1.00  0.00     0.174 C 
ATOM      7  H1  UNL     1      23.596  17.158  -9.694  1.00  0.00     0.186 HD
ENDBRANCH   1   5
TORSDOF 1
ENDMDL
MODEL 4
REMARK VINA RESULT: -2.968788481      1.483      1.499
REMARK  1 active torsions:
REMARK  status: ('A' for Active; 'I' for Inactive)
REMARK    1  A    between atoms: N1_2  and  N2_4 
ROOT
HETATM    1  N2  UNL     1      25.606  18.797  -7.760  1.00  0.00    -0.004 N 
HETATM    2  C2  UNL     1      26.132  19.805  -8.697  1.00  0.00     0.300 C 
HETATM    3  C3  UNL     1      25.701  17.527  -8.431  1.00  0.00     0.300 C 
HETATM    4  C4  UNL     1      26.399  18.872  -6.569  1.00  0.00     0.300 C 
ENDROOT
BRANCH   1   5
HETATM    5  N1  UNL     1      24.304  19.164  -7.490  1.00  0.00    -0.258 N 
HETATM    6  C1  UNL     1      23.418  18.107  -7.176  1.00  0.00     0.174 C 
ATOM      7  H1  UNL     1      23.999  20.137  -7.516  1.00  0.00     0.186 HD
ENDBRANCH   1   5
TORSDOF 1
ENDMDL
MODEL 5
REMARK VINA RESULT: -2.938107833      1.517      2.280
REMARK  1 active torsions:
REMARK  status: ('A' for Active; 'I' for Inactive)
REMARK    1  A    between atoms: N1_2  and  N2_4 
ROOT
HETATM    1  N2  UNL     1      25.599  18.880  -7.846  1.00  0.00    -0.004 N 
HETATM    2  C2  UNL     1      26.395  18.842  -6.606  1.00  0.00     0.300 C 
HETATM    3  C3  UNL     1      26.209  19.870  -8.693  1.00  0.00     0.300 C 
HETATM    4  C4  UNL     1      25.625  17.559  -8.404  1.00  0.00     0.300 C 
ENDROOT
BRANCH   1   5
HETATM    5  N1  UNL     1      24.315  19.213  -7.469  1.00  0.00    -0.258 N 
HETATM    6  C1  UNL     1      23.450  18.126  -7.201  1.00  0.00     0.174 C 
ATOM      7  H1  UNL     1      24.009  20.183  -7.389  1.00  0.00     0.186 HD
ENDBRANCH   1   5
TORSDOF 1
ENDMDL
