MODEL 1
REMARK VINA RESULT: -4.109872284      0.000      0.000
REMARK  0 active torsions:
REMARK  status: ('A' for Active; 'I' for Inactive)
ROOT
HETATM    1  C1  UNL     1      25.823  19.901  -8.218  1.00  0.00     0.185 C 
HETATM    2  N1  UNL     1      24.741  18.956  -7.906  1.00  0.00    -0.269 N 
HETATM    3  C2  UNL     1      24.518  17.782  -8.522  1.00  0.00     0.118 A 
HETATM    4  C3  UNL     1      23.415  17.172  -7.960  1.00  0.00     0.046 A 
HETATM    5  C4  UNL     1      23.006  18.053  -6.982  1.00  0.00     0.169 A 
HETATM    6  O1  UNL     1      23.822  19.077  -7.001  1.00  0.00    -0.249 OA
ENDROOT
TORSDOF 0
ENDMDL
MODEL 2
REMARK VINA RESULT: -3.824905412      1.412      1.599
REMARK  0 active torsions:
REMARK  status: ('A' for Active; 'I' for Inactive)
ROOT
HETATM    1  C1  UNL     1      25.914  19.195  -9.494  1.00  0.00     0.185 C 
HETATM    2  N1  UNL     1      24.848  18.594  -8.681  1.00  0.00    -0.269 N 
HETATM    3  C2  UNL     1      24.492  18.976  -7.441  1.00  0.00     0.118 A 
HETATM    4  C3  UNL     1      23.455  18.182  -6.997  1.00  0.00     0.046 A 
HETATM    5  C4  UNL     1      23.224  17.316  -8.044  1.00  0.00     0.169 A 
HETATM    6  O1  UNL     1      24.071  17.608  -8.998  1.00  0.00    -0.249 OA
ENDROOT
TORSDOF 0
ENDMDL
MODEL 3
REMARK VINA RESULT: -3.799785860      1.799      1.977
REMARK  0 active torsions:
REMARK  status: ('A' for Active; 'I' for Inactive)
ROOT
HETATM    1  C1  UNL     1      25.906  17.309  -8.790  1.00  0.00     0.185 C 
HETATM    2  N1  UNL     1      24.587  17.401  -8.146  1.00  0.00    -0.269 N 
HETATM    3  C2  UNL     1      24.227  18.301  -7.214  1.00  0.00     0.118 A 
HETATM    4  C3  UNL     1      22.916  18.079  -6.845  1.00  0.00     0.046 A 
HETATM    5  C4  UNL     1      22.530  17.001  -7.614  1.00  0.00     0.169 A 
HETATM    6  O1  UNL     1      23.552  16.652  -8.353  1.00  0.00    -0.249 OA
ENDROOT
TORSDOF 0
ENDMDL
MODEL 4
REMARK VINA RESULT: -3.704601899      0.873      2.495
REMARK  0 active torsions:
REMARK  status: ('A' for Active; 'I' for Inactive)
ROOT
HETATM    1  C1  UNL     1      22.747  17.920  -6.898  1.00  0.00     0.185 C 
HETATM    2  N1  UNL     1      23.932  18.599  -7.441  1.00  0.00    -0.269 N 
HETATM    3  C2  UNL     1      24.660  18.190  -8.496  1.00  0.00     0.118 A 
HETATM    4  C3  UNL     1      25.694  19.078  -8.710  1.00  0.00     0.046 A 
HETATM    5  C4  UNL     1      25.531  20.028  -7.724  1.00  0.00     0.169 A 
HETATM    6  O1  UNL     1      24.483  19.690  -7.015  1.00  0.00    -0.249 OA
ENDROOT
TORSDOF 0
ENDMDL
MODEL 5
REMARK VINA RESULT: -3.640249697      1.370      2.747
REMARK  0 active torsions:
REMARK  status: ('A' for Active; 'I' for Inactive)
ROOT
HETATM    1  C1  UNL     1      22.723  17.909  -6.812  1.00  0.00     0.185 C 
HETATM    2  N1  UNL     1      23.825  18.267  -7.717  1.00  0.00    -0.269 N 
HETATM    3  C2  UNL     1      24.852  19.084  -7.424  1.00  0.00     0.118 A 
HETATM    4  C3  UNL     1      25.687  19.182  -8.518  1.00  0.00     0.046 A 
HETATM    5  C4  UNL     1      25.091  18.378  -9.467  1.00  0.00     0.169 A 
HETATM    6  O1  UNL     1      24.007  17.872  -8.937  1.00  0.00    -0.249 OA
ENDROOT
TORSDOF 0
ENDMDL
