MODEL 1
REMARK VINA RESULT: -5.128309111      0.000      0.000
REMARK  1 active torsions:
REMARK  status: ('A' for Active; 'I' for Inactive)
REMARK    1  A    between atoms: C1_2  and  C2_4 
ROOT
HETATM    1  C2  UNL     1      25.406  19.301  -7.761  1.00  0.00     0.040 A 
HETATM    2  C3  UNL     1      24.159  19.042  -7.234  1.00  0.00     0.021 A 
HETATM    3  C4  UNL     1      23.513  17.829  -7.300  1.00  0.00     0.002 A 
HETATM    4  C5  UNL     1      23.979  16.679  -7.888  1.00  0.00     0.007 A 
HETATM    5  C6  UNL     1      25.195  16.570  -8.516  1.00  0.00     0.050 A 
HETATM    6  S2  UNL     1      26.150  17.968  -8.543  1.00  0.00    -0.099 SA
ENDROOT
BRANCH   1   7
HETATM    7  C1  UNL     1      25.985  20.631  -7.625  1.00  0.00     0.130 C 
HETATM    8  N1  UNL     1      25.589  21.421  -6.519  1.00  0.00    -0.088 NA
HETATM    9  S1  UNL     1      27.058  21.164  -8.733  1.00  0.00    -0.062 SA
ENDBRANCH   1   7
TORSDOF 1
ENDMDL
MODEL 2
REMARK VINA RESULT: -4.919745803      1.424      1.445
REMARK  1 active torsions:
REMARK  status: ('A' for Active; 'I' for Inactive)
REMARK    1  A    between atoms: C1_2  and  C2_4 
ROOT
HETATM    1  C2  UNL     1      26.026  18.543  -7.708  1.00  0.00     0.040 A 
HETATM    2  C3  UNL     1      24.864  19.058  -7.175  1.00  0.00     0.021 A 
HETATM    3  C4  UNL     1      23.652  18.405  -7.157  1.00  0.00     0.002 A 
HETATM    4  C5  UNL     1      23.383  17.154  -7.652  1.00  0.00     0.007 A 
HETATM    5  C6  UNL     1      24.312  16.345  -8.257  1.00  0.00     0.050 A 
HETATM    6  S2  UNL     1      25.881  16.973  -8.379  1.00  0.00    -0.099 SA
ENDROOT
BRANCH   1   7
HETATM    7  C1  UNL     1      27.250  19.334  -7.667  1.00  0.00     0.130 C 
HETATM    8  N1  UNL     1      27.891  19.506  -6.416  1.00  0.00    -0.088 NA
HETATM    9  S1  UNL     1      27.839  19.987  -9.041  1.00  0.00    -0.062 SA
ENDBRANCH   1   7
TORSDOF 1
ENDMDL
MODEL 3
REMARK VINA RESULT: -4.853905088      1.322      1.322
REMARK  1 active torsions:
REMARK  status: ('A' for Active; 'I' for Inactive)
REMARK    1  A    between atoms: C1_2  and  C2_4 
ROOT
HETATM    1  C2  UNL     1      25.521  19.240  -8.036  1.00  0.00     0.040 A 
HETATM    2  C3  UNL     1      24.353  19.223  -7.304  1.00  0.00     0.021 A 
HETATM    3  C4  UNL     1      23.546  18.121  -7.136  1.00  0.00     0.002 A 
HETATM    4  C5  UNL     1      23.749  16.866  -7.652  1.00  0.00     0.007 A 
HETATM    5  C6  UNL     1      24.820  16.516  -8.437  1.00  0.00     0.050 A 
HETATM    6  S2  UNL     1      25.940  17.745  -8.763  1.00  0.00    -0.099 SA
ENDROOT
BRANCH   1   7
HETATM    7  C1  UNL     1      26.290  20.473  -8.139  1.00  0.00     0.130 C 
HETATM    8  N1  UNL     1      27.124  20.647  -9.271  1.00  0.00    -0.088 NA
HETATM    9  S1  UNL     1      26.170  21.603  -6.967  1.00  0.00    -0.062 SA
ENDBRANCH   1   7
TORSDOF 1
ENDMDL
MODEL 4
REMARK VINA RESULT: -4.847697073      1.853      1.971
REMARK  1 active torsions:
REMARK  status: ('A' for Active; 'I' for Inactive)
REMARK    1  A    between atoms: C1_2  and  C2_4 
ROOT
HETATM    1  C2  UNL     1      25.913  18.624  -8.357  1.00  0.00     0.040 A 
HETATM    2  C3  UNL     1      24.955  19.288  -7.622  1.00  0.00     0.021 A 
HETATM    3  C4  UNL     1      23.789  18.723  -7.157  1.00  0.00     0.002 A 
HETATM    4  C5  UNL     1      23.375  17.426  -7.333  1.00  0.00     0.007 A 
HETATM    5  C6  UNL     1      24.087  16.474  -8.020  1.00  0.00     0.050 A 
HETATM    6  S2  UNL     1      25.565  16.976  -8.677  1.00  0.00    -0.099 SA
ENDROOT
BRANCH   1   7
HETATM    7  C1  UNL     1      27.108  19.334  -8.792  1.00  0.00     0.130 C 
HETATM    8  N1  UNL     1      27.262  19.594 -10.176  1.00  0.00    -0.088 NA
HETATM    9  S1  UNL     1      28.218  19.805  -7.692  1.00  0.00    -0.062 SA
ENDBRANCH   1   7
TORSDOF 1
ENDMDL
MODEL 5
REMARK VINA RESULT: -4.711432708      1.755      1.784
REMARK  1 active torsions:
REMARK  status: ('A' for Active; 'I' for Inactive)
REMARK    1  A    between atoms: C1_2  and  C2_4 
ROOT
HETATM    1  C2  UNL     1      26.566  18.834  -7.615  1.00  0.00     0.040 A 
HETATM    2  C3  UNL     1      25.668  18.451  -6.642  1.00  0.00     0.021 A 
HETATM    3  C4  UNL     1      24.465  17.828  -6.884  1.00  0.00     0.002 A 
HETATM    4  C5  UNL     1      23.949  17.481  -8.107  1.00  0.00     0.007 A 
HETATM    5  C6  UNL     1      24.578  17.712  -9.306  1.00  0.00     0.050 A 
HETATM    6  S2  UNL     1      26.086  18.478  -9.222  1.00  0.00    -0.099 SA
ENDROOT
BRANCH   1   7
HETATM    7  C1  UNL     1      27.811  19.488  -7.230  1.00  0.00     0.130 C 
HETATM    8  N1  UNL     1      28.090  19.631  -5.849  1.00  0.00    -0.088 NA
HETATM    9  S1  UNL     1      28.833  20.026  -8.383  1.00  0.00    -0.062 SA
ENDBRANCH   1   7
TORSDOF 1
ENDMDL
