MODEL 1
REMARK VINA RESULT: -5.562718112      0.000      0.000
REMARK  2 active torsions:
REMARK  status: ('A' for Active; 'I' for Inactive)
REMARK    1  A    between atoms: N1_1  and  S1_4 
REMARK    2  A    between atoms: S1_4  and  C1_6 
ROOT
HETATM    1  C1  UNL     1      25.501  18.674  -7.358  1.00  0.00     0.052 A 
HETATM    2  C2  UNL     1      24.152  18.720  -7.071  1.00  0.00     0.023 A 
HETATM    3  C3  UNL     1      23.292  17.691  -7.398  1.00  0.00     0.001 A 
HETATM    4  C4  UNL     1      23.756  16.559  -8.034  1.00  0.00     0.000 A 
HETATM    5  C5  UNL     1      25.102  16.500  -8.325  1.00  0.00     0.001 A 
HETATM    6  C6  UNL     1      25.954  17.535  -7.994  1.00  0.00     0.023 A 
ENDROOT
BRANCH   1   7
HETATM    7  S1  UNL     1      26.578  19.989  -6.935  1.00  0.00     0.144 S 
HETATM    8  O1  UNL     1      25.749  21.321  -6.358  1.00  0.00    -0.230 OA
BRANCH   7   9
HETATM    9  N1  UNL     1      27.780  19.480  -5.797  1.00  0.00    -0.346 NA
ATOM     10  H12 UNL     1      28.713  19.780  -6.082  1.00  0.00     0.166 HD
ATOM     11  H11 UNL     1      27.730  18.472  -5.650  1.00  0.00     0.166 HD
ENDBRANCH   7   9
ENDBRANCH   1   7
TORSDOF 2
ENDMDL
MODEL 2
REMARK VINA RESULT: -5.559704252      0.019      1.568
REMARK  2 active torsions:
REMARK  status: ('A' for Active; 'I' for Inactive)
REMARK    1  A    between atoms: N1_1  and  S1_4 
REMARK    2  A    between atoms: S1_4  and  C1_6 
ROOT
HETATM    1  C1  UNL     1      25.489  18.675  -7.345  1.00  0.00     0.052 A 
HETATM    2  C2  UNL     1      25.939  17.544  -7.995  1.00  0.00     0.023 A 
HETATM    3  C3  UNL     1      25.098  16.506  -8.339  1.00  0.00     0.001 A 
HETATM    4  C4  UNL     1      23.752  16.559  -8.042  1.00  0.00     0.000 A 
HETATM    5  C5  UNL     1      23.289  17.685  -7.393  1.00  0.00     0.001 A 
HETATM    6  C6  UNL     1      24.139  18.718  -7.054  1.00  0.00     0.023 A 
ENDROOT
BRANCH   1   7
HETATM    7  S1  UNL     1      26.571  19.984  -6.916  1.00  0.00     0.144 S 
HETATM    8  O1  UNL     1      25.746  21.320  -6.342  1.00  0.00    -0.230 OA
BRANCH   7   9
HETATM    9  N1  UNL     1      27.764  19.466  -5.772  1.00  0.00    -0.346 NA
ATOM     10  H12 UNL     1      28.032  18.495  -5.928  1.00  0.00     0.166 HD
ATOM     11  H11 UNL     1      27.439  19.626  -4.818  1.00  0.00     0.166 HD
ENDBRANCH   7   9
ENDBRANCH   1   7
TORSDOF 2
ENDMDL
MODEL 3
REMARK VINA RESULT: -5.525573892      3.212      3.953
REMARK  2 active torsions:
REMARK  status: ('A' for Active; 'I' for Inactive)
REMARK    1  A    between atoms: N1_1  and  S1_4 
REMARK    2  A    between atoms: S1_4  and  C1_6 
ROOT
HETATM    1  C1  UNL     1      25.143  18.544  -7.114  1.00  0.00     0.052 A 
HETATM    2  C2  UNL     1      24.998  19.861  -7.500  1.00  0.00     0.023 A 
HETATM    3  C3  UNL     1      25.940  20.825  -7.206  1.00  0.00     0.001 A 
HETATM    4  C4  UNL     1      27.082  20.504  -6.503  1.00  0.00     0.000 A 
HETATM    5  C5  UNL     1      27.240  19.191  -6.111  1.00  0.00     0.001 A 
HETATM    6  C6  UNL     1      26.291  18.234  -6.411  1.00  0.00     0.023 A 
ENDROOT
BRANCH   1   7
HETATM    7  S1  UNL     1      23.936  17.333  -7.496  1.00  0.00     0.144 S 
HETATM    8  O1  UNL     1      22.509  17.582  -6.661  1.00  0.00    -0.230 OA
BRANCH   7   9
HETATM    9  N1  UNL     1      23.638  17.256  -9.201  1.00  0.00    -0.346 NA
ATOM     10  H12 UNL     1      24.503  17.342  -9.734  1.00  0.00     0.166 HD
ATOM     11  H11 UNL     1      22.946  17.953  -9.476  1.00  0.00     0.166 HD
ENDBRANCH   7   9
ENDBRANCH   1   7
TORSDOF 2
ENDMDL
MODEL 4
REMARK VINA RESULT: -5.511394429      3.213      4.133
REMARK  2 active torsions:
REMARK  status: ('A' for Active; 'I' for Inactive)
REMARK    1  A    between atoms: N1_1  and  S1_4 
REMARK    2  A    between atoms: S1_4  and  C1_6 
ROOT
HETATM    1  C1  UNL     1      25.141  18.549  -7.116  1.00  0.00     0.052 A 
HETATM    2  C2  UNL     1      26.286  18.240  -6.410  1.00  0.00     0.023 A 
HETATM    3  C3  UNL     1      27.243  19.186  -6.105  1.00  0.00     0.001 A 
HETATM    4  C4  UNL     1      27.089  20.498  -6.499  1.00  0.00     0.000 A 
HETATM    5  C5  UNL     1      25.949  20.821  -7.204  1.00  0.00     0.001 A 
HETATM    6  C6  UNL     1      24.998  19.867  -7.505  1.00  0.00     0.023 A 
ENDROOT
BRANCH   1   7
HETATM    7  S1  UNL     1      23.936  17.335  -7.495  1.00  0.00     0.144 S 
HETATM    8  O1  UNL     1      22.510  17.582  -6.658  1.00  0.00    -0.230 OA
BRANCH   7   9
HETATM    9  N1  UNL     1      23.637  17.254  -9.199  1.00  0.00    -0.346 NA
ATOM     10  H12 UNL     1      23.283  16.337  -9.471  1.00  0.00     0.166 HD
ATOM     11  H11 UNL     1      24.472  17.514  -9.722  1.00  0.00     0.166 HD
ENDBRANCH   7   9
ENDBRANCH   1   7
TORSDOF 2
ENDMDL
MODEL 5
REMARK VINA RESULT: -5.497851428      3.338      4.006
REMARK  2 active torsions:
REMARK  status: ('A' for Active; 'I' for Inactive)
REMARK    1  A    between atoms: N1_1  and  S1_4 
REMARK    2  A    between atoms: S1_4  and  C1_6 
ROOT
HETATM    1  C1  UNL     1      24.681  18.329  -7.986  1.00  0.00     0.052 A 
HETATM    2  C2  UNL     1      25.145  18.062  -9.259  1.00  0.00     0.023 A 
HETATM    3  C3  UNL     1      26.033  18.894  -9.910  1.00  0.00     0.001 A 
HETATM    4  C4  UNL     1      26.499  20.042  -9.304  1.00  0.00     0.000 A 
HETATM    5  C5  UNL     1      26.043  20.320  -8.033  1.00  0.00     0.001 A 
HETATM    6  C6  UNL     1      25.155  19.482  -7.390  1.00  0.00     0.023 A 
ENDROOT
BRANCH   1   7
HETATM    7  S1  UNL     1      23.553  17.263  -7.174  1.00  0.00     0.144 S 
HETATM    8  O1  UNL     1      22.328  18.106  -6.410  1.00  0.00    -0.230 OA
BRANCH   7   9
HETATM    9  N1  UNL     1      22.895  16.091  -8.267  1.00  0.00    -0.346 NA
ATOM     10  H12 UNL     1      23.101  15.140  -7.961  1.00  0.00     0.166 HD
ATOM     11  H11 UNL     1      23.218  16.266  -9.218  1.00  0.00     0.166 HD
ENDBRANCH   7   9
ENDBRANCH   1   7
TORSDOF 2
ENDMDL
