MODEL 1
REMARK VINA RESULT: -4.951601212      0.000      0.000
REMARK  1 active torsions:
REMARK  status: ('A' for Active; 'I' for Inactive)
REMARK    1  A    between atoms: O1_1  and  C1_3 
ROOT
HETATM    1  C1  UNL     1      25.020  16.630  -8.054  1.00  0.00     0.160 C 
HETATM    2  C2  UNL     1      25.520  18.058  -8.363  1.00  0.00     0.063 C 
HETATM    3  C3  UNL     1      24.769  18.809  -7.341  1.00  0.00    -0.019 C 
HETATM    4  C4  UNL     1      23.578  18.215  -7.222  1.00  0.00     0.004 C 
HETATM    5  C5  UNL     1      23.545  17.068  -8.170  1.00  0.00     0.173 C 
HETATM    6  O2  UNL     1      23.544  17.596  -9.455  1.00  0.00    -0.379 OA
HETATM    7  C6  UNL     1      24.773  18.217  -9.665  1.00  0.00     0.179 C 
ENDROOT
BRANCH   1   8
HETATM    8  O1  UNL     1      25.373  15.738  -9.022  1.00  0.00    -0.392 OA
ATOM      9  H1  UNL     1      25.555  14.876  -8.668  1.00  0.00     0.210 HD
ENDBRANCH   1   8
TORSDOF 1
ENDMDL
MODEL 2
REMARK VINA RESULT: -4.331962976      1.936      2.636
REMARK  1 active torsions:
REMARK  status: ('A' for Active; 'I' for Inactive)
REMARK    1  A    between atoms: O1_1  and  C1_3 
ROOT
HETATM    1  C1  UNL     1      24.913  18.878  -8.656  1.00  0.00     0.160 C 
HETATM    2  C2  UNL     1      25.205  17.525  -7.972  1.00  0.00     0.063 C 
HETATM    3  C3  UNL     1      23.837  17.153  -7.568  1.00  0.00    -0.019 C 
HETATM    4  C4  UNL     1      23.214  18.285  -7.228  1.00  0.00     0.004 C 
HETATM    5  C5  UNL     1      24.175  19.406  -7.409  1.00  0.00     0.173 C 
HETATM    6  O2  UNL     1      25.169  19.256  -6.450  1.00  0.00    -0.379 OA
HETATM    7  C6  UNL     1      25.884  18.099  -6.752  1.00  0.00     0.179 C 
ENDROOT
BRANCH   1   8
HETATM    8  O1  UNL     1      26.052  19.579  -8.921  1.00  0.00    -0.392 OA
ATOM      9  H1  UNL     1      26.055  19.944  -9.797  1.00  0.00     0.210 HD
ENDBRANCH   1   8
TORSDOF 1
ENDMDL
MODEL 3
REMARK VINA RESULT: -4.211458161      1.907      2.689
REMARK  1 active torsions:
REMARK  status: ('A' for Active; 'I' for Inactive)
REMARK    1  A    between atoms: O1_1  and  C1_3 
ROOT
HETATM    1  C1  UNL     1      25.681  18.070  -7.298  1.00  0.00     0.160 C 
HETATM    2  C2  UNL     1      24.379  17.350  -7.711  1.00  0.00     0.063 C 
HETATM    3  C3  UNL     1      24.421  17.580  -9.166  1.00  0.00    -0.019 C 
HETATM    4  C4  UNL     1      24.944  18.796  -9.350  1.00  0.00     0.004 C 
HETATM    5  C5  UNL     1      25.248  19.368  -8.010  1.00  0.00     0.173 C 
HETATM    6  O2  UNL     1      24.034  19.605  -7.379  1.00  0.00    -0.379 OA
HETATM    7  C6  UNL     1      23.432  18.373  -7.130  1.00  0.00     0.179 C 
ENDROOT
BRANCH   1   8
HETATM    8  O1  UNL     1      25.778  18.227  -5.947  1.00  0.00    -0.392 OA
ATOM      9  H1  UNL     1      25.947  17.407  -5.500  1.00  0.00     0.210 HD
ENDBRANCH   1   8
TORSDOF 1
ENDMDL
MODEL 4
REMARK VINA RESULT: -4.205152436      1.991      2.436
REMARK  1 active torsions:
REMARK  status: ('A' for Active; 'I' for Inactive)
REMARK    1  A    between atoms: O1_1  and  C1_3 
ROOT
HETATM    1  C1  UNL     1      25.589  18.554  -6.539  1.00  0.00     0.160 C 
HETATM    2  C2  UNL     1      24.526  19.453  -7.207  1.00  0.00     0.063 C 
HETATM    3  C3  UNL     1      23.442  18.468  -7.378  1.00  0.00    -0.019 C 
HETATM    4  C4  UNL     1      24.025  17.299  -7.661  1.00  0.00     0.004 C 
HETATM    5  C5  UNL     1      25.497  17.516  -7.676  1.00  0.00     0.173 C 
HETATM    6  O2  UNL     1      25.784  18.320  -8.771  1.00  0.00    -0.379 OA
HETATM    7  C6  UNL     1      25.225  19.575  -8.539  1.00  0.00     0.179 C 
ENDROOT
BRANCH   1   8
HETATM    8  O1  UNL     1      26.811  19.154  -6.483  1.00  0.00    -0.392 OA
ATOM      9  H1  UNL     1      27.434  18.656  -5.967  1.00  0.00     0.210 HD
ENDBRANCH   1   8
TORSDOF 1
ENDMDL
MODEL 5
REMARK VINA RESULT: -4.165960486      1.492      2.314
REMARK  1 active torsions:
REMARK  status: ('A' for Active; 'I' for Inactive)
REMARK    1  A    between atoms: O1_1  and  C1_3 
ROOT
HETATM    1  C1  UNL     1      24.353  18.422  -9.093  1.00  0.00     0.160 C 
HETATM    2  C2  UNL     1      24.299  16.928  -8.704  1.00  0.00     0.063 C 
HETATM    3  C3  UNL     1      23.132  16.950  -7.804  1.00  0.00    -0.019 C 
HETATM    4  C4  UNL     1      23.174  18.112  -7.145  1.00  0.00     0.004 C 
HETATM    5  C5  UNL     1      24.374  18.858  -7.614  1.00  0.00     0.173 C 
HETATM    6  O2  UNL     1      25.490  18.164  -7.166  1.00  0.00    -0.379 OA
HETATM    7  C6  UNL     1      25.530  16.940  -7.830  1.00  0.00     0.179 C 
ENDROOT
BRANCH   1   8
HETATM    8  O1  UNL     1      25.506  18.744  -9.745  1.00  0.00    -0.392 OA
ATOM      9  H1  UNL     1      26.264  18.313  -9.369  1.00  0.00     0.210 HD
ENDBRANCH   1   8
TORSDOF 1
ENDMDL
