MODEL 1
REMARK VINA RESULT: -5.035829104      0.000      0.000
REMARK  1 active torsions:
REMARK  status: ('A' for Active; 'I' for Inactive)
REMARK    1  A    between atoms: C6_7  and  O2_8 
ROOT
HETATM    1  C1  UNL     1      22.606  17.821  -6.862  1.00  0.00     0.012 C 
HETATM    2  C2  UNL     1      24.011  17.569  -7.298  1.00  0.00     0.015 C 
HETATM    3  C3  UNL     1      24.811  18.887  -7.403  1.00  0.00     0.041 C 
HETATM    4  C4  UNL     1      25.706  18.480  -8.519  1.00  0.00     0.154 A 
HETATM    5  O1  UNL     1      25.681  18.644  -9.809  1.00  0.00    -0.373 OA
HETATM    6  C5  UNL     1      24.517  18.157  -9.478  1.00  0.00     0.180 A 
HETATM    7  C6  UNL     1      24.074  16.967  -8.715  1.00  0.00     0.153 C 
ENDROOT
BRANCH   7   8
HETATM    8  O2  UNL     1      24.990  15.924  -8.717  1.00  0.00    -0.393 OA
ATOM      9  H2  UNL     1      24.551  15.132  -9.003  1.00  0.00     0.210 HD
ENDBRANCH   7   8
TORSDOF 1
ENDMDL
MODEL 2
REMARK VINA RESULT: -4.737353778      2.039      2.740
REMARK  1 active torsions:
REMARK  status: ('A' for Active; 'I' for Inactive)
REMARK    1  A    between atoms: C6_7  and  O2_8 
ROOT
HETATM    1  C1  UNL     1      25.198  16.461  -8.864  1.00  0.00     0.012 C 
HETATM    2  C2  UNL     1      24.603  17.788  -8.526  1.00  0.00     0.015 C 
HETATM    3  C3  UNL     1      25.609  18.934  -8.779  1.00  0.00     0.041 C 
HETATM    4  C4  UNL     1      25.141  19.842  -7.698  1.00  0.00     0.154 A 
HETATM    5  O1  UNL     1      25.522  20.068  -6.475  1.00  0.00    -0.373 OA
HETATM    6  C5  UNL     1      25.368  18.776  -6.579  1.00  0.00     0.180 A 
HETATM    7  C6  UNL     1      24.261  17.900  -7.028  1.00  0.00     0.153 C 
ENDROOT
BRANCH   7   8
HETATM    8  O2  UNL     1      23.003  18.472  -6.900  1.00  0.00    -0.393 OA
ATOM      9  H2  UNL     1      22.851  19.046  -7.641  1.00  0.00     0.210 HD
ENDBRANCH   7   8
TORSDOF 1
ENDMDL
MODEL 3
REMARK VINA RESULT: -4.683233366      1.939      3.150
REMARK  1 active torsions:
REMARK  status: ('A' for Active; 'I' for Inactive)
REMARK    1  A    between atoms: C6_7  and  O2_8 
ROOT
HETATM    1  C1  UNL     1      25.730  19.028  -9.799  1.00  0.00     0.012 C 
HETATM    2  C2  UNL     1      25.384  18.166  -8.631  1.00  0.00     0.015 C 
HETATM    3  C3  UNL     1      24.043  17.431  -8.854  1.00  0.00     0.041 C 
HETATM    4  C4  UNL     1      23.608  17.390  -7.432  1.00  0.00     0.154 A 
HETATM    5  O1  UNL     1      22.831  18.132  -6.698  1.00  0.00    -0.373 OA
HETATM    6  C5  UNL     1      23.683  18.941  -7.267  1.00  0.00     0.180 A 
HETATM    7  C6  UNL     1      25.161  18.995  -7.351  1.00  0.00     0.153 C 
ENDROOT
BRANCH   7   8
HETATM    8  O2  UNL     1      25.807  18.368  -6.295  1.00  0.00    -0.393 OA
ATOM      9  H2  UNL     1      26.679  18.735  -6.209  1.00  0.00     0.210 HD
ENDBRANCH   7   8
TORSDOF 1
ENDMDL
MODEL 4
REMARK VINA RESULT: -4.594846565      1.102      2.589
REMARK  1 active torsions:
REMARK  status: ('A' for Active; 'I' for Inactive)
REMARK    1  A    between atoms: C6_7  and  O2_8 
ROOT
HETATM    1  C1  UNL     1      25.585  19.578  -7.016  1.00  0.00     0.012 C 
HETATM    2  C2  UNL     1      24.447  19.015  -7.801  1.00  0.00     0.015 C 
HETATM    3  C3  UNL     1      23.491  18.202  -6.899  1.00  0.00     0.041 C 
HETATM    4  C4  UNL     1      23.063  17.209  -7.920  1.00  0.00     0.154 A 
HETATM    5  O1  UNL     1      23.445  16.005  -8.232  1.00  0.00    -0.373 OA
HETATM    6  C5  UNL     1      24.524  16.739  -8.211  1.00  0.00     0.180 A 
HETATM    7  C6  UNL     1      24.924  18.007  -8.864  1.00  0.00     0.153 C 
ENDROOT
BRANCH   7   8
HETATM    8  O2  UNL     1      24.256  18.263 -10.053  1.00  0.00    -0.393 OA
ATOM      9  H2  UNL     1      23.506  17.683 -10.114  1.00  0.00     0.210 HD
ENDBRANCH   7   8
TORSDOF 1
ENDMDL
MODEL 5
REMARK VINA RESULT: -4.387919216      1.831      2.444
REMARK  1 active torsions:
REMARK  status: ('A' for Active; 'I' for Inactive)
REMARK    1  A    between atoms: C6_7  and  O2_8 
ROOT
HETATM    1  C1  UNL     1      23.486  16.754  -7.934  1.00  0.00     0.012 C 
HETATM    2  C2  UNL     1      23.945  18.128  -8.295  1.00  0.00     0.015 C 
HETATM    3  C3  UNL     1      24.976  18.091  -9.445  1.00  0.00     0.041 C 
HETATM    4  C4  UNL     1      25.768  19.280  -9.032  1.00  0.00     0.154 A 
HETATM    5  O1  UNL     1      26.861  19.449  -8.347  1.00  0.00    -0.373 OA
HETATM    6  C5  UNL     1      26.085  18.693  -7.619  1.00  0.00     0.180 A 
HETATM    7  C6  UNL     1      24.691  18.809  -7.132  1.00  0.00     0.153 C 
ENDROOT
BRANCH   7   8
HETATM    8  O2  UNL     1      24.242  20.117  -7.018  1.00  0.00    -0.393 OA
ATOM      9  H2  UNL     1      24.992  20.690  -6.911  1.00  0.00     0.210 HD
ENDBRANCH   7   8
TORSDOF 1
ENDMDL
