MODEL 1
REMARK VINA RESULT: -4.709286069      0.000      0.000
REMARK  2 active torsions:
REMARK  status: ('A' for Active; 'I' for Inactive)
REMARK    1  A    between atoms: N1_2  and  C3_4 
REMARK    2  A    between atoms: C6_7  and  O1_8 
ROOT
HETATM    1  C3  UNL     1      23.791  17.671  -8.264  1.00  0.00     0.276 A 
HETATM    2  C4  UNL     1      23.361  18.623  -7.244  1.00  0.00     0.010 A 
HETATM    3  C5  UNL     1      22.584  17.750  -6.678  1.00  0.00     0.005 A 
HETATM    4  C6  UNL     1      22.928  16.709  -7.632  1.00  0.00     0.177 A 
ENDROOT
BRANCH   1   5
HETATM    5  N1  UNL     1      25.218  17.481  -8.282  1.00  0.00     0.090 N 
HETATM    6  C1  UNL     1      26.011  18.571  -8.692  1.00  0.00     0.310 C 
HETATM    7  C2  UNL     1      25.561  16.255  -8.967  1.00  0.00     0.310 C 
ENDBRANCH   1   5
BRANCH   4   8
HETATM    8  O1  UNL     1      21.832  16.338  -8.428  1.00  0.00    -0.389 OA
ATOM      9  H1  UNL     1      21.546  17.026  -9.017  1.00  0.00     0.210 HD
ENDBRANCH   4   8
TORSDOF 2
ENDMDL
MODEL 2
REMARK VINA RESULT: -4.674610852      1.741      2.107
REMARK  2 active torsions:
REMARK  status: ('A' for Active; 'I' for Inactive)
REMARK    1  A    between atoms: N1_2  and  C3_4 
REMARK    2  A    between atoms: C6_7  and  O1_8 
ROOT
HETATM    1  C3  UNL     1      23.828  18.728  -7.685  1.00  0.00     0.276 A 
HETATM    2  C4  UNL     1      22.800  18.016  -6.931  1.00  0.00     0.010 A 
HETATM    3  C5  UNL     1      23.022  16.908  -7.568  1.00  0.00     0.005 A 
HETATM    4  C6  UNL     1      24.069  17.496  -8.387  1.00  0.00     0.177 A 
ENDROOT
BRANCH   1   5
HETATM    5  N1  UNL     1      24.841  19.304  -6.840  1.00  0.00     0.090 N 
HETATM    6  C1  UNL     1      25.351  20.565  -7.209  1.00  0.00     0.310 C 
HETATM    7  C2  UNL     1      25.884  18.341  -6.563  1.00  0.00     0.310 C 
ENDBRANCH   1   5
BRANCH   4   8
HETATM    8  O1  UNL     1      23.711  17.549  -9.744  1.00  0.00    -0.389 OA
ATOM      9  H1  UNL     1      24.417  17.841 -10.308  1.00  0.00     0.210 HD
ENDBRANCH   4   8
TORSDOF 2
ENDMDL
MODEL 3
REMARK VINA RESULT: -4.623390027      1.589      2.094
REMARK  2 active torsions:
REMARK  status: ('A' for Active; 'I' for Inactive)
REMARK    1  A    between atoms: N1_2  and  C3_4 
REMARK    2  A    between atoms: C6_7  and  O1_8 
ROOT
HETATM    1  C3  UNL     1      24.625  18.726  -8.110  1.00  0.00     0.276 A 
HETATM    2  C4  UNL     1      23.672  18.562  -7.017  1.00  0.00     0.010 A 
HETATM    3  C5  UNL     1      23.300  17.394  -7.441  1.00  0.00     0.005 A 
HETATM    4  C6  UNL     1      24.208  17.431  -8.576  1.00  0.00     0.177 A 
ENDROOT
BRANCH   1   5
HETATM    5  N1  UNL     1      25.970  18.946  -7.650  1.00  0.00     0.090 N 
HETATM    6  C1  UNL     1      26.133  19.430  -6.336  1.00  0.00     0.310 C 
HETATM    7  C2  UNL     1      26.725  19.706  -8.621  1.00  0.00     0.310 C 
ENDBRANCH   1   5
BRANCH   4   8
HETATM    8  O1  UNL     1      23.522  17.473  -9.800  1.00  0.00    -0.389 OA
ATOM      9  H1  UNL     1      23.093  16.655 -10.020  1.00  0.00     0.210 HD
ENDBRANCH   4   8
TORSDOF 2
ENDMDL
MODEL 4
REMARK VINA RESULT: -4.373937374      1.139      1.300
REMARK  2 active torsions:
REMARK  status: ('A' for Active; 'I' for Inactive)
REMARK    1  A    between atoms: N1_2  and  C3_4 
REMARK    2  A    between atoms: C6_7  and  O1_8 
ROOT
HETATM    1  C3  UNL     1      24.162  18.262  -8.509  1.00  0.00     0.276 A 
HETATM    2  C4  UNL     1      23.758  18.922  -7.271  1.00  0.00     0.010 A 
HETATM    3  C5  UNL     1      23.342  17.810  -6.749  1.00  0.00     0.005 A 
HETATM    4  C6  UNL     1      23.699  17.033  -7.924  1.00  0.00     0.177 A 
ENDROOT
BRANCH   1   5
HETATM    5  N1  UNL     1      25.556  18.453  -8.814  1.00  0.00     0.090 N 
HETATM    6  C1  UNL     1      26.312  19.238  -7.921  1.00  0.00     0.310 C 
HETATM    7  C2  UNL     1      25.727  18.857 -10.192  1.00  0.00     0.310 C 
ENDBRANCH   1   5
BRANCH   4   8
HETATM    8  O1  UNL     1      22.570  16.501  -8.568  1.00  0.00    -0.389 OA
ATOM      9  H1  UNL     1      21.771  16.981  -8.384  1.00  0.00     0.210 HD
ENDBRANCH   4   8
TORSDOF 2
ENDMDL
MODEL 5
REMARK VINA RESULT: -4.329121067      1.644      2.318
REMARK  2 active torsions:
REMARK  status: ('A' for Active; 'I' for Inactive)
REMARK    1  A    between atoms: N1_2  and  C3_4 
REMARK    2  A    between atoms: C6_7  and  O1_8 
ROOT
HETATM    1  C3  UNL     1      24.499  18.138  -7.101  1.00  0.00     0.276 A 
HETATM    2  C4  UNL     1      24.593  17.009  -8.021  1.00  0.00     0.010 A 
HETATM    3  C5  UNL     1      23.309  16.980  -8.205  1.00  0.00     0.005 A 
HETATM    4  C6  UNL     1      23.076  18.101  -7.309  1.00  0.00     0.177 A 
ENDROOT
BRANCH   1   5
HETATM    5  N1  UNL     1      25.275  19.272  -7.528  1.00  0.00     0.090 N 
HETATM    6  C1  UNL     1      26.031  19.131  -8.709  1.00  0.00     0.310 C 
HETATM    7  C2  UNL     1      26.053  19.802  -6.430  1.00  0.00     0.310 C 
ENDBRANCH   1   5
BRANCH   4   8
HETATM    8  O1  UNL     1      22.356  17.721  -6.165  1.00  0.00    -0.389 OA
ATOM      9  H1  UNL     1      21.578  18.246  -6.019  1.00  0.00     0.210 HD
ENDBRANCH   4   8
TORSDOF 2
ENDMDL
