MODEL 1
REMARK VINA RESULT: -4.595642424      0.000      0.000
REMARK  1 active torsions:
REMARK  status: ('A' for Active; 'I' for Inactive)
REMARK    1  A    between atoms: C2_2  and  C4_5 
ROOT
HETATM    1  C1  UNL     1      24.671  16.952  -8.584  1.00  0.00     0.032 C 
HETATM    2  C2  UNL     1      24.571  17.846  -7.341  1.00  0.00     0.147 C 
HETATM    3  C3  UNL     1      23.192  17.837  -6.861  1.00  0.00     0.070 C 
HETATM    4  N1  UNL     1      22.095  17.834  -6.494  1.00  0.00    -0.197 NA
ENDROOT
BRANCH   2   5
HETATM    5  C4  UNL     1      24.983  19.208  -7.706  1.00  0.00     0.107 C 
HETATM    6  N2  UNL     1      24.592  20.348  -6.964  1.00  0.00    -0.093 NA
HETATM    7  S1  UNL     1      25.926  19.420  -9.016  1.00  0.00    -0.067 SA
ENDBRANCH   2   5
TORSDOF 1
ENDMDL
MODEL 2
REMARK VINA RESULT: -4.412930817      1.743      2.133
REMARK  1 active torsions:
REMARK  status: ('A' for Active; 'I' for Inactive)
REMARK    1  A    between atoms: C2_2  and  C4_5 
ROOT
HETATM    1  C1  UNL     1      25.467  18.574  -6.438  1.00  0.00     0.032 C 
HETATM    2  C2  UNL     1      24.417  18.634  -7.555  1.00  0.00     0.147 C 
HETATM    3  C3  UNL     1      23.164  18.070  -7.060  1.00  0.00     0.070 C 
HETATM    4  N1  UNL     1      22.180  17.611  -6.663  1.00  0.00    -0.197 NA
ENDROOT
BRANCH   2   5
HETATM    5  C4  UNL     1      24.910  17.868  -8.707  1.00  0.00     0.107 C 
HETATM    6  N2  UNL     1      25.033  16.458  -8.689  1.00  0.00    -0.093 NA
HETATM    7  S1  UNL     1      25.334  18.667 -10.060  1.00  0.00    -0.067 SA
ENDBRANCH   2   5
TORSDOF 1
ENDMDL
MODEL 3
REMARK VINA RESULT: -4.386202499      1.933      2.199
REMARK  1 active torsions:
REMARK  status: ('A' for Active; 'I' for Inactive)
REMARK    1  A    between atoms: C2_2  and  C4_5 
ROOT
HETATM    1  C1  UNL     1      25.518  18.682  -6.570  1.00  0.00     0.032 C 
HETATM    2  C2  UNL     1      24.426  18.747  -7.646  1.00  0.00     0.147 C 
HETATM    3  C3  UNL     1      23.212  18.125  -7.126  1.00  0.00     0.070 C 
HETATM    4  N1  UNL     1      22.258  17.619  -6.711  1.00  0.00    -0.197 NA
ENDROOT
BRANCH   2   5
HETATM    5  C4  UNL     1      24.900  18.038  -8.842  1.00  0.00     0.107 C 
HETATM    6  N2  UNL     1      25.100  18.686 -10.084  1.00  0.00    -0.093 NA
HETATM    7  S1  UNL     1      25.207  16.443  -8.741  1.00  0.00    -0.067 SA
ENDBRANCH   2   5
TORSDOF 1
ENDMDL
MODEL 4
REMARK VINA RESULT: -4.359525969      1.131      1.131
REMARK  1 active torsions:
REMARK  status: ('A' for Active; 'I' for Inactive)
REMARK    1  A    between atoms: C2_2  and  C4_5 
ROOT
HETATM    1  C1  UNL     1      25.305  16.525  -8.921  1.00  0.00     0.032 C 
HETATM    2  C2  UNL     1      24.532  17.189  -7.773  1.00  0.00     0.147 C 
HETATM    3  C3  UNL     1      23.129  16.795  -7.856  1.00  0.00     0.070 C 
HETATM    4  N1  UNL     1      22.016  16.487  -7.937  1.00  0.00    -0.197 NA
ENDROOT
BRANCH   2   5
HETATM    5  C4  UNL     1      24.668  18.647  -7.895  1.00  0.00     0.107 C 
HETATM    6  N2  UNL     1      23.898  19.551  -7.127  1.00  0.00    -0.093 NA
HETATM    7  S1  UNL     1      25.747  19.250  -8.954  1.00  0.00    -0.067 SA
ENDBRANCH   2   5
TORSDOF 1
ENDMDL
MODEL 5
REMARK VINA RESULT: -4.325911790      1.763      2.190
REMARK  1 active torsions:
REMARK  status: ('A' for Active; 'I' for Inactive)
REMARK    1  A    between atoms: C2_2  and  C4_5 
ROOT
HETATM    1  C1  UNL     1      23.172  17.746  -7.000  1.00  0.00     0.032 C 
HETATM    2  C2  UNL     1      24.009  18.030  -8.254  1.00  0.00     0.147 C 
HETATM    3  C3  UNL     1      24.812  16.851  -8.565  1.00  0.00     0.070 C 
HETATM    4  N1  UNL     1      25.454  15.917  -8.796  1.00  0.00    -0.197 NA
ENDROOT
BRANCH   2   5
HETATM    5  C4  UNL     1      24.872  19.190  -7.993  1.00  0.00     0.107 C 
HETATM    6  N2  UNL     1      24.692  20.037  -6.874  1.00  0.00    -0.093 NA
HETATM    7  S1  UNL     1      26.084  19.518  -9.029  1.00  0.00    -0.067 SA
ENDBRANCH   2   5
TORSDOF 1
ENDMDL
