MODEL 1
REMARK VINA RESULT: -4.588656228      0.000      0.000
REMARK  5 active torsions:
REMARK  status: ('A' for Active; 'I' for Inactive)
REMARK    1  A    between atoms: N1_1  and  C1_5 
REMARK    2  A    between atoms: C1_5  and  C2_6 
REMARK    3  A    between atoms: C3_7  and  C4_8 
REMARK    4  A    between atoms: C5_9  and  C6_10 
REMARK    5  A    between atoms: C6_10  and  O1_11 
ROOT
HETATM    1  C2  UNL     1      23.971  17.189  -7.028  1.00  0.00    -0.065 C 
HETATM    2  C3  UNL     1      24.998  17.818  -7.123  1.00  0.00    -0.013 C 
ENDROOT
BRANCH   1   3
HETATM    3  C1  UNL     1      22.706  16.430  -6.912  1.00  0.00     0.324 C 
BRANCH   3   4
HETATM    4  N1  UNL     1      22.647  15.359  -7.881  1.00  0.00    -0.069 N 
ATOM      5  H13 UNL     1      23.179  14.545  -7.573  1.00  0.00     0.275 HD
ATOM      6  H12 UNL     1      21.720  14.935  -7.917  1.00  0.00     0.275 HD
ATOM      7  H11 UNL     1      22.949  15.678  -8.802  1.00  0.00     0.275 HD
ENDBRANCH   3   4
ENDBRANCH   1   3
BRANCH   2   8
HETATM    8  C4  UNL     1      26.197  18.569  -7.244  1.00  0.00    -0.013 C 
HETATM    9  C5  UNL     1      27.211  19.216  -7.364  1.00  0.00    -0.067 C 
BRANCH   9  10
HETATM   10  C6  UNL     1      28.441  20.021  -7.525  1.00  0.00     0.258 C 
BRANCH  10  11
HETATM   11  O1  UNL     1      29.084  20.109  -6.270  1.00  0.00    -0.389 OA
ATOM     12  H1  UNL     1      29.985  19.829  -6.374  1.00  0.00     0.210 HD
ENDBRANCH  10  11
ENDBRANCH   9  10
ENDBRANCH   2   8
TORSDOF 5
ENDMDL
MODEL 2
REMARK VINA RESULT: -4.588034584      4.019      5.644
REMARK  5 active torsions:
REMARK  status: ('A' for Active; 'I' for Inactive)
REMARK    1  A    between atoms: N1_1  and  C1_5 
REMARK    2  A    between atoms: C1_5  and  C2_6 
REMARK    3  A    between atoms: C3_7  and  C4_8 
REMARK    4  A    between atoms: C5_9  and  C6_10 
REMARK    5  A    between atoms: C6_10  and  O1_11 
ROOT
HETATM    1  C2  UNL     1      26.775  19.031  -7.155  1.00  0.00    -0.065 C 
HETATM    2  C3  UNL     1      25.778  18.351  -7.108  1.00  0.00    -0.013 C 
ENDROOT
BRANCH   1   3
HETATM    3  C1  UNL     1      27.994  19.867  -7.227  1.00  0.00     0.324 C 
BRANCH   3   4
HETATM    4  N1  UNL     1      28.888  19.400  -8.264  1.00  0.00    -0.069 N 
ATOM      5  H13 UNL     1      28.748  19.908  -9.137  1.00  0.00     0.275 HD
ATOM      6  H12 UNL     1      29.853  19.673  -8.077  1.00  0.00     0.275 HD
ATOM      7  H11 UNL     1      28.803  18.392  -8.397  1.00  0.00     0.275 HD
ENDBRANCH   3   4
ENDBRANCH   1   3
BRANCH   2   8
HETATM    8  C4  UNL     1      24.597  17.563  -7.062  1.00  0.00    -0.013 C 
HETATM    9  C5  UNL     1      23.582  16.909  -7.027  1.00  0.00    -0.067 C 
BRANCH   9  10
HETATM   10  C6  UNL     1      22.329  16.123  -6.999  1.00  0.00     0.258 C 
BRANCH  10  11
HETATM   11  O1  UNL     1      22.435  15.080  -7.945  1.00  0.00    -0.389 OA
ATOM     12  H1  UNL     1      23.353  14.960  -8.158  1.00  0.00     0.210 HD
ENDBRANCH  10  11
ENDBRANCH   9  10
ENDBRANCH   2   8
TORSDOF 5
ENDMDL
MODEL 3
REMARK VINA RESULT: -4.430223752      4.090      5.685
REMARK  5 active torsions:
REMARK  status: ('A' for Active; 'I' for Inactive)
REMARK    1  A    between atoms: N1_1  and  C1_5 
REMARK    2  A    between atoms: C1_5  and  C2_6 
REMARK    3  A    between atoms: C3_7  and  C4_8 
REMARK    4  A    between atoms: C5_9  and  C6_10 
REMARK    5  A    between atoms: C6_10  and  O1_11 
ROOT
HETATM    1  C2  UNL     1      26.992  19.412  -6.899  1.00  0.00    -0.065 C 
HETATM    2  C3  UNL     1      26.006  18.714  -6.934  1.00  0.00    -0.013 C 
ENDROOT
BRANCH   1   3
HETATM    3  C1  UNL     1      28.203  20.261  -6.842  1.00  0.00     0.324 C 
BRANCH   3   4
HETATM    4  N1  UNL     1      28.617  20.489  -5.475  1.00  0.00    -0.069 N 
ATOM      5  H13 UNL     1      27.909  20.178  -4.811  1.00  0.00     0.275 HD
ATOM      6  H12 UNL     1      29.373  19.861  -5.203  1.00  0.00     0.275 HD
ATOM      7  H11 UNL     1      28.870  21.466  -5.325  1.00  0.00     0.275 HD
ENDBRANCH   3   4
ENDBRANCH   1   3
BRANCH   2   8
HETATM    8  C4  UNL     1      24.856  17.884  -6.966  1.00  0.00    -0.013 C 
HETATM    9  C5  UNL     1      23.887  17.161  -6.988  1.00  0.00    -0.067 C 
BRANCH   9  10
HETATM   10  C6  UNL     1      22.712  16.263  -7.000  1.00  0.00     0.258 C 
BRANCH  10  11
HETATM   11  O1  UNL     1      22.787  15.445  -8.149  1.00  0.00    -0.389 OA
ATOM     12  H1  UNL     1      22.299  14.647  -7.982  1.00  0.00     0.210 HD
ENDBRANCH  10  11
ENDBRANCH   9  10
ENDBRANCH   2   8
TORSDOF 5
ENDMDL
MODEL 4
REMARK VINA RESULT: -4.370145684      1.176      1.176
REMARK  5 active torsions:
REMARK  status: ('A' for Active; 'I' for Inactive)
REMARK    1  A    between atoms: N1_1  and  C1_5 
REMARK    2  A    between atoms: C1_5  and  C2_6 
REMARK    3  A    between atoms: C3_7  and  C4_8 
REMARK    4  A    between atoms: C5_9  and  C6_10 
REMARK    5  A    between atoms: C6_10  and  O1_11 
ROOT
HETATM    1  C2  UNL     1      24.025  17.180  -7.084  1.00  0.00    -0.065 C 
HETATM    2  C3  UNL     1      25.071  17.742  -7.308  1.00  0.00    -0.013 C 
ENDROOT
BRANCH   1   3
HETATM    3  C1  UNL     1      22.739  16.496  -6.824  1.00  0.00     0.324 C 
BRANCH   3   4
HETATM    4  N1  UNL     1      22.515  15.426  -7.771  1.00  0.00    -0.069 N 
ATOM      5  H13 UNL     1      21.694  15.603  -8.349  1.00  0.00     0.275 HD
ATOM      6  H12 UNL     1      23.225  15.420  -8.504  1.00  0.00     0.275 HD
ATOM      7  H11 UNL     1      22.456  14.523  -7.299  1.00  0.00     0.275 HD
ENDBRANCH   3   4
ENDBRANCH   1   3
BRANCH   2   8
HETATM    8  C4  UNL     1      26.300  18.396  -7.586  1.00  0.00    -0.013 C 
HETATM    9  C5  UNL     1      27.355  18.943  -7.808  1.00  0.00    -0.067 C 
BRANCH   9  10
HETATM   10  C6  UNL     1      28.656  19.597  -8.068  1.00  0.00     0.258 C 
BRANCH  10  11
HETATM   11  O1  UNL     1      29.209  19.039  -9.242  1.00  0.00    -0.389 OA
ATOM     12  H1  UNL     1      29.876  18.411  -8.991  1.00  0.00     0.210 HD
ENDBRANCH  10  11
ENDBRANCH   9  10
ENDBRANCH   2   8
TORSDOF 5
ENDMDL
MODEL 5
REMARK VINA RESULT: -4.367756302      4.117      5.651
REMARK  5 active torsions:
REMARK  status: ('A' for Active; 'I' for Inactive)
REMARK    1  A    between atoms: N1_1  and  C1_5 
REMARK    2  A    between atoms: C1_5  and  C2_6 
REMARK    3  A    between atoms: C3_7  and  C4_8 
REMARK    4  A    between atoms: C5_9  and  C6_10 
REMARK    5  A    between atoms: C6_10  and  O1_11 
ROOT
HETATM    1  C2  UNL     1      27.007  19.431  -6.463  1.00  0.00    -0.065 C 
HETATM    2  C3  UNL     1      26.112  18.651  -6.689  1.00  0.00    -0.013 C 
ENDROOT
BRANCH   1   3
HETATM    3  C1  UNL     1      28.094  20.398  -6.194  1.00  0.00     0.324 C 
BRANCH   3   4
HETATM    4  N1  UNL     1      29.112  20.340  -7.219  1.00  0.00    -0.069 N 
ATOM      5  H13 UNL     1      29.977  20.787  -6.916  1.00  0.00     0.275 HD
ATOM      6  H12 UNL     1      29.463  19.390  -7.345  1.00  0.00     0.275 HD
ATOM      7  H11 UNL     1      28.773  20.734  -8.097  1.00  0.00     0.275 HD
ENDBRANCH   3   4
ENDBRANCH   1   3
BRANCH   2   8
HETATM    8  C4  UNL     1      25.051  17.745  -6.950  1.00  0.00    -0.013 C 
HETATM    9  C5  UNL     1      24.134  16.989  -7.168  1.00  0.00    -0.067 C 
BRANCH   9  10
HETATM   10  C6  UNL     1      22.997  16.081  -7.438  1.00  0.00     0.258 C 
BRANCH  10  11
HETATM   11  O1  UNL     1      21.950  16.400  -6.548  1.00  0.00    -0.389 OA
ATOM     12  H1  UNL     1      22.077  15.908  -5.745  1.00  0.00     0.210 HD
ENDBRANCH  10  11
ENDBRANCH   9  10
ENDBRANCH   2   8
TORSDOF 5
ENDMDL
