MODEL 1
REMARK VINA RESULT: -3.415801880      0.000      0.000
REMARK  3 active torsions:
REMARK  status: ('A' for Active; 'I' for Inactive)
REMARK    1  A    between atoms: N1_2  and  C2_4 
REMARK    2  A    between atoms: C2_4  and  N2_6 
REMARK    3  A    between atoms: N2_6  and  N3_8 
ROOT
HETATM    1  C2  UNL     1      23.936  16.685  -7.387  1.00  0.00     0.185 C 
HETATM    2  S1  UNL     1      24.986  17.859  -7.028  1.00  0.00    -0.040 SA
ENDROOT
BRANCH   1   3
HETATM    3  N1  UNL     1      24.282  15.708  -8.332  1.00  0.00    -0.370 N 
HETATM    4  C1  UNL     1      25.647  15.364  -8.674  1.00  0.00     0.148 C 
ATOM      5  H1  UNL     1      23.528  15.211  -8.806  1.00  0.00     0.161 HD
ENDBRANCH   1   3
BRANCH   1   6
HETATM    6  N2  UNL     1      22.692  16.659  -6.746  1.00  0.00    -0.283 N 
ATOM      7  H2  UNL     1      22.472  17.346  -6.025  1.00  0.00     0.188 HD
BRANCH   6   8
HETATM    8  N3  UNL     1      21.748  15.683  -7.103  1.00  0.00    -0.343 N 
ATOM      9  H32 UNL     1      21.989  14.993  -7.814  1.00  0.00     0.176 HD
ATOM     10  H31 UNL     1      20.835  15.675  -6.647  1.00  0.00     0.176 HD
ENDBRANCH   6   8
ENDBRANCH   1   6
TORSDOF 3
ENDMDL
MODEL 2
REMARK VINA RESULT: -3.390979198      1.846      2.157
REMARK  3 active torsions:
REMARK  status: ('A' for Active; 'I' for Inactive)
REMARK    1  A    between atoms: N1_2  and  C2_4 
REMARK    2  A    between atoms: C2_4  and  N2_6 
REMARK    3  A    between atoms: N2_6  and  N3_8 
ROOT
HETATM    1  C2  UNL     1      24.289  16.648  -7.639  1.00  0.00     0.185 C 
HETATM    2  S1  UNL     1      25.361  15.851  -8.550  1.00  0.00    -0.040 SA
ENDROOT
BRANCH   1   3
HETATM    3  N1  UNL     1      24.628  17.896  -7.098  1.00  0.00    -0.370 N 
HETATM    4  C1  UNL     1      25.977  18.275  -6.727  1.00  0.00     0.148 C 
ATOM      5  H1  UNL     1      23.882  18.576  -6.956  1.00  0.00     0.161 HD
ENDBRANCH   1   3
BRANCH   1   6
HETATM    6  N2  UNL     1      23.032  16.077  -7.405  1.00  0.00    -0.283 N 
ATOM      7  H2  UNL     1      22.732  15.261  -7.938  1.00  0.00     0.188 HD
BRANCH   6   8
HETATM    8  N3  UNL     1      22.188  16.636  -6.432  1.00  0.00    -0.343 N 
ATOM      9  H32 UNL     1      22.578  16.902  -5.527  1.00  0.00     0.176 HD
ATOM     10  H31 UNL     1      21.198  16.769  -6.641  1.00  0.00     0.176 HD
ENDBRANCH   6   8
ENDBRANCH   1   6
TORSDOF 3
ENDMDL
MODEL 3
REMARK VINA RESULT: -3.366378325      1.247      2.713
REMARK  3 active torsions:
REMARK  status: ('A' for Active; 'I' for Inactive)
REMARK    1  A    between atoms: N1_2  and  C2_4 
REMARK    2  A    between atoms: C2_4  and  N2_6 
REMARK    3  A    between atoms: N2_6  and  N3_8 
ROOT
HETATM    1  C2  UNL     1      24.425  16.844  -7.657  1.00  0.00     0.185 C 
HETATM    2  S1  UNL     1      25.485  17.879  -7.011  1.00  0.00    -0.040 SA
ENDROOT
BRANCH   1   3
HETATM    3  N1  UNL     1      23.194  16.623  -7.023  1.00  0.00    -0.370 N 
HETATM    4  C1  UNL     1      22.235  15.623  -7.448  1.00  0.00     0.148 C 
ATOM      5  H1  UNL     1      22.960  17.200  -6.216  1.00  0.00     0.161 HD
ENDBRANCH   1   3
BRANCH   1   6
HETATM    6  N2  UNL     1      24.754  16.180  -8.845  1.00  0.00    -0.283 N 
ATOM      7  H2  UNL     1      24.417  16.533  -9.740  1.00  0.00     0.188 HD
BRANCH   6   8
HETATM    8  N3  UNL     1      25.551  15.024  -8.796  1.00  0.00    -0.343 N 
ATOM      9  H32 UNL     1      25.100  14.110  -8.761  1.00  0.00     0.176 HD
ATOM     10  H31 UNL     1      26.567  15.113  -8.797  1.00  0.00     0.176 HD
ENDBRANCH   6   8
ENDBRANCH   1   6
TORSDOF 3
ENDMDL
MODEL 4
REMARK VINA RESULT: -3.337893094      1.244      1.318
REMARK  3 active torsions:
REMARK  status: ('A' for Active; 'I' for Inactive)
REMARK    1  A    between atoms: N1_2  and  C2_4 
REMARK    2  A    between atoms: C2_4  and  N2_6 
REMARK    3  A    between atoms: N2_6  and  N3_8 
ROOT
HETATM    1  C2  UNL     1      23.949  16.185  -8.005  1.00  0.00     0.185 C 
HETATM    2  S1  UNL     1      24.015  17.329  -6.866  1.00  0.00    -0.040 SA
ENDROOT
BRANCH   1   3
HETATM    3  N1  UNL     1      24.948  16.122  -8.987  1.00  0.00    -0.370 N 
HETATM    4  C1  UNL     1      25.823  17.228  -9.319  1.00  0.00     0.148 C 
ATOM      5  H1  UNL     1      25.066  15.246  -9.496  1.00  0.00     0.161 HD
ENDBRANCH   1   3
BRANCH   1   6
HETATM    6  N2  UNL     1      22.890  15.269  -7.994  1.00  0.00    -0.283 N 
ATOM      7  H2  UNL     1      22.958  14.400  -8.525  1.00  0.00     0.188 HD
BRANCH   6   8
HETATM    8  N3  UNL     1      21.734  15.553  -7.249  1.00  0.00    -0.343 N 
ATOM      9  H32 UNL     1      21.812  15.683  -6.240  1.00  0.00     0.176 HD
ATOM     10  H31 UNL     1      20.834  15.628  -7.724  1.00  0.00     0.176 HD
ENDBRANCH   6   8
ENDBRANCH   1   6
TORSDOF 3
ENDMDL
MODEL 5
REMARK VINA RESULT: -3.277223182      2.189      2.836
REMARK  3 active torsions:
REMARK  status: ('A' for Active; 'I' for Inactive)
REMARK    1  A    between atoms: N1_2  and  C2_4 
REMARK    2  A    between atoms: C2_4  and  N2_6 
REMARK    3  A    between atoms: N2_6  and  N3_8 
ROOT
HETATM    1  C2  UNL     1      24.222  16.736  -7.395  1.00  0.00     0.185 C 
HETATM    2  S1  UNL     1      22.760  16.693  -6.708  1.00  0.00    -0.040 SA
ENDROOT
BRANCH   1   3
HETATM    3  N1  UNL     1      25.270  17.415  -6.759  1.00  0.00    -0.370 N 
HETATM    4  C1  UNL     1      26.001  18.514  -7.357  1.00  0.00     0.148 C 
ATOM      5  H1  UNL     1      25.534  17.119  -5.819  1.00  0.00     0.161 HD
ENDBRANCH   1   3
BRANCH   1   6
HETATM    6  N2  UNL     1      24.421  16.090  -8.622  1.00  0.00    -0.283 N 
ATOM      7  H2  UNL     1      23.816  16.300  -9.416  1.00  0.00     0.188 HD
BRANCH   6   8
HETATM    8  N3  UNL     1      25.459  15.153  -8.752  1.00  0.00    -0.343 N 
ATOM      9  H32 UNL     1      25.229  14.181  -8.961  1.00  0.00     0.176 HD
ATOM     10  H31 UNL     1      26.427  15.455  -8.638  1.00  0.00     0.176 HD
ENDBRANCH   6   8
ENDBRANCH   1   6
TORSDOF 3
ENDMDL
