MODEL 1
REMARK VINA RESULT: -4.817152416      0.000      0.000
REMARK  2 active torsions:
REMARK  status: ('A' for Active; 'I' for Inactive)
REMARK    1  A    between atoms: C3_3  and  N1_4 
REMARK    2  A    between atoms: C3_3  and  O1_8 
ROOT
HETATM    1  C1  UNL     1      26.744  18.320  -8.240  1.00  0.00     0.018 C 
HETATM    2  C2  UNL     1      25.876  17.487  -8.376  1.00  0.00    -0.036 C 
HETATM    3  C3  UNL     1      24.826  16.482  -8.563  1.00  0.00     0.351 C 
HETATM    4  C4  UNL     1      23.772  16.593  -7.553  1.00  0.00    -0.036 C 
HETATM    5  C5  UNL     1      22.901  16.685  -6.706  1.00  0.00     0.018 C 
ENDROOT
BRANCH   3   6
HETATM    6  N1  UNL     1      25.408  15.176  -8.448  1.00  0.00    -0.023 N 
ATOM      7  H13 UNL     1      24.801  14.522  -7.953  1.00  0.00     0.280 HD
ATOM      8  H12 UNL     1      25.446  14.687  -9.343  1.00  0.00     0.280 HD
ATOM      9  H11 UNL     1      26.326  15.263  -8.012  1.00  0.00     0.280 HD
ENDBRANCH   3   6
BRANCH   3  10
HETATM   10  O1  UNL     1      24.285  16.659  -9.806  1.00  0.00    -0.346 OA
ATOM     11  H1  UNL     1      24.051  15.805 -10.150  1.00  0.00     0.214 HD
ENDBRANCH   3  10
TORSDOF 2
ENDMDL
MODEL 2
REMARK VINA RESULT: -4.713743202      2.098      3.426
REMARK  2 active torsions:
REMARK  status: ('A' for Active; 'I' for Inactive)
REMARK    1  A    between atoms: C3_3  and  N1_4 
REMARK    2  A    between atoms: C3_3  and  O1_8 
ROOT
HETATM    1  C1  UNL     1      22.795  16.671  -6.733  1.00  0.00     0.018 C 
HETATM    2  C2  UNL     1      23.877  17.195  -6.884  1.00  0.00    -0.036 C 
HETATM    3  C3  UNL     1      25.178  17.846  -7.055  1.00  0.00     0.351 C 
HETATM    4  C4  UNL     1      25.704  17.677  -8.411  1.00  0.00    -0.036 C 
HETATM    5  C5  UNL     1      26.139  17.528  -9.539  1.00  0.00     0.018 C 
ENDROOT
BRANCH   3   6
HETATM    6  N1  UNL     1      26.116  17.254  -6.146  1.00  0.00    -0.023 N 
ATOM      7  H13 UNL     1      25.659  16.698  -5.423  1.00  0.00     0.280 HD
ATOM      8  H12 UNL     1      26.659  16.506  -6.578  1.00  0.00     0.280 HD
ATOM      9  H11 UNL     1      26.706  17.990  -5.756  1.00  0.00     0.280 HD
ENDBRANCH   3   6
BRANCH   3  10
HETATM   10  O1  UNL     1      25.025  19.178  -6.788  1.00  0.00    -0.346 OA
ATOM     11  H1  UNL     1      24.305  19.275  -6.176  1.00  0.00     0.214 HD
ENDBRANCH   3  10
TORSDOF 2
ENDMDL
MODEL 3
REMARK VINA RESULT: -4.408089931      1.624      2.977
REMARK  2 active torsions:
REMARK  status: ('A' for Active; 'I' for Inactive)
REMARK    1  A    between atoms: C3_3  and  N1_4 
REMARK    2  A    between atoms: C3_3  and  O1_8 
ROOT
HETATM    1  C1  UNL     1      22.283  15.585  -7.489  1.00  0.00     0.018 C 
HETATM    2  C2  UNL     1      23.408  15.847  -7.853  1.00  0.00    -0.036 C 
HETATM    3  C3  UNL     1      24.772  16.142  -8.298  1.00  0.00     0.351 C 
HETATM    4  C4  UNL     1      25.460  17.063  -7.391  1.00  0.00    -0.036 C 
HETATM    5  C5  UNL     1      26.025  17.835  -6.637  1.00  0.00     0.018 C 
ENDROOT
BRANCH   3   6
HETATM    6  N1  UNL     1      24.714  16.762  -9.590  1.00  0.00    -0.023 N 
ATOM      7  H13 UNL     1      23.895  16.473 -10.124  1.00  0.00     0.280 HD
ATOM      8  H12 UNL     1      24.503  17.759  -9.535  1.00  0.00     0.280 HD
ATOM      9  H11 UNL     1      25.587  16.576 -10.085  1.00  0.00     0.280 HD
ENDBRANCH   3   6
BRANCH   3  10
HETATM   10  O1  UNL     1      25.463  14.965  -8.361  1.00  0.00    -0.346 OA
ATOM     11  H1  UNL     1      25.314  14.581  -9.217  1.00  0.00     0.214 HD
ENDBRANCH   3  10
TORSDOF 2
ENDMDL
MODEL 4
REMARK VINA RESULT: -4.380432446      2.600      3.648
REMARK  2 active torsions:
REMARK  status: ('A' for Active; 'I' for Inactive)
REMARK    1  A    between atoms: C3_3  and  N1_4 
REMARK    2  A    between atoms: C3_3  and  O1_8 
ROOT
HETATM    1  C1  UNL     1      23.441  17.055  -6.867  1.00  0.00     0.018 C 
HETATM    2  C2  UNL     1      24.557  17.523  -6.910  1.00  0.00    -0.036 C 
HETATM    3  C3  UNL     1      25.915  18.072  -6.949  1.00  0.00     0.351 C 
HETATM    4  C4  UNL     1      25.928  19.523  -6.757  1.00  0.00    -0.036 C 
HETATM    5  C5  UNL     1      25.933  20.732  -6.604  1.00  0.00     0.018 C 
ENDROOT
BRANCH   3   6
HETATM    6  N1  UNL     1      26.491  17.795  -8.233  1.00  0.00    -0.023 N 
ATOM      7  H13 UNL     1      26.269  16.856  -8.565  1.00  0.00     0.280 HD
ATOM      8  H12 UNL     1      26.040  18.320  -8.983  1.00  0.00     0.280 HD
ATOM      9  H11 UNL     1      27.496  17.965  -8.188  1.00  0.00     0.280 HD
ENDBRANCH   3   6
BRANCH   3  10
HETATM   10  O1  UNL     1      26.644  17.475  -5.958  1.00  0.00    -0.346 OA
ATOM     11  H1  UNL     1      27.564  17.630  -6.134  1.00  0.00     0.214 HD
ENDBRANCH   3  10
TORSDOF 2
ENDMDL
MODEL 5
REMARK VINA RESULT: -4.247613207      2.365      2.466
REMARK  2 active torsions:
REMARK  status: ('A' for Active; 'I' for Inactive)
REMARK    1  A    between atoms: C3_3  and  N1_4 
REMARK    2  A    between atoms: C3_3  and  O1_8 
ROOT
HETATM    1  C1  UNL     1      26.116  17.500  -9.708  1.00  0.00     0.018 C 
HETATM    2  C2  UNL     1      25.757  17.630  -8.558  1.00  0.00    -0.036 C 
HETATM    3  C3  UNL     1      25.344  17.781  -7.161  1.00  0.00     0.351 C 
HETATM    4  C4  UNL     1      24.009  17.230  -6.919  1.00  0.00    -0.036 C 
HETATM    5  C5  UNL     1      22.895  16.777  -6.725  1.00  0.00     0.018 C 
ENDROOT
BRANCH   3   6
HETATM    6  N1  UNL     1      25.307  19.177  -6.836  1.00  0.00    -0.023 N 
ATOM      7  H13 UNL     1      25.937  19.416  -6.071  1.00  0.00     0.280 HD
ATOM      8  H12 UNL     1      25.736  19.756  -7.559  1.00  0.00     0.280 HD
ATOM      9  H11 UNL     1      24.342  19.445  -6.644  1.00  0.00     0.280 HD
ENDBRANCH   3   6
BRANCH   3  10
HETATM   10  O1  UNL     1      26.254  17.129  -6.376  1.00  0.00    -0.346 OA
ATOM     11  H1  UNL     1      26.580  17.745  -5.729  1.00  0.00     0.214 HD
ENDBRANCH   3  10
TORSDOF 2
ENDMDL
