MODEL 1
REMARK VINA RESULT: -4.588223400      0.000      0.000
REMARK  1 active torsions:
REMARK  status: ('A' for Active; 'I' for Inactive)
REMARK    1  A    between atoms: C5_6  and  O2_7 
ROOT
HETATM    1  C1  UNL     1      26.990  20.255  -7.089  1.00  0.00     0.071 C 
HETATM    2  C2  UNL     1      25.978  19.202  -6.635  1.00  0.00     0.259 C 
HETATM    3  O1  UNL     1      24.725  19.744  -6.828  1.00  0.00    -0.352 OA
HETATM    4  C3  UNL     1      24.016  18.917  -7.666  1.00  0.00     0.175 C 
HETATM    5  C4  UNL     1      23.068  18.098  -6.825  1.00  0.00     0.044 C 
HETATM    6  C5  UNL     1      25.074  18.087  -8.335  1.00  0.00     0.288 C 
HETATM    7  O3  UNL     1      26.071  18.045  -7.381  1.00  0.00    -0.330 OA
ENDROOT
BRANCH   6   8
HETATM    8  O2  UNL     1      24.636  16.849  -8.750  1.00  0.00    -0.369 OA
ATOM      9  H2  UNL     1      25.329  16.206  -8.848  1.00  0.00     0.212 HD
ENDBRANCH   6   8
TORSDOF 1
ENDMDL
MODEL 2
REMARK VINA RESULT: -4.285626916      1.265      3.367
REMARK  1 active torsions:
REMARK  status: ('A' for Active; 'I' for Inactive)
REMARK    1  A    between atoms: C5_6  and  O2_7 
ROOT
HETATM    1  C1  UNL     1      24.177  17.843  -8.515  1.00  0.00     0.071 C 
HETATM    2  C2  UNL     1      24.660  18.385  -7.169  1.00  0.00     0.259 C 
HETATM    3  O1  UNL     1      26.038  18.352  -7.198  1.00  0.00    -0.352 OA
HETATM    4  C3  UNL     1      26.510  19.625  -6.982  1.00  0.00     0.175 C 
HETATM    5  C4  UNL     1      26.964  19.720  -5.548  1.00  0.00     0.044 C 
HETATM    6  C5  UNL     1      25.329  20.503  -7.284  1.00  0.00     0.288 C 
HETATM    7  O3  UNL     1      24.260  19.690  -6.967  1.00  0.00    -0.330 OA
ENDROOT
BRANCH   6   8
HETATM    8  O2  UNL     1      25.341  21.707  -6.615  1.00  0.00    -0.369 OA
ATOM      9  H2  UNL     1      25.779  22.407  -7.086  1.00  0.00     0.212 HD
ENDBRANCH   6   8
TORSDOF 1
ENDMDL
MODEL 3
REMARK VINA RESULT: -4.246380147      1.272      2.074
REMARK  1 active torsions:
REMARK  status: ('A' for Active; 'I' for Inactive)
REMARK    1  A    between atoms: C5_6  and  O2_7 
ROOT
HETATM    1  C1  UNL     1      26.752  20.346  -6.022  1.00  0.00     0.071 C 
HETATM    2  C2  UNL     1      25.914  20.119  -7.282  1.00  0.00     0.259 C 
HETATM    3  O1  UNL     1      26.398  18.977  -7.882  1.00  0.00    -0.352 OA
HETATM    4  C3  UNL     1      25.369  18.072  -7.994  1.00  0.00     0.175 C 
HETATM    5  C4  UNL     1      24.872  18.101  -9.418  1.00  0.00     0.044 C 
HETATM    6  C5  UNL     1      24.349  18.562  -7.006  1.00  0.00     0.288 C 
HETATM    7  O3  UNL     1      24.581  19.923  -6.984  1.00  0.00    -0.330 OA
ENDROOT
BRANCH   6   8
HETATM    8  O2  UNL     1      23.054  18.214  -7.320  1.00  0.00    -0.369 OA
ATOM      9  H2  UNL     1      22.961  17.328  -7.651  1.00  0.00     0.212 HD
ENDBRANCH   6   8
TORSDOF 1
ENDMDL
MODEL 4
REMARK VINA RESULT: -4.218448079      1.571      3.424
REMARK  1 active torsions:
REMARK  status: ('A' for Active; 'I' for Inactive)
REMARK    1  A    between atoms: C5_6  and  O2_7 
ROOT
HETATM    1  C1  UNL     1      23.762  18.391  -7.132  1.00  0.00     0.071 C 
HETATM    2  C2  UNL     1      25.245  18.420  -7.504  1.00  0.00     0.259 C 
HETATM    3  O1  UNL     1      25.414  19.465  -8.388  1.00  0.00    -0.352 OA
HETATM    4  C3  UNL     1      26.343  20.333  -7.865  1.00  0.00     0.175 C 
HETATM    5  C4  UNL     1      27.658  20.088  -8.561  1.00  0.00     0.044 C 
HETATM    6  C5  UNL     1      26.379  19.987  -6.404  1.00  0.00     0.288 C 
HETATM    7  O3  UNL     1      26.047  18.647  -6.404  1.00  0.00    -0.330 OA
ENDROOT
BRANCH   6   8
HETATM    8  O2  UNL     1      27.578  20.272  -5.790  1.00  0.00    -0.369 OA
ATOM      9  H2  UNL     1      27.574  20.134  -4.850  1.00  0.00     0.212 HD
ENDBRANCH   6   8
TORSDOF 1
ENDMDL
MODEL 5
REMARK VINA RESULT: -4.150515005      1.460      3.427
REMARK  1 active torsions:
REMARK  status: ('A' for Active; 'I' for Inactive)
REMARK    1  A    between atoms: C5_6  and  O2_7 
ROOT
HETATM    1  C1  UNL     1      23.951  17.593  -8.195  1.00  0.00     0.071 C 
HETATM    2  C2  UNL     1      25.301  18.118  -7.705  1.00  0.00     0.259 C 
HETATM    3  O1  UNL     1      25.883  18.775  -8.768  1.00  0.00    -0.352 OA
HETATM    4  C3  UNL     1      26.137  20.073  -8.393  1.00  0.00     0.175 C 
HETATM    5  C4  UNL     1      27.605  20.188  -8.066  1.00  0.00     0.044 C 
HETATM    6  C5  UNL     1      25.251  20.284  -7.199  1.00  0.00     0.288 C 
HETATM    7  O3  UNL     1      25.158  19.014  -6.665  1.00  0.00    -0.330 OA
ENDROOT
BRANCH   6   8
HETATM    8  O2  UNL     1      25.716  21.235  -6.318  1.00  0.00    -0.369 OA
ATOM      9  H2  UNL     1      25.958  20.888  -5.467  1.00  0.00     0.212 HD
ENDBRANCH   6   8
TORSDOF 1
ENDMDL
