MODEL 1
REMARK VINA RESULT: -5.175961347      0.000      0.000
REMARK  1 active torsions:
REMARK  status: ('A' for Active; 'I' for Inactive)
REMARK    1  A    between atoms: C3_3  and  O1_4 
ROOT
HETATM    1  C1  UNL     1      22.548  17.968  -6.588  1.00  0.00     0.018 C 
HETATM    2  C2  UNL     1      23.448  18.037  -7.371  1.00  0.00    -0.044 C 
HETATM    3  C3  UNL     1      24.513  18.108  -8.329  1.00  0.00     0.288 C 
HETATM    4  O2  UNL     1      25.650  17.367  -8.061  1.00  0.00    -0.183 OA
HETATM    5  O3  UNL     1      26.325  18.252  -8.795  1.00  0.00    -0.225 OA
HETATM    6  C4  UNL     1      25.478  19.231  -8.227  1.00  0.00     0.234 C 
HETATM    7  C5  UNL     1      25.984  19.599  -6.873  1.00  0.00     0.049 C 
ENDROOT
BRANCH   3   8
HETATM    8  O1  UNL     1      24.100  17.927  -9.651  1.00  0.00    -0.352 OA
ATOM      9  H1  UNL     1      24.801  17.679 -10.242  1.00  0.00     0.214 HD
ENDBRANCH   3   8
TORSDOF 1
ENDMDL
MODEL 2
REMARK VINA RESULT: -4.960122186      1.531      2.158
REMARK  1 active torsions:
REMARK  status: ('A' for Active; 'I' for Inactive)
REMARK    1  A    between atoms: C3_3  and  O1_4 
ROOT
HETATM    1  C1  UNL     1      22.677  18.038  -6.784  1.00  0.00     0.018 C 
HETATM    2  C2  UNL     1      23.758  18.461  -7.070  1.00  0.00    -0.044 C 
HETATM    3  C3  UNL     1      25.052  18.987  -7.397  1.00  0.00     0.288 C 
HETATM    4  O2  UNL     1      25.225  19.480  -8.677  1.00  0.00    -0.183 OA
HETATM    5  O3  UNL     1      26.522  19.198  -8.544  1.00  0.00    -0.225 OA
HETATM    6  C4  UNL     1      26.104  18.042  -7.846  1.00  0.00     0.234 C 
HETATM    7  C5  UNL     1      25.722  16.983  -8.825  1.00  0.00     0.049 C 
ENDROOT
BRANCH   3   8
HETATM    8  O1  UNL     1      25.558  19.878  -6.447  1.00  0.00    -0.352 OA
ATOM      9  H1  UNL     1      26.195  20.490  -6.795  1.00  0.00     0.214 HD
ENDBRANCH   3   8
TORSDOF 1
ENDMDL
MODEL 3
REMARK VINA RESULT: -4.800880093      1.937      2.505
REMARK  1 active torsions:
REMARK  status: ('A' for Active; 'I' for Inactive)
REMARK    1  A    between atoms: C3_3  and  O1_4 
ROOT
HETATM    1  C1  UNL     1      23.247  18.160  -7.067  1.00  0.00     0.018 C 
HETATM    2  C2  UNL     1      24.334  18.651  -7.142  1.00  0.00    -0.044 C 
HETATM    3  C3  UNL     1      25.641  19.237  -7.208  1.00  0.00     0.288 C 
HETATM    4  O2  UNL     1      25.722  20.544  -7.655  1.00  0.00    -0.183 OA
HETATM    5  O3  UNL     1      26.964  20.265  -8.054  1.00  0.00    -0.225 OA
HETATM    6  C4  UNL     1      26.463  18.995  -8.420  1.00  0.00     0.234 C 
HETATM    7  C5  UNL     1      25.793  19.091  -9.749  1.00  0.00     0.049 C 
ENDROOT
BRANCH   3   8
HETATM    8  O1  UNL     1      26.401  19.059  -6.050  1.00  0.00    -0.352 OA
ATOM      9  H1  UNL     1      27.025  19.757  -5.888  1.00  0.00     0.214 HD
ENDBRANCH   3   8
TORSDOF 1
ENDMDL
MODEL 4
REMARK VINA RESULT: -4.745018494      1.416      1.651
REMARK  1 active torsions:
REMARK  status: ('A' for Active; 'I' for Inactive)
REMARK    1  A    between atoms: C3_3  and  O1_4 
ROOT
HETATM    1  C1  UNL     1      22.917  18.177  -6.861  1.00  0.00     0.018 C 
HETATM    2  C2  UNL     1      24.060  18.408  -7.123  1.00  0.00    -0.044 C 
HETATM    3  C3  UNL     1      25.434  18.662  -7.448  1.00  0.00     0.288 C 
HETATM    4  O2  UNL     1      26.310  18.824  -6.390  1.00  0.00    -0.183 OA
HETATM    5  O3  UNL     1      27.062  19.564  -7.207  1.00  0.00    -0.225 OA
HETATM    6  C4  UNL     1      25.845  20.060  -7.728  1.00  0.00     0.234 C 
HETATM    7  C5  UNL     1      25.326  21.135  -6.833  1.00  0.00     0.049 C 
ENDROOT
BRANCH   3   8
HETATM    8  O1  UNL     1      25.961  17.789  -8.402  1.00  0.00    -0.352 OA
ATOM      9  H1  UNL     1      26.188  16.934  -8.058  1.00  0.00     0.214 HD
ENDBRANCH   3   8
TORSDOF 1
ENDMDL
MODEL 5
REMARK VINA RESULT: -4.676439388      1.493      2.913
REMARK  1 active torsions:
REMARK  status: ('A' for Active; 'I' for Inactive)
REMARK    1  A    between atoms: C3_3  and  O1_4 
ROOT
HETATM    1  C1  UNL     1      26.559  19.732 -10.012  1.00  0.00     0.018 C 
HETATM    2  C2  UNL     1      25.923  18.865  -9.489  1.00  0.00    -0.044 C 
HETATM    3  C3  UNL     1      25.174  17.807  -8.877  1.00  0.00     0.288 C 
HETATM    4  O2  UNL     1      23.812  17.780  -9.119  1.00  0.00    -0.183 OA
HETATM    5  O3  UNL     1      23.680  17.144  -7.954  1.00  0.00    -0.225 OA
HETATM    6  C4  UNL     1      24.707  17.992  -7.480  1.00  0.00     0.234 C 
HETATM    7  C5  UNL     1      24.125  19.313  -7.105  1.00  0.00     0.049 C 
ENDROOT
BRANCH   3   8
HETATM    8  O1  UNL     1      25.736  16.541  -9.048  1.00  0.00    -0.352 OA
ATOM      9  H1  UNL     1      26.054  16.376  -9.928  1.00  0.00     0.214 HD
ENDBRANCH   3   8
TORSDOF 1
ENDMDL
