MODEL 1
REMARK VINA RESULT: -5.602316643      0.000      0.000
REMARK  2 active torsions:
REMARK  status: ('A' for Active; 'I' for Inactive)
REMARK    1  A    between atoms: N1_1  and  C1_4 
REMARK    2  A    between atoms: C2_5  and  C3_6 
ROOT
HETATM    1  C3  UNL     1      24.707  18.462  -8.197  1.00  0.00     0.102 A 
HETATM    2  C4  UNL     1      23.983  18.861  -7.114  1.00  0.00     0.042 A 
HETATM    3  C5  UNL     1      22.856  18.169  -6.754  1.00  0.00     0.021 A 
HETATM    4  C6  UNL     1      22.451  17.059  -7.491  1.00  0.00     0.107 A 
HETATM    5  N2  UNL     1      23.202  16.724  -8.535  1.00  0.00    -0.311 N 
ATOM      6  H2  UNL     1      22.924  15.915  -9.090  1.00  0.00     0.186 HD
HETATM    7  N3  UNL     1      24.302  17.389  -8.899  1.00  0.00    -0.293 N 
ATOM      8  H3  UNL     1      24.837  17.081  -9.712  1.00  0.00     0.187 HD
ENDROOT
BRANCH   1   9
HETATM    9  C2  UNL     1      25.911  19.157  -8.627  1.00  0.00    -0.025 C 
HETATM   10  C1  UNL     1      26.920  19.722  -8.971  1.00  0.00     0.010 C 
BRANCH  10  11
HETATM   11  N1  UNL     1      28.101  20.375  -9.349  1.00  0.00    -0.359 N 
ATOM     12  H12 UNL     1      27.722  19.835  -8.571  1.00  0.00     0.166 HD
ATOM     13  H11 UNL     1      28.954  20.854  -9.639  1.00  0.00     0.166 HD
ENDBRANCH  10  11
ENDBRANCH   1   9
TORSDOF 2
ENDMDL
MODEL 2
REMARK VINA RESULT: -5.500376129      1.728      4.789
REMARK  2 active torsions:
REMARK  status: ('A' for Active; 'I' for Inactive)
REMARK    1  A    between atoms: N1_1  and  C1_4 
REMARK    2  A    between atoms: C2_5  and  C3_6 
ROOT
HETATM    1  C3  UNL     1      25.601  19.346  -7.750  1.00  0.00     0.102 A 
HETATM    2  C4  UNL     1      25.959  19.398  -9.063  1.00  0.00     0.042 A 
HETATM    3  C5  UNL     1      27.159  19.951  -9.423  1.00  0.00     0.021 A 
HETATM    4  C6  UNL     1      28.015  20.461  -8.448  1.00  0.00     0.107 A 
HETATM    5  N2  UNL     1      27.604  20.379  -7.187  1.00  0.00    -0.311 N 
ATOM      6  H2  UNL     1      28.215  20.746  -6.456  1.00  0.00     0.186 HD
HETATM    7  N3  UNL     1      26.437  19.842  -6.821  1.00  0.00    -0.293 N 
ATOM      8  H3  UNL     1      26.179  19.809  -5.835  1.00  0.00     0.187 HD
ENDROOT
BRANCH   1   9
HETATM    9  C2  UNL     1      24.339  18.770  -7.309  1.00  0.00    -0.025 C 
HETATM   10  C1  UNL     1      23.284  18.310  -6.949  1.00  0.00     0.010 C 
BRANCH  10  11
HETATM   11  N1  UNL     1      22.049  17.797  -6.527  1.00  0.00    -0.359 N 
ATOM     12  H12 UNL     1      22.447  18.649  -6.924  1.00  0.00     0.166 HD
ATOM     13  H11 UNL     1      21.159  17.409  -6.216  1.00  0.00     0.166 HD
ENDBRANCH  10  11
ENDBRANCH   1   9
TORSDOF 2
ENDMDL
MODEL 3
REMARK VINA RESULT: -5.320639081      1.677      4.561
REMARK  2 active torsions:
REMARK  status: ('A' for Active; 'I' for Inactive)
REMARK    1  A    between atoms: N1_1  and  C1_4 
REMARK    2  A    between atoms: C2_5  and  C3_6 
ROOT
HETATM    1  C3  UNL     1      25.557  19.354  -7.681  1.00  0.00     0.102 A 
HETATM    2  C4  UNL     1      26.411  19.934  -6.793  1.00  0.00     0.042 A 
HETATM    3  C5  UNL     1      27.590  20.477  -7.233  1.00  0.00     0.021 A 
HETATM    4  C6  UNL     1      27.916  20.436  -8.587  1.00  0.00     0.107 A 
HETATM    5  N2  UNL     1      27.038  19.855  -9.399  1.00  0.00    -0.311 N 
ATOM      6  H2  UNL     1      27.257  19.813 -10.395  1.00  0.00     0.186 HD
HETATM    7  N3  UNL     1      25.886  19.322  -8.984  1.00  0.00    -0.293 N 
ATOM      8  H3  UNL     1      25.254  18.889  -9.658  1.00  0.00     0.187 HD
ENDROOT
BRANCH   1   9
HETATM    9  C2  UNL     1      24.292  18.762  -7.271  1.00  0.00    -0.025 C 
HETATM   10  C1  UNL     1      23.234  18.288  -6.938  1.00  0.00     0.010 C 
BRANCH  10  11
HETATM   11  N1  UNL     1      21.996  17.759  -6.548  1.00  0.00    -0.359 N 
ATOM     12  H12 UNL     1      22.773  18.295  -6.161  1.00  0.00     0.166 HD
ATOM     13  H11 UNL     1      21.093  17.368  -6.279  1.00  0.00     0.166 HD
ENDBRANCH  10  11
ENDBRANCH   1   9
TORSDOF 2
ENDMDL
MODEL 4
REMARK VINA RESULT: -5.240212867      1.087      1.114
REMARK  2 active torsions:
REMARK  status: ('A' for Active; 'I' for Inactive)
REMARK    1  A    between atoms: N1_1  and  C1_4 
REMARK    2  A    between atoms: C2_5  and  C3_6 
ROOT
HETATM    1  C3  UNL     1      25.043  18.793  -7.684  1.00  0.00     0.102 A 
HETATM    2  C4  UNL     1      23.952  18.904  -6.877  1.00  0.00     0.042 A 
HETATM    3  C5  UNL     1      22.919  18.013  -6.997  1.00  0.00     0.021 A 
HETATM    4  C6  UNL     1      22.982  16.992  -7.944  1.00  0.00     0.107 A 
HETATM    5  N2  UNL     1      24.075  16.941  -8.699  1.00  0.00    -0.311 N 
ATOM      6  H2  UNL     1      24.142  16.202  -9.400  1.00  0.00     0.186 HD
HETATM    7  N3  UNL     1      25.089  17.803  -8.594  1.00  0.00    -0.293 N 
ATOM      8  H3  UNL     1      25.901  17.710  -9.204  1.00  0.00     0.187 HD
ENDROOT
BRANCH   1   9
HETATM    9  C2  UNL     1      26.170  19.710  -7.602  1.00  0.00    -0.025 C 
HETATM   10  C1  UNL     1      27.105  20.471  -7.554  1.00  0.00     0.010 C 
BRANCH  10  11
HETATM   11  N1  UNL     1      28.198  21.348  -7.519  1.00  0.00    -0.359 N 
ATOM     12  H12 UNL     1      27.879  20.479  -7.089  1.00  0.00     0.166 HD
ATOM     13  H11 UNL     1      28.986  21.995  -7.505  1.00  0.00     0.166 HD
ENDBRANCH  10  11
ENDBRANCH   1   9
TORSDOF 2
ENDMDL
MODEL 5
REMARK VINA RESULT: -5.054800399      1.398      4.761
REMARK  2 active torsions:
REMARK  status: ('A' for Active; 'I' for Inactive)
REMARK    1  A    between atoms: N1_1  and  C1_4 
REMARK    2  A    between atoms: C2_5  and  C3_6 
ROOT
HETATM    1  C3  UNL     1      25.877  19.069  -8.591  1.00  0.00     0.102 A 
HETATM    2  C4  UNL     1      26.256  19.499  -9.827  1.00  0.00     0.042 A 
HETATM    3  C5  UNL     1      27.340  20.325  -9.960  1.00  0.00     0.021 A 
HETATM    4  C6  UNL     1      28.056  20.728  -8.834  1.00  0.00     0.107 A 
HETATM    5  N2  UNL     1      27.632  20.273  -7.659  1.00  0.00    -0.311 N 
ATOM      6  H2  UNL     1      28.141  20.555  -6.821  1.00  0.00     0.186 HD
HETATM    7  N3  UNL     1      26.577  19.467  -7.514  1.00  0.00    -0.293 N 
ATOM      8  H3  UNL     1      26.303  19.152  -6.583  1.00  0.00     0.187 HD
ENDROOT
BRANCH   1   9
HETATM    9  C2  UNL     1      24.734  18.191  -8.388  1.00  0.00    -0.025 C 
HETATM   10  C1  UNL     1      23.775  17.477  -8.228  1.00  0.00     0.010 C 
BRANCH  10  11
HETATM   11  N1  UNL     1      22.647  16.666  -8.042  1.00  0.00    -0.359 N 
ATOM     12  H12 UNL     1      22.901  17.653  -8.086  1.00  0.00     0.166 HD
ATOM     13  H11 UNL     1      21.836  16.062  -7.909  1.00  0.00     0.166 HD
ENDBRANCH  10  11
ENDBRANCH   1   9
TORSDOF 2
ENDMDL
