MODEL 1
REMARK VINA RESULT: -3.645671785      0.000      0.000
REMARK  1 active torsions:
REMARK  status: ('A' for Active; 'I' for Inactive)
REMARK    1  A    between atoms: S1_3  and  C2_4 
ROOT
HETATM    1  N1  UNL     1      22.282  18.044  -6.447  1.00  0.00    -0.184 NA
HETATM    2  C1  UNL     1      23.246  18.101  -7.083  1.00  0.00     0.140 C 
HETATM    3  S1  UNL     1      24.708  18.158  -8.049  1.00  0.00     0.016 SA
ENDROOT
BRANCH   3   4
HETATM    4  C2  UNL     1      25.579  19.688  -7.851  1.00  0.00     0.163 C 
HETATM    5  N2  UNL     1      25.271  20.601  -6.815  1.00  0.00    -0.081 NA
HETATM    6  S2  UNL     1      26.768  20.063  -8.888  1.00  0.00    -0.055 SA
ENDBRANCH   3   4
TORSDOF 1
ENDMDL
MODEL 2
REMARK VINA RESULT: -3.498338878      1.602      1.602
REMARK  1 active torsions:
REMARK  status: ('A' for Active; 'I' for Inactive)
REMARK    1  A    between atoms: S1_3  and  C2_4 
ROOT
HETATM    1  N1  UNL     1      22.349  18.066  -6.447  1.00  0.00    -0.184 NA
HETATM    2  C1  UNL     1      23.193  17.919  -7.222  1.00  0.00     0.140 C 
HETATM    3  S1  UNL     1      24.466  17.668  -8.401  1.00  0.00     0.016 SA
ENDROOT
BRANCH   3   4
HETATM    4  C2  UNL     1      25.687  18.952  -8.349  1.00  0.00     0.163 C 
HETATM    5  N2  UNL     1      26.264  19.490  -9.523  1.00  0.00    -0.081 NA
HETATM    6  S2  UNL     1      26.165  19.533  -6.911  1.00  0.00    -0.055 SA
ENDBRANCH   3   4
TORSDOF 1
ENDMDL
MODEL 3
REMARK VINA RESULT: -3.482156603      1.967      1.967
REMARK  1 active torsions:
REMARK  status: ('A' for Active; 'I' for Inactive)
REMARK    1  A    between atoms: S1_3  and  C2_4 
ROOT
HETATM    1  N1  UNL     1      22.221  17.770  -6.707  1.00  0.00    -0.184 NA
HETATM    2  C1  UNL     1      23.238  18.272  -6.930  1.00  0.00     0.140 C 
HETATM    3  S1  UNL     1      24.772  19.057  -7.254  1.00  0.00     0.016 SA
ENDROOT
BRANCH   3   4
HETATM    4  C2  UNL     1      25.593  18.361  -8.662  1.00  0.00     0.163 C 
HETATM    5  N2  UNL     1      25.724  16.964  -8.843  1.00  0.00    -0.081 NA
HETATM    6  S2  UNL     1      26.219  19.352  -9.783  1.00  0.00    -0.055 SA
ENDBRANCH   3   4
TORSDOF 1
ENDMDL
MODEL 4
REMARK VINA RESULT: -3.344381547      1.856      3.520
REMARK  1 active torsions:
REMARK  status: ('A' for Active; 'I' for Inactive)
REMARK    1  A    between atoms: S1_3  and  C2_4 
ROOT
HETATM    1  N1  UNL     1      27.565  20.003  -5.245  1.00  0.00    -0.184 NA
HETATM    2  C1  UNL     1      26.802  20.068  -6.111  1.00  0.00     0.140 C 
HETATM    3  S1  UNL     1      25.648  20.197  -7.424  1.00  0.00     0.016 SA
ENDROOT
BRANCH   3   4
HETATM    4  C2  UNL     1      24.663  18.733  -7.592  1.00  0.00     0.163 C 
HETATM    5  N2  UNL     1      23.468  18.542  -6.860  1.00  0.00    -0.081 NA
HETATM    6  S2  UNL     1      25.142  17.569  -8.615  1.00  0.00    -0.055 SA
ENDBRANCH   3   4
TORSDOF 1
ENDMDL
MODEL 5
REMARK VINA RESULT: -3.320495211      1.769      1.769
REMARK  1 active torsions:
REMARK  status: ('A' for Active; 'I' for Inactive)
REMARK    1  A    between atoms: S1_3  and  C2_4 
ROOT
HETATM    1  N1  UNL     1      22.916  18.220  -6.734  1.00  0.00    -0.184 NA
HETATM    2  C1  UNL     1      23.930  18.587  -7.152  1.00  0.00     0.140 C 
HETATM    3  S1  UNL     1      25.466  19.122  -7.804  1.00  0.00     0.016 SA
ENDROOT
BRANCH   3   4
HETATM    4  C2  UNL     1      26.310  20.227  -6.704  1.00  0.00     0.163 C 
HETATM    5  N2  UNL     1      27.252  19.769  -5.753  1.00  0.00    -0.081 NA
HETATM    6  S2  UNL     1      25.995  21.816  -6.782  1.00  0.00    -0.055 SA
ENDBRANCH   3   4
TORSDOF 1
ENDMDL
