MODEL 1
REMARK VINA RESULT: -5.284846229      0.000      0.000
REMARK  1 active torsions:
REMARK  status: ('A' for Active; 'I' for Inactive)
REMARK    1  A    between atoms: C5_5  and  O1_6 
ROOT
HETATM    1  C1  UNL     1      22.738  18.045  -6.838  1.00  0.00     0.047 C 
HETATM    2  C2  UNL     1      24.162  18.387  -7.136  1.00  0.00     0.179 C 
HETATM    3  C3  UNL     1      24.494  17.922  -8.507  1.00  0.00     0.008 C 
HETATM    4  C4  UNL     1      25.514  18.510  -9.114  1.00  0.00     0.034 C 
HETATM    5  C5  UNL     1      26.252  19.579  -8.399  1.00  0.00     0.317 C 
HETATM    6  O2  UNL     1      25.715  19.911  -7.183  1.00  0.00    -0.203 OA
HETATM    7  O3  UNL     1      24.425  19.751  -7.090  1.00  0.00    -0.229 OA
ENDROOT
BRANCH   5   8
HETATM    8  O1  UNL     1      26.337  20.673  -9.278  1.00  0.00    -0.365 OA
ATOM      9  H1  UNL     1      26.110  21.447  -8.776  1.00  0.00     0.213 HD
ENDBRANCH   5   8
TORSDOF 1
ENDMDL
MODEL 2
REMARK VINA RESULT: -5.022796468      1.932      3.384
REMARK  1 active torsions:
REMARK  status: ('A' for Active; 'I' for Inactive)
REMARK    1  A    between atoms: C5_5  and  O1_6 
ROOT
HETATM    1  C1  UNL     1      26.655  20.578  -8.552  1.00  0.00     0.047 C 
HETATM    2  C2  UNL     1      26.044  19.266  -8.181  1.00  0.00     0.179 C 
HETATM    3  C3  UNL     1      24.920  19.505  -7.241  1.00  0.00     0.008 C 
HETATM    4  C4  UNL     1      23.992  18.563  -7.156  1.00  0.00     0.034 C 
HETATM    5  C5  UNL     1      24.131  17.346  -7.991  1.00  0.00     0.317 C 
HETATM    6  O2  UNL     1      25.195  17.379  -8.854  1.00  0.00    -0.203 OA
HETATM    7  O3  UNL     1      25.530  18.569  -9.268  1.00  0.00    -0.229 OA
ENDROOT
BRANCH   5   8
HETATM    8  O1  UNL     1      22.901  17.157  -8.644  1.00  0.00    -0.365 OA
ATOM      9  H1  UNL     1      23.003  16.402  -9.211  1.00  0.00     0.213 HD
ENDBRANCH   5   8
TORSDOF 1
ENDMDL
MODEL 3
REMARK VINA RESULT: -4.625255144      1.034      1.335
REMARK  1 active torsions:
REMARK  status: ('A' for Active; 'I' for Inactive)
REMARK    1  A    between atoms: C5_5  and  O1_6 
ROOT
HETATM    1  C1  UNL     1      23.678  17.595  -7.994  1.00  0.00     0.047 C 
HETATM    2  C2  UNL     1      24.787  18.462  -7.491  1.00  0.00     0.179 C 
HETATM    3  C3  UNL     1      25.808  18.609  -8.560  1.00  0.00     0.008 C 
HETATM    4  C4  UNL     1      26.607  19.663  -8.491  1.00  0.00     0.034 C 
HETATM    5  C5  UNL     1      26.438  20.616  -7.368  1.00  0.00     0.317 C 
HETATM    6  O2  UNL     1      25.374  20.334  -6.552  1.00  0.00    -0.203 OA
HETATM    7  O3  UNL     1      24.374  19.741  -7.139  1.00  0.00    -0.229 OA
ENDROOT
BRANCH   5   8
HETATM    8  O1  UNL     1      26.371  21.902  -7.931  1.00  0.00    -0.365 OA
ATOM      9  H1  UNL     1      27.148  22.369  -7.645  1.00  0.00     0.213 HD
ENDBRANCH   5   8
TORSDOF 1
ENDMDL
MODEL 4
REMARK VINA RESULT: -4.577631783      1.749      2.869
REMARK  1 active torsions:
REMARK  status: ('A' for Active; 'I' for Inactive)
REMARK    1  A    between atoms: C5_5  and  O1_6 
ROOT
HETATM    1  C1  UNL     1      26.772  20.275  -6.197  1.00  0.00     0.047 C 
HETATM    2  C2  UNL     1      25.716  19.784  -7.133  1.00  0.00     0.179 C 
HETATM    3  C3  UNL     1      26.367  19.185  -8.326  1.00  0.00     0.008 C 
HETATM    4  C4  UNL     1      25.658  18.315  -9.029  1.00  0.00     0.034 C 
HETATM    5  C5  UNL     1      24.278  17.997  -8.590  1.00  0.00     0.317 C 
HETATM    6  O2  UNL     1      23.916  18.595  -7.411  1.00  0.00    -0.203 OA
HETATM    7  O3  UNL     1      24.896  18.809  -6.580  1.00  0.00    -0.229 OA
ENDROOT
BRANCH   5   8
HETATM    8  O1  UNL     1      24.176  16.597  -8.549  1.00  0.00    -0.365 OA
ATOM      9  H1  UNL     1      23.635  16.382  -7.798  1.00  0.00     0.213 HD
ENDBRANCH   5   8
TORSDOF 1
ENDMDL
MODEL 5
REMARK VINA RESULT: -4.576348701      2.060      3.522
REMARK  1 active torsions:
REMARK  status: ('A' for Active; 'I' for Inactive)
REMARK    1  A    between atoms: C5_5  and  O1_6 
ROOT
HETATM    1  C1  UNL     1      26.051  19.407 -10.054  1.00  0.00     0.047 C 
HETATM    2  C2  UNL     1      25.460  18.555  -8.978  1.00  0.00     0.179 C 
HETATM    3  C3  UNL     1      25.275  19.378  -7.756  1.00  0.00     0.008 C 
HETATM    4  C4  UNL     1      24.378  18.959  -6.876  1.00  0.00     0.034 C 
HETATM    5  C5  UNL     1      23.626  17.713  -7.158  1.00  0.00     0.317 C 
HETATM    6  O2  UNL     1      23.891  17.169  -8.388  1.00  0.00    -0.203 OA
HETATM    7  O3  UNL     1      24.217  18.028  -9.311  1.00  0.00    -0.229 OA
ENDROOT
BRANCH   5   8
HETATM    8  O1  UNL     1      22.265  18.007  -6.970  1.00  0.00    -0.365 OA
ATOM      9  H1  UNL     1      21.865  17.232  -6.594  1.00  0.00     0.213 HD
ENDBRANCH   5   8
TORSDOF 1
ENDMDL
