MODEL 1
REMARK VINA RESULT: -4.295099693      0.000      0.000
REMARK  1 active torsions:
REMARK  status: ('A' for Active; 'I' for Inactive)
REMARK    1  A    between atoms: O1_2  and  C2_3 
REMARK       I    between atoms: N1_5  and  C4_7 
ROOT
HETATM    1  C2  UNL     1      24.860  18.481  -8.563  1.00  0.00     0.115 C 
HETATM    2  C3  UNL     1      25.930  18.817  -9.521  1.00  0.00     0.097 C 
HETATM    3  N1  UNL     1      24.791  18.943  -7.383  1.00  0.00    -0.315 N 
ATOM      4  H1  UNL     1      24.004  18.638  -6.810  1.00  0.00     0.170 HD
HETATM    5  C4  UNL     1      25.703  19.838  -6.794  1.00  0.00     0.187 C 
HETATM    6  N2  UNL     1      26.857  19.467  -6.382  1.00  0.00    -0.373 N 
ATOM      7  H21 UNL     1      27.518  20.116  -5.955  1.00  0.00     0.158 HD
ATOM      8  H22 UNL     1      27.136  18.491  -6.479  1.00  0.00     0.158 HD
HETATM    9  N3  UNL     1      25.318  21.191  -6.660  1.00  0.00    -0.064 NA
ENDROOT
BRANCH   1  10
HETATM   10  O1  UNL     1      23.864  17.603  -8.974  1.00  0.00    -0.344 OA
HETATM   11  C1  UNL     1      23.025  17.021  -7.965  1.00  0.00     0.211 C 
ENDBRANCH   1  10
TORSDOF 1
ENDMDL
MODEL 2
REMARK VINA RESULT: -4.151959294      2.334      3.713
REMARK  1 active torsions:
REMARK  status: ('A' for Active; 'I' for Inactive)
REMARK    1  A    between atoms: O1_2  and  C2_3 
REMARK       I    between atoms: N1_5  and  C4_7 
ROOT
HETATM    1  C2  UNL     1      25.334  19.603  -7.159  1.00  0.00     0.115 C 
HETATM    2  C3  UNL     1      26.213  18.656  -6.447  1.00  0.00     0.097 C 
HETATM    3  N1  UNL     1      24.184  19.307  -7.606  1.00  0.00    -0.315 N 
ATOM      4  H1  UNL     1      23.667  20.046  -8.082  1.00  0.00     0.170 HD
HETATM    5  C4  UNL     1      23.558  18.050  -7.503  1.00  0.00     0.187 C 
HETATM    6  N2  UNL     1      23.895  17.056  -8.236  1.00  0.00    -0.373 N 
ATOM      7  H21 UNL     1      23.441  16.146  -8.162  1.00  0.00     0.158 HD
ATOM      8  H22 UNL     1      24.641  17.167  -8.922  1.00  0.00     0.158 HD
HETATM    9  N3  UNL     1      22.524  17.896  -6.552  1.00  0.00    -0.064 NA
ENDROOT
BRANCH   1  10
HETATM   10  O1  UNL     1      25.791  20.901  -7.354  1.00  0.00    -0.344 OA
HETATM   11  C1  UNL     1      26.151  21.667  -6.195  1.00  0.00     0.211 C 
ENDBRANCH   1  10
TORSDOF 1
ENDMDL
MODEL 3
REMARK VINA RESULT: -4.034271166      2.462      3.944
REMARK  1 active torsions:
REMARK  status: ('A' for Active; 'I' for Inactive)
REMARK    1  A    between atoms: O1_2  and  C2_3 
REMARK       I    between atoms: N1_5  and  C4_7 
ROOT
HETATM    1  C2  UNL     1      26.252  19.700  -6.639  1.00  0.00     0.115 C 
HETATM    2  C3  UNL     1      25.575  20.972  -6.954  1.00  0.00     0.097 C 
HETATM    3  N1  UNL     1      25.806  18.558  -6.965  1.00  0.00    -0.315 N 
ATOM      4  H1  UNL     1      26.361  17.747  -6.693  1.00  0.00     0.170 HD
HETATM    5  C4  UNL     1      24.613  18.309  -7.670  1.00  0.00     0.187 C 
HETATM    6  N2  UNL     1      23.461  18.396  -7.118  1.00  0.00    -0.373 N 
ATOM      7  H21 UNL     1      22.596  18.215  -7.628  1.00  0.00     0.158 HD
ATOM      8  H22 UNL     1      23.393  18.653  -6.133  1.00  0.00     0.158 HD
HETATM    9  N3  UNL     1      24.705  17.954  -9.035  1.00  0.00    -0.064 NA
ENDROOT
BRANCH   1  10
HETATM   10  O1  UNL     1      27.453  19.751  -5.942  1.00  0.00    -0.344 OA
HETATM   11  C1  UNL     1      27.579  20.724  -4.894  1.00  0.00     0.211 C 
ENDBRANCH   1  10
TORSDOF 1
ENDMDL
MODEL 4
REMARK VINA RESULT: -4.013197525      1.694      1.770
REMARK  1 active torsions:
REMARK  status: ('A' for Active; 'I' for Inactive)
REMARK    1  A    between atoms: O1_2  and  C2_3 
REMARK       I    between atoms: N1_5  and  C4_7 
ROOT
HETATM    1  C2  UNL     1      24.875  19.073  -7.572  1.00  0.00     0.115 C 
HETATM    2  C3  UNL     1      25.471  17.959  -8.334  1.00  0.00     0.097 C 
HETATM    3  N1  UNL     1      25.431  20.202  -7.411  1.00  0.00    -0.315 N 
ATOM      4  H1  UNL     1      24.923  20.896  -6.863  1.00  0.00     0.170 HD
HETATM    5  C4  UNL     1      26.688  20.582  -7.919  1.00  0.00     0.187 C 
HETATM    6  N2  UNL     1      27.787  20.175  -7.404  1.00  0.00    -0.373 N 
ATOM      7  H21 UNL     1      28.697  20.450  -7.772  1.00  0.00     0.158 HD
ATOM      8  H22 UNL     1      27.763  19.553  -6.596  1.00  0.00     0.158 HD
HETATM    9  N3  UNL     1      26.721  21.443  -9.040  1.00  0.00    -0.064 NA
ENDROOT
BRANCH   1  10
HETATM   10  O1  UNL     1      23.627  18.878  -6.993  1.00  0.00    -0.344 OA
HETATM   11  C1  UNL     1      22.948  17.643  -7.264  1.00  0.00     0.211 C 
ENDBRANCH   1  10
TORSDOF 1
ENDMDL
MODEL 5
REMARK VINA RESULT: -3.878077676      2.330      3.690
REMARK  1 active torsions:
REMARK  status: ('A' for Active; 'I' for Inactive)
REMARK    1  A    between atoms: O1_2  and  C2_3 
REMARK       I    between atoms: N1_5  and  C4_7 
ROOT
HETATM    1  C2  UNL     1      25.613  19.514  -7.643  1.00  0.00     0.115 C 
HETATM    2  C3  UNL     1      26.229  18.801  -6.507  1.00  0.00     0.097 C 
HETATM    3  N1  UNL     1      24.867  18.963  -8.508  1.00  0.00    -0.315 N 
ATOM      4  H1  UNL     1      24.498  19.557  -9.250  1.00  0.00     0.170 HD
HETATM    5  C4  UNL     1      24.503  17.603  -8.536  1.00  0.00     0.187 C 
HETATM    6  N2  UNL     1      25.310  16.686  -8.919  1.00  0.00    -0.373 N 
ATOM      7  H21 UNL     1      25.046  15.701  -8.940  1.00  0.00     0.158 HD
ATOM      8  H22 UNL     1      26.252  16.938  -9.217  1.00  0.00     0.158 HD
HETATM    9  N3  UNL     1      23.197  17.253  -8.123  1.00  0.00    -0.064 NA
ENDROOT
BRANCH   1  10
HETATM   10  O1  UNL     1      25.864  20.874  -7.777  1.00  0.00    -0.344 OA
HETATM   11  C1  UNL     1      25.873  21.675  -6.586  1.00  0.00     0.211 C 
ENDBRANCH   1  10
TORSDOF 1
ENDMDL
