MODEL 1
REMARK VINA RESULT: -7.746650656      0.000      0.000
REMARK  7 active torsions:
REMARK  status: ('A' for Active; 'I' for Inactive)
REMARK    1  A    between atoms: O1_2  and  C2_3 
REMARK    2  A    between atoms: C7_8  and  O2_9 
REMARK    3  A    between atoms: O2_9  and  C8_10 
REMARK    4  A    between atoms: C14_18  and  S1_19 
REMARK    5  A    between atoms: S1_19  and  C15_20 
REMARK       I    between atoms: C15_20  and  N1_22 
REMARK    6  A    between atoms: N1_22  and  C17_24 
REMARK    7  A    between atoms: C17_24  and  C18_25 
ROOT
HETATM    1  C2  UNL     1      25.196 -36.661  -9.258  1.00  0.00     0.104 A 
HETATM    2  C3  UNL     1      23.833 -36.757  -8.976  1.00  0.00     0.071 A 
HETATM    3  C4  UNL     1      23.280 -36.052  -7.950  1.00  0.00     0.065 A 
HETATM    4  C5  UNL     1      24.089 -35.227  -7.180  1.00  0.00     0.098 A 
HETATM    5  C6  UNL     1      25.438 -35.141  -7.473  1.00  0.00     0.079 A 
HETATM    6  C7  UNL     1      26.012 -35.848  -8.506  1.00  0.00     0.115 A 
HETATM    7  O4  UNL     1      23.479 -34.526  -6.143  1.00  0.00    -0.346 OA
HETATM    8  C10 UNL     1      22.183 -33.975  -6.397  1.00  0.00     0.206 C 
HETATM    9  C11 UNL     1      21.254 -35.108  -6.745  1.00  0.00     0.052 C 
HETATM   10  C12 UNL     1      20.783 -35.735  -5.453  1.00  0.00     0.034 C 
HETATM   11  C13 UNL     1      19.789 -34.917  -4.703  1.00  0.00     0.018 C 
HETATM   12  C14 UNL     1      18.710 -34.339  -5.592  1.00  0.00     0.057 C 
HETATM   13  C22 UNL     1      19.300 -33.560  -6.745  1.00  0.00     0.018 C 
HETATM   14  C23 UNL     1      20.120 -34.539  -7.548  1.00  0.00     0.034 C 
HETATM   15  N2  UNL     1      21.906 -36.100  -7.600  1.00  0.00    -0.376 N 
ATOM     16  H2  UNL     1      21.342 -36.868  -7.964  1.00  0.00     0.160 HD
ENDROOT
BRANCH  12  17
HETATM   17  S1  UNL     1      17.501 -33.414  -4.651  1.00  0.00    -0.064 SA
BRANCH  17  18
HETATM   18  C15 UNL     1      15.881 -34.098  -4.715  1.00  0.00     0.281 C 
HETATM   19  O5  UNL     1      15.715 -35.338  -4.753  1.00  0.00    -0.260 OA
HETATM   20  N1  UNL     1      14.754 -33.246  -4.724  1.00  0.00    -0.345 N 
HETATM   21  C16 UNL     1      13.437 -33.839  -4.774  1.00  0.00     0.153 C 
BRANCH  20  22
HETATM   22  C17 UNL     1      14.886 -31.825  -4.678  1.00  0.00     0.158 C 
BRANCH  22  23
HETATM   23  C18 UNL     1      13.606 -31.080  -4.391  1.00  0.00     0.139 C 
HETATM   24  C19 UNL     1      13.208 -30.104  -5.446  1.00  0.00     0.035 C 
HETATM   25  C20 UNL     1      13.352 -28.777  -4.742  1.00  0.00     0.029 C 
HETATM   26  C21 UNL     1      13.284 -29.152  -3.304  1.00  0.00     0.168 C 
HETATM   27  O6  UNL     1      13.593 -30.469  -3.161  1.00  0.00    -0.384 OA
ENDBRANCH  22  23
ENDBRANCH  20  22
ENDBRANCH  17  18
ENDBRANCH  12  17
BRANCH   1  28
HETATM   28  O1  UNL     1      25.683 -37.405 -10.314  1.00  0.00    -0.353 OA
HETATM   29  C1  UNL     1      24.836 -38.173 -11.132  1.00  0.00     0.210 C 
ENDBRANCH   1  28
BRANCH   6  30
HETATM   30  O2  UNL     1      27.355 -35.765  -8.799  1.00  0.00    -0.276 OA
BRANCH  30  31
HETATM   31  C8  UNL     1      27.849 -34.764  -9.619  1.00  0.00     0.260 C 
HETATM   32  C9  UNL     1      28.291 -35.084 -11.006  1.00  0.00     0.126 C 
HETATM   33  O3  UNL     1      27.919 -33.602  -9.188  1.00  0.00    -0.265 OA
ENDBRANCH  30  31
ENDBRANCH   6  30
TORSDOF 7
ENDMDL
MODEL 2
REMARK VINA RESULT: -7.578017253      3.084      4.226
REMARK  7 active torsions:
REMARK  status: ('A' for Active; 'I' for Inactive)
REMARK    1  A    between atoms: O1_2  and  C2_3 
REMARK    2  A    between atoms: C7_8  and  O2_9 
REMARK    3  A    between atoms: O2_9  and  C8_10 
REMARK    4  A    between atoms: C14_18  and  S1_19 
REMARK    5  A    between atoms: S1_19  and  C15_20 
REMARK       I    between atoms: C15_20  and  N1_22 
REMARK    6  A    between atoms: N1_22  and  C17_24 
REMARK    7  A    between atoms: C17_24  and  C18_25 
ROOT
HETATM    1  C2  UNL     1      26.851 -36.079  -9.620  1.00  0.00     0.104 A 
HETATM    2  C3  UNL     1      26.592 -35.574  -8.345  1.00  0.00     0.071 A 
HETATM    3  C4  UNL     1      25.322 -35.538  -7.852  1.00  0.00     0.065 A 
HETATM    4  C5  UNL     1      24.277 -36.013  -8.634  1.00  0.00     0.098 A 
HETATM    5  C6  UNL     1      24.551 -36.512  -9.895  1.00  0.00     0.079 A 
HETATM    6  C7  UNL     1      25.829 -36.554 -10.408  1.00  0.00     0.115 A 
HETATM    7  O4  UNL     1      22.998 -35.957  -8.089  1.00  0.00    -0.346 OA
HETATM    8  C10 UNL     1      22.862 -36.279  -6.701  1.00  0.00     0.206 C 
HETATM    9  C11 UNL     1      23.701 -35.309  -5.912  1.00  0.00     0.052 C 
HETATM   10  C12 UNL     1      22.901 -34.038  -5.741  1.00  0.00     0.034 C 
HETATM   11  C13 UNL     1      21.786 -34.143  -4.759  1.00  0.00     0.018 C 
HETATM   12  C14 UNL     1      22.188 -34.851  -3.483  1.00  0.00     0.057 C 
HETATM   13  C22 UNL     1      22.796 -36.205  -3.769  1.00  0.00     0.018 C 
HETATM   14  C23 UNL     1      24.032 -35.954  -4.597  1.00  0.00     0.034 C 
HETATM   15  N2  UNL     1      24.978 -35.038  -6.570  1.00  0.00    -0.376 N 
ATOM     16  H2  UNL     1      25.660 -34.458  -6.080  1.00  0.00     0.160 HD
ENDROOT
BRANCH  12  17
HETATM   17  S1  UNL     1      20.844 -34.907  -2.304  1.00  0.00    -0.064 SA
BRANCH  17  18
HETATM   18  C15 UNL     1      19.255 -35.042  -3.049  1.00  0.00     0.281 C 
HETATM   19  O5  UNL     1      18.926 -36.082  -3.662  1.00  0.00    -0.260 OA
HETATM   20  N1  UNL     1      18.338 -33.971  -2.957  1.00  0.00    -0.345 N 
HETATM   21  C16 UNL     1      17.041 -34.114  -3.577  1.00  0.00     0.153 C 
BRANCH  20  22
HETATM   22  C17 UNL     1      18.660 -32.764  -2.265  1.00  0.00     0.158 C 
BRANCH  22  23
HETATM   23  C18 UNL     1      18.874 -31.563  -3.154  1.00  0.00     0.139 C 
HETATM   24  C19 UNL     1      20.304 -31.238  -3.419  1.00  0.00     0.035 C 
HETATM   25  C20 UNL     1      20.478 -29.912  -2.720  1.00  0.00     0.029 C 
HETATM   26  C21 UNL     1      19.085 -29.403  -2.616  1.00  0.00     0.168 C 
HETATM   27  O6  UNL     1      18.211 -30.440  -2.724  1.00  0.00    -0.384 OA
ENDBRANCH  22  23
ENDBRANCH  20  22
ENDBRANCH  17  18
ENDBRANCH  12  17
BRANCH   1  28
HETATM   28  O1  UNL     1      28.164 -36.082 -10.049  1.00  0.00    -0.353 OA
HETATM   29  C1  UNL     1      28.709 -35.010 -10.774  1.00  0.00     0.210 C 
ENDBRANCH   1  28
BRANCH   6  30
HETATM   30  O2  UNL     1      26.103 -37.049 -11.662  1.00  0.00    -0.276 OA
BRANCH  30  31
HETATM   31  C8  UNL     1      26.239 -38.409 -11.883  1.00  0.00     0.260 C 
HETATM   32  C9  UNL     1      25.033 -39.257 -12.094  1.00  0.00     0.126 C 
HETATM   33  O3  UNL     1      27.375 -38.912 -11.905  1.00  0.00    -0.265 OA
ENDBRANCH  30  31
ENDBRANCH   6  30
TORSDOF 7
ENDMDL
MODEL 3
REMARK VINA RESULT: -7.482114230      3.282      4.820
REMARK  7 active torsions:
REMARK  status: ('A' for Active; 'I' for Inactive)
REMARK    1  A    between atoms: O1_2  and  C2_3 
REMARK    2  A    between atoms: C7_8  and  O2_9 
REMARK    3  A    between atoms: O2_9  and  C8_10 
REMARK    4  A    between atoms: C14_18  and  S1_19 
REMARK    5  A    between atoms: S1_19  and  C15_20 
REMARK       I    between atoms: C15_20  and  N1_22 
REMARK    6  A    between atoms: N1_22  and  C17_24 
REMARK    7  A    between atoms: C17_24  and  C18_25 
ROOT
HETATM    1  C2  UNL     1      26.785 -36.088  -9.589  1.00  0.00     0.104 A 
HETATM    2  C3  UNL     1      26.536 -35.595  -8.307  1.00  0.00     0.071 A 
HETATM    3  C4  UNL     1      25.274 -35.586  -7.794  1.00  0.00     0.065 A 
HETATM    4  C5  UNL     1      24.226 -36.078  -8.561  1.00  0.00     0.098 A 
HETATM    5  C6  UNL     1      24.489 -36.564  -9.829  1.00  0.00     0.079 A 
HETATM    6  C7  UNL     1      25.759 -36.579 -10.363  1.00  0.00     0.115 A 
HETATM    7  O4  UNL     1      22.956 -36.050  -7.994  1.00  0.00    -0.346 OA
HETATM    8  C10 UNL     1      22.848 -36.382  -6.607  1.00  0.00     0.206 C 
HETATM    9  C11 UNL     1      23.681 -35.400  -5.826  1.00  0.00     0.052 C 
HETATM   10  C12 UNL     1      22.860 -34.145  -5.634  1.00  0.00     0.034 C 
HETATM   11  C13 UNL     1      21.763 -34.278  -4.635  1.00  0.00     0.018 C 
HETATM   12  C14 UNL     1      22.200 -34.985  -3.370  1.00  0.00     0.057 C 
HETATM   13  C22 UNL     1      22.830 -36.325  -3.673  1.00  0.00     0.018 C 
HETATM   14  C23 UNL     1      24.046 -36.045  -4.520  1.00  0.00     0.034 C 
HETATM   15  N2  UNL     1      24.942 -35.100  -6.503  1.00  0.00    -0.376 N 
ATOM     16  H2  UNL     1      25.620 -34.510  -6.021  1.00  0.00     0.160 HD
ENDROOT
BRANCH  12  17
HETATM   17  S1  UNL     1      20.876 -35.073  -2.170  1.00  0.00    -0.064 SA
BRANCH  17  18
HETATM   18  C15 UNL     1      19.343 -34.440  -2.759  1.00  0.00     0.281 C 
HETATM   19  O5  UNL     1      18.669 -35.083  -3.595  1.00  0.00    -0.260 OA
HETATM   20  N1  UNL     1      18.865 -33.198  -2.288  1.00  0.00    -0.345 N 
HETATM   21  C16 UNL     1      17.601 -32.707  -2.789  1.00  0.00     0.153 C 
BRANCH  20  22
HETATM   22  C17 UNL     1      19.591 -32.426  -1.331  1.00  0.00     0.158 C 
BRANCH  22  23
HETATM   23  C18 UNL     1      20.294 -31.216  -1.896  1.00  0.00     0.139 C 
HETATM   24  C19 UNL     1      21.782 -31.309  -1.893  1.00  0.00     0.035 C 
HETATM   25  C20 UNL     1      22.178 -30.243  -0.901  1.00  0.00     0.029 C 
HETATM   26  C21 UNL     1      20.987 -29.354  -0.871  1.00  0.00     0.168 C 
HETATM   27  O6  UNL     1      19.898 -30.035  -1.320  1.00  0.00    -0.384 OA
ENDBRANCH  22  23
ENDBRANCH  20  22
ENDBRANCH  17  18
ENDBRANCH  12  17
BRANCH   1  28
HETATM   28  O1  UNL     1      28.089 -36.063 -10.039  1.00  0.00    -0.353 OA
HETATM   29  C1  UNL     1      28.584 -35.004 -10.819  1.00  0.00     0.210 C 
ENDBRANCH   1  28
BRANCH   6  30
HETATM   30  O2  UNL     1      26.022 -37.061 -11.624  1.00  0.00    -0.276 OA
BRANCH  30  31
HETATM   31  C8  UNL     1      26.224 -38.413 -11.848  1.00  0.00     0.260 C 
HETATM   32  C9  UNL     1      25.060 -39.324 -12.030  1.00  0.00     0.126 C 
HETATM   33  O3  UNL     1      27.384 -38.856 -11.897  1.00  0.00    -0.265 OA
ENDBRANCH  30  31
ENDBRANCH   6  30
TORSDOF 7
ENDMDL
MODEL 4
REMARK VINA RESULT: -7.434565696      4.000      5.259
REMARK  7 active torsions:
REMARK  status: ('A' for Active; 'I' for Inactive)
REMARK    1  A    between atoms: O1_2  and  C2_3 
REMARK    2  A    between atoms: C7_8  and  O2_9 
REMARK    3  A    between atoms: O2_9  and  C8_10 
REMARK    4  A    between atoms: C14_18  and  S1_19 
REMARK    5  A    between atoms: S1_19  and  C15_20 
REMARK       I    between atoms: C15_20  and  N1_22 
REMARK    6  A    between atoms: N1_22  and  C17_24 
REMARK    7  A    between atoms: C17_24  and  C18_25 
ROOT
HETATM    1  C2  UNL     1      24.916 -37.398 -10.710  1.00  0.00     0.104 A 
HETATM    2  C3  UNL     1      23.896 -37.321  -9.760  1.00  0.00     0.071 A 
HETATM    3  C4  UNL     1      24.067 -36.619  -8.605  1.00  0.00     0.065 A 
HETATM    4  C5  UNL     1      25.275 -35.973  -8.378  1.00  0.00     0.098 A 
HETATM    5  C6  UNL     1      26.276 -36.058  -9.329  1.00  0.00     0.079 A 
HETATM    6  C7  UNL     1      26.118 -36.764 -10.501  1.00  0.00     0.115 A 
HETATM    7  O4  UNL     1      25.403 -35.268  -7.185  1.00  0.00    -0.346 OA
HETATM    8  C10 UNL     1      24.266 -34.523  -6.737  1.00  0.00     0.206 C 
HETATM    9  C11 UNL     1      23.126 -35.486  -6.538  1.00  0.00     0.052 C 
HETATM   10  C12 UNL     1      23.294 -36.129  -5.180  1.00  0.00     0.034 C 
HETATM   11  C13 UNL     1      22.969 -35.234  -4.034  1.00  0.00     0.018 C 
HETATM   12  C14 UNL     1      21.693 -34.449  -4.243  1.00  0.00     0.057 C 
HETATM   13  C22 UNL     1      21.720 -33.682  -5.545  1.00  0.00     0.018 C 
HETATM   14  C23 UNL     1      21.846 -34.708  -6.644  1.00  0.00     0.034 C 
HETATM   15  N2  UNL     1      23.081 -36.497  -7.593  1.00  0.00    -0.376 N 
ATOM     16  H2  UNL     1      22.297 -37.151  -7.602  1.00  0.00     0.160 HD
ENDROOT
BRANCH  12  17
HETATM   17  S1  UNL     1      21.302 -33.432  -2.824  1.00  0.00    -0.064 SA
BRANCH  17  18
HETATM   18  C15 UNL     1      20.230 -32.085  -3.194  1.00  0.00     0.281 C 
HETATM   19  O5  UNL     1      19.169 -32.273  -3.831  1.00  0.00    -0.260 OA
HETATM   20  N1  UNL     1      20.564 -30.780  -2.770  1.00  0.00    -0.345 N 
HETATM   21  C16 UNL     1      19.662 -29.696  -3.086  1.00  0.00     0.153 C 
BRANCH  20  22
HETATM   22  C17 UNL     1      21.759 -30.510  -2.036  1.00  0.00     0.158 C 
BRANCH  22  23
HETATM   23  C18 UNL     1      21.562 -30.319  -0.553  1.00  0.00     0.139 C 
HETATM   24  C19 UNL     1      22.145 -29.059  -0.009  1.00  0.00     0.035 C 
HETATM   25  C20 UNL     1      23.252 -29.563   0.882  1.00  0.00     0.029 C 
HETATM   26  C21 UNL     1      22.847 -30.967   1.159  1.00  0.00     0.168 C 
HETATM   27  O6  UNL     1      21.981 -31.389   0.197  1.00  0.00    -0.384 OA
ENDBRANCH  22  23
ENDBRANCH  20  22
ENDBRANCH  17  18
ENDBRANCH  12  17
BRANCH   1  28
HETATM   28  O1  UNL     1      24.667 -38.128 -11.855  1.00  0.00    -0.353 OA
HETATM   29  C1  UNL     1      24.477 -39.519 -11.820  1.00  0.00     0.210 C 
ENDBRANCH   1  28
BRANCH   6  30
HETATM   30  O2  UNL     1      27.113 -36.850 -11.448  1.00  0.00    -0.276 OA
BRANCH  30  31
HETATM   31  C8  UNL     1      28.065 -37.854 -11.399  1.00  0.00     0.260 C 
HETATM   32  C9  UNL     1      28.930 -38.008 -10.196  1.00  0.00     0.126 C 
HETATM   33  O3  UNL     1      28.189 -38.624 -12.366  1.00  0.00    -0.265 OA
ENDBRANCH  30  31
ENDBRANCH   6  30
TORSDOF 7
ENDMDL
MODEL 5
REMARK VINA RESULT: -7.423671033      3.203      4.473
REMARK  7 active torsions:
REMARK  status: ('A' for Active; 'I' for Inactive)
REMARK    1  A    between atoms: O1_2  and  C2_3 
REMARK    2  A    between atoms: C7_8  and  O2_9 
REMARK    3  A    between atoms: O2_9  and  C8_10 
REMARK    4  A    between atoms: C14_18  and  S1_19 
REMARK    5  A    between atoms: S1_19  and  C15_20 
REMARK       I    between atoms: C15_20  and  N1_22 
REMARK    6  A    between atoms: N1_22  and  C17_24 
REMARK    7  A    between atoms: C17_24  and  C18_25 
ROOT
HETATM    1  C2  UNL     1      26.464 -35.167  -8.450  1.00  0.00     0.104 A 
HETATM    2  C3  UNL     1      25.726 -34.331  -7.610  1.00  0.00     0.071 A 
HETATM    3  C4  UNL     1      24.428 -34.613  -7.308  1.00  0.00     0.065 A 
HETATM    4  C5  UNL     1      23.838 -35.749  -7.846  1.00  0.00     0.098 A 
HETATM    5  C6  UNL     1      24.582 -36.568  -8.676  1.00  0.00     0.079 A 
HETATM    6  C7  UNL     1      25.895 -36.297  -8.991  1.00  0.00     0.115 A 
HETATM    7  O4  UNL     1      22.510 -35.996  -7.508  1.00  0.00    -0.346 OA
HETATM    8  C10 UNL     1      22.117 -35.737  -6.157  1.00  0.00     0.206 C 
HETATM    9  C11 UNL     1      22.362 -34.278  -5.872  1.00  0.00     0.052 C 
HETATM   10  C12 UNL     1      21.185 -33.497  -6.410  1.00  0.00     0.034 C 
HETATM   11  C13 UNL     1      19.941 -33.628  -5.601  1.00  0.00     0.018 C 
HETATM   12  C14 UNL     1      20.191 -33.509  -4.113  1.00  0.00     0.057 C 
HETATM   13  C22 UNL     1      21.251 -34.483  -3.650  1.00  0.00     0.018 C 
HETATM   14  C23 UNL     1      22.516 -34.121  -4.386  1.00  0.00     0.034 C 
HETATM   15  N2  UNL     1      23.614 -33.812  -6.466  1.00  0.00    -0.376 N 
ATOM     16  H2  UNL     1      23.919 -32.860  -6.265  1.00  0.00     0.160 HD
ENDROOT
BRANCH  12  17
HETATM   17  S1  UNL     1      18.671 -33.610  -3.176  1.00  0.00    -0.064 SA
BRANCH  17  18
HETATM   18  C15 UNL     1      17.696 -32.146  -3.248  1.00  0.00     0.281 C 
HETATM   19  O5  UNL     1      16.825 -32.005  -4.134  1.00  0.00    -0.260 OA
HETATM   20  N1  UNL     1      17.895 -31.118  -2.299  1.00  0.00    -0.345 N 
HETATM   21  C16 UNL     1      17.078 -29.929  -2.384  1.00  0.00     0.153 C 
BRANCH  20  22
HETATM   22  C17 UNL     1      18.873 -31.229  -1.265  1.00  0.00     0.158 C 
BRANCH  22  23
HETATM   23  C18 UNL     1      19.988 -30.215  -1.336  1.00  0.00     0.139 C 
HETATM   24  C19 UNL     1      20.849 -30.328  -2.548  1.00  0.00     0.035 C 
HETATM   25  C20 UNL     1      22.177 -30.756  -1.973  1.00  0.00     0.029 C 
HETATM   26  C21 UNL     1      22.079 -30.328  -0.552  1.00  0.00     0.168 C 
HETATM   27  O6  UNL     1      20.771 -30.182  -0.209  1.00  0.00    -0.384 OA
ENDBRANCH  22  23
ENDBRANCH  20  22
ENDBRANCH  17  18
ENDBRANCH  12  17
BRANCH   1  28
HETATM   28  O1  UNL     1      27.773 -34.816  -8.709  1.00  0.00    -0.353 OA
HETATM   29  C1  UNL     1      28.100 -33.661  -9.440  1.00  0.00     0.210 C 
ENDBRANCH   1  28
BRANCH   6  30
HETATM   30  O2  UNL     1      26.637 -37.110  -9.817  1.00  0.00    -0.276 OA
BRANCH  30  31
HETATM   31  C8  UNL     1      26.553 -37.001 -11.195  1.00  0.00     0.260 C 
HETATM   32  C9  UNL     1      25.679 -37.927 -11.968  1.00  0.00     0.126 C 
HETATM   33  O3  UNL     1      27.212 -36.124 -11.778  1.00  0.00    -0.265 OA
ENDBRANCH  30  31
ENDBRANCH   6  30
TORSDOF 7
ENDMDL
