MODEL 1
REMARK VINA RESULT: -8.334573857      0.000      0.000
REMARK  7 active torsions:
REMARK  status: ('A' for Active; 'I' for Inactive)
REMARK    1  A    between atoms: C2_2  and  N1_3 
REMARK    2  A    between atoms: C6_7  and  C7_8 
REMARK    3  A    between atoms: C8_9  and  C9_10 
REMARK    4  A    between atoms: C9_10  and  O2_12 
REMARK    5  A    between atoms: O2_12  and  C10_13 
REMARK    6  A    between atoms: C10_13  and  C11_14 
REMARK    7  A    between atoms: C21_28  and  O7_29 
ROOT
HETATM    1  C11 UNL     1      21.953 -34.671  -6.066  1.00  0.00     0.222 C 
HETATM    2  O3  UNL     1      22.398 -34.753  -4.750  1.00  0.00    -0.227 OA
HETATM    3  O4  UNL     1      21.438 -34.909  -3.868  1.00  0.00    -0.197 OA
HETATM    4  C12 UNL     1      21.195 -33.616  -3.369  1.00  0.00     0.229 C 
HETATM    5  C13 UNL     1      19.971 -33.544  -2.527  1.00  0.00     0.074 C 
HETATM    6  C14 UNL     1      20.200 -33.827  -1.077  1.00  0.00     0.006 C 
HETATM    7  C15 UNL     1      21.060 -32.723  -0.509  1.00  0.00     0.000 C 
HETATM    8  C16 UNL     1      21.996 -32.139  -1.513  1.00  0.00     0.006 C 
HETATM    9  C17 UNL     1      22.368 -33.107  -2.613  1.00  0.00     0.074 C 
HETATM   10  O5  UNL     1      20.933 -32.867  -4.543  1.00  0.00    -0.197 OA
HETATM   11  O6  UNL     1      20.000 -33.551  -5.156  1.00  0.00    -0.224 OA
HETATM   12  C18 UNL     1      20.475 -34.442  -6.114  1.00  0.00     0.127 C 
HETATM   13  C19 UNL     1      19.803 -35.810  -5.959  1.00  0.00     0.047 C 
HETATM   14  C20 UNL     1      18.562 -35.948  -6.795  1.00  0.00     0.035 C 
HETATM   15  C21 UNL     1      18.915 -35.980  -8.242  1.00  0.00     0.118 C 
HETATM   16  C22 UNL     1      20.021 -34.969  -8.502  1.00  0.00     0.035 C 
HETATM   17  C23 UNL     1      19.971 -33.907  -7.435  1.00  0.00     0.047 C 
ENDROOT
BRANCH   1  18
HETATM   18  C10 UNL     1      22.710 -33.652  -6.860  1.00  0.00     0.217 C 
BRANCH  18  19
HETATM   19  O2  UNL     1      24.056 -33.512  -6.548  1.00  0.00    -0.315 OA
BRANCH  19  20
HETATM   20  C9  UNL     1      25.149 -33.816  -7.321  1.00  0.00     0.282 C 
HETATM   21  O1  UNL     1      26.243 -33.292  -6.986  1.00  0.00    -0.260 OA
BRANCH  20  22
HETATM   22  C8  UNL     1      25.106 -34.694  -8.483  1.00  0.00     0.083 C 
HETATM   23  C7  UNL     1      25.458 -35.966  -8.422  1.00  0.00     0.019 C 
BRANCH  23  24
HETATM   24  C6  UNL     1      25.400 -36.803  -9.601  1.00  0.00    -0.012 A 
HETATM   25  C5  UNL     1      26.415 -37.063 -10.499  1.00  0.00     0.038 A 
HETATM   26  C3  UNL     1      25.943 -37.922 -11.495  1.00  0.00     0.008 A 
HETATM   27  N1  UNL     1      24.656 -38.177 -11.198  1.00  0.00    -0.354 N 
HETATM   28  C4  UNL     1      26.779 -38.394 -12.607  1.00  0.00     0.068 C 
HETATM   29  C24 UNL     1      24.315 -37.521 -10.076  1.00  0.00     0.018 A 
HETATM   30  C25 UNL     1      22.953 -37.568  -9.441  1.00  0.00     0.069 C 
BRANCH  27  31
HETATM   31  C2  UNL     1      23.804 -39.033 -11.994  1.00  0.00     0.124 C 
HETATM   32  C1  UNL     1      23.962 -40.489 -11.647  1.00  0.00     0.027 C 
ENDBRANCH  27  31
ENDBRANCH  23  24
ENDBRANCH  20  22
ENDBRANCH  19  20
ENDBRANCH  18  19
ENDBRANCH   1  18
BRANCH  15  33
HETATM   33  O7  UNL     1      17.816 -35.756  -9.072  1.00  0.00    -0.396 OA
ATOM     34  H7  UNL     1      17.914 -36.155  -9.929  1.00  0.00     0.210 HD
ENDBRANCH  15  33
TORSDOF 7
ENDMDL
MODEL 2
REMARK VINA RESULT: -8.203905190      1.989      4.593
REMARK  7 active torsions:
REMARK  status: ('A' for Active; 'I' for Inactive)
REMARK    1  A    between atoms: C2_2  and  N1_3 
REMARK    2  A    between atoms: C6_7  and  C7_8 
REMARK    3  A    between atoms: C8_9  and  C9_10 
REMARK    4  A    between atoms: C9_10  and  O2_12 
REMARK    5  A    between atoms: O2_12  and  C10_13 
REMARK    6  A    between atoms: C10_13  and  C11_14 
REMARK    7  A    between atoms: C21_28  and  O7_29 
ROOT
HETATM    1  C11 UNL     1      21.843 -34.794  -5.929  1.00  0.00     0.222 C 
HETATM    2  O3  UNL     1      21.205 -34.353  -7.084  1.00  0.00    -0.227 OA
HETATM    3  O4  UNL     1      20.003 -34.853  -7.258  1.00  0.00    -0.197 OA
HETATM    4  C12 UNL     1      20.186 -35.924  -8.152  1.00  0.00     0.229 C 
HETATM    5  C13 UNL     1      18.972 -36.774  -8.289  1.00  0.00     0.074 C 
HETATM    6  C14 UNL     1      18.022 -36.328  -9.354  1.00  0.00     0.006 C 
HETATM    7  C15 UNL     1      18.700 -36.497 -10.694  1.00  0.00     0.000 C 
HETATM    8  C16 UNL     1      20.180 -36.329 -10.622  1.00  0.00     0.006 C 
HETATM    9  C17 UNL     1      20.624 -35.437  -9.485  1.00  0.00     0.074 C 
HETATM   10  O5  UNL     1      21.171 -36.712  -7.506  1.00  0.00    -0.197 OA
HETATM   11  O6  UNL     1      20.691 -36.899  -6.302  1.00  0.00    -0.224 OA
HETATM   12  C18 UNL     1      21.140 -35.984  -5.354  1.00  0.00     0.127 C 
HETATM   13  C19 UNL     1      19.970 -35.454  -4.520  1.00  0.00     0.047 C 
HETATM   14  C20 UNL     1      19.730 -36.259  -3.275  1.00  0.00     0.035 C 
HETATM   15  C21 UNL     1      20.855 -36.075  -2.315  1.00  0.00     0.118 C 
HETATM   16  C22 UNL     1      22.164 -36.055  -3.089  1.00  0.00     0.035 C 
HETATM   17  C23 UNL     1      21.974 -36.793  -4.388  1.00  0.00     0.047 C 
ENDROOT
BRANCH   1  18
HETATM   18  C10 UNL     1      23.303 -35.052  -6.149  1.00  0.00     0.217 C 
BRANCH  18  19
HETATM   19  O2  UNL     1      24.041 -33.986  -6.647  1.00  0.00    -0.315 OA
BRANCH  19  20
HETATM   20  C9  UNL     1      25.232 -34.016  -7.328  1.00  0.00     0.282 C 
HETATM   21  O1  UNL     1      26.148 -33.266  -6.902  1.00  0.00    -0.260 OA
BRANCH  20  22
HETATM   22  C8  UNL     1      25.482 -34.854  -8.494  1.00  0.00     0.083 C 
HETATM   23  C7  UNL     1      25.969 -36.078  -8.394  1.00  0.00     0.019 C 
BRANCH  23  24
HETATM   24  C6  UNL     1      26.203 -36.877  -9.578  1.00  0.00    -0.012 A 
HETATM   25  C5  UNL     1      27.417 -37.195 -10.152  1.00  0.00     0.038 A 
HETATM   26  C3  UNL     1      27.201 -37.986 -11.283  1.00  0.00     0.008 A 
HETATM   27  N1  UNL     1      25.869 -38.142 -11.388  1.00  0.00    -0.354 N 
HETATM   28  C4  UNL     1      28.292 -38.496 -12.124  1.00  0.00     0.068 C 
HETATM   29  C24 UNL     1      25.259 -37.490 -10.384  1.00  0.00     0.018 A 
HETATM   30  C25 UNL     1      23.770 -37.442 -10.179  1.00  0.00     0.069 C 
BRANCH  27  31
HETATM   31  C2  UNL     1      25.232 -38.904 -12.440  1.00  0.00     0.124 C 
HETATM   32  C1  UNL     1      24.683 -40.218 -11.951  1.00  0.00     0.027 C 
ENDBRANCH  27  31
ENDBRANCH  23  24
ENDBRANCH  20  22
ENDBRANCH  19  20
ENDBRANCH  18  19
ENDBRANCH   1  18
BRANCH  15  33
HETATM   33  O7  UNL     1      20.873 -37.044  -1.311  1.00  0.00    -0.396 OA
ATOM     34  H7  UNL     1      20.256 -37.748  -1.467  1.00  0.00     0.210 HD
ENDBRANCH  15  33
TORSDOF 7
ENDMDL
MODEL 3
REMARK VINA RESULT: -8.192731021      3.008      4.876
REMARK  7 active torsions:
REMARK  status: ('A' for Active; 'I' for Inactive)
REMARK    1  A    between atoms: C2_2  and  N1_3 
REMARK    2  A    between atoms: C6_7  and  C7_8 
REMARK    3  A    between atoms: C8_9  and  C9_10 
REMARK    4  A    between atoms: C9_10  and  O2_12 
REMARK    5  A    between atoms: O2_12  and  C10_13 
REMARK    6  A    between atoms: C10_13  and  C11_14 
REMARK    7  A    between atoms: C21_28  and  O7_29 
ROOT
HETATM    1  C11 UNL     1      20.514 -37.691  -9.638  1.00  0.00     0.222 C 
HETATM    2  O3  UNL     1      21.416 -37.939  -8.608  1.00  0.00    -0.227 OA
HETATM    3  O4  UNL     1      21.075 -37.404  -7.457  1.00  0.00    -0.197 OA
HETATM    4  C12 UNL     1      21.813 -36.208  -7.386  1.00  0.00     0.229 C 
HETATM    5  C13 UNL     1      21.385 -35.334  -6.260  1.00  0.00     0.074 C 
HETATM    6  C14 UNL     1      22.093 -35.596  -4.969  1.00  0.00     0.006 C 
HETATM    7  C15 UNL     1      23.548 -35.227  -5.144  1.00  0.00     0.000 C 
HETATM    8  C16 UNL     1      24.035 -35.421  -6.541  1.00  0.00     0.006 C 
HETATM    9  C17 UNL     1      23.270 -36.485  -7.295  1.00  0.00     0.074 C 
HETATM   10  O5  UNL     1      21.456 -35.542  -8.584  1.00  0.00    -0.197 OA
HETATM   11  O6  UNL     1      20.147 -35.541  -8.571  1.00  0.00    -0.224 OA
HETATM   12  C18 UNL     1      19.563 -36.599  -9.262  1.00  0.00     0.127 C 
HETATM   13  C19 UNL     1      18.450 -37.240  -8.427  1.00  0.00     0.047 C 
HETATM   14  C20 UNL     1      17.100 -36.637  -8.693  1.00  0.00     0.035 C 
HETATM   15  C21 UNL     1      16.642 -36.982 -10.068  1.00  0.00     0.118 C 
HETATM   16  C22 UNL     1      17.827 -36.895 -11.018  1.00  0.00     0.035 C 
HETATM   17  C23 UNL     1      18.853 -35.960 -10.434  1.00  0.00     0.047 C 
ENDROOT
BRANCH   1  18
HETATM   18  C10 UNL     1      21.201 -37.419 -10.941  1.00  0.00     0.217 C 
BRANCH  18  19
HETATM   19  O2  UNL     1      21.589 -38.535 -11.670  1.00  0.00    -0.315 OA
BRANCH  19  20
HETATM   20  C9  UNL     1      22.771 -39.230 -11.605  1.00  0.00     0.282 C 
HETATM   21  O1  UNL     1      22.688 -40.485 -11.560  1.00  0.00    -0.260 OA
BRANCH  20  22
HETATM   22  C8  UNL     1      24.085 -38.602 -11.588  1.00  0.00     0.083 C 
HETATM   23  C7  UNL     1      24.496 -37.848 -10.584  1.00  0.00     0.019 C 
BRANCH  23  24
HETATM   24  C6  UNL     1      25.811 -37.243 -10.606  1.00  0.00    -0.012 A 
HETATM   25  C5  UNL     1      27.011 -37.853 -10.908  1.00  0.00     0.038 A 
HETATM   26  C3  UNL     1      28.043 -36.915 -10.815  1.00  0.00     0.008 A 
HETATM   27  N1  UNL     1      27.466 -35.752 -10.461  1.00  0.00    -0.354 N 
HETATM   28  C4  UNL     1      29.451 -37.244 -11.074  1.00  0.00     0.068 C 
HETATM   29  C24 UNL     1      26.141 -35.927 -10.333  1.00  0.00     0.018 A 
HETATM   30  C25 UNL     1      25.170 -34.845  -9.948  1.00  0.00     0.069 C 
BRANCH  27  31
HETATM   31  C2  UNL     1      28.202 -34.522 -10.260  1.00  0.00     0.124 C 
HETATM   32  C1  UNL     1      28.048 -33.978  -8.866  1.00  0.00     0.027 C 
ENDBRANCH  27  31
ENDBRANCH  23  24
ENDBRANCH  20  22
ENDBRANCH  19  20
ENDBRANCH  18  19
ENDBRANCH   1  18
BRANCH  15  33
HETATM   33  O7  UNL     1      15.584 -36.183 -10.502  1.00  0.00    -0.396 OA
ATOM     34  H7  UNL     1      15.471 -36.201 -11.445  1.00  0.00     0.210 HD
ENDBRANCH  15  33
TORSDOF 7
ENDMDL
MODEL 4
REMARK VINA RESULT: -8.102287892      2.391      4.509
REMARK  7 active torsions:
REMARK  status: ('A' for Active; 'I' for Inactive)
REMARK    1  A    between atoms: C2_2  and  N1_3 
REMARK    2  A    between atoms: C6_7  and  C7_8 
REMARK    3  A    between atoms: C8_9  and  C9_10 
REMARK    4  A    between atoms: C9_10  and  O2_12 
REMARK    5  A    between atoms: O2_12  and  C10_13 
REMARK    6  A    between atoms: C10_13  and  C11_14 
REMARK    7  A    between atoms: C21_28  and  O7_29 
ROOT
HETATM    1  C11 UNL     1      20.169 -34.970  -6.190  1.00  0.00     0.222 C 
HETATM    2  O3  UNL     1      19.415 -33.806  -6.302  1.00  0.00    -0.227 OA
HETATM    3  O4  UNL     1      19.486 -33.018  -5.254  1.00  0.00    -0.197 OA
HETATM    4  C12 UNL     1      18.333 -33.313  -4.504  1.00  0.00     0.229 C 
HETATM    5  C13 UNL     1      18.351 -32.692  -3.151  1.00  0.00     0.074 C 
HETATM    6  C14 UNL     1      17.773 -31.314  -3.095  1.00  0.00     0.006 C 
HETATM    7  C15 UNL     1      16.296 -31.407  -3.400  1.00  0.00     0.000 C 
HETATM    8  C16 UNL     1      15.961 -32.532  -4.322  1.00  0.00     0.006 C 
HETATM    9  C17 UNL     1      17.104 -32.913  -5.236  1.00  0.00     0.074 C 
HETATM   10  O5  UNL     1      18.426 -34.714  -4.316  1.00  0.00    -0.197 OA
HETATM   11  O6  UNL     1      19.627 -34.891  -3.824  1.00  0.00    -0.224 OA
HETATM   12  C18 UNL     1      20.600 -35.191  -4.774  1.00  0.00     0.127 C 
HETATM   13  C19 UNL     1      21.854 -34.341  -4.548  1.00  0.00     0.047 C 
HETATM   14  C20 UNL     1      22.860 -35.014  -3.657  1.00  0.00     0.035 C 
HETATM   15  C21 UNL     1      23.451 -36.196  -4.345  1.00  0.00     0.118 C 
HETATM   16  C22 UNL     1      22.353 -36.922  -5.107  1.00  0.00     0.035 C 
HETATM   17  C23 UNL     1      21.027 -36.608  -4.467  1.00  0.00     0.047 C 
ENDROOT
BRANCH   1  18
HETATM   18  C10 UNL     1      19.463 -36.162  -6.760  1.00  0.00     0.217 C 
BRANCH  18  19
HETATM   19  O2  UNL     1      19.925 -36.614  -7.989  1.00  0.00    -0.315 OA
BRANCH  19  20
HETATM   20  C9  UNL     1      20.477 -35.887  -9.014  1.00  0.00     0.282 C 
HETATM   21  O1  UNL     1      19.693 -35.163  -9.681  1.00  0.00    -0.260 OA
BRANCH  20  22
HETATM   22  C8  UNL     1      21.891 -35.913  -9.361  1.00  0.00     0.083 C 
HETATM   23  C7  UNL     1      22.828 -36.243  -8.490  1.00  0.00     0.019 C 
BRANCH  23  24
HETATM   24  C6  UNL     1      24.223 -36.255  -8.877  1.00  0.00    -0.012 A 
HETATM   25  C5  UNL     1      24.819 -37.038  -9.844  1.00  0.00     0.038 A 
HETATM   26  C3  UNL     1      26.184 -36.740  -9.904  1.00  0.00     0.008 A 
HETATM   27  N1  UNL     1      26.404 -35.787  -8.981  1.00  0.00    -0.354 N 
HETATM   28  C4  UNL     1      27.108 -37.402 -10.834  1.00  0.00     0.068 C 
HETATM   29  C24 UNL     1      25.251 -35.486  -8.360  1.00  0.00     0.018 A 
HETATM   30  C25 UNL     1      25.112 -34.462  -7.268  1.00  0.00     0.069 C 
BRANCH  27  31
HETATM   31  C2  UNL     1      27.703 -35.203  -8.727  1.00  0.00     0.124 C 
HETATM   32  C1  UNL     1      27.978 -34.006  -9.597  1.00  0.00     0.027 C 
ENDBRANCH  27  31
ENDBRANCH  23  24
ENDBRANCH  20  22
ENDBRANCH  19  20
ENDBRANCH  18  19
ENDBRANCH   1  18
BRANCH  15  33
HETATM   33  O7  UNL     1      24.117 -37.054  -3.470  1.00  0.00    -0.396 OA
ATOM     34  H7  UNL     1      24.645 -37.703  -3.920  1.00  0.00     0.210 HD
ENDBRANCH  15  33
TORSDOF 7
ENDMDL
MODEL 5
REMARK VINA RESULT: -8.070499460      3.677      6.220
REMARK  7 active torsions:
REMARK  status: ('A' for Active; 'I' for Inactive)
REMARK    1  A    between atoms: C2_2  and  N1_3 
REMARK    2  A    between atoms: C6_7  and  C7_8 
REMARK    3  A    between atoms: C8_9  and  C9_10 
REMARK    4  A    between atoms: C9_10  and  O2_12 
REMARK    5  A    between atoms: O2_12  and  C10_13 
REMARK    6  A    between atoms: C10_13  and  C11_14 
REMARK    7  A    between atoms: C21_28  and  O7_29 
ROOT
HETATM    1  C11 UNL     1      19.629 -38.233  -9.691  1.00  0.00     0.222 C 
HETATM    2  O3  UNL     1      19.383 -39.526  -9.239  1.00  0.00    -0.227 OA
HETATM    3  O4  UNL     1      19.436 -39.656  -7.933  1.00  0.00    -0.197 OA
HETATM    4  C12 UNL     1      20.726 -40.155  -7.674  1.00  0.00     0.229 C 
HETATM    5  C13 UNL     1      21.067 -40.145  -6.226  1.00  0.00     0.074 C 
HETATM    6  C14 UNL     1      20.674 -41.385  -5.489  1.00  0.00     0.006 C 
HETATM    7  C15 UNL     1      21.502 -42.533  -6.018  1.00  0.00     0.000 C 
HETATM    8  C16 UNL     1      21.874 -42.369  -7.454  1.00  0.00     0.006 C 
HETATM    9  C17 UNL     1      20.891 -41.522  -8.231  1.00  0.00     0.074 C 
HETATM   10  O5  UNL     1      21.566 -39.203  -8.303  1.00  0.00    -0.197 OA
HETATM   11  O6  UNL     1      21.166 -38.054  -7.818  1.00  0.00    -0.224 OA
HETATM   12  C18 UNL     1      20.225 -37.394  -8.604  1.00  0.00     0.127 C 
HETATM   13  C19 UNL     1      19.065 -36.884  -7.743  1.00  0.00     0.047 C 
HETATM   14  C20 UNL     1      19.280 -35.482  -7.248  1.00  0.00     0.035 C 
HETATM   15  C21 UNL     1      19.221 -34.518  -8.382  1.00  0.00     0.118 C 
HETATM   16  C22 UNL     1      19.932 -35.126  -9.582  1.00  0.00     0.035 C 
HETATM   17  C23 UNL     1      20.926 -36.147  -9.094  1.00  0.00     0.047 C 
ENDROOT
BRANCH   1  18
HETATM   18  C10 UNL     1      20.459 -38.216 -10.938  1.00  0.00     0.217 C 
BRANCH  18  19
HETATM   19  O2  UNL     1      20.671 -39.446 -11.546  1.00  0.00    -0.315 OA
BRANCH  19  20
HETATM   20  C9  UNL     1      21.858 -40.101 -11.759  1.00  0.00     0.282 C 
HETATM   21  O1  UNL     1      21.801 -41.184 -12.398  1.00  0.00    -0.260 OA
BRANCH  20  22
HETATM   22  C8  UNL     1      23.150 -39.617 -11.292  1.00  0.00     0.083 C 
HETATM   23  C7  UNL     1      23.824 -38.674 -11.927  1.00  0.00     0.019 C 
BRANCH  23  24
HETATM   24  C6  UNL     1      25.105 -38.222 -11.428  1.00  0.00    -0.012 A 
HETATM   25  C5  UNL     1      26.356 -38.521 -11.929  1.00  0.00     0.038 A 
HETATM   26  C3  UNL     1      27.329 -37.882 -11.157  1.00  0.00     0.008 A 
HETATM   27  N1  UNL     1      26.669 -37.204 -10.201  1.00  0.00    -0.354 N 
HETATM   28  C4  UNL     1      28.769 -37.997 -11.427  1.00  0.00     0.068 C 
HETATM   29  C24 UNL     1      25.347 -37.394 -10.346  1.00  0.00     0.018 A 
HETATM   30  C25 UNL     1      24.296 -36.789  -9.456  1.00  0.00     0.069 C 
BRANCH  27  31
HETATM   31  C2  UNL     1      27.324 -36.404  -9.189  1.00  0.00     0.124 C 
HETATM   32  C1  UNL     1      27.603 -35.000  -9.653  1.00  0.00     0.027 C 
ENDBRANCH  27  31
ENDBRANCH  23  24
ENDBRANCH  20  22
ENDBRANCH  19  20
ENDBRANCH  18  19
ENDBRANCH   1  18
BRANCH  15  33
HETATM   33  O7  UNL     1      19.749 -33.268  -8.058  1.00  0.00    -0.396 OA
ATOM     34  H7  UNL     1      19.810 -32.688  -8.808  1.00  0.00     0.210 HD
ENDBRANCH  15  33
TORSDOF 7
ENDMDL
