MODEL 1
REMARK VINA RESULT: -7.999569068      0.000      0.000
REMARK  6 active torsions:
REMARK  status: ('A' for Active; 'I' for Inactive)
REMARK    1  A    between atoms: C2_2  and  O1_4 
REMARK    2  A    between atoms: O1_4  and  C4_5 
REMARK    3  A    between atoms: C4_5  and  C5_6 
REMARK    4  A    between atoms: N1_8  and  C7_9 
REMARK    5  A    between atoms: C8_13  and  C9_14 
REMARK    6  A    between atoms: C13_18  and  C14_19 
ROOT
HETATM    1  C7  UNL     1      24.762 -37.882 -11.088  1.00  0.00     0.181 A 
HETATM    2  O2  UNL     1      25.203 -38.763 -11.953  1.00  0.00    -0.219 OA
HETATM    3  N2  UNL     1      24.337 -39.703 -12.147  1.00  0.00    -0.262 N 
ATOM      4  H2  UNL     1      24.458 -40.498 -12.776  1.00  0.00     0.194 HD
HETATM    5  C8  UNL     1      23.233 -39.464 -11.378  1.00  0.00     0.055 A 
HETATM    6  C13 UNL     1      23.490 -38.300 -10.693  1.00  0.00     0.054 A 
ENDROOT
BRANCH   6   7
HETATM    7  C14 UNL     1      22.606 -37.641  -9.739  1.00  0.00    -0.004 A 
HETATM    8  C15 UNL     1      22.747 -37.839  -8.372  1.00  0.00     0.102 A 
HETATM    9  N3  UNL     1      21.929 -37.223  -7.486  1.00  0.00    -0.351 N 
HETATM   10  C16 UNL     1      20.939 -36.391  -7.859  1.00  0.00     0.110 A 
ATOM     11  H3  UNL     1      22.069 -37.399  -6.491  1.00  0.00     0.166 HD
HETATM   12  C17 UNL     1      20.771 -36.172  -9.215  1.00  0.00    -0.013 A 
HETATM   13  N4  UNL     1      20.089 -35.756  -6.908  1.00  0.00    -0.358 N 
HETATM   14  C18 UNL     1      21.590 -36.788 -10.117  1.00  0.00     0.024 A 
HETATM   15  C19 UNL     1      19.673 -35.249  -9.636  1.00  0.00     0.044 C 
HETATM   16  C20 UNL     1      19.586 -34.146  -8.606  1.00  0.00     0.032 C 
HETATM   17  C21 UNL     1      19.087 -34.796  -7.323  1.00  0.00     0.110 C 
HETATM   18  C22 UNL     1      18.988 -33.750  -6.258  1.00  0.00     0.193 C 
HETATM   19  O3  UNL     1      18.640 -34.259  -5.030  1.00  0.00    -0.388 OA
HETATM   20  C23 UNL     1      18.903 -35.595  -4.850  1.00  0.00     0.187 C 
HETATM   21  C24 UNL     1      20.196 -36.049  -5.495  1.00  0.00     0.151 C 
ENDBRANCH   6   7
BRANCH   1  22
HETATM   22  N1  UNL     1      25.463 -36.737 -10.658  1.00  0.00    -0.358 N 
HETATM   23  C6  UNL     1      24.944 -35.662  -9.837  1.00  0.00     0.132 C 
HETATM   24  C5  UNL     1      26.154 -34.996  -9.217  1.00  0.00     0.033 C 
HETATM   25  C26 UNL     1      27.292 -35.860  -9.627  1.00  0.00     0.007 C 
HETATM   26  C25 UNL     1      26.849 -36.430 -10.959  1.00  0.00     0.129 C 
HETATM   27  C27 UNL     1      27.521 -37.009  -8.669  1.00  0.00     0.012 C 
BRANCH  24  28
HETATM   28  C4  UNL     1      26.002 -34.883  -7.717  1.00  0.00     0.174 C 
BRANCH  28  29
HETATM   29  O1  UNL     1      24.807 -35.296  -7.216  1.00  0.00    -0.386 OA
BRANCH  29  30
HETATM   30  C2  UNL     1      24.328 -34.631  -6.117  1.00  0.00     0.113 C 
HETATM   31  C1  UNL     1      23.066 -33.826  -6.454  1.00  0.00     0.039 C 
HETATM   32  C3  UNL     1      23.887 -35.652  -5.091  1.00  0.00     0.039 C 
ENDBRANCH  29  30
ENDBRANCH  28  29
ENDBRANCH  24  28
ENDBRANCH   1  22
BRANCH   5  33
HETATM   33  C9  UNL     1      22.026 -40.316 -11.323  1.00  0.00    -0.006 C 
HETATM   34  C10 UNL     1      22.334 -41.584 -12.140  1.00  0.00     0.021 C 
HETATM   35  C11 UNL     1      20.813 -39.682 -11.945  1.00  0.00     0.021 C 
HETATM   36  C12 UNL     1      21.737 -40.778  -9.905  1.00  0.00     0.021 C 
ENDBRANCH   5  33
TORSDOF 6
ENDMDL
MODEL 2
REMARK VINA RESULT: -7.861935773      2.020      7.451
REMARK  6 active torsions:
REMARK  status: ('A' for Active; 'I' for Inactive)
REMARK    1  A    between atoms: C2_2  and  O1_4 
REMARK    2  A    between atoms: O1_4  and  C4_5 
REMARK    3  A    between atoms: C4_5  and  C5_6 
REMARK    4  A    between atoms: N1_8  and  C7_9 
REMARK    5  A    between atoms: C8_13  and  C9_14 
REMARK    6  A    between atoms: C13_18  and  C14_19 
ROOT
HETATM    1  C7  UNL     1      20.226 -35.770  -7.316  1.00  0.00     0.181 A 
HETATM    2  O2  UNL     1      19.357 -35.741  -6.334  1.00  0.00    -0.219 OA
HETATM    3  N2  UNL     1      19.945 -35.814  -5.187  1.00  0.00    -0.262 N 
ATOM      4  H2  UNL     1      19.476 -35.810  -4.280  1.00  0.00     0.194 HD
HETATM    5  C8  UNL     1      21.296 -35.896  -5.378  1.00  0.00     0.055 A 
HETATM    6  C13 UNL     1      21.492 -35.869  -6.738  1.00  0.00     0.054 A 
ENDROOT
BRANCH   6   7
HETATM    7  C14 UNL     1      22.772 -35.938  -7.432  1.00  0.00    -0.004 A 
HETATM    8  C15 UNL     1      23.121 -37.047  -8.190  1.00  0.00     0.102 A 
HETATM    9  N3  UNL     1      24.308 -37.109  -8.839  1.00  0.00    -0.351 N 
HETATM   10  C16 UNL     1      25.218 -36.117  -8.796  1.00  0.00     0.110 A 
ATOM     11  H3  UNL     1      24.522 -37.944  -9.384  1.00  0.00     0.166 HD
HETATM   12  C17 UNL     1      24.902 -34.997  -8.049  1.00  0.00    -0.013 A 
HETATM   13  N4  UNL     1      26.462 -36.206  -9.485  1.00  0.00    -0.358 N 
HETATM   14  C18 UNL     1      23.707 -34.925  -7.390  1.00  0.00     0.024 A 
HETATM   15  C19 UNL     1      25.908 -33.893  -7.997  1.00  0.00     0.044 C 
HETATM   16  C20 UNL     1      26.572 -33.819  -9.353  1.00  0.00     0.032 C 
HETATM   17  C21 UNL     1      27.390 -35.094  -9.501  1.00  0.00     0.110 C 
HETATM   18  C22 UNL     1      28.067 -35.082 -10.834  1.00  0.00     0.193 C 
HETATM   19  O3  UNL     1      28.753 -36.243 -11.103  1.00  0.00    -0.388 OA
HETATM   20  C23 UNL     1      28.341 -37.347 -10.398  1.00  0.00     0.187 C 
HETATM   21  C24 UNL     1      26.842 -37.410 -10.194  1.00  0.00     0.151 C 
ENDBRANCH   6   7
BRANCH   1  22
HETATM   22  N1  UNL     1      19.910 -35.709  -8.689  1.00  0.00    -0.358 N 
HETATM   23  C6  UNL     1      20.834 -35.848  -9.796  1.00  0.00     0.132 C 
HETATM   24  C5  UNL     1      19.991 -36.249 -10.989  1.00  0.00     0.033 C 
HETATM   25  C26 UNL     1      18.635 -36.459 -10.418  1.00  0.00     0.007 C 
HETATM   26  C25 UNL     1      18.586 -35.501  -9.246  1.00  0.00     0.129 C 
HETATM   27  C27 UNL     1      18.438 -37.866  -9.894  1.00  0.00     0.012 C 
BRANCH  24  28
HETATM   28  C4  UNL     1      20.552 -37.483 -11.658  1.00  0.00     0.174 C 
BRANCH  28  29
HETATM   29  O1  UNL     1      21.826 -37.813 -11.310  1.00  0.00    -0.386 OA
BRANCH  29  30
HETATM   30  C2  UNL     1      22.215 -39.110 -11.522  1.00  0.00     0.113 C 
HETATM   31  C1  UNL     1      23.741 -39.228 -11.624  1.00  0.00     0.039 C 
HETATM   32  C3  UNL     1      21.832 -39.930 -10.309  1.00  0.00     0.039 C 
ENDBRANCH  29  30
ENDBRANCH  28  29
ENDBRANCH  24  28
ENDBRANCH   1  22
BRANCH   5  33
HETATM   33  C9  UNL     1      22.309 -35.995  -4.305  1.00  0.00    -0.006 C 
HETATM   34  C10 UNL     1      21.545 -36.193  -2.982  1.00  0.00     0.021 C 
HETATM   35  C11 UNL     1      23.140 -34.753  -4.145  1.00  0.00     0.021 C 
HETATM   36  C12 UNL     1      23.186 -37.223  -4.481  1.00  0.00     0.021 C 
ENDBRANCH   5  33
TORSDOF 6
ENDMDL
MODEL 3
REMARK VINA RESULT: -7.844418891      2.272      5.921
REMARK  6 active torsions:
REMARK  status: ('A' for Active; 'I' for Inactive)
REMARK    1  A    between atoms: C2_2  and  O1_4 
REMARK    2  A    between atoms: O1_4  and  C4_5 
REMARK    3  A    between atoms: C4_5  and  C5_6 
REMARK    4  A    between atoms: N1_8  and  C7_9 
REMARK    5  A    between atoms: C8_13  and  C9_14 
REMARK    6  A    between atoms: C13_18  and  C14_19 
ROOT
HETATM    1  C7  UNL     1      24.563 -34.115  -7.219  1.00  0.00     0.181 A 
HETATM    2  O2  UNL     1      24.742 -33.430  -6.116  1.00  0.00    -0.219 OA
HETATM    3  N2  UNL     1      23.801 -33.663  -5.262  1.00  0.00    -0.262 N 
ATOM      4  H2  UNL     1      23.727 -33.244  -4.335  1.00  0.00     0.194 HD
HETATM    5  C8  UNL     1      22.919 -34.559  -5.798  1.00  0.00     0.055 A 
HETATM    6  C13 UNL     1      23.394 -34.859  -7.052  1.00  0.00     0.054 A 
ENDROOT
BRANCH   6   7
HETATM    7  C14 UNL     1      22.788 -35.771  -8.015  1.00  0.00    -0.004 A 
HETATM    8  C15 UNL     1      23.246 -37.073  -8.160  1.00  0.00     0.102 A 
HETATM    9  N3  UNL     1      22.679 -37.922  -9.050  1.00  0.00    -0.351 N 
HETATM   10  C16 UNL     1      21.650 -37.570  -9.844  1.00  0.00     0.110 A 
ATOM     11  H3  UNL     1      23.049 -38.870  -9.123  1.00  0.00     0.166 HD
HETATM   12  C17 UNL     1      21.170 -36.277  -9.725  1.00  0.00    -0.013 A 
HETATM   13  N4  UNL     1      21.072 -38.479 -10.776  1.00  0.00    -0.358 N 
HETATM   14  C18 UNL     1      21.735 -35.414  -8.831  1.00  0.00     0.024 A 
HETATM   15  C19 UNL     1      20.028 -35.880 -10.604  1.00  0.00     0.044 C 
HETATM   16  C20 UNL     1      19.127 -37.085 -10.751  1.00  0.00     0.032 C 
HETATM   17  C21 UNL     1      19.910 -38.111 -11.558  1.00  0.00     0.110 C 
HETATM   18  C22 UNL     1      19.068 -39.335 -11.730  1.00  0.00     0.193 C 
HETATM   19  O3  UNL     1      19.728 -40.362 -12.363  1.00  0.00    -0.388 OA
HETATM   20  C23 UNL     1      21.099 -40.306 -12.301  1.00  0.00     0.187 C 
HETATM   21  C24 UNL     1      21.625 -39.801 -10.974  1.00  0.00     0.151 C 
ENDBRANCH   6   7
BRANCH   1  22
HETATM   22  N1  UNL     1      25.410 -34.086  -8.346  1.00  0.00    -0.358 N 
HETATM   23  C6  UNL     1      26.858 -34.038  -8.339  1.00  0.00     0.132 C 
HETATM   24  C5  UNL     1      27.295 -34.561  -9.691  1.00  0.00     0.033 C 
HETATM   25  C26 UNL     1      26.031 -35.019 -10.326  1.00  0.00     0.007 C 
HETATM   26  C25 UNL     1      24.979 -34.107  -9.732  1.00  0.00     0.129 C 
HETATM   27  C27 UNL     1      25.686 -36.448  -9.964  1.00  0.00     0.012 C 
BRANCH  24  28
HETATM   28  C4  UNL     1      28.319 -35.662  -9.542  1.00  0.00     0.174 C 
BRANCH  28  29
HETATM   29  O1  UNL     1      28.828 -36.153 -10.704  1.00  0.00    -0.386 OA
BRANCH  29  30
HETATM   30  C2  UNL     1      29.129 -37.489 -10.739  1.00  0.00     0.113 C 
HETATM   31  C1  UNL     1      28.853 -38.162  -9.388  1.00  0.00     0.039 C 
HETATM   32  C3  UNL     1      28.195 -38.166 -11.719  1.00  0.00     0.039 C 
ENDBRANCH  29  30
ENDBRANCH  28  29
ENDBRANCH  24  28
ENDBRANCH   1  22
BRANCH   5  33
HETATM   33  C9  UNL     1      21.708 -35.075  -5.126  1.00  0.00    -0.006 C 
HETATM   34  C10 UNL     1      21.763 -34.592  -3.665  1.00  0.00     0.021 C 
HETATM   35  C11 UNL     1      21.635 -36.576  -5.085  1.00  0.00     0.021 C 
HETATM   36  C12 UNL     1      20.444 -34.482  -5.727  1.00  0.00     0.021 C 
ENDBRANCH   5  33
TORSDOF 6
ENDMDL
MODEL 4
REMARK VINA RESULT: -7.822947088      1.708      2.237
REMARK  6 active torsions:
REMARK  status: ('A' for Active; 'I' for Inactive)
REMARK    1  A    between atoms: C2_2  and  O1_4 
REMARK    2  A    between atoms: O1_4  and  C4_5 
REMARK    3  A    between atoms: C4_5  and  C5_6 
REMARK    4  A    between atoms: N1_8  and  C7_9 
REMARK    5  A    between atoms: C8_13  and  C9_14 
REMARK    6  A    between atoms: C13_18  and  C14_19 
ROOT
HETATM    1  C7  UNL     1      24.328 -39.500 -11.690  1.00  0.00     0.181 A 
HETATM    2  O2  UNL     1      24.756 -40.516 -12.400  1.00  0.00    -0.219 OA
HETATM    3  N2  UNL     1      23.894 -41.478 -12.409  1.00  0.00    -0.262 N 
ATOM      4  H2  UNL     1      24.006 -42.369 -12.893  1.00  0.00     0.194 HD
HETATM    5  C8  UNL     1      22.805 -41.113 -11.667  1.00  0.00     0.055 A 
HETATM    6  C13 UNL     1      23.068 -39.847 -11.200  1.00  0.00     0.054 A 
ENDROOT
BRANCH   6   7
HETATM    7  C14 UNL     1      22.200 -39.037 -10.354  1.00  0.00    -0.004 A 
HETATM    8  C15 UNL     1      22.028 -39.332  -9.008  1.00  0.00     0.102 A 
HETATM    9  N3  UNL     1      21.226 -38.576  -8.221  1.00  0.00    -0.351 N 
HETATM   10  C16 UNL     1      20.551 -37.504  -8.678  1.00  0.00     0.110 A 
ATOM     11  H3  UNL     1      21.128 -38.831  -7.238  1.00  0.00     0.166 HD
HETATM   12  C17 UNL     1      20.701 -37.183 -10.016  1.00  0.00    -0.013 A 
HETATM   13  N4  UNL     1      19.711 -36.726  -7.831  1.00  0.00    -0.358 N 
HETATM   14  C18 UNL     1      21.507 -37.939 -10.818  1.00  0.00     0.024 A 
HETATM   15  C19 UNL     1      19.955 -35.994 -10.529  1.00  0.00     0.044 C 
HETATM   16  C20 UNL     1      19.937 -34.958  -9.429  1.00  0.00     0.032 C 
HETATM   17  C21 UNL     1      19.063 -35.525  -8.319  1.00  0.00     0.110 C 
HETATM   18  C22 UNL     1      19.015 -34.543  -7.192  1.00  0.00     0.193 C 
HETATM   19  O3  UNL     1      18.328 -35.009  -6.096  1.00  0.00    -0.388 OA
HETATM   20  C23 UNL     1      18.227 -36.375  -6.003  1.00  0.00     0.187 C 
HETATM   21  C24 UNL     1      19.474 -37.107  -6.455  1.00  0.00     0.151 C 
ENDBRANCH   6   7
BRANCH   1  22
HETATM   22  N1  UNL     1      25.030 -38.296 -11.480  1.00  0.00    -0.358 N 
HETATM   23  C6  UNL     1      25.063 -37.515 -10.260  1.00  0.00     0.132 C 
HETATM   24  C5  UNL     1      26.319 -36.673 -10.343  1.00  0.00     0.033 C 
HETATM   25  C26 UNL     1      27.001 -37.163 -11.570  1.00  0.00     0.007 C 
HETATM   26  C25 UNL     1      25.862 -37.618 -12.458  1.00  0.00     0.129 C 
HETATM   27  C27 UNL     1      27.900 -38.350 -11.298  1.00  0.00     0.012 C 
BRANCH  24  28
HETATM   28  C4  UNL     1      27.158 -36.825  -9.095  1.00  0.00     0.174 C 
BRANCH  28  29
HETATM   29  O1  UNL     1      27.524 -35.664  -8.488  1.00  0.00    -0.386 OA
BRANCH  29  30
HETATM   30  C2  UNL     1      26.969 -34.507  -8.969  1.00  0.00     0.113 C 
HETATM   31  C1  UNL     1      26.235 -33.735  -7.864  1.00  0.00     0.039 C 
HETATM   32  C3  UNL     1      28.085 -33.590  -9.420  1.00  0.00     0.039 C 
ENDBRANCH  29  30
ENDBRANCH  28  29
ENDBRANCH  24  28
ENDBRANCH   1  22
BRANCH   5  33
HETATM   33  C9  UNL     1      21.606 -41.947 -11.439  1.00  0.00    -0.006 C 
HETATM   34  C10 UNL     1      21.680 -43.122 -12.430  1.00  0.00     0.021 C 
HETATM   35  C11 UNL     1      20.313 -41.229 -11.711  1.00  0.00     0.021 C 
HETATM   36  C12 UNL     1      21.611 -42.557 -10.047  1.00  0.00     0.021 C 
ENDBRANCH   5  33
TORSDOF 6
ENDMDL
MODEL 5
REMARK VINA RESULT: -7.693613955      1.959      4.977
REMARK  6 active torsions:
REMARK  status: ('A' for Active; 'I' for Inactive)
REMARK    1  A    between atoms: C2_2  and  O1_4 
REMARK    2  A    between atoms: O1_4  and  C4_5 
REMARK    3  A    between atoms: C4_5  and  C5_6 
REMARK    4  A    between atoms: N1_8  and  C7_9 
REMARK    5  A    between atoms: C8_13  and  C9_14 
REMARK    6  A    between atoms: C13_18  and  C14_19 
ROOT
HETATM    1  C7  UNL     1      23.559 -38.188 -10.630  1.00  0.00     0.181 A 
HETATM    2  O2  UNL     1      24.473 -38.509 -11.513  1.00  0.00    -0.219 OA
HETATM    3  N2  UNL     1      25.537 -37.791 -11.369  1.00  0.00    -0.262 N 
ATOM      4  H2  UNL     1      26.379 -37.860 -11.941  1.00  0.00     0.194 HD
HETATM    5  C8  UNL     1      25.355 -36.923 -10.329  1.00  0.00     0.055 A 
HETATM    6  C13 UNL     1      24.092 -37.165  -9.845  1.00  0.00     0.054 A 
ENDROOT
BRANCH   6   7
HETATM    7  C14 UNL     1      23.443 -36.480  -8.734  1.00  0.00    -0.004 A 
HETATM    8  C15 UNL     1      22.269 -35.762  -8.918  1.00  0.00     0.102 A 
HETATM    9  N3  UNL     1      21.663 -35.130  -7.886  1.00  0.00    -0.351 N 
HETATM   10  C16 UNL     1      22.145 -35.153  -6.629  1.00  0.00     0.110 A 
ATOM     11  H3  UNL     1      20.802 -34.614  -8.068  1.00  0.00     0.166 HD
HETATM   12  C17 UNL     1      23.315 -35.860  -6.410  1.00  0.00    -0.013 A 
HETATM   13  N4  UNL     1      21.491 -34.478  -5.558  1.00  0.00    -0.358 N 
HETATM   14  C18 UNL     1      23.934 -36.500  -7.445  1.00  0.00     0.024 A 
HETATM   15  C19 UNL     1      23.856 -35.889  -5.017  1.00  0.00     0.044 C 
HETATM   16  C20 UNL     1      22.677 -35.932  -4.072  1.00  0.00     0.032 C 
HETATM   17  C21 UNL     1      21.976 -34.587  -4.197  1.00  0.00     0.110 C 
HETATM   18  C22 UNL     1      20.789 -34.573  -3.287  1.00  0.00     0.193 C 
HETATM   19  O3  UNL     1      20.031 -33.432  -3.404  1.00  0.00    -0.388 OA
HETATM   20  C23 UNL     1      20.168 -32.753  -4.589  1.00  0.00     0.187 C 
HETATM   21  C24 UNL     1      20.320 -33.660  -5.792  1.00  0.00     0.151 C 
ENDBRANCH   6   7
BRANCH   1  22
HETATM   22  N1  UNL     1      22.285 -38.782 -10.518  1.00  0.00    -0.358 N 
HETATM   23  C6  UNL     1      21.638 -39.218  -9.297  1.00  0.00     0.132 C 
HETATM   24  C5  UNL     1      20.157 -39.264  -9.610  1.00  0.00     0.033 C 
HETATM   25  C26 UNL     1      20.059 -38.692 -10.979  1.00  0.00     0.007 C 
HETATM   26  C25 UNL     1      21.381 -39.062 -11.619  1.00  0.00     0.129 C 
HETATM   27  C27 UNL     1      19.938 -37.183 -10.969  1.00  0.00     0.012 C 
BRANCH  24  28
HETATM   28  C4  UNL     1      19.362 -38.490  -8.584  1.00  0.00     0.174 C 
BRANCH  28  29
HETATM   29  O1  UNL     1      20.087 -37.938  -7.573  1.00  0.00    -0.386 OA
BRANCH  29  30
HETATM   30  C2  UNL     1      19.913 -38.465  -6.320  1.00  0.00     0.113 C 
HETATM   31  C1  UNL     1      21.246 -38.921  -5.713  1.00  0.00     0.039 C 
HETATM   32  C3  UNL     1      19.413 -37.369  -5.404  1.00  0.00     0.039 C 
ENDBRANCH  29  30
ENDBRANCH  28  29
ENDBRANCH  24  28
ENDBRANCH   1  22
BRANCH   5  33
HETATM   33  C9  UNL     1      26.348 -35.935  -9.855  1.00  0.00    -0.006 C 
HETATM   34  C10 UNL     1      27.433 -35.829 -10.943  1.00  0.00     0.021 C 
HETATM   35  C11 UNL     1      27.045 -36.342  -8.586  1.00  0.00     0.021 C 
HETATM   36  C12 UNL     1      25.735 -34.550  -9.724  1.00  0.00     0.021 C 
ENDBRANCH   5  33
TORSDOF 6
ENDMDL
