MODEL 1
REMARK VINA RESULT: -8.579099382      0.000      0.000
REMARK  7 active torsions:
REMARK  status: ('A' for Active; 'I' for Inactive)
REMARK    1  A    between atoms: C13_13  and  C14_14 
REMARK    2  A    between atoms: C14_14  and  O2_16 
REMARK    3  A    between atoms: C17_20  and  O4_21 
REMARK    4  A    between atoms: C20_24  and  O5_25 
REMARK    5  A    between atoms: C22_27  and  O6_28 
REMARK    6  A    between atoms: C24_31  and  C25_32 
REMARK    7  A    between atoms: N1_33  and  O7_35 
ROOT
HETATM    1  C1  UNL     1      28.621 -36.264 -10.721  1.00  0.00     0.014 C 
HETATM    2  C2  UNL     1      27.897 -35.539  -9.909  1.00  0.00    -0.085 C 
HETATM    3  C3  UNL     1      28.107 -34.097  -9.604  1.00  0.00     0.034 C 
HETATM    4  C4  UNL     1      26.914 -33.667  -8.755  1.00  0.00     0.010 C 
HETATM    5  C5  UNL     1      25.906 -34.678  -9.143  1.00  0.00    -0.002 C 
HETATM    6  C6  UNL     1      26.708 -35.957  -9.106  1.00  0.00     0.018 C 
HETATM    7  C7  UNL     1      25.904 -37.049  -9.685  1.00  0.00     0.010 C 
HETATM    8  C8  UNL     1      24.451 -36.824  -9.847  1.00  0.00     0.007 C 
HETATM    9  C9  UNL     1      23.775 -35.807  -9.057  1.00  0.00     0.009 C 
HETATM   10  C10 UNL     1      24.713 -34.839  -8.319  1.00  0.00    -0.004 C 
HETATM   11  C11 UNL     1      24.877 -35.560  -7.025  1.00  0.00     0.014 C 
HETATM   12  C12 UNL     1      23.412 -35.868  -6.666  1.00  0.00     0.044 C 
HETATM   13  C13 UNL     1      22.785 -34.748  -5.937  1.00  0.00     0.234 C 
HETATM   14  O3  UNL     1      21.381 -34.813  -6.051  1.00  0.00    -0.332 OA
HETATM   15  C16 UNL     1      20.763 -35.015  -7.261  1.00  0.00     0.113 A 
HETATM   16  C17 UNL     1      19.475 -34.513  -7.507  1.00  0.00     0.104 A 
HETATM   17  C19 UNL     1      18.859 -34.718  -8.716  1.00  0.00     0.079 A 
HETATM   18  C20 UNL     1      19.540 -35.431  -9.684  1.00  0.00     0.104 A 
HETATM   19  C22 UNL     1      20.821 -35.924  -9.424  1.00  0.00     0.109 A 
HETATM   20  C23 UNL     1      21.444 -35.720  -8.211  1.00  0.00     0.029 A 
HETATM   21  C24 UNL     1      22.816 -36.261  -7.986  1.00  0.00     0.037 C 
ENDROOT
BRANCH  21  22
HETATM   22  C25 UNL     1      22.657 -37.744  -7.968  1.00  0.00     0.102 C 
HETATM   23  N1  UNL     1      21.807 -38.279  -7.167  1.00  0.00    -0.281 N 
ATOM     24  H1  UNL     1      21.270 -37.650  -6.569  1.00  0.00     0.193 HD
BRANCH  23  25
HETATM   25  O7  UNL     1      21.564 -39.600  -7.050  1.00  0.00    -0.286 OA
HETATM   26  C26 UNL     1      21.180 -40.261  -5.868  1.00  0.00     0.237 C 
ENDBRANCH  23  25
ENDBRANCH  21  22
BRANCH  13  27
HETATM   27  C14 UNL     1      23.104 -34.857  -4.486  1.00  0.00     0.288 C 
HETATM   28  O1  UNL     1      22.739 -33.976  -3.673  1.00  0.00    -0.262 OA
BRANCH  27  29
HETATM   29  O2  UNL     1      23.811 -35.929  -4.009  1.00  0.00    -0.324 OA
HETATM   30  C15 UNL     1      23.277 -37.055  -3.380  1.00  0.00     0.213 C 
ENDBRANCH  27  29
ENDBRANCH  13  27
BRANCH  19  31
HETATM   31  O6  UNL     1      21.425 -36.625 -10.450  1.00  0.00    -0.357 OA
ATOM     32  H6  UNL     1      22.080 -37.262 -10.194  1.00  0.00     0.217 HD
ENDBRANCH  19  31
BRANCH  16  33
HETATM   33  O4  UNL     1      18.826 -33.804  -6.511  1.00  0.00    -0.353 OA
HETATM   34  C18 UNL     1      18.091 -34.498  -5.545  1.00  0.00     0.210 C 
ENDBRANCH  16  33
BRANCH  18  35
HETATM   35  O5  UNL     1      18.960 -35.666 -10.926  1.00  0.00    -0.353 OA
HETATM   36  C21 UNL     1      17.871 -36.563 -10.999  1.00  0.00     0.210 C 
ENDBRANCH  18  35
TORSDOF 7
ENDMDL
MODEL 2
REMARK VINA RESULT: -7.921268203      2.185      5.454
REMARK  7 active torsions:
REMARK  status: ('A' for Active; 'I' for Inactive)
REMARK    1  A    between atoms: C13_13  and  C14_14 
REMARK    2  A    between atoms: C14_14  and  O2_16 
REMARK    3  A    between atoms: C17_20  and  O4_21 
REMARK    4  A    between atoms: C20_24  and  O5_25 
REMARK    5  A    between atoms: C22_27  and  O6_28 
REMARK    6  A    between atoms: C24_31  and  C25_32 
REMARK    7  A    between atoms: N1_33  and  O7_35 
ROOT
HETATM    1  C1  UNL     1      28.449 -34.300 -10.656  1.00  0.00     0.014 C 
HETATM    2  C2  UNL     1      27.872 -35.472 -10.672  1.00  0.00    -0.085 C 
HETATM    3  C3  UNL     1      28.566 -36.786 -10.762  1.00  0.00     0.034 C 
HETATM    4  C4  UNL     1      27.488 -37.849 -10.567  1.00  0.00     0.010 C 
HETATM    5  C5  UNL     1      26.459 -37.081  -9.830  1.00  0.00    -0.002 C 
HETATM    6  C6  UNL     1      26.412 -35.787 -10.606  1.00  0.00     0.018 C 
HETATM    7  C7  UNL     1      25.587 -34.811  -9.870  1.00  0.00     0.010 C 
HETATM    8  C8  UNL     1      24.716 -35.322  -8.789  1.00  0.00     0.007 C 
HETATM    9  C9  UNL     1      24.325 -36.723  -8.765  1.00  0.00     0.009 C 
HETATM   10  C10 UNL     1      25.110 -37.626  -9.728  1.00  0.00    -0.004 C 
HETATM   11  C11 UNL     1      24.250 -37.533 -10.942  1.00  0.00     0.014 C 
HETATM   12  C12 UNL     1      22.860 -37.820 -10.346  1.00  0.00     0.044 C 
HETATM   13  C13 UNL     1      22.582 -39.270 -10.287  1.00  0.00     0.234 C 
HETATM   14  O3  UNL     1      21.585 -39.539  -9.328  1.00  0.00    -0.332 OA
HETATM   15  C16 UNL     1      21.631 -38.999  -8.065  1.00  0.00     0.113 A 
HETATM   16  C17 UNL     1      21.054 -39.666  -6.973  1.00  0.00     0.104 A 
HETATM   17  C19 UNL     1      21.100 -39.123  -5.713  1.00  0.00     0.079 A 
HETATM   18  C20 UNL     1      21.728 -37.903  -5.549  1.00  0.00     0.104 A 
HETATM   19  C22 UNL     1      22.297 -37.252  -6.647  1.00  0.00     0.109 A 
HETATM   20  C23 UNL     1      22.255 -37.794  -7.914  1.00  0.00     0.029 A 
HETATM   21  C24 UNL     1      22.885 -37.062  -9.051  1.00  0.00     0.037 C 
ENDROOT
BRANCH  21  22
HETATM   22  C25 UNL     1      22.048 -35.842  -9.245  1.00  0.00     0.102 C 
HETATM   23  N1  UNL     1      20.781 -35.964  -9.412  1.00  0.00    -0.281 N 
ATOM     24  H1  UNL     1      20.398 -36.909  -9.405  1.00  0.00     0.193 HD
BRANCH  23  25
HETATM   25  O7  UNL     1      19.913 -34.948  -9.597  1.00  0.00    -0.286 OA
HETATM   26  C26 UNL     1      19.319 -34.183  -8.577  1.00  0.00     0.237 C 
ENDBRANCH  23  25
ENDBRANCH  21  22
BRANCH  13  27
HETATM   27  C14 UNL     1      22.052 -39.728 -11.601  1.00  0.00     0.288 C 
HETATM   28  O1  UNL     1      21.125 -39.112 -12.178  1.00  0.00    -0.262 OA
BRANCH  27  29
HETATM   29  O2  UNL     1      22.567 -40.844 -12.207  1.00  0.00    -0.324 OA
HETATM   30  C15 UNL     1      23.686 -41.565 -11.790  1.00  0.00     0.213 C 
ENDBRANCH  27  29
ENDBRANCH  13  27
BRANCH  19  31
HETATM   31  O6  UNL     1      22.904 -36.038  -6.388  1.00  0.00    -0.357 OA
ATOM     32  H6  UNL     1      23.785 -35.930  -6.724  1.00  0.00     0.217 HD
ENDBRANCH  19  31
BRANCH  16  33
HETATM   33  O4  UNL     1      20.434 -40.886  -7.179  1.00  0.00    -0.353 OA
HETATM   34  C18 UNL     1      21.115 -42.064  -6.857  1.00  0.00     0.210 C 
ENDBRANCH  16  33
BRANCH  18  35
HETATM   35  O5  UNL     1      21.802 -37.310  -4.294  1.00  0.00    -0.353 OA
HETATM   36  C21 UNL     1      20.629 -36.739  -3.752  1.00  0.00     0.210 C 
ENDBRANCH  18  35
TORSDOF 7
ENDMDL
MODEL 3
REMARK VINA RESULT: -7.293710564      1.867      2.787
REMARK  7 active torsions:
REMARK  status: ('A' for Active; 'I' for Inactive)
REMARK    1  A    between atoms: C13_13  and  C14_14 
REMARK    2  A    between atoms: C14_14  and  O2_16 
REMARK    3  A    between atoms: C17_20  and  O4_21 
REMARK    4  A    between atoms: C20_24  and  O5_25 
REMARK    5  A    between atoms: C22_27  and  O6_28 
REMARK    6  A    between atoms: C24_31  and  C25_32 
REMARK    7  A    between atoms: N1_33  and  O7_35 
ROOT
HETATM    1  C1  UNL     1      28.485 -36.419 -10.453  1.00  0.00     0.014 C 
HETATM    2  C2  UNL     1      27.405 -35.851  -9.986  1.00  0.00    -0.085 C 
HETATM    3  C3  UNL     1      27.187 -34.387  -9.828  1.00  0.00     0.034 C 
HETATM    4  C4  UNL     1      25.727 -34.218  -9.419  1.00  0.00     0.010 C 
HETATM    5  C5  UNL     1      25.136 -35.471  -9.941  1.00  0.00    -0.002 C 
HETATM    6  C6  UNL     1      26.148 -36.504  -9.507  1.00  0.00     0.018 C 
HETATM    7  C7  UNL     1      25.824 -37.795 -10.140  1.00  0.00     0.010 C 
HETATM    8  C8  UNL     1      24.480 -37.950 -10.739  1.00  0.00     0.007 C 
HETATM    9  C9  UNL     1      23.387 -37.089 -10.317  1.00  0.00     0.009 C 
HETATM   10  C10 UNL     1      23.814 -35.874  -9.478  1.00  0.00    -0.004 C 
HETATM   11  C11 UNL     1      23.724 -36.452  -8.107  1.00  0.00     0.014 C 
HETATM   12  C12 UNL     1      22.325 -37.094  -8.143  1.00  0.00     0.044 C 
HETATM   13  C13 UNL     1      21.273 -36.124  -7.779  1.00  0.00     0.234 C 
HETATM   14  O3  UNL     1      20.024 -36.546  -8.280  1.00  0.00    -0.332 OA
HETATM   15  C16 UNL     1      19.870 -36.968  -9.578  1.00  0.00     0.113 A 
HETATM   16  C17 UNL     1      18.645 -36.819 -10.245  1.00  0.00     0.104 A 
HETATM   17  C19 UNL     1      18.493 -37.245 -11.542  1.00  0.00     0.079 A 
HETATM   18  C20 UNL     1      19.579 -37.822 -12.172  1.00  0.00     0.104 A 
HETATM   19  C22 UNL     1      20.793 -37.962 -11.493  1.00  0.00     0.109 A 
HETATM   20  C23 UNL     1      20.950 -37.536 -10.191  1.00  0.00     0.029 A 
HETATM   21  C24 UNL     1      22.269 -37.702  -9.514  1.00  0.00     0.037 C 
ENDROOT
BRANCH  21  22
HETATM   22  C25 UNL     1      22.442 -39.174  -9.345  1.00  0.00     0.102 C 
HETATM   23  N1  UNL     1      21.544 -39.849  -8.722  1.00  0.00    -0.281 N 
ATOM     24  H1  UNL     1      20.739 -39.335  -8.364  1.00  0.00     0.193 HD
BRANCH  23  25
HETATM   25  O7  UNL     1      21.576 -41.179  -8.500  1.00  0.00    -0.286 OA
HETATM   26  C26 UNL     1      21.492 -41.801  -7.240  1.00  0.00     0.237 C 
ENDBRANCH  23  25
ENDBRANCH  21  22
BRANCH  13  27
HETATM   27  C14 UNL     1      21.144 -36.063  -6.297  1.00  0.00     0.288 C 
HETATM   28  O1  UNL     1      20.563 -36.971  -5.658  1.00  0.00    -0.262 OA
BRANCH  27  29
HETATM   29  O2  UNL     1      21.659 -35.004  -5.598  1.00  0.00    -0.324 OA
HETATM   30  C15 UNL     1      22.102 -33.796  -6.139  1.00  0.00     0.213 C 
ENDBRANCH  27  29
ENDBRANCH  13  27
BRANCH  19  31
HETATM   31  O6  UNL     1      21.823 -38.551 -12.202  1.00  0.00    -0.357 OA
ATOM     32  H6  UNL     1      21.826 -39.500 -12.225  1.00  0.00     0.217 HD
ENDBRANCH  19  31
BRANCH  16  33
HETATM   33  O4  UNL     1      17.581 -36.237  -9.580  1.00  0.00    -0.353 OA
HETATM   34  C18 UNL     1      16.284 -36.699  -9.825  1.00  0.00     0.210 C 
ENDBRANCH  16  33
BRANCH  18  35
HETATM   35  O5  UNL     1      19.479 -38.269 -13.484  1.00  0.00    -0.353 OA
HETATM   36  C21 UNL     1      18.786 -39.475 -13.731  1.00  0.00     0.210 C 
ENDBRANCH  18  35
TORSDOF 7
ENDMDL
MODEL 4
REMARK VINA RESULT: -7.243311188      1.315      1.492
REMARK  7 active torsions:
REMARK  status: ('A' for Active; 'I' for Inactive)
REMARK    1  A    between atoms: C13_13  and  C14_14 
REMARK    2  A    between atoms: C14_14  and  O2_16 
REMARK    3  A    between atoms: C17_20  and  O4_21 
REMARK    4  A    between atoms: C20_24  and  O5_25 
REMARK    5  A    between atoms: C22_27  and  O6_28 
REMARK    6  A    between atoms: C24_31  and  C25_32 
REMARK    7  A    between atoms: N1_33  and  O7_35 
ROOT
HETATM    1  C1  UNL     1      27.820 -35.613 -10.136  1.00  0.00     0.014 C 
HETATM    2  C2  UNL     1      27.043 -35.135  -9.200  1.00  0.00    -0.085 C 
HETATM    3  C3  UNL     1      27.116 -33.766  -8.620  1.00  0.00     0.034 C 
HETATM    4  C4  UNL     1      25.903 -33.629  -7.704  1.00  0.00     0.010 C 
HETATM    5  C5  UNL     1      24.991 -34.642  -8.283  1.00  0.00    -0.002 C 
HETATM    6  C6  UNL     1      25.916 -35.817  -8.494  1.00  0.00     0.018 C 
HETATM    7  C7  UNL     1      25.213 -36.851  -9.275  1.00  0.00     0.010 C 
HETATM    8  C8  UNL     1      23.741 -36.745  -9.392  1.00  0.00     0.007 C 
HETATM    9  C9  UNL     1      22.984 -35.973  -8.420  1.00  0.00     0.009 C 
HETATM   10  C10 UNL     1      23.836 -35.077  -7.507  1.00  0.00    -0.004 C 
HETATM   11  C11 UNL     1      24.094 -36.016  -6.378  1.00  0.00     0.014 C 
HETATM   12  C12 UNL     1      22.673 -36.532  -6.087  1.00  0.00     0.044 C 
HETATM   13  C13 UNL     1      21.952 -35.642  -5.154  1.00  0.00     0.234 C 
HETATM   14  O3  UNL     1      20.560 -35.824  -5.281  1.00  0.00    -0.332 OA
HETATM   15  C16 UNL     1      19.942 -35.848  -6.508  1.00  0.00     0.113 A 
HETATM   16  C17 UNL     1      18.607 -35.440  -6.652  1.00  0.00     0.104 A 
HETATM   17  C19 UNL     1      17.991 -35.467  -7.879  1.00  0.00     0.079 A 
HETATM   18  C20 UNL     1      18.721 -35.907  -8.967  1.00  0.00     0.104 A 
HETATM   19  C22 UNL     1      20.050 -36.311  -8.805  1.00  0.00     0.109 A 
HETATM   20  C23 UNL     1      20.672 -36.285  -7.576  1.00  0.00     0.029 A 
HETATM   21  C24 UNL     1      22.094 -36.719  -7.459  1.00  0.00     0.037 C 
ENDROOT
BRANCH  21  22
HETATM   22  C25 UNL     1      22.081 -38.186  -7.730  1.00  0.00     0.102 C 
HETATM   23  N1  UNL     1      21.506 -38.978  -6.897  1.00  0.00    -0.281 N 
ATOM     24  H1  UNL     1      21.077 -38.556  -6.074  1.00  0.00     0.193 HD
BRANCH  23  25
HETATM   25  O7  UNL     1      21.422 -40.318  -7.021  1.00  0.00    -0.286 OA
HETATM   26  C26 UNL     1      20.456 -41.012  -7.772  1.00  0.00     0.237 C 
ENDBRANCH  23  25
ENDBRANCH  21  22
BRANCH  13  27
HETATM   27  C14 UNL     1      22.307 -35.998  -3.753  1.00  0.00     0.288 C 
HETATM   28  O1  UNL     1      23.087 -36.947  -3.502  1.00  0.00    -0.262 OA
BRANCH  27  29
HETATM   29  O2  UNL     1      21.782 -35.293  -2.702  1.00  0.00    -0.324 OA
HETATM   30  C15 UNL     1      20.812 -35.748  -1.808  1.00  0.00     0.213 C 
ENDBRANCH  27  29
ENDBRANCH  13  27
BRANCH  19  31
HETATM   31  O6  UNL     1      20.700 -36.736  -9.948  1.00  0.00    -0.357 OA
ATOM     32  H6  UNL     1      21.467 -37.280  -9.816  1.00  0.00     0.217 HD
ENDBRANCH  19  31
BRANCH  16  33
HETATM   33  O4  UNL     1      17.910 -35.005  -5.538  1.00  0.00    -0.353 OA
HETATM   34  C18 UNL     1      16.787 -35.720  -5.112  1.00  0.00     0.210 C 
ENDBRANCH  16  33
BRANCH  18  35
HETATM   35  O5  UNL     1      18.145 -35.955 -10.231  1.00  0.00    -0.353 OA
HETATM   36  C21 UNL     1      17.123 -36.900 -10.468  1.00  0.00     0.210 C 
ENDBRANCH  18  35
TORSDOF 7
ENDMDL
MODEL 5
REMARK VINA RESULT: -7.187443812      2.296      5.222
REMARK  7 active torsions:
REMARK  status: ('A' for Active; 'I' for Inactive)
REMARK    1  A    between atoms: C13_13  and  C14_14 
REMARK    2  A    between atoms: C14_14  and  O2_16 
REMARK    3  A    between atoms: C17_20  and  O4_21 
REMARK    4  A    between atoms: C20_24  and  O5_25 
REMARK    5  A    between atoms: C22_27  and  O6_28 
REMARK    6  A    between atoms: C24_31  and  C25_32 
REMARK    7  A    between atoms: N1_33  and  O7_35 
ROOT
HETATM    1  C1  UNL     1      27.827 -34.219  -8.932  1.00  0.00     0.014 C 
HETATM    2  C2  UNL     1      26.793 -34.996  -9.119  1.00  0.00    -0.085 C 
HETATM    3  C3  UNL     1      26.816 -36.340  -9.760  1.00  0.00     0.034 C 
HETATM    4  C4  UNL     1      25.413 -36.915  -9.586  1.00  0.00     0.010 C 
HETATM    5  C5  UNL     1      24.934 -36.152  -8.411  1.00  0.00    -0.002 C 
HETATM    6  C6  UNL     1      25.367 -34.745  -8.748  1.00  0.00     0.018 C 
HETATM    7  C7  UNL     1      25.161 -33.881  -7.572  1.00  0.00     0.010 C 
HETATM    8  C8  UNL     1      24.300 -34.392  -6.483  1.00  0.00     0.007 C 
HETATM    9  C9  UNL     1      23.335 -35.448  -6.748  1.00  0.00     0.009 C 
HETATM   10  C10 UNL     1      23.509 -36.152  -8.102  1.00  0.00    -0.004 C 
HETATM   11  C11 UNL     1      22.632 -35.304  -8.958  1.00  0.00     0.014 C 
HETATM   12  C12 UNL     1      21.347 -35.252  -8.112  1.00  0.00     0.044 C 
HETATM   13  C13 UNL     1      20.466 -36.404  -8.389  1.00  0.00     0.234 C 
HETATM   14  O3  UNL     1      19.585 -36.618  -7.310  1.00  0.00    -0.332 OA
HETATM   15  C16 UNL     1      20.026 -36.643  -6.009  1.00  0.00     0.113 A 
HETATM   16  C17 UNL     1      19.358 -37.401  -5.035  1.00  0.00     0.104 A 
HETATM   17  C19 UNL     1      19.800 -37.422  -3.735  1.00  0.00     0.079 A 
HETATM   18  C20 UNL     1      20.919 -36.678  -3.413  1.00  0.00     0.104 A 
HETATM   19  C22 UNL     1      21.572 -35.929  -4.396  1.00  0.00     0.109 A 
HETATM   20  C23 UNL     1      21.133 -35.905  -5.702  1.00  0.00     0.029 A 
HETATM   21  C24 UNL     1      21.871 -35.095  -6.714  1.00  0.00     0.037 C 
ENDROOT
BRANCH  21  22
HETATM   22  C25 UNL     1      21.645 -33.674  -6.321  1.00  0.00     0.102 C 
HETATM   23  N1  UNL     1      20.777 -33.399  -5.414  1.00  0.00    -0.281 N 
ATOM     24  H1  UNL     1      20.273 -34.182  -4.998  1.00  0.00     0.193 HD
BRANCH  23  25
HETATM   25  O7  UNL     1      20.476 -32.163  -4.967  1.00  0.00    -0.286 OA
HETATM   26  C26 UNL     1      20.414 -31.773  -3.616  1.00  0.00     0.237 C 
ENDBRANCH  23  25
ENDBRANCH  21  22
BRANCH  13  27
HETATM   27  C14 UNL     1      19.625 -36.111  -9.582  1.00  0.00     0.288 C 
HETATM   28  O1  UNL     1      18.450 -35.689  -9.460  1.00  0.00    -0.262 OA
BRANCH  27  29
HETATM   29  O2  UNL     1      20.119 -36.302 -10.846  1.00  0.00    -0.324 OA
HETATM   30  C15 UNL     1      20.665 -37.484 -11.346  1.00  0.00     0.213 C 
ENDBRANCH  27  29
ENDBRANCH  13  27
BRANCH  19  31
HETATM   31  O6  UNL     1      22.681 -35.217  -3.981  1.00  0.00    -0.357 OA
ATOM     32  H6  UNL     1      23.520 -35.525  -4.302  1.00  0.00     0.217 HD
ENDBRANCH  19  31
BRANCH  16  33
HETATM   33  O4  UNL     1      18.241 -38.132  -5.398  1.00  0.00    -0.353 OA
HETATM   34  C18 UNL     1      16.969 -37.589  -5.189  1.00  0.00     0.210 C 
ENDBRANCH  16  33
BRANCH  18  35
HETATM   35  O5  UNL     1      21.407 -36.666  -2.111  1.00  0.00    -0.353 OA
HETATM   36  C21 UNL     1      20.479 -36.661  -1.046  1.00  0.00     0.210 C 
ENDBRANCH  18  35
TORSDOF 7
ENDMDL
