MODEL 1
REMARK VINA RESULT: -8.015946672      0.000      0.000
REMARK  6 active torsions:
REMARK  status: ('A' for Active; 'I' for Inactive)
REMARK    1  A    between atoms: C2_2  and  C3_3 
REMARK    2  A    between atoms: C13_17  and  C15_19 
REMARK    3  A    between atoms: C15_19  and  C16_20 
REMARK    4  A    between atoms: C16_20  and  C17_21 
REMARK    5  A    between atoms: C23_30  and  C25_32 
REMARK    6  A    between atoms: C25_32  and  O8_33 
ROOT
HETATM    1  C3  UNL     1      20.093 -34.491  -2.841  1.00  0.00     0.125 C 
HETATM    2  C4  UNL     1      18.747 -35.203  -3.162  1.00  0.00     0.052 C 
HETATM    3  O1  UNL     1      19.818 -33.228  -2.526  1.00  0.00    -0.336 OA
HETATM    4  C5  UNL     1      20.413 -32.176  -3.074  1.00  0.00     0.198 C 
HETATM    5  C6  UNL     1      21.541 -31.465  -2.382  1.00  0.00     0.072 C 
HETATM    6  C7  UNL     1      20.850 -30.108  -2.582  1.00  0.00     0.011 C 
HETATM    7  C8  UNL     1      19.582 -30.904  -2.820  1.00  0.00     0.072 C 
HETATM    8  O2  UNL     1      20.651 -32.241  -4.442  1.00  0.00    -0.197 OA
HETATM    9  O3  UNL     1      19.692 -33.061  -4.892  1.00  0.00    -0.191 OA
HETATM   10  C9  UNL     1      20.432 -34.209  -5.256  1.00  0.00     0.260 C 
HETATM   11  C10 UNL     1      19.630 -35.156  -6.069  1.00  0.00     0.080 C 
HETATM   12  C11 UNL     1      20.392 -35.303  -7.363  1.00  0.00     0.038 C 
HETATM   13  C12 UNL     1      21.645 -34.536  -7.124  1.00  0.00     0.136 C 
HETATM   14  O4  UNL     1      21.429 -33.654  -6.079  1.00  0.00    -0.342 OA
HETATM   15  C13 UNL     1      22.874 -35.301  -6.829  1.00  0.00     0.015 C 
HETATM   16  C14 UNL     1      23.120 -36.434  -7.801  1.00  0.00     0.020 C 
HETATM   17  C21 UNL     1      23.104 -35.678  -5.399  1.00  0.00     0.207 C 
HETATM   18  O5  UNL     1      23.158 -34.483  -4.674  1.00  0.00    -0.228 OA
HETATM   19  O6  UNL     1      22.260 -34.269  -3.811  1.00  0.00    -0.191 OA
HETATM   20  C22 UNL     1      21.025 -34.783  -3.988  1.00  0.00     0.289 C 
HETATM   21  O7  UNL     1      21.114 -36.153  -4.133  1.00  0.00    -0.330 OA
HETATM   22  C23 UNL     1      22.299 -36.630  -4.675  1.00  0.00     0.112 C 
HETATM   23  C24 UNL     1      21.980 -37.957  -5.338  1.00  0.00     0.051 C 
ENDROOT
BRANCH  15  24
HETATM   24  C15 UNL     1      24.030 -34.336  -7.046  1.00  0.00     0.018 C 
BRANCH  24  25
HETATM   25  C16 UNL     1      25.380 -34.901  -7.172  1.00  0.00     0.028 C 
BRANCH  25  26
HETATM   26  C17 UNL     1      26.070 -34.155  -8.257  1.00  0.00    -0.025 C 
HETATM   27  C18 UNL     1      26.963 -34.748  -9.015  1.00  0.00    -0.091 C 
HETATM   28  C19 UNL     1      27.276 -36.181  -8.773  1.00  0.00     0.042 C 
HETATM   29  C20 UNL     1      27.668 -33.995 -10.122  1.00  0.00     0.042 C 
ENDBRANCH  25  26
ENDBRANCH  24  25
ENDBRANCH  15  24
BRANCH  22  30
HETATM   30  C25 UNL     1      23.220 -37.140  -3.524  1.00  0.00     0.204 C 
BRANCH  30  31
HETATM   31  O8  UNL     1      24.471 -36.588  -3.593  1.00  0.00    -0.398 OA
ATOM     32  H8  UNL     1      24.976 -36.948  -4.312  1.00  0.00     0.209 HD
ENDBRANCH  30  31
ENDBRANCH  22  30
BRANCH   1  33
HETATM   33  C2  UNL     1      20.461 -35.190  -1.549  1.00  0.00     0.039 C 
HETATM   34  C1  UNL     1      20.090 -34.492  -0.297  1.00  0.00     0.008 C 
ENDBRANCH   1  33
TORSDOF 6
ENDMDL
MODEL 2
REMARK VINA RESULT: -7.648477887      2.818      6.028
REMARK  6 active torsions:
REMARK  status: ('A' for Active; 'I' for Inactive)
REMARK    1  A    between atoms: C2_2  and  C3_3 
REMARK    2  A    between atoms: C13_17  and  C15_19 
REMARK    3  A    between atoms: C15_19  and  C16_20 
REMARK    4  A    between atoms: C16_20  and  C17_21 
REMARK    5  A    between atoms: C23_30  and  C25_32 
REMARK    6  A    between atoms: C25_32  and  O8_33 
ROOT
HETATM    1  C3  UNL     1      19.561 -37.967  -8.196  1.00  0.00     0.125 C 
HETATM    2  C4  UNL     1      19.032 -38.878  -7.050  1.00  0.00     0.052 C 
HETATM    3  O1  UNL     1      20.098 -38.755  -9.124  1.00  0.00    -0.336 OA
HETATM    4  C5  UNL     1      21.313 -38.589  -9.630  1.00  0.00     0.198 C 
HETATM    5  C6  UNL     1      21.525 -37.909 -10.953  1.00  0.00     0.072 C 
HETATM    6  C7  UNL     1      22.405 -39.069 -11.444  1.00  0.00     0.011 C 
HETATM    7  C8  UNL     1      21.778 -39.882 -10.329  1.00  0.00     0.072 C 
HETATM    8  O2  UNL     1      22.313 -38.226  -8.737  1.00  0.00    -0.197 OA
HETATM    9  O3  UNL     1      21.893 -38.729  -7.569  1.00  0.00    -0.191 OA
HETATM   10  C9  UNL     1      21.569 -37.560  -6.843  1.00  0.00     0.260 C 
HETATM   11  C10 UNL     1      21.362 -37.838  -5.400  1.00  0.00     0.080 C 
HETATM   12  C11 UNL     1      22.370 -36.972  -4.687  1.00  0.00     0.038 C 
HETATM   13  C12 UNL     1      22.975 -36.161  -5.779  1.00  0.00     0.136 C 
HETATM   14  O4  UNL     1      22.747 -36.805  -6.983  1.00  0.00    -0.342 OA
HETATM   15  C13 UNL     1      22.531 -34.758  -5.921  1.00  0.00     0.015 C 
HETATM   16  C14 UNL     1      22.548 -33.992  -4.616  1.00  0.00     0.020 C 
HETATM   17  C21 UNL     1      21.300 -34.522  -6.738  1.00  0.00     0.207 C 
HETATM   18  O5  UNL     1      21.568 -35.018  -8.018  1.00  0.00    -0.228 OA
HETATM   19  O6  UNL     1      20.885 -35.998  -8.432  1.00  0.00    -0.191 OA
HETATM   20  C22 UNL     1      20.406 -36.900  -7.550  1.00  0.00     0.289 C 
HETATM   21  O7  UNL     1      19.635 -36.254  -6.605  1.00  0.00    -0.330 OA
HETATM   22  C23 UNL     1      19.976 -34.934  -6.342  1.00  0.00     0.112 C 
HETATM   23  C24 UNL     1      19.519 -34.632  -4.927  1.00  0.00     0.051 C 
ENDROOT
BRANCH  15  24
HETATM   24  C15 UNL     1      23.573 -34.075  -6.794  1.00  0.00     0.018 C 
BRANCH  24  25
HETATM   25  C16 UNL     1      24.989 -34.346  -6.510  1.00  0.00     0.028 C 
BRANCH  25  26
HETATM   26  C17 UNL     1      25.776 -33.812  -7.651  1.00  0.00    -0.025 C 
HETATM   27  C18 UNL     1      26.272 -34.620  -8.560  1.00  0.00    -0.091 C 
HETATM   28  C19 UNL     1      26.035 -36.082  -8.429  1.00  0.00     0.042 C 
HETATM   29  C20 UNL     1      27.075 -34.083  -9.725  1.00  0.00     0.042 C 
ENDBRANCH  25  26
ENDBRANCH  24  25
ENDBRANCH  15  24
BRANCH  22  30
HETATM   30  C25 UNL     1      19.012 -33.990  -7.124  1.00  0.00     0.204 C 
BRANCH  30  31
HETATM   31  O8  UNL     1      19.677 -33.257  -8.071  1.00  0.00    -0.398 OA
ATOM     32  H8  UNL     1      19.821 -32.363  -7.786  1.00  0.00     0.209 HD
ENDBRANCH  30  31
ENDBRANCH  22  30
BRANCH   1  33
HETATM   33  C2  UNL     1      18.250 -37.463  -8.761  1.00  0.00     0.039 C 
HETATM   34  C1  UNL     1      17.784 -38.104 -10.012  1.00  0.00     0.008 C 
ENDBRANCH   1  33
TORSDOF 6
ENDMDL
MODEL 3
REMARK VINA RESULT: -7.424026614      4.287      7.207
REMARK  6 active torsions:
REMARK  status: ('A' for Active; 'I' for Inactive)
REMARK    1  A    between atoms: C2_2  and  C3_3 
REMARK    2  A    between atoms: C13_17  and  C15_19 
REMARK    3  A    between atoms: C15_19  and  C16_20 
REMARK    4  A    between atoms: C16_20  and  C17_21 
REMARK    5  A    between atoms: C23_30  and  C25_32 
REMARK    6  A    between atoms: C25_32  and  O8_33 
ROOT
HETATM    1  C3  UNL     1      18.309 -37.836 -10.156  1.00  0.00     0.125 C 
HETATM    2  C4  UNL     1      17.565 -38.609  -9.028  1.00  0.00     0.052 C 
HETATM    3  O1  UNL     1      18.366 -38.632 -11.221  1.00  0.00    -0.336 OA
HETATM    4  C5  UNL     1      19.479 -38.903 -11.890  1.00  0.00     0.198 C 
HETATM    5  C6  UNL     1      19.822 -38.185 -13.164  1.00  0.00     0.072 C 
HETATM    6  C7  UNL     1      20.075 -39.518 -13.885  1.00  0.00     0.011 C 
HETATM    7  C8  UNL     1      19.282 -40.158 -12.763  1.00  0.00     0.072 C 
HETATM    8  O2  UNL     1      20.624 -39.110 -11.131  1.00  0.00    -0.197 OA
HETATM    9  O3  UNL     1      20.152 -39.562  -9.962  1.00  0.00    -0.191 OA
HETATM   10  C9  UNL     1      20.427 -38.480  -9.095  1.00  0.00     0.260 C 
HETATM   11  C10 UNL     1      20.270 -38.855  -7.668  1.00  0.00     0.080 C 
HETATM   12  C11 UNL     1      21.617 -38.585  -7.042  1.00  0.00     0.038 C 
HETATM   13  C12 UNL     1      22.392 -37.942  -8.138  1.00  0.00     0.136 C 
HETATM   14  O4  UNL     1      21.793 -38.257  -9.346  1.00  0.00    -0.342 OA
HETATM   15  C13 UNL     1      22.570 -36.475  -8.086  1.00  0.00     0.015 C 
HETATM   16  C14 UNL     1      23.041 -35.980  -6.736  1.00  0.00     0.020 C 
HETATM   17  C21 UNL     1      21.477 -35.644  -8.681  1.00  0.00     0.207 C 
HETATM   18  O5  UNL     1      21.379 -36.017 -10.026  1.00  0.00    -0.228 OA
HETATM   19  O6  UNL     1      20.308 -36.564 -10.416  1.00  0.00    -0.191 OA
HETATM   20  C22 UNL     1      19.586 -37.310  -9.554  1.00  0.00     0.289 C 
HETATM   21  O7  UNL     1      19.260 -36.550  -8.450  1.00  0.00    -0.330 OA
HETATM   22  C23 UNL     1      20.151 -35.535  -8.127  1.00  0.00     0.112 C 
HETATM   23  C24 UNL     1      20.011 -35.281  -6.637  1.00  0.00     0.051 C 
ENDROOT
BRANCH  15  24
HETATM   24  C15 UNL     1      23.708 -36.157  -9.044  1.00  0.00     0.018 C 
BRANCH  24  25
HETATM   25  C16 UNL     1      25.032 -35.887  -8.469  1.00  0.00     0.028 C 
BRANCH  25  26
HETATM   26  C17 UNL     1      26.012 -35.924  -9.586  1.00  0.00    -0.025 C 
HETATM   27  C18 UNL     1      26.933 -34.995  -9.701  1.00  0.00    -0.091 C 
HETATM   28  C19 UNL     1      26.981 -33.901  -8.695  1.00  0.00     0.042 C 
HETATM   29  C20 UNL     1      27.935 -35.026 -10.835  1.00  0.00     0.042 C 
ENDBRANCH  25  26
ENDBRANCH  24  25
ENDBRANCH  15  24
BRANCH  22  30
HETATM   30  C25 UNL     1      19.601 -34.179  -8.666  1.00  0.00     0.204 C 
BRANCH  30  31
HETATM   31  O8  UNL     1      18.557 -33.719  -7.909  1.00  0.00    -0.398 OA
ATOM     32  H8  UNL     1      17.797 -34.285  -7.976  1.00  0.00     0.209 HD
ENDBRANCH  30  31
ENDBRANCH  22  30
BRANCH   1  33
HETATM   33  C2  UNL     1      17.282 -36.768 -10.467  1.00  0.00     0.039 C 
HETATM   34  C1  UNL     1      15.964 -36.911  -9.808  1.00  0.00     0.008 C 
ENDBRANCH   1  33
TORSDOF 6
ENDMDL
MODEL 4
REMARK VINA RESULT: -7.276645256      0.999      1.090
REMARK  6 active torsions:
REMARK  status: ('A' for Active; 'I' for Inactive)
REMARK    1  A    between atoms: C2_2  and  C3_3 
REMARK    2  A    between atoms: C13_17  and  C15_19 
REMARK    3  A    between atoms: C15_19  and  C16_20 
REMARK    4  A    between atoms: C16_20  and  C17_21 
REMARK    5  A    between atoms: C23_30  and  C25_32 
REMARK    6  A    between atoms: C25_32  and  O8_33 
ROOT
HETATM    1  C3  UNL     1      20.020 -34.859  -3.194  1.00  0.00     0.125 C 
HETATM    2  C4  UNL     1      18.555 -35.107  -3.658  1.00  0.00     0.052 C 
HETATM    3  O1  UNL     1      20.054 -33.678  -2.580  1.00  0.00    -0.336 OA
HETATM    4  C5  UNL     1      20.919 -32.714  -2.867  1.00  0.00     0.198 C 
HETATM    5  C6  UNL     1      22.154 -32.498  -2.039  1.00  0.00     0.072 C 
HETATM    6  C7  UNL     1      21.835 -31.002  -1.896  1.00  0.00     0.011 C 
HETATM    7  C8  UNL     1      20.421 -31.370  -2.301  1.00  0.00     0.072 C 
HETATM    8  O2  UNL     1      21.199 -32.511  -4.212  1.00  0.00    -0.197 OA
HETATM    9  O3  UNL     1      20.088 -32.930  -4.833  1.00  0.00    -0.191 OA
HETATM   10  C9  UNL     1      20.534 -34.108  -5.474  1.00  0.00     0.260 C 
HETATM   11  C10 UNL     1      19.560 -34.599  -6.480  1.00  0.00     0.080 C 
HETATM   12  C11 UNL     1      20.322 -34.624  -7.782  1.00  0.00     0.038 C 
HETATM   13  C12 UNL     1      21.714 -34.280  -7.383  1.00  0.00     0.136 C 
HETATM   14  O4  UNL     1      21.676 -33.646  -6.153  1.00  0.00    -0.342 OA
HETATM   15  C13 UNL     1      22.698 -35.380  -7.299  1.00  0.00     0.015 C 
HETATM   16  C14 UNL     1      22.698 -36.275  -8.519  1.00  0.00     0.020 C 
HETATM   17  C21 UNL     1      22.757 -36.131  -6.006  1.00  0.00     0.207 C 
HETATM   18  O5  UNL     1      23.074 -35.196  -5.015  1.00  0.00    -0.228 OA
HETATM   19  O6  UNL     1      22.217 -34.971  -4.113  1.00  0.00    -0.191 OA
HETATM   20  C22 UNL     1      20.903 -35.097  -4.391  1.00  0.00     0.289 C 
HETATM   21  O7  UNL     1      20.653 -36.370  -4.864  1.00  0.00    -0.330 OA
HETATM   22  C23 UNL     1      21.706 -36.991  -5.521  1.00  0.00     0.112 C 
HETATM   23  C24 UNL     1      21.097 -37.996  -6.481  1.00  0.00     0.051 C 
ENDROOT
BRANCH  15  24
HETATM   24  C15 UNL     1      24.068 -34.718  -7.293  1.00  0.00     0.018 C 
BRANCH  24  25
HETATM   25  C16 UNL     1      25.227 -35.539  -7.665  1.00  0.00     0.028 C 
BRANCH  25  26
HETATM   26  C17 UNL     1      26.255 -34.621  -8.221  1.00  0.00    -0.025 C 
HETATM   27  C18 UNL     1      26.694 -34.772  -9.449  1.00  0.00    -0.091 C 
HETATM   28  C19 UNL     1      26.146 -35.878 -10.279  1.00  0.00     0.042 C 
HETATM   29  C20 UNL     1      27.741 -33.841 -10.023  1.00  0.00     0.042 C 
ENDBRANCH  25  26
ENDBRANCH  24  25
ENDBRANCH  15  24
BRANCH  22  30
HETATM   30  C25 UNL     1      22.414 -37.976  -4.541  1.00  0.00     0.204 C 
BRANCH  30  31
HETATM   31  O8  UNL     1      22.191 -39.282  -4.886  1.00  0.00    -0.398 OA
ATOM     32  H8  UNL     1      22.166 -39.397  -5.829  1.00  0.00     0.209 HD
ENDBRANCH  30  31
ENDBRANCH  22  30
BRANCH   1  33
HETATM   33  C2  UNL     1      20.139 -35.913  -2.114  1.00  0.00     0.039 C 
HETATM   34  C1  UNL     1      20.116 -35.427  -0.716  1.00  0.00     0.008 C 
ENDBRANCH   1  33
TORSDOF 6
ENDMDL
MODEL 5
REMARK VINA RESULT: -7.220055910      1.678      6.559
REMARK  6 active torsions:
REMARK  status: ('A' for Active; 'I' for Inactive)
REMARK    1  A    between atoms: C2_2  and  C3_3 
REMARK    2  A    between atoms: C13_17  and  C15_19 
REMARK    3  A    between atoms: C15_19  and  C16_20 
REMARK    4  A    between atoms: C16_20  and  C17_21 
REMARK    5  A    between atoms: C23_30  and  C25_32 
REMARK    6  A    between atoms: C25_32  and  O8_33 
ROOT
HETATM    1  C3  UNL     1      22.555 -36.072  -7.921  1.00  0.00     0.125 C 
HETATM    2  C4  UNL     1      22.281 -37.594  -7.746  1.00  0.00     0.052 C 
HETATM    3  O1  UNL     1      23.837 -35.927  -8.247  1.00  0.00    -0.336 OA
HETATM    4  C5  UNL     1      24.674 -35.104  -7.629  1.00  0.00     0.198 C 
HETATM    5  C6  UNL     1      25.005 -33.753  -8.195  1.00  0.00     0.072 C 
HETATM    6  C7  UNL     1      26.510 -34.025  -8.050  1.00  0.00     0.011 C 
HETATM    7  C8  UNL     1      26.131 -35.490  -7.950  1.00  0.00     0.072 C 
HETATM    8  O2  UNL     1      24.567 -35.033  -6.245  1.00  0.00    -0.197 OA
HETATM    9  O3  UNL     1      24.077 -36.232  -5.904  1.00  0.00    -0.191 OA
HETATM   10  C9  UNL     1      22.768 -35.907  -5.481  1.00  0.00     0.260 C 
HETATM   11  C10 UNL     1      22.117 -37.032  -4.765  1.00  0.00     0.080 C 
HETATM   12  C11 UNL     1      21.774 -36.481  -3.402  1.00  0.00     0.038 C 
HETATM   13  C12 UNL     1      22.130 -35.039  -3.504  1.00  0.00     0.136 C 
HETATM   14  O4  UNL     1      23.017 -34.878  -4.555  1.00  0.00    -0.342 OA
HETATM   15  C13 UNL     1      21.029 -34.070  -3.684  1.00  0.00     0.015 C 
HETATM   16  C14 UNL     1      19.892 -34.271  -2.705  1.00  0.00     0.020 C 
HETATM   17  C21 UNL     1      20.574 -33.821  -5.088  1.00  0.00     0.207 C 
HETATM   18  O5  UNL     1      21.686 -33.342  -5.789  1.00  0.00    -0.228 OA
HETATM   19  O6  UNL     1      22.141 -34.045  -6.735  1.00  0.00    -0.191 OA
HETATM   20  C22 UNL     1      22.020 -35.389  -6.690  1.00  0.00     0.289 C 
HETATM   21  O7  UNL     1      20.689 -35.726  -6.553  1.00  0.00    -0.330 OA
HETATM   22  C23 UNL     1      19.891 -34.796  -5.901  1.00  0.00     0.112 C 
HETATM   23  C24 UNL     1      18.731 -35.560  -5.289  1.00  0.00     0.051 C 
ENDROOT
BRANCH  15  24
HETATM   24  C15 UNL     1      21.611 -32.707  -3.340  1.00  0.00     0.018 C 
BRANCH  24  25
HETATM   25  C16 UNL     1      22.114 -32.501  -1.975  1.00  0.00     0.028 C 
BRANCH  25  26
HETATM   26  C17 UNL     1      22.004 -31.049  -1.680  1.00  0.00    -0.025 C 
HETATM   27  C18 UNL     1      22.121 -30.605  -0.450  1.00  0.00    -0.091 C 
HETATM   28  C19 UNL     1      22.367 -31.578   0.647  1.00  0.00     0.042 C 
HETATM   29  C20 UNL     1      22.011 -29.127  -0.142  1.00  0.00     0.042 C 
ENDBRANCH  25  26
ENDBRANCH  24  25
ENDBRANCH  15  24
BRANCH  22  30
HETATM   30  C25 UNL     1      19.110 -33.958  -6.959  1.00  0.00     0.204 C 
BRANCH  30  31
HETATM   31  O8  UNL     1      19.956 -33.282  -7.796  1.00  0.00    -0.398 OA
ATOM     32  H8  UNL     1      19.491 -32.896  -8.529  1.00  0.00     0.209 HD
ENDBRANCH  30  31
ENDBRANCH  22  30
BRANCH   1  33
HETATM   33  C2  UNL     1      21.755 -35.802  -9.178  1.00  0.00     0.039 C 
HETATM   34  C1  UNL     1      21.343 -36.988  -9.962  1.00  0.00     0.008 C 
ENDBRANCH   1  33
TORSDOF 6
ENDMDL
