MODEL 1
REMARK VINA RESULT: -6.423660503      0.000      0.000
REMARK  6 active torsions:
REMARK  status: ('A' for Active; 'I' for Inactive)
REMARK    1  A    between atoms: C3_3  and  C4_4 
REMARK    2  A    between atoms: C4_4  and  C5_5 
REMARK    3  A    between atoms: C5_5  and  N1_6 
REMARK    4  A    between atoms: C5_5  and  C6_10 
REMARK    5  A    between atoms: C6_10  and  N2_11 
REMARK    6  A    between atoms: C6_10  and  C7_15 
ROOT
HETATM    1  C1  UNL     1      53.784 356.634  83.685  1.00  0.00     0.012 C 
HETATM    2  C2  UNL     1      54.226 357.637  84.193  1.00  0.00    -0.117 C 
HETATM    3  C3  UNL     1      54.772 358.853  84.838  1.00  0.00     0.095 C 
ENDROOT
BRANCH   3   4
HETATM    4  C4  UNL     1      56.242 358.609  85.038  1.00  0.00     0.047 C 
BRANCH   4   5
HETATM    5  C5  UNL     1      57.039 359.874  85.153  1.00  0.00     0.214 C 
BRANCH   5   6
HETATM    6  N1  UNL     1      57.496 360.308  83.850  1.00  0.00    -0.073 N 
ATOM      7  H13 UNL     1      58.444 360.682  83.887  1.00  0.00     0.274 HD
ATOM      8  H12 UNL     1      57.667 359.519  83.227  1.00  0.00     0.274 HD
ATOM      9  H11 UNL     1      56.841 360.976  83.443  1.00  0.00     0.274 HD
ENDBRANCH   5   6
BRANCH   5  10
HETATM   10  C6  UNL     1      58.244 359.581  86.029  1.00  0.00     0.217 C 
BRANCH  10  11
HETATM   11  N2  UNL     1      58.997 358.487  85.492  1.00  0.00    -0.073 N 
ATOM     12  H23 UNL     1      58.427 357.892  84.890  1.00  0.00     0.274 HD
ATOM     13  H22 UNL     1      59.676 358.799  84.798  1.00  0.00     0.274 HD
ATOM     14  H21 UNL     1      59.437 357.956  86.244  1.00  0.00     0.274 HD
ENDBRANCH  10  11
BRANCH  10  15
HETATM   15  C7  UNL     1      57.763 359.239  87.416  1.00  0.00     0.018 A 
HETATM   16  C8  UNL     1      56.844 360.145  88.150  1.00  0.00     0.007 A 
HETATM   17  C9  UNL     1      58.302 360.068  88.540  1.00  0.00     0.007 A 
ENDBRANCH  10  15
ENDBRANCH   5  10
ENDBRANCH   4   5
ENDBRANCH   3   4
TORSDOF 6
ENDMDL
MODEL 2
REMARK VINA RESULT: -6.335195861      0.991      4.548
REMARK  6 active torsions:
REMARK  status: ('A' for Active; 'I' for Inactive)
REMARK    1  A    between atoms: C3_3  and  C4_4 
REMARK    2  A    between atoms: C4_4  and  C5_5 
REMARK    3  A    between atoms: C5_5  and  N1_6 
REMARK    4  A    between atoms: C5_5  and  C6_10 
REMARK    5  A    between atoms: C6_10  and  N2_11 
REMARK    6  A    between atoms: C6_10  and  C7_15 
ROOT
HETATM    1  C1  UNL     1      56.203 361.218  89.649  1.00  0.00     0.012 C 
HETATM    2  C2  UNL     1      56.891 360.518  88.944  1.00  0.00    -0.117 C 
HETATM    3  C3  UNL     1      57.715 359.644  88.079  1.00  0.00     0.095 C 
ENDROOT
BRANCH   3   4
HETATM    4  C4  UNL     1      57.049 359.622  86.732  1.00  0.00     0.047 C 
BRANCH   4   5
HETATM    5  C5  UNL     1      57.500 358.481  85.870  1.00  0.00     0.214 C 
BRANCH   5   6
HETATM    6  N1  UNL     1      58.877 358.662  85.464  1.00  0.00    -0.073 N 
ATOM      7  H13 UNL     1      59.328 359.415  85.983  1.00  0.00     0.274 HD
ATOM      8  H12 UNL     1      59.467 357.889  85.772  1.00  0.00     0.274 HD
ATOM      9  H11 UNL     1      58.939 358.807  84.457  1.00  0.00     0.274 HD
ENDBRANCH   5   6
BRANCH   5  10
HETATM   10  C6  UNL     1      56.616 358.461  84.634  1.00  0.00     0.217 C 
BRANCH  10  11
HETATM   11  N2  UNL     1      56.658 359.730  83.971  1.00  0.00    -0.073 N 
ATOM     12  H23 UNL     1      57.609 360.094  83.905  1.00  0.00     0.274 HD
ATOM     13  H22 UNL     1      56.459 359.644  82.975  1.00  0.00     0.274 HD
ATOM     14  H21 UNL     1      56.030 360.390  84.429  1.00  0.00     0.274 HD
ENDBRANCH  10  11
BRANCH  10  15
HETATM   15  C7  UNL     1      55.203 358.149  85.054  1.00  0.00     0.018 A 
HETATM   16  C8  UNL     1      54.218 357.614  84.079  1.00  0.00     0.007 A 
HETATM   17  C9  UNL     1      54.130 359.053  84.533  1.00  0.00     0.007 A 
ENDBRANCH  10  15
ENDBRANCH   5  10
ENDBRANCH   4   5
ENDBRANCH   3   4
TORSDOF 6
ENDMDL
MODEL 3
REMARK VINA RESULT: -6.304612001      1.434      4.316
REMARK  6 active torsions:
REMARK  status: ('A' for Active; 'I' for Inactive)
REMARK    1  A    between atoms: C3_3  and  C4_4 
REMARK    2  A    between atoms: C4_4  and  C5_5 
REMARK    3  A    between atoms: C5_5  and  N1_6 
REMARK    4  A    between atoms: C5_5  and  C6_10 
REMARK    5  A    between atoms: C6_10  and  N2_11 
REMARK    6  A    between atoms: C6_10  and  C7_15 
ROOT
HETATM    1  C1  UNL     1      56.379 360.781  89.503  1.00  0.00     0.012 C 
HETATM    2  C2  UNL     1      57.117 360.372  88.638  1.00  0.00    -0.117 C 
HETATM    3  C3  UNL     1      58.029 359.855  87.593  1.00  0.00     0.095 C 
ENDROOT
BRANCH   3   4
HETATM    4  C4  UNL     1      57.531 358.484  87.230  1.00  0.00     0.047 C 
BRANCH   4   5
HETATM    5  C5  UNL     1      57.664 358.177  85.768  1.00  0.00     0.214 C 
BRANCH   5   6
HETATM    6  N1  UNL     1      58.086 359.352  85.037  1.00  0.00    -0.073 N 
ATOM      7  H13 UNL     1      58.704 359.942  85.593  1.00  0.00     0.274 HD
ATOM      8  H12 UNL     1      58.735 359.117  84.285  1.00  0.00     0.274 HD
ATOM      9  H11 UNL     1      57.278 359.870  84.691  1.00  0.00     0.274 HD
ENDBRANCH   5   6
BRANCH   5  10
HETATM   10  C6  UNL     1      56.299 357.741  85.263  1.00  0.00     0.217 C 
BRANCH  10  11
HETATM   11  N2  UNL     1      56.434 356.673  84.320  1.00  0.00    -0.073 N 
ATOM     12  H23 UNL     1      57.161 356.012  84.595  1.00  0.00     0.274 HD
ATOM     13  H22 UNL     1      55.635 356.040  84.346  1.00  0.00     0.274 HD
ATOM     14  H21 UNL     1      56.594 357.045  83.383  1.00  0.00     0.274 HD
ENDBRANCH  10  11
BRANCH  10  15
HETATM   15  C7  UNL     1      55.626 358.921  84.609  1.00  0.00     0.018 A 
HETATM   16  C8  UNL     1      54.737 359.821  85.387  1.00  0.00     0.007 A 
HETATM   17  C9  UNL     1      54.145 358.828  84.413  1.00  0.00     0.007 A 
ENDBRANCH  10  15
ENDBRANCH   5  10
ENDBRANCH   4   5
ENDBRANCH   3   4
TORSDOF 6
ENDMDL
MODEL 4
REMARK VINA RESULT: -6.094211817      1.409      4.824
REMARK  6 active torsions:
REMARK  status: ('A' for Active; 'I' for Inactive)
REMARK    1  A    between atoms: C3_3  and  C4_4 
REMARK    2  A    between atoms: C4_4  and  C5_5 
REMARK    3  A    between atoms: C5_5  and  N1_6 
REMARK    4  A    between atoms: C5_5  and  C6_10 
REMARK    5  A    between atoms: C6_10  and  N2_11 
REMARK    6  A    between atoms: C6_10  and  C7_15 
ROOT
HETATM    1  C1  UNL     1      56.452 360.901  89.621  1.00  0.00     0.012 C 
HETATM    2  C2  UNL     1      56.810 360.302  88.634  1.00  0.00    -0.117 C 
HETATM    3  C3  UNL     1      57.225 359.558  87.424  1.00  0.00     0.095 C 
ENDROOT
BRANCH   3   4
HETATM    4  C4  UNL     1      56.370 360.061  86.295  1.00  0.00     0.047 C 
BRANCH   4   5
HETATM    5  C5  UNL     1      56.618 359.343  85.002  1.00  0.00     0.214 C 
BRANCH   5   6
HETATM    6  N1  UNL     1      57.363 360.182  84.088  1.00  0.00    -0.073 N 
ATOM      7  H13 UNL     1      58.295 359.810  83.908  1.00  0.00     0.274 HD
ATOM      8  H12 UNL     1      56.991 360.131  83.139  1.00  0.00     0.274 HD
ATOM      9  H11 UNL     1      57.398 361.143  84.430  1.00  0.00     0.274 HD
ENDBRANCH   5   6
BRANCH   5  10
HETATM   10  C6  UNL     1      55.266 359.019  84.389  1.00  0.00     0.217 C 
BRANCH  10  11
HETATM   11  N2  UNL     1      54.233 359.772  85.033  1.00  0.00    -0.073 N 
ATOM     12  H23 UNL     1      53.425 359.193  85.261  1.00  0.00     0.274 HD
ATOM     13  H22 UNL     1      54.496 360.045  85.980  1.00  0.00     0.274 HD
ATOM     14  H21 UNL     1      53.974 360.578  84.464  1.00  0.00     0.274 HD
ENDBRANCH  10  11
BRANCH  10  15
HETATM   15  C7  UNL     1      55.001 357.544  84.552  1.00  0.00     0.018 A 
HETATM   16  C8  UNL     1      55.263 356.594  83.441  1.00  0.00     0.007 A 
HETATM   17  C9  UNL     1      53.844 356.979  83.789  1.00  0.00     0.007 A 
ENDBRANCH  10  15
ENDBRANCH   5  10
ENDBRANCH   4   5
ENDBRANCH   3   4
TORSDOF 6
ENDMDL
MODEL 5
REMARK VINA RESULT: -6.024827520      0.790      1.140
REMARK  6 active torsions:
REMARK  status: ('A' for Active; 'I' for Inactive)
REMARK    1  A    between atoms: C3_3  and  C4_4 
REMARK    2  A    between atoms: C4_4  and  C5_5 
REMARK    3  A    between atoms: C5_5  and  N1_6 
REMARK    4  A    between atoms: C5_5  and  C6_10 
REMARK    5  A    between atoms: C6_10  and  N2_11 
REMARK    6  A    between atoms: C6_10  and  C7_15 
ROOT
HETATM    1  C1  UNL     1      53.527 359.546  84.813  1.00  0.00     0.012 C 
HETATM    2  C2  UNL     1      54.369 358.709  84.587  1.00  0.00    -0.117 C 
HETATM    3  C3  UNL     1      55.415 357.702  84.301  1.00  0.00     0.095 C 
ENDROOT
BRANCH   3   4
HETATM    4  C4  UNL     1      56.564 358.003  85.222  1.00  0.00     0.047 C 
BRANCH   4   5
HETATM    5  C5  UNL     1      56.961 359.449  85.216  1.00  0.00     0.214 C 
BRANCH   5   6
HETATM    6  N1  UNL     1      57.228 359.898  83.867  1.00  0.00    -0.073 N 
ATOM      7  H13 UNL     1      58.187 359.696  83.584  1.00  0.00     0.274 HD
ATOM      8  H12 UNL     1      56.741 359.329  83.174  1.00  0.00     0.274 HD
ATOM      9  H11 UNL     1      57.005 360.888  83.767  1.00  0.00     0.274 HD
ENDBRANCH   5   6
BRANCH   5  10
HETATM   10  C6  UNL     1      58.228 359.581  86.044  1.00  0.00     0.217 C 
BRANCH  10  11
HETATM   11  N2  UNL     1      59.236 358.688  85.559  1.00  0.00    -0.073 N 
ATOM     12  H23 UNL     1      59.546 358.036  86.281  1.00  0.00     0.274 HD
ATOM     13  H22 UNL     1      58.857 358.010  84.897  1.00  0.00     0.274 HD
ATOM     14  H21 UNL     1      60.015 359.213  85.162  1.00  0.00     0.274 HD
ENDBRANCH  10  11
BRANCH  10  15
HETATM   15  C7  UNL     1      57.904 359.258  87.480  1.00  0.00     0.018 A 
HETATM   16  C8  UNL     1      56.903 360.054  88.234  1.00  0.00     0.007 A 
HETATM   17  C9  UNL     1      58.377 360.232  88.513  1.00  0.00     0.007 A 
ENDBRANCH  10  15
ENDBRANCH   5  10
ENDBRANCH   4   5
ENDBRANCH   3   4
TORSDOF 6
ENDMDL
