MODEL 1
REMARK VINA RESULT: -6.336223382      0.000      0.000
REMARK  2 active torsions:
REMARK  status: ('A' for Active; 'I' for Inactive)
REMARK    1  A    between atoms: N5_22  and  C12_23 
REMARK    2  A    between atoms: C12_23  and  C13_24 
ROOT
HETATM    1  C1  UNL     1      11.070  -9.519 -18.671  1.00  0.00     0.145 C 
HETATM    2  N1  UNL     1      10.187  -9.425 -17.524  1.00  0.00    -0.399 N 
ATOM      3  H1  UNL     1       9.979  -8.521 -17.099  1.00  0.00     0.158 HD
HETATM    4  C2  UNL     1       9.674 -10.506 -17.055  1.00  0.00     0.009 C 
HETATM    5  C3  UNL     1       9.935 -11.853 -17.628  1.00  0.00     0.081 C 
HETATM    6  C4  UNL     1      10.966 -12.539 -16.753  1.00  0.00     0.238 C 
HETATM    7  N2  UNL     1      11.417 -13.785 -17.360  1.00  0.00    -0.073 N 
ATOM      8  H21 UNL     1      12.318 -13.688 -17.828  1.00  0.00     0.277 HD
ATOM      9  H22 UNL     1      10.863 -14.046 -18.175  1.00  0.00     0.277 HD
HETATM   10  C5  UNL     1      11.427 -14.805 -16.354  1.00  0.00     0.259 C 
HETATM   11  C6  UNL     1      10.777 -16.063 -16.902  1.00  0.00     0.259 C 
HETATM   12  N3  UNL     1      10.809 -17.047 -15.827  1.00  0.00    -0.073 N 
ATOM     13  H31 UNL     1      10.588 -16.628 -14.924  1.00  0.00     0.277 HD
ATOM     14  H32 UNL     1      11.759 -17.356 -15.625  1.00  0.00     0.277 HD
HETATM   15  C7  UNL     1       9.921 -18.182 -16.133  1.00  0.00     0.234 C 
HETATM   16  C8  UNL     1       8.482 -17.710 -16.205  1.00  0.00     0.046 C 
HETATM   17  C9  UNL     1       7.526 -18.672 -15.537  1.00  0.00     0.115 C 
HETATM   18  N4  UNL     1       6.369 -18.789 -16.357  1.00  0.00    -0.419 N 
ATOM     19  H4  UNL     1       6.421 -19.132 -17.316  1.00  0.00     0.153 HD
HETATM   20  C10 UNL     1       5.136 -18.403 -15.763  1.00  0.00     0.144 C 
HETATM   21  C11 UNL     1       5.262 -17.366 -14.668  1.00  0.00     0.292 C 
HETATM   22  N5  UNL     1       4.178 -16.430 -14.803  1.00  0.00     0.101 N 
HETATM   23  C14 UNL     1       4.401 -15.270 -13.972  1.00  0.00     0.300 C 
HETATM   24  C15 UNL     1       3.256 -14.327 -13.932  1.00  0.00     0.262 C 
HETATM   25  N6  UNL     1       3.266 -13.360 -15.014  1.00  0.00    -0.072 N 
ATOM     26  H61 UNL     1       2.662 -13.652 -15.783  1.00  0.00     0.277 HD
ATOM     27  H62 UNL     1       4.159 -13.362 -15.507  1.00  0.00     0.277 HD
HETATM   28  C16 UNL     1       2.921 -12.029 -14.540  1.00  0.00     0.259 C 
HETATM   29  C17 UNL     1       4.139 -11.439 -13.848  1.00  0.00     0.259 C 
HETATM   30  N7  UNL     1       5.097 -11.145 -14.899  1.00  0.00    -0.073 N 
ATOM     31  H71 UNL     1       5.089 -11.836 -15.648  1.00  0.00     0.277 HD
ATOM     32  H72 UNL     1       6.064 -11.279 -14.603  1.00  0.00     0.277 HD
HETATM   33  C18 UNL     1       4.837  -9.817 -15.364  1.00  0.00     0.234 C 
HETATM   34  C19 UNL     1       6.032  -9.154 -16.003  1.00  0.00     0.055 C 
HETATM   35  C20 UNL     1       7.134  -8.874 -15.027  1.00  0.00     0.234 C 
HETATM   36  N8  UNL     1       8.425  -9.068 -15.609  1.00  0.00    -0.070 N 
ATOM     37  H81 UNL     1       9.144  -8.633 -15.031  1.00  0.00     0.277 HD
ATOM     38  H82 UNL     1       8.519  -8.510 -16.457  1.00  0.00     0.277 HD
HETATM   39  C21 UNL     1       8.760 -10.439 -15.874  1.00  0.00     0.284 C 
ENDROOT
BRANCH  22  40
HETATM   40  C12 UNL     1       2.876 -16.979 -14.701  1.00  0.00     0.385 C 
BRANCH  40  41
HETATM   41  C13 UNL     1       1.924 -16.647 -15.765  1.00  0.00     0.202 C 
HETATM   42  O1  UNL     1       2.429 -16.002 -16.750  1.00  0.00    -0.647 OA
HETATM   43  O2  UNL     1       0.596 -16.935 -15.822  1.00  0.00    -0.647 OA
ENDBRANCH  40  41
ENDBRANCH  22  40
TORSDOF 2
ENDMDL
MODEL 2
REMARK VINA RESULT: -5.862569695      2.784      5.029
REMARK  2 active torsions:
REMARK  status: ('A' for Active; 'I' for Inactive)
REMARK    1  A    between atoms: N5_22  and  C12_23 
REMARK    2  A    between atoms: C12_23  and  C13_24 
ROOT
HETATM    1  C1  UNL     1       4.826  -8.954 -20.785  1.00  0.00     0.145 C 
HETATM    2  N1  UNL     1       4.258  -9.531 -19.582  1.00  0.00    -0.399 N 
ATOM      3  H1  UNL     1       3.331  -9.254 -19.258  1.00  0.00     0.158 HD
HETATM    4  C2  UNL     1       4.950 -10.398 -18.932  1.00  0.00     0.009 C 
HETATM    5  C3  UNL     1       6.305 -10.845 -19.350  1.00  0.00     0.081 C 
HETATM    6  C4  UNL     1       7.321 -10.113 -18.496  1.00  0.00     0.238 C 
HETATM    7  N2  UNL     1       8.676 -10.352 -18.978  1.00  0.00    -0.073 N 
ATOM      8  H21 UNL     1       9.034  -9.577 -19.537  1.00  0.00     0.277 HD
ATOM      9  H22 UNL     1       8.713 -11.073 -19.698  1.00  0.00     0.277 HD
HETATM   10  C5  UNL     1       9.513 -10.652 -17.855  1.00  0.00     0.259 C 
HETATM   11  C6  UNL     1      10.373 -11.863 -18.174  1.00  0.00     0.259 C 
HETATM   12  N3  UNL     1      11.183 -12.119 -16.990  1.00  0.00    -0.073 N 
ATOM     13  H31 UNL     1      10.646 -12.001 -16.132  1.00  0.00     0.277 HD
ATOM     14  H32 UNL     1      11.876 -11.385 -16.840  1.00  0.00     0.277 HD
HETATM   15  C7  UNL     1      11.807 -13.451 -17.064  1.00  0.00     0.234 C 
HETATM   16  C8  UNL     1      10.738 -14.525 -17.060  1.00  0.00     0.046 C 
HETATM   17  C9  UNL     1      11.108 -15.704 -16.188  1.00  0.00     0.115 C 
HETATM   18  N4  UNL     1      10.744 -16.896 -16.873  1.00  0.00    -0.419 N 
ATOM     19  H4  UNL     1      11.140 -17.137 -17.782  1.00  0.00     0.153 HD
HETATM   20  C10 UNL     1       9.796 -17.732 -16.221  1.00  0.00     0.144 C 
HETATM   21  C11 UNL     1       8.855 -17.006 -15.284  1.00  0.00     0.292 C 
HETATM   22  N5  UNL     1       7.541 -17.570 -15.436  1.00  0.00     0.101 N 
HETATM   23  C14 UNL     1       6.554 -16.741 -14.784  1.00  0.00     0.300 C 
HETATM   24  C15 UNL     1       5.192 -17.331 -14.758  1.00  0.00     0.262 C 
HETATM   25  N6  UNL     1       4.417 -17.046 -15.951  1.00  0.00    -0.072 N 
ATOM     26  H61 UNL     1       4.455 -17.819 -16.615  1.00  0.00     0.277 HD
ATOM     27  H62 UNL     1       4.860 -16.326 -16.521  1.00  0.00     0.277 HD
HETATM   28  C16 UNL     1       3.044 -16.694 -15.621  1.00  0.00     0.259 C 
HETATM   29  C17 UNL     1       3.026 -15.257 -15.127  1.00  0.00     0.259 C 
HETATM   30  N7  UNL     1       3.277 -14.427 -16.292  1.00  0.00    -0.073 N 
ATOM     31  H71 UNL     1       3.941 -14.847 -16.943  1.00  0.00     0.277 HD
ATOM     32  H72 UNL     1       3.816 -13.589 -16.073  1.00  0.00     0.277 HD
HETATM   33  C18 UNL     1       2.014 -14.135 -16.897  1.00  0.00     0.234 C 
HETATM   34  C19 UNL     1       2.016 -12.874 -17.724  1.00  0.00     0.055 C 
HETATM   35  C20 UNL     1       2.199 -11.636 -16.899  1.00  0.00     0.234 C 
HETATM   36  N8  UNL     1       3.002 -10.662 -17.571  1.00  0.00    -0.070 N 
ATOM     37  H81 UNL     1       2.902  -9.751 -17.123  1.00  0.00     0.277 HD
ATOM     38  H82 UNL     1       2.609 -10.451 -18.488  1.00  0.00     0.277 HD
HETATM   39  C21 UNL     1       4.390 -11.010 -17.689  1.00  0.00     0.284 C 
ENDROOT
BRANCH  22  40
HETATM   40  C12 UNL     1       7.427 -18.951 -15.142  1.00  0.00     0.385 C 
BRANCH  40  41
HETATM   41  C13 UNL     1       7.198 -19.858 -16.270  1.00  0.00     0.202 C 
HETATM   42  O1  UNL     1       6.311 -19.459 -17.103  1.00  0.00    -0.647 OA
HETATM   43  O2  UNL     1       7.803 -21.050 -16.524  1.00  0.00    -0.647 OA
ENDBRANCH  40  41
ENDBRANCH  22  40
TORSDOF 2
ENDMDL
MODEL 3
REMARK VINA RESULT: -5.769177515      3.911      7.973
REMARK  2 active torsions:
REMARK  status: ('A' for Active; 'I' for Inactive)
REMARK    1  A    between atoms: N5_22  and  C12_23 
REMARK    2  A    between atoms: C12_23  and  C13_24 
ROOT
HETATM    1  C1  UNL     1       5.948 -18.515 -14.971  1.00  0.00     0.145 C 
HETATM    2  N1  UNL     1       5.127 -17.692 -15.837  1.00  0.00    -0.399 N 
ATOM      3  H1  UNL     1       4.624 -18.103 -16.624  1.00  0.00     0.158 HD
HETATM    4  C2  UNL     1       5.047 -16.433 -15.592  1.00  0.00     0.009 C 
HETATM    5  C3  UNL     1       5.752 -15.772 -14.462  1.00  0.00     0.081 C 
HETATM    6  C4  UNL     1       6.987 -15.091 -15.018  1.00  0.00     0.238 C 
HETATM    7  N2  UNL     1       7.833 -14.587 -13.943  1.00  0.00    -0.073 N 
ATOM      8  H21 UNL     1       8.626 -15.200 -13.750  1.00  0.00     0.277 HD
ATOM      9  H22 UNL     1       7.383 -14.648 -13.031  1.00  0.00     0.277 HD
HETATM   10  C5  UNL     1       8.238 -13.252 -14.268  1.00  0.00     0.259 C 
HETATM   11  C6  UNL     1       8.062 -12.359 -13.053  1.00  0.00     0.259 C 
HETATM   12  N3  UNL     1       8.476 -11.022 -13.458  1.00  0.00    -0.073 N 
ATOM     13  H31 UNL     1       8.149 -10.793 -14.396  1.00  0.00     0.277 HD
ATOM     14  H32 UNL     1       9.480 -10.972 -13.629  1.00  0.00     0.277 HD
HETATM   15  C7  UNL     1       8.041 -10.020 -12.470  1.00  0.00     0.234 C 
HETATM   16  C8  UNL     1       6.527  -9.972 -12.411  1.00  0.00     0.046 C 
HETATM   17  C9  UNL     1       5.998  -8.559 -12.319  1.00  0.00     0.115 C 
HETATM   18  N4  UNL     1       4.933  -8.543 -11.376  1.00  0.00    -0.419 N 
ATOM     19  H4  UNL     1       5.073  -8.810 -10.401  1.00  0.00     0.153 HD
HETATM   20  C10 UNL     1       3.662  -8.136 -11.868  1.00  0.00     0.144 C 
HETATM   21  C11 UNL     1       3.445  -8.395 -13.343  1.00  0.00     0.292 C 
HETATM   22  N5  UNL     1       2.096  -8.856 -13.528  1.00  0.00     0.101 N 
HETATM   23  C14 UNL     1       1.917  -9.385 -14.861  1.00  0.00     0.300 C 
HETATM   24  C15 UNL     1       0.513  -9.738 -15.187  1.00  0.00     0.262 C 
HETATM   25  N6  UNL     1       0.145 -11.079 -14.774  1.00  0.00    -0.072 N 
ATOM     26  H61 UNL     1      -0.340 -11.074 -13.876  1.00  0.00     0.277 HD
ATOM     27  H62 UNL     1       0.963 -11.626 -14.507  1.00  0.00     0.277 HD
HETATM   28  C16 UNL     1      -0.637 -11.754 -15.798  1.00  0.00     0.259 C 
HETATM   29  C17 UNL     1       0.312 -12.227 -16.887  1.00  0.00     0.259 C 
HETATM   30  N7  UNL     1       1.069 -13.326 -16.314  1.00  0.00    -0.073 N 
ATOM     31  H71 UNL     1       1.284 -13.187 -15.327  1.00  0.00     0.277 HD
ATOM     32  H72 UNL     1       2.029 -13.367 -16.656  1.00  0.00     0.277 HD
HETATM   33  C18 UNL     1       0.338 -14.531 -16.560  1.00  0.00     0.234 C 
HETATM   34  C19 UNL     1       1.198 -15.770 -16.562  1.00  0.00     0.055 C 
HETATM   35  C20 UNL     1       2.158 -15.811 -17.712  1.00  0.00     0.234 C 
HETATM   36  N8  UNL     1       3.415 -16.382 -17.338  1.00  0.00    -0.070 N 
ATOM     37  H81 UNL     1       3.949 -16.637 -18.168  1.00  0.00     0.277 HD
ATOM     38  H82 UNL     1       3.276 -17.304 -16.926  1.00  0.00     0.277 HD
HETATM   39  C21 UNL     1       4.208 -15.560 -16.467  1.00  0.00     0.284 C 
ENDROOT
BRANCH  22  40
HETATM   40  C12 UNL     1       1.079  -7.961 -13.115  1.00  0.00     0.385 C 
BRANCH  40  41
HETATM   41  C13 UNL     1       0.223  -8.387 -12.004  1.00  0.00     0.202 C 
HETATM   42  O1  UNL     1       0.209  -9.651 -11.796  1.00  0.00    -0.647 OA
HETATM   43  O2  UNL     1      -0.544  -7.611 -11.191  1.00  0.00    -0.647 OA
ENDBRANCH  40  41
ENDBRANCH  22  40
TORSDOF 2
ENDMDL
MODEL 4
REMARK VINA RESULT: -5.679792309      3.316      7.392
REMARK  2 active torsions:
REMARK  status: ('A' for Active; 'I' for Inactive)
REMARK    1  A    between atoms: N5_22  and  C12_23 
REMARK    2  A    between atoms: C12_23  and  C13_24 
ROOT
HETATM    1  C1  UNL     1       0.046 -12.793 -13.696  1.00  0.00     0.145 C 
HETATM    2  N1  UNL     1       0.672 -12.318 -14.914  1.00  0.00    -0.399 N 
ATOM      3  H1  UNL     1       0.240 -11.577 -15.468  1.00  0.00     0.158 HD
HETATM    4  C2  UNL     1       1.783 -12.850 -15.280  1.00  0.00     0.009 C 
HETATM    5  C3  UNL     1       2.465 -13.929 -14.519  1.00  0.00     0.081 C 
HETATM    6  C4  UNL     1       2.167 -15.246 -15.209  1.00  0.00     0.238 C 
HETATM    7  N2  UNL     1       2.639 -16.371 -14.412  1.00  0.00    -0.073 N 
ATOM      8  H21 UNL     1       1.887 -16.821 -13.888  1.00  0.00     0.277 HD
ATOM      9  H22 UNL     1       3.206 -16.076 -13.618  1.00  0.00     0.277 HD
HETATM   10  C5  UNL     1       3.330 -17.283 -15.273  1.00  0.00     0.259 C 
HETATM   11  C6  UNL     1       4.636 -17.703 -14.623  1.00  0.00     0.259 C 
HETATM   12  N3  UNL     1       5.289 -18.614 -15.555  1.00  0.00    -0.073 N 
ATOM     13  H31 UNL     1       5.199 -18.296 -16.520  1.00  0.00     0.277 HD
ATOM     14  H32 UNL     1       4.786 -19.497 -15.637  1.00  0.00     0.277 HD
HETATM   15  C7  UNL     1       6.698 -18.822 -15.180  1.00  0.00     0.234 C 
HETATM   16  C8  UNL     1       7.462 -17.518 -15.288  1.00  0.00     0.046 C 
HETATM   17  C9  UNL     1       8.832 -17.702 -15.902  1.00  0.00     0.115 C 
HETATM   18  N4  UNL     1       9.757 -16.904 -15.173  1.00  0.00    -0.419 N 
ATOM     19  H4  UNL     1       9.921 -17.046 -14.176  1.00  0.00     0.153 HD
HETATM   20  C10 UNL     1      10.439 -15.899 -15.911  1.00  0.00     0.144 C 
HETATM   21  C11 UNL     1       9.685 -15.381 -17.117  1.00  0.00     0.292 C 
HETATM   22  N5  UNL     1       9.876 -13.957 -17.193  1.00  0.00     0.101 N 
HETATM   23  C14 UNL     1       8.961 -13.373 -18.147  1.00  0.00     0.300 C 
HETATM   24  C15 UNL     1       9.196 -11.930 -18.402  1.00  0.00     0.262 C 
HETATM   25  N6  UNL     1       8.523 -11.059 -17.456  1.00  0.00    -0.072 N 
ATOM     26  H61 UNL     1       9.151 -10.761 -16.709  1.00  0.00     0.277 HD
ATOM     27  H62 UNL     1       7.843 -11.572 -16.895  1.00  0.00     0.277 HD
HETATM   28  C16 UNL     1       7.912  -9.921 -18.125  1.00  0.00     0.259 C 
HETATM   29  C17 UNL     1       6.626 -10.389 -18.785  1.00  0.00     0.259 C 
HETATM   30  N7  UNL     1       5.688 -10.642 -17.706  1.00  0.00    -0.073 N 
ATOM     31  H71 UNL     1       6.133 -11.035 -16.876  1.00  0.00     0.277 HD
ATOM     32  H72 UNL     1       5.059 -11.421 -17.901  1.00  0.00     0.277 HD
HETATM   33  C18 UNL     1       4.994  -9.420 -17.439  1.00  0.00     0.234 C 
HETATM   34  C19 UNL     1       3.644  -9.618 -16.795  1.00  0.00     0.055 C 
HETATM   35  C20 UNL     1       2.656 -10.283 -17.705  1.00  0.00     0.234 C 
HETATM   36  N8  UNL     1       1.803 -11.186 -16.998  1.00  0.00    -0.070 N 
ATOM     37  H81 UNL     1       0.990 -11.424 -17.566  1.00  0.00     0.277 HD
ATOM     38  H82 UNL     1       1.343 -10.707 -16.224  1.00  0.00     0.277 HD
HETATM   39  C21 UNL     1       2.452 -12.379 -16.531  1.00  0.00     0.284 C 
ENDROOT
BRANCH  22  40
HETATM   40  C12 UNL     1      11.217 -13.523 -17.331  1.00  0.00     0.385 C 
BRANCH  40  41
HETATM   41  C13 UNL     1      11.581 -12.260 -16.683  1.00  0.00     0.202 C 
HETATM   42  O1  UNL     1      12.380 -11.524 -17.361  1.00  0.00    -0.647 OA
HETATM   43  O2  UNL     1      11.180 -11.793 -15.470  1.00  0.00    -0.647 OA
ENDBRANCH  40  41
ENDBRANCH  22  40
TORSDOF 2
ENDMDL
MODEL 5
REMARK VINA RESULT: -5.646358602      3.708      8.736
REMARK  2 active torsions:
REMARK  status: ('A' for Active; 'I' for Inactive)
REMARK    1  A    between atoms: N5_22  and  C12_23 
REMARK    2  A    between atoms: C12_23  and  C13_24 
ROOT
HETATM    1  C1  UNL     1      -1.960  -9.059 -15.731  1.00  0.00     0.145 C 
HETATM    2  N1  UNL     1      -1.699 -10.415 -15.291  1.00  0.00    -0.399 N 
ATOM      3  H1  UNL     1      -2.432 -11.124 -15.323  1.00  0.00     0.158 HD
HETATM    4  C2  UNL     1      -0.523 -10.704 -14.859  1.00  0.00     0.009 C 
HETATM    5  C3  UNL     1       0.588  -9.719 -14.789  1.00  0.00     0.081 C 
HETATM    6  C4  UNL     1       0.705  -9.252 -13.351  1.00  0.00     0.238 C 
HETATM    7  N2  UNL     1       1.643  -8.142 -13.239  1.00  0.00    -0.073 N 
ATOM      8  H21 UNL     1       1.173  -7.238 -13.179  1.00  0.00     0.277 HD
ATOM      9  H22 UNL     1       2.157  -7.976 -14.103  1.00  0.00     0.277 HD
HETATM   10  C5  UNL     1       2.508  -8.386 -12.123  1.00  0.00     0.259 C 
HETATM   11  C6  UNL     1       3.946  -8.113 -12.527  1.00  0.00     0.259 C 
HETATM   12  N3  UNL     1       4.766  -8.394 -11.356  1.00  0.00    -0.073 N 
ATOM     13  H31 UNL     1       4.452  -9.232 -10.867  1.00  0.00     0.277 HD
ATOM     14  H32 UNL     1       4.609  -7.714 -10.612  1.00  0.00     0.277 HD
HETATM   15  C7  UNL     1       6.189  -8.479 -11.725  1.00  0.00     0.234 C 
HETATM   16  C8  UNL     1       6.413  -9.648 -12.664  1.00  0.00     0.046 C 
HETATM   17  C9  UNL     1       7.672 -10.419 -12.336  1.00  0.00     0.115 C 
HETATM   18  N4  UNL     1       8.327 -10.740 -13.557  1.00  0.00    -0.419 N 
ATOM     19  H4  UNL     1       8.650 -10.018 -14.201  1.00  0.00     0.153 HD
HETATM   20  C10 UNL     1       8.507 -12.125 -13.829  1.00  0.00     0.144 C 
HETATM   21  C11 UNL     1       7.478 -13.031 -13.189  1.00  0.00     0.292 C 
HETATM   22  N5  UNL     1       7.131 -14.060 -14.133  1.00  0.00     0.101 N 
HETATM   23  C14 UNL     1       5.960 -14.781 -13.691  1.00  0.00     0.300 C 
HETATM   24  C15 UNL     1       5.626 -15.960 -14.528  1.00  0.00     0.262 C 
HETATM   25  N6  UNL     1       4.802 -15.637 -15.678  1.00  0.00    -0.072 N 
ATOM     26  H61 UNL     1       5.365 -15.526 -16.522  1.00  0.00     0.277 HD
ATOM     27  H62 UNL     1       4.426 -14.691 -15.614  1.00  0.00     0.277 HD
HETATM   28  C16 UNL     1       3.747 -16.620 -15.868  1.00  0.00     0.259 C 
HETATM   29  C17 UNL     1       2.647 -16.338 -14.858  1.00  0.00     0.259 C 
HETATM   30  N7  UNL     1       2.000 -15.114 -15.295  1.00  0.00    -0.073 N 
ATOM     31  H71 UNL     1       2.653 -14.442 -15.698  1.00  0.00     0.277 HD
ATOM     32  H72 UNL     1       1.676 -14.537 -14.519  1.00  0.00     0.277 HD
HETATM   33  C18 UNL     1       0.949 -15.476 -16.196  1.00  0.00     0.234 C 
HETATM   34  C19 UNL     1      -0.150 -14.448 -16.289  1.00  0.00     0.055 C 
HETATM   35  C20 UNL     1      -0.933 -14.315 -15.019  1.00  0.00     0.234 C 
HETATM   36  N8  UNL     1      -1.312 -12.960 -14.764  1.00  0.00    -0.070 N 
ATOM     37  H81 UNL     1      -2.046 -12.923 -14.057  1.00  0.00     0.277 HD
ATOM     38  H82 UNL     1      -1.817 -12.577 -15.563  1.00  0.00     0.277 HD
HETATM   39  C21 UNL     1      -0.224 -12.095 -14.400  1.00  0.00     0.284 C 
ENDROOT
BRANCH  22  40
HETATM   40  C12 UNL     1       8.198 -14.887 -14.559  1.00  0.00     0.385 C 
BRANCH  40  41
HETATM   41  C13 UNL     1       8.651 -14.734 -15.945  1.00  0.00     0.202 C 
HETATM   42  O1  UNL     1       9.924 -14.723 -16.092  1.00  0.00    -0.647 OA
HETATM   43  O2  UNL     1       7.892 -14.600 -17.066  1.00  0.00    -0.647 OA
ENDBRANCH  40  41
ENDBRANCH  22  40
TORSDOF 2
ENDMDL
