MODEL 1
REMARK VINA RESULT: -7.224980990      0.000      0.000
REMARK  1 active torsions:
REMARK  status: ('A' for Active; 'I' for Inactive)
REMARK    1  A    between atoms: C1_2  and  C2_4 
ROOT
HETATM    1  C2  UNL     1       9.076 -13.596 -15.892  1.00  0.00     0.186 C 
HETATM    2  C3  UNL     1       7.683 -13.559 -16.447  1.00  0.00     0.166 C 
HETATM    3  N2  UNL     1       6.801 -12.632 -15.770  1.00  0.00    -0.319 N 
HETATM    4  N3  UNL     1       6.788 -11.520 -16.626  1.00  0.00    -0.276 N 
ATOM      5  H3  UNL     1       7.428 -11.619 -17.414  1.00  0.00     0.189 HD
HETATM    6  C4  UNL     1       6.134 -10.378 -16.638  1.00  0.00     0.203 C 
HETATM    7  N4  UNL     1       6.463  -9.539 -17.743  1.00  0.00    -0.062 NA
HETATM    8  N5  UNL     1       5.165  -9.848 -15.740  1.00  0.00    -0.359 N 
ATOM      9  H5  UNL     1       4.583  -9.118 -16.150  1.00  0.00     0.162 HD
HETATM   10  C5  UNL     1       4.846 -10.137 -14.371  1.00  0.00     0.084 C 
HETATM   11  C6  UNL     1       6.058 -10.015 -13.493  1.00  0.00     0.025 C 
HETATM   12  C7  UNL     1       6.291 -11.210 -12.614  1.00  0.00     0.004 C 
HETATM   13  C8  UNL     1       6.854 -12.389 -13.327  1.00  0.00     0.027 C 
HETATM   14  C9  UNL     1       6.134 -12.900 -14.502  1.00  0.00     0.106 C 
HETATM   15  C10 UNL     1       4.668 -12.671 -14.579  1.00  0.00     0.013 C 
HETATM   16  C11 UNL     1       3.857 -13.731 -13.844  1.00  0.00     0.034 C 
HETATM   17  C12 UNL     1       4.351 -15.109 -14.010  1.00  0.00     0.232 C 
HETATM   18  N6  UNL     1       3.267 -16.025 -13.662  1.00  0.00    -0.074 N 
ATOM     19  H61 UNL     1       2.372 -15.538 -13.625  1.00  0.00     0.277 HD
ATOM     20  H62 UNL     1       3.332 -16.320 -12.688  1.00  0.00     0.277 HD
HETATM   21  C13 UNL     1       3.207 -17.158 -14.544  1.00  0.00     0.259 C 
HETATM   22  C14 UNL     1       3.879 -18.355 -13.895  1.00  0.00     0.259 C 
HETATM   23  N7  UNL     1       4.305 -19.221 -15.005  1.00  0.00    -0.073 N 
ATOM     24  H71 UNL     1       3.645 -19.250 -15.782  1.00  0.00     0.277 HD
ATOM     25  H72 UNL     1       4.272 -20.217 -14.787  1.00  0.00     0.277 HD
HETATM   26  C15 UNL     1       5.638 -18.738 -15.375  1.00  0.00     0.234 C 
HETATM   27  C16 UNL     1       6.227 -19.513 -16.512  1.00  0.00     0.055 C 
HETATM   28  C17 UNL     1       7.699 -19.778 -16.311  1.00  0.00     0.234 C 
HETATM   29  N8  UNL     1       8.231 -18.873 -15.286  1.00  0.00    -0.074 N 
ATOM     30  H81 UNL     1       8.475 -19.379 -14.435  1.00  0.00     0.277 HD
ATOM     31  H82 UNL     1       7.499 -18.270 -14.909  1.00  0.00     0.277 HD
HETATM   32  C18 UNL     1       9.335 -18.109 -15.771  1.00  0.00     0.251 C 
HETATM   33  C19 UNL     1       9.397 -16.708 -15.165  1.00  0.00     0.150 C 
HETATM   34  N9  UNL     1      10.189 -15.902 -16.077  1.00  0.00    -0.359 N 
ATOM     35  H9  UNL     1      11.117 -16.248 -16.321  1.00  0.00     0.162 HD
HETATM   36  C20 UNL     1       9.787 -14.690 -16.649  1.00  0.00     0.232 C 
HETATM   37  O2  UNL     1      10.012 -14.457 -17.864  1.00  0.00    -0.273 OA
HETATM   38  C21 UNL     1       4.091 -11.393 -14.157  1.00  0.00     0.032 C 
ENDROOT
BRANCH   1  39
HETATM   39  C1  UNL     1       9.842 -12.359 -16.201  1.00  0.00     0.246 C 
HETATM   40  N1  UNL     1      10.911 -11.968 -15.388  1.00  0.00    -0.061 NA
HETATM   41  O1  UNL     1       9.526 -11.671 -17.191  1.00  0.00    -0.276 OA
ENDBRANCH   1  39
TORSDOF 1
ENDMDL
MODEL 2
REMARK VINA RESULT: -6.561138954      3.478      7.404
REMARK  1 active torsions:
REMARK  status: ('A' for Active; 'I' for Inactive)
REMARK    1  A    between atoms: C1_2  and  C2_4 
ROOT
HETATM    1  C2  UNL     1       4.068 -14.249 -16.110  1.00  0.00     0.186 C 
HETATM    2  C3  UNL     1       4.874 -13.062 -16.545  1.00  0.00     0.166 C 
HETATM    3  N2  UNL     1       6.282 -13.339 -16.732  1.00  0.00    -0.319 N 
HETATM    4  N3  UNL     1       6.399 -13.478 -18.123  1.00  0.00    -0.276 N 
ATOM      5  H3  UNL     1       5.500 -13.430 -18.603  1.00  0.00     0.189 HD
HETATM    6  C4  UNL     1       7.410 -13.658 -18.946  1.00  0.00     0.203 C 
HETATM    7  N4  UNL     1       7.027 -13.743 -20.318  1.00  0.00    -0.062 NA
HETATM    8  N5  UNL     1       8.806 -13.781 -18.697  1.00  0.00    -0.359 N 
ATOM      9  H5  UNL     1       9.387 -13.575 -19.510  1.00  0.00     0.162 HD
HETATM   10  C5  UNL     1       9.559 -14.137 -17.528  1.00  0.00     0.084 C 
HETATM   11  C6  UNL     1       9.114 -15.462 -16.979  1.00  0.00     0.025 C 
HETATM   12  C7  UNL     1       8.804 -15.435 -15.510  1.00  0.00     0.004 C 
HETATM   13  C8  UNL     1       7.504 -14.793 -15.175  1.00  0.00     0.027 C 
HETATM   14  C9  UNL     1       7.259 -13.425 -15.654  1.00  0.00     0.106 C 
HETATM   15  C10 UNL     1       8.434 -12.545 -15.887  1.00  0.00     0.013 C 
HETATM   16  C11 UNL     1       8.905 -11.828 -14.627  1.00  0.00     0.034 C 
HETATM   17  C12 UNL     1       7.822 -11.323 -13.765  1.00  0.00     0.232 C 
HETATM   18  N6  UNL     1       8.383 -10.301 -12.885  1.00  0.00    -0.074 N 
ATOM     19  H61 UNL     1       9.299  -9.994 -13.213  1.00  0.00     0.277 HD
ATOM     20  H62 UNL     1       8.658 -10.698 -11.986  1.00  0.00     0.277 HD
HETATM   21  C13 UNL     1       7.494  -9.186 -12.709  1.00  0.00     0.259 C 
HETATM   22  C14 UNL     1       6.744  -9.324 -11.396  1.00  0.00     0.259 C 
HETATM   23  N7  UNL     1       5.504  -8.551 -11.564  1.00  0.00    -0.073 N 
ATOM     24  H71 UNL     1       5.622  -7.693 -12.101  1.00  0.00     0.277 HD
ATOM     25  H72 UNL     1       5.174  -8.108 -10.706  1.00  0.00     0.277 HD
HETATM   26  C15 UNL     1       4.546  -9.492 -12.151  1.00  0.00     0.234 C 
HETATM   27  C16 UNL     1       3.212  -8.861 -12.401  1.00  0.00     0.055 C 
HETATM   28  C17 UNL     1       2.075  -9.792 -12.054  1.00  0.00     0.234 C 
HETATM   29  N8  UNL     1       2.571 -11.169 -11.962  1.00  0.00    -0.074 N 
ATOM     30  H81 UNL     1       2.555 -11.506 -10.999  1.00  0.00     0.277 HD
ATOM     31  H82 UNL     1       3.576 -11.213 -12.130  1.00  0.00     0.277 HD
HETATM   32  C18 UNL     1       1.861 -12.051 -12.832  1.00  0.00     0.251 C 
HETATM   33  C19 UNL     1       2.742 -13.166 -13.393  1.00  0.00     0.150 C 
HETATM   34  N9  UNL     1       2.085 -13.640 -14.598  1.00  0.00    -0.359 N 
ATOM     35  H9  UNL     1       1.112 -13.934 -14.515  1.00  0.00     0.162 HD
HETATM   36  C20 UNL     1       2.674 -13.727 -15.864  1.00  0.00     0.232 C 
HETATM   37  O2  UNL     1       2.039 -13.360 -16.886  1.00  0.00    -0.273 OA
HETATM   38  C21 UNL     1       9.653 -13.077 -16.499  1.00  0.00     0.032 C 
ENDROOT
BRANCH   1  39
HETATM   39  C1  UNL     1       3.912 -15.256 -17.193  1.00  0.00     0.246 C 
HETATM   40  N1  UNL     1       3.729 -14.846 -18.518  1.00  0.00    -0.061 NA
HETATM   41  O1  UNL     1       3.948 -16.471 -16.914  1.00  0.00    -0.276 OA
ENDBRANCH   1  39
TORSDOF 1
ENDMDL
MODEL 3
REMARK VINA RESULT: -6.527724722      2.568      5.294
REMARK  1 active torsions:
REMARK  status: ('A' for Active; 'I' for Inactive)
REMARK    1  A    between atoms: C1_2  and  C2_4 
ROOT
HETATM    1  C2  UNL     1       4.346 -14.064 -14.948  1.00  0.00     0.186 C 
HETATM    2  C3  UNL     1       5.631 -13.703 -14.265  1.00  0.00     0.166 C 
HETATM    3  N2  UNL     1       6.184 -12.431 -14.677  1.00  0.00    -0.319 N 
HETATM    4  N3  UNL     1       5.806 -11.566 -13.640  1.00  0.00    -0.276 N 
ATOM      5  H3  UNL     1       5.207 -12.016 -12.947  1.00  0.00     0.189 HD
HETATM    6  C4  UNL     1       6.050 -10.303 -13.362  1.00  0.00     0.203 C 
HETATM    7  N4  UNL     1       5.430  -9.848 -12.161  1.00  0.00    -0.062 NA
HETATM    8  N5  UNL     1       6.822  -9.327 -14.054  1.00  0.00    -0.359 N 
ATOM      9  H5  UNL     1       7.121  -8.549 -13.466  1.00  0.00     0.162 HD
HETATM   10  C5  UNL     1       7.264  -9.222 -15.415  1.00  0.00     0.084 C 
HETATM   11  C6  UNL     1       6.107  -9.314 -16.369  1.00  0.00     0.025 C 
HETATM   12  C7  UNL     1       6.306 -10.320 -17.466  1.00  0.00     0.004 C 
HETATM   13  C8  UNL     1       6.135 -11.733 -17.032  1.00  0.00     0.027 C 
HETATM   14  C9  UNL     1       6.943 -12.217 -15.903  1.00  0.00     0.106 C 
HETATM   15  C10 UNL     1       8.252 -11.559 -15.647  1.00  0.00     0.013 C 
HETATM   16  C11 UNL     1       9.388 -12.142 -16.479  1.00  0.00     0.034 C 
HETATM   17  C12 UNL     1       9.365 -13.610 -16.609  1.00  0.00     0.232 C 
HETATM   18  N6  UNL     1      10.700 -14.050 -17.010  1.00  0.00    -0.074 N 
ATOM     19  H61 UNL     1      11.388 -13.310 -16.873  1.00  0.00     0.277 HD
ATOM     20  H62 UNL     1      10.767 -14.150 -18.022  1.00  0.00     0.277 HD
HETATM   21  C13 UNL     1      11.097 -15.259 -16.342  1.00  0.00     0.259 C 
HETATM   22  C14 UNL     1      10.874 -16.452 -17.256  1.00  0.00     0.259 C 
HETATM   23  N7  UNL     1      10.719 -17.611 -16.364  1.00  0.00    -0.073 N 
ATOM     24  H71 UNL     1      11.325 -17.586 -15.545  1.00  0.00     0.277 HD
ATOM     25  H72 UNL     1      11.081 -18.482 -16.752  1.00  0.00     0.277 HD
HETATM   26  C15 UNL     1       9.289 -17.655 -16.043  1.00  0.00     0.234 C 
HETATM   27  C16 UNL     1       8.949 -18.786 -15.124  1.00  0.00     0.055 C 
HETATM   28  C17 UNL     1       7.651 -19.454 -15.509  1.00  0.00     0.234 C 
HETATM   29  N8  UNL     1       6.887 -18.576 -16.402  1.00  0.00    -0.074 N 
ATOM     30  H81 UNL     1       6.849 -18.952 -17.350  1.00  0.00     0.277 HD
ATOM     31  H82 UNL     1       7.393 -17.711 -16.594  1.00  0.00     0.277 HD
HETATM   32  C18 UNL     1       5.579 -18.310 -15.897  1.00  0.00     0.251 C 
HETATM   33  C19 UNL     1       5.082 -16.907 -16.246  1.00  0.00     0.150 C 
HETATM   34  N9  UNL     1       4.041 -16.590 -15.285  1.00  0.00    -0.359 N 
ATOM     35  H9  UNL     1       3.270 -17.251 -15.197  1.00  0.00     0.162 HD
HETATM   36  C20 UNL     1       4.007 -15.454 -14.470  1.00  0.00     0.232 C 
HETATM   37  O2  UNL     1       3.678 -15.551 -13.260  1.00  0.00    -0.273 OA
HETATM   38  C21 UNL     1       8.393 -10.108 -15.776  1.00  0.00     0.032 C 
ENDROOT
BRANCH   1  39
HETATM   39  C1  UNL     1       3.209 -13.218 -14.498  1.00  0.00     0.246 C 
HETATM   40  N1  UNL     1       2.099 -13.024 -15.328  1.00  0.00    -0.061 NA
HETATM   41  O1  UNL     1       3.249 -12.680 -13.373  1.00  0.00    -0.276 OA
ENDBRANCH   1  39
TORSDOF 1
ENDMDL
MODEL 4
REMARK VINA RESULT: -6.385989597      2.139      6.824
REMARK  1 active torsions:
REMARK  status: ('A' for Active; 'I' for Inactive)
REMARK    1  A    between atoms: C1_2  and  C2_4 
ROOT
HETATM    1  C2  UNL     1       7.291 -12.711 -17.286  1.00  0.00     0.186 C 
HETATM    2  C3  UNL     1       7.294 -13.159 -15.855  1.00  0.00     0.166 C 
HETATM    3  N2  UNL     1       6.533 -14.365 -15.611  1.00  0.00    -0.319 N 
HETATM    4  N3  UNL     1       7.520 -15.360 -15.552  1.00  0.00    -0.276 N 
ATOM      5  H3  UNL     1       8.453 -15.006 -15.763  1.00  0.00     0.189 HD
HETATM    6  C4  UNL     1       7.510 -16.649 -15.284  1.00  0.00     0.203 C 
HETATM    7  N4  UNL     1       8.797 -17.260 -15.348  1.00  0.00    -0.062 NA
HETATM    8  N5  UNL     1       6.438 -17.524 -14.947  1.00  0.00    -0.359 N 
ATOM      9  H5  UNL     1       6.738 -18.373 -14.469  1.00  0.00     0.162 HD
HETATM   10  C5  UNL     1       5.019 -17.448 -15.147  1.00  0.00     0.084 C 
HETATM   11  C6  UNL     1       4.687 -17.230 -16.595  1.00  0.00     0.025 C 
HETATM   12  C7  UNL     1       3.743 -16.087 -16.834  1.00  0.00     0.004 C 
HETATM   13  C8  UNL     1       4.372 -14.744 -16.717  1.00  0.00     0.027 C 
HETATM   14  C9  UNL     1       5.083 -14.414 -15.473  1.00  0.00     0.106 C 
HETATM   15  C10 UNL     1       4.660 -15.100 -14.223  1.00  0.00     0.013 C 
HETATM   16  C11 UNL     1       3.491 -14.412 -13.529  1.00  0.00     0.034 C 
HETATM   17  C12 UNL     1       3.560 -12.940 -13.521  1.00  0.00     0.232 C 
HETATM   18  N6  UNL     1       2.671 -12.450 -12.469  1.00  0.00    -0.074 N 
ATOM     19  H61 UNL     1       2.404 -13.202 -11.834  1.00  0.00     0.277 HD
ATOM     20  H62 UNL     1       1.752 -12.217 -12.842  1.00  0.00     0.277 HD
HETATM   21  C13 UNL     1       3.237 -11.341 -11.752  1.00  0.00     0.259 C 
HETATM   22  C14 UNL     1       2.663 -10.037 -12.279  1.00  0.00     0.259 C 
HETATM   23  N7  UNL     1       3.664  -9.007 -11.965  1.00  0.00    -0.073 N 
ATOM     24  H71 UNL     1       4.125  -9.140 -11.065  1.00  0.00     0.277 HD
ATOM     25  H72 UNL     1       3.263  -8.092 -11.756  1.00  0.00     0.277 HD
HETATM   26  C15 UNL     1       4.581  -9.006 -13.108  1.00  0.00     0.234 C 
HETATM   27  C16 UNL     1       5.684  -8.007 -12.950  1.00  0.00     0.055 C 
HETATM   28  C17 UNL     1       5.988  -7.294 -14.245  1.00  0.00     0.234 C 
HETATM   29  N8  UNL     1       5.422  -8.046 -15.370  1.00  0.00    -0.074 N 
ATOM     30  H81 UNL     1       4.639  -7.547 -15.794  1.00  0.00     0.277 HD
ATOM     31  H82 UNL     1       4.926  -8.877 -15.048  1.00  0.00     0.277 HD
HETATM   32  C18 UNL     1       6.413  -8.376 -16.343  1.00  0.00     0.251 C 
HETATM   33  C19 UNL     1       6.152  -9.720 -17.022  1.00  0.00     0.150 C 
HETATM   34  N9  UNL     1       7.426 -10.162 -17.560  1.00  0.00    -0.359 N 
ATOM     35  H9  UNL     1       7.921  -9.518 -18.177  1.00  0.00     0.162 HD
HETATM   36  C20 UNL     1       8.032 -11.396 -17.303  1.00  0.00     0.232 C 
HETATM   37  O2  UNL     1       9.266 -11.461 -17.068  1.00  0.00    -0.273 OA
HETATM   38  C21 UNL     1       4.309 -16.521 -14.237  1.00  0.00     0.032 C 
ENDROOT
BRANCH   1  39
HETATM   39  C1  UNL     1       8.089 -13.609 -18.163  1.00  0.00     0.246 C 
HETATM   40  N1  UNL     1       7.807 -13.696 -19.530  1.00  0.00    -0.061 NA
HETATM   41  O1  UNL     1       9.014 -14.286 -17.671  1.00  0.00    -0.276 OA
ENDBRANCH   1  39
TORSDOF 1
ENDMDL
MODEL 5
REMARK VINA RESULT: -6.237140172      3.537      7.600
REMARK  1 active torsions:
REMARK  status: ('A' for Active; 'I' for Inactive)
REMARK    1  A    between atoms: C1_2  and  C2_4 
ROOT
HETATM    1  C2  UNL     1       3.876 -13.441 -14.854  1.00  0.00     0.186 C 
HETATM    2  C3  UNL     1       4.249 -12.041 -15.240  1.00  0.00     0.166 C 
HETATM    3  N2  UNL     1       5.619 -11.687 -14.935  1.00  0.00    -0.319 N 
HETATM    4  N3  UNL     1       6.267 -11.819 -16.172  1.00  0.00    -0.276 N 
ATOM      5  H3  UNL     1       5.656 -12.186 -16.902  1.00  0.00     0.189 HD
HETATM    6  C4  UNL     1       7.488 -11.577 -16.599  1.00  0.00     0.203 C 
HETATM    7  N4  UNL     1       7.684 -11.876 -17.980  1.00  0.00    -0.062 NA
HETATM    8  N5  UNL     1       8.632 -11.071 -15.919  1.00  0.00    -0.359 N 
ATOM      9  H5  UNL     1       9.333 -10.668 -16.541  1.00  0.00     0.162 HD
HETATM   10  C5  UNL     1       8.995 -11.017 -14.532  1.00  0.00     0.084 C 
HETATM   11  C6  UNL     1       8.942 -12.379 -13.904  1.00  0.00     0.025 C 
HETATM   12  C7  UNL     1       8.146 -12.429 -12.631  1.00  0.00     0.004 C 
HETATM   13  C8  UNL     1       6.672 -12.401 -12.834  1.00  0.00     0.027 C 
HETATM   14  C9  UNL     1       6.098 -11.296 -13.615  1.00  0.00     0.106 C 
HETATM   15  C10 UNL     1       6.832 -10.004 -13.643  1.00  0.00     0.013 C 
HETATM   16  C11 UNL     1       6.502  -9.102 -12.459  1.00  0.00     0.034 C 
HETATM   17  C12 UNL     1       5.079  -9.081 -12.078  1.00  0.00     0.232 C 
HETATM   18  N6  UNL     1       4.841  -7.881 -11.280  1.00  0.00    -0.074 N 
ATOM     19  H61 UNL     1       5.614  -7.222 -11.366  1.00  0.00     0.277 HD
ATOM     20  H62 UNL     1       4.910  -8.082 -10.282  1.00  0.00     0.277 HD
HETATM   21  C13 UNL     1       3.586  -7.256 -11.597  1.00  0.00     0.259 C 
HETATM   22  C14 UNL     1       2.537  -7.651 -10.572  1.00  0.00     0.259 C 
HETATM   23  N7  UNL     1       1.242  -7.501 -11.252  1.00  0.00    -0.073 N 
ATOM     24  H71 UNL     1       1.196  -6.700 -11.880  1.00  0.00     0.277 HD
ATOM     25  H72 UNL     1       0.484  -7.210 -10.635  1.00  0.00     0.277 HD
HETATM   26  C15 UNL     1       1.008  -8.788 -11.913  1.00  0.00     0.234 C 
HETATM   27  C16 UNL     1      -0.283  -8.810 -12.671  1.00  0.00     0.055 C 
HETATM   28  C17 UNL     1      -1.005 -10.126 -12.516  1.00  0.00     0.234 C 
HETATM   29  N8  UNL     1      -0.076 -11.147 -12.019  1.00  0.00    -0.074 N 
ATOM     30  H81 UNL     1      -0.300 -11.416 -11.061  1.00  0.00     0.277 HD
ATOM     31  H82 UNL     1       0.853 -10.756 -11.862  1.00  0.00     0.277 HD
HETATM   32  C18 UNL     1      -0.024 -12.284 -12.880  1.00  0.00     0.251 C 
HETATM   33  C19 UNL     1       1.361 -12.929 -12.925  1.00  0.00     0.150 C 
HETATM   34  N9  UNL     1       1.418 -13.690 -14.160  1.00  0.00    -0.359 N 
ATOM     35  H9  UNL     1       0.679 -14.374 -14.322  1.00  0.00     0.162 HD
HETATM   36  C20 UNL     1       2.402 -13.566 -15.146  1.00  0.00     0.232 C 
HETATM   37  O2  UNL     1       2.083 -13.553 -16.363  1.00  0.00    -0.273 OA
HETATM   38  C21 UNL     1       8.292  -9.979 -13.743  1.00  0.00     0.032 C 
ENDROOT
BRANCH   1  39
HETATM   39  C1  UNL     1       4.525 -14.459 -15.722  1.00  0.00     0.246 C 
HETATM   40  N1  UNL     1       4.738 -15.759 -15.250  1.00  0.00    -0.061 NA
HETATM   41  O1  UNL     1       4.878 -14.149 -16.877  1.00  0.00    -0.276 OA
ENDBRANCH   1  39
TORSDOF 1
ENDMDL
