MODEL 1
REMARK VINA RESULT: -7.355332876      0.000      0.000
REMARK  2 active torsions:
REMARK  status: ('A' for Active; 'I' for Inactive)
REMARK    1  A    between atoms: C2_2  and  C3_3 
REMARK    2  A    between atoms: C2_2  and  N2_6 
ROOT
HETATM    1  N2  UNL     1     -11.488  13.782 -18.554  1.00  0.00     0.103 N 
HETATM    2  C4  UNL     1     -11.943  15.076 -18.163  1.00  0.00     0.275 C 
HETATM    3  C5  UNL     1     -11.587  15.395 -16.730  1.00  0.00     0.057 C 
HETATM    4  C6  UNL     1     -11.026  16.794 -16.642  1.00  0.00     0.234 C 
HETATM    5  N3  UNL     1      -9.880  16.735 -15.753  1.00  0.00    -0.075 N 
ATOM      6  H31 UNL     1      -9.540  15.778 -15.651  1.00  0.00     0.277 HD
ATOM      7  H32 UNL     1     -10.153  16.913 -14.786  1.00  0.00     0.277 HD
HETATM    8  C7  UNL     1      -8.814  17.628 -16.170  1.00  0.00     0.241 C 
HETATM    9  C8  UNL     1      -7.611  17.309 -15.286  1.00  0.00     0.130 C 
HETATM   10  C9  UNL     1      -6.717  18.481 -15.155  1.00  0.00     0.219 C 
HETATM   11  O2  UNL     1      -7.196  19.652 -15.240  1.00  0.00    -0.274 OA
HETATM   12  N4  UNL     1      -5.324  18.311 -14.935  1.00  0.00    -0.359 N 
ATOM     13  H4  UNL     1      -4.853  18.946 -14.291  1.00  0.00     0.162 HD
HETATM   14  C10 UNL     1      -4.546  17.281 -15.580  1.00  0.00     0.150 C 
HETATM   15  C11 UNL     1      -3.503  16.689 -14.646  1.00  0.00     0.252 C 
HETATM   16  N5  UNL     1      -3.965  15.432 -14.138  1.00  0.00    -0.072 N 
ATOM     17  H51 UNL     1      -4.863  15.181 -14.552  1.00  0.00     0.277 HD
ATOM     18  H52 UNL     1      -4.248  15.517 -13.161  1.00  0.00     0.277 HD
HETATM   19  C12 UNL     1      -3.007  14.361 -14.303  1.00  0.00     0.259 C 
HETATM   20  C13 UNL     1      -3.744  13.066 -13.970  1.00  0.00     0.259 C 
HETATM   21  N6  UNL     1      -2.937  11.902 -14.232  1.00  0.00    -0.073 N 
ATOM     22  H61 UNL     1      -2.879  11.309 -13.404  1.00  0.00     0.277 HD
ATOM     23  H62 UNL     1      -1.954  12.158 -14.325  1.00  0.00     0.277 HD
HETATM   24  C14 UNL     1      -3.372  11.146 -15.368  1.00  0.00     0.234 C 
HETATM   25  C15 UNL     1      -4.638  10.404 -15.060  1.00  0.00     0.055 C 
HETATM   26  C16 UNL     1      -5.184   9.804 -16.356  1.00  0.00     0.233 C 
HETATM   27  N7  UNL     1      -6.564  10.169 -16.448  1.00  0.00    -0.075 N 
ATOM     28  H71 UNL     1      -6.683  11.000 -17.027  1.00  0.00     0.277 HD
ATOM     29  H72 UNL     1      -6.903  10.536 -15.558  1.00  0.00     0.277 HD
HETATM   30  C17 UNL     1      -7.408   9.091 -16.916  1.00  0.00     0.233 C 
HETATM   31  C18 UNL     1      -8.835   9.470 -16.557  1.00  0.00     0.055 C 
HETATM   32  C19 UNL     1      -9.415  10.134 -17.805  1.00  0.00     0.234 C 
HETATM   33  N8  UNL     1     -10.766  10.580 -17.567  1.00  0.00    -0.073 N 
ATOM     34  H81 UNL     1     -11.265   9.942 -16.946  1.00  0.00     0.277 HD
ATOM     35  H82 UNL     1     -11.345  10.476 -18.400  1.00  0.00     0.277 HD
HETATM   36  C20 UNL     1     -10.799  11.955 -17.059  1.00  0.00     0.262 C 
HETATM   37  C21 UNL     1     -11.947  12.727 -17.674  1.00  0.00     0.300 C 
ENDROOT
BRANCH   1  38
HETATM   38  C2  UNL     1     -11.726  13.509 -19.932  1.00  0.00     0.307 C 
HETATM   39  C1  UNL     1     -12.645  12.327 -20.107  1.00  0.00     0.053 C 
BRANCH  38  40
HETATM   40  C3  UNL     1     -10.535  13.317 -20.768  1.00  0.00     0.264 C 
HETATM   41  N1  UNL     1     -10.113  14.434 -21.554  1.00  0.00    -0.060 NA
HETATM   42  O1  UNL     1      -9.848  12.278 -20.869  1.00  0.00    -0.274 OA
ENDBRANCH  38  40
ENDBRANCH   1  38
TORSDOF 2
ENDMDL
MODEL 2
REMARK VINA RESULT: -6.967378529      2.731      8.711
REMARK  2 active torsions:
REMARK  status: ('A' for Active; 'I' for Inactive)
REMARK    1  A    between atoms: C2_2  and  C3_3 
REMARK    2  A    between atoms: C2_2  and  N2_6 
ROOT
HETATM    1  N2  UNL     1      -3.862  10.228 -15.130  1.00  0.00     0.103 N 
HETATM    2  C4  UNL     1      -4.788   9.163 -14.925  1.00  0.00     0.275 C 
HETATM    3  C5  UNL     1      -5.964   9.586 -14.075  1.00  0.00     0.057 C 
HETATM    4  C6  UNL     1      -7.247   9.091 -14.695  1.00  0.00     0.234 C 
HETATM    5  N3  UNL     1      -8.207  10.178 -14.606  1.00  0.00    -0.075 N 
ATOM      6  H31 UNL     1      -7.739  11.071 -14.450  1.00  0.00     0.277 HD
ATOM      7  H32 UNL     1      -8.746  10.124 -13.741  1.00  0.00     0.277 HD
HETATM    8  C7  UNL     1      -9.079  10.237 -15.764  1.00  0.00     0.241 C 
HETATM    9  C8  UNL     1      -9.878  11.533 -15.638  1.00  0.00     0.130 C 
HETATM   10  C9  UNL     1     -11.173  11.434 -16.346  1.00  0.00     0.219 C 
HETATM   11  O2  UNL     1     -11.739  10.306 -16.470  1.00  0.00    -0.274 OA
HETATM   12  N4  UNL     1     -11.795  12.590 -16.890  1.00  0.00    -0.359 N 
ATOM     13  H4  UNL     1     -12.808  12.679 -16.814  1.00  0.00     0.162 HD
HETATM   14  C10 UNL     1     -11.057  13.643 -17.544  1.00  0.00     0.150 C 
HETATM   15  C11 UNL     1     -11.619  15.018 -17.217  1.00  0.00     0.252 C 
HETATM   16  N5  UNL     1     -10.808  15.648 -16.219  1.00  0.00    -0.072 N 
ATOM     17  H51 UNL     1     -10.004  15.066 -15.985  1.00  0.00     0.277 HD
ATOM     18  H52 UNL     1     -11.283  15.651 -15.315  1.00  0.00     0.277 HD
HETATM   19  C12 UNL     1     -10.388  16.983 -16.582  1.00  0.00     0.259 C 
HETATM   20  C13 UNL     1      -9.331  17.397 -15.560  1.00  0.00     0.259 C 
HETATM   21  N6  UNL     1      -8.725  18.661 -15.892  1.00  0.00    -0.073 N 
ATOM     22  H61 UNL     1      -8.789  19.309 -15.107  1.00  0.00     0.277 HD
ATOM     23  H62 UNL     1      -9.290  19.164 -16.574  1.00  0.00     0.277 HD
HETATM   24  C14 UNL     1      -7.370  18.545 -16.344  1.00  0.00     0.234 C 
HETATM   25  C15 UNL     1      -6.455  18.216 -15.203  1.00  0.00     0.055 C 
HETATM   26  C16 UNL     1      -5.073  17.878 -15.764  1.00  0.00     0.233 C 
HETATM   27  N7  UNL     1      -4.667  16.637 -15.179  1.00  0.00    -0.075 N 
ATOM     28  H71 UNL     1      -4.880  15.856 -15.798  1.00  0.00     0.277 HD
ATOM     29  H72 UNL     1      -5.266  16.393 -14.390  1.00  0.00     0.277 HD
HETATM   30  C17 UNL     1      -3.272  16.621 -14.791  1.00  0.00     0.233 C 
HETATM   31  C18 UNL     1      -3.104  15.457 -13.828  1.00  0.00     0.055 C 
HETATM   32  C19 UNL     1      -2.625  14.281 -14.678  1.00  0.00     0.234 C 
HETATM   33  N8  UNL     1      -2.471  13.095 -13.870  1.00  0.00    -0.073 N 
ATOM     34  H81 UNL     1      -2.142  13.324 -12.931  1.00  0.00     0.277 HD
ATOM     35  H82 UNL     1      -1.680  12.532 -14.182  1.00  0.00     0.277 HD
HETATM   36  C20 UNL     1      -3.706  12.308 -13.827  1.00  0.00     0.262 C 
HETATM   37  C21 UNL     1      -3.400  10.827 -13.894  1.00  0.00     0.300 C 
ENDROOT
BRANCH   1  38
HETATM   38  C2  UNL     1      -2.803   9.872 -16.012  1.00  0.00     0.307 C 
HETATM   39  C1  UNL     1      -1.614   9.334 -15.256  1.00  0.00     0.053 C 
BRANCH  38  40
HETATM   40  C3  UNL     1      -2.349  10.921 -16.934  1.00  0.00     0.264 C 
HETATM   41  N1  UNL     1      -1.151  11.615 -16.580  1.00  0.00    -0.060 NA
HETATM   42  O1  UNL     1      -2.899  11.273 -17.999  1.00  0.00    -0.274 OA
ENDBRANCH  38  40
ENDBRANCH   1  38
TORSDOF 2
ENDMDL
MODEL 3
REMARK VINA RESULT: -6.928159255      1.754      2.014
REMARK  2 active torsions:
REMARK  status: ('A' for Active; 'I' for Inactive)
REMARK    1  A    between atoms: C2_2  and  C3_3 
REMARK    2  A    between atoms: C2_2  and  N2_6 
ROOT
HETATM    1  N2  UNL     1     -12.576  13.039 -19.393  1.00  0.00     0.103 N 
HETATM    2  C4  UNL     1     -12.952  14.372 -19.054  1.00  0.00     0.275 C 
HETATM    3  C5  UNL     1     -12.781  14.654 -17.579  1.00  0.00     0.057 C 
HETATM    4  C6  UNL     1     -12.102  15.989 -17.390  1.00  0.00     0.234 C 
HETATM    5  N3  UNL     1     -11.110  15.814 -16.343  1.00  0.00    -0.075 N 
ATOM      6  H31 UNL     1     -10.887  14.828 -16.207  1.00  0.00     0.277 HD
ATOM      7  H32 UNL     1     -11.504  16.019 -15.424  1.00  0.00     0.277 HD
HETATM    8  C7  UNL     1      -9.911  16.594 -16.586  1.00  0.00     0.241 C 
HETATM    9  C8  UNL     1      -8.889  16.155 -15.540  1.00  0.00     0.130 C 
HETATM   10  C9  UNL     1      -7.912  17.231 -15.263  1.00  0.00     0.219 C 
HETATM   11  O2  UNL     1      -8.253  18.444 -15.399  1.00  0.00    -0.274 OA
HETATM   12  N4  UNL     1      -6.590  16.921 -14.843  1.00  0.00    -0.359 N 
ATOM     13  H4  UNL     1      -6.157  17.505 -14.129  1.00  0.00     0.162 HD
HETATM   14  C10 UNL     1      -5.833  15.817 -15.383  1.00  0.00     0.150 C 
HETATM   15  C11 UNL     1      -5.003  15.122 -14.315  1.00  0.00     0.252 C 
HETATM   16  N5  UNL     1      -5.658  13.919 -13.899  1.00  0.00    -0.072 N 
ATOM     17  H51 UNL     1      -6.506  13.760 -14.444  1.00  0.00     0.277 HD
ATOM     18  H52 UNL     1      -6.072  14.033 -12.973  1.00  0.00     0.277 HD
HETATM   19  C12 UNL     1      -4.798  12.756 -13.938  1.00  0.00     0.259 C 
HETATM   20  C13 UNL     1      -5.703  11.543 -13.735  1.00  0.00     0.259 C 
HETATM   21  N6  UNL     1      -4.986  10.303 -13.893  1.00  0.00    -0.073 N 
ATOM     22  H61 UNL     1      -5.111   9.707 -13.075  1.00  0.00     0.277 HD
ATOM     23  H62 UNL     1      -3.980  10.458 -13.838  1.00  0.00     0.277 HD
HETATM   24  C14 UNL     1      -5.323   9.595 -15.092  1.00  0.00     0.234 C 
HETATM   25  C15 UNL     1      -6.689   8.985 -14.984  1.00  0.00     0.055 C 
HETATM   26  C16 UNL     1      -7.095   8.443 -16.355  1.00  0.00     0.233 C 
HETATM   27  N7  UNL     1      -8.403   8.947 -16.642  1.00  0.00    -0.075 N 
ATOM     28  H71 UNL     1      -8.352   9.785 -17.220  1.00  0.00     0.277 HD
ATOM     29  H72 UNL     1      -8.831   9.345 -15.807  1.00  0.00     0.277 HD
HETATM   30  C17 UNL     1      -9.273   7.959 -17.245  1.00  0.00     0.233 C 
HETATM   31  C18 UNL     1     -10.692   8.480 -17.093  1.00  0.00     0.055 C 
HETATM   32  C19 UNL     1     -11.012   9.200 -18.403  1.00  0.00     0.234 C 
HETATM   33  N8  UNL     1     -12.332   9.781 -18.358  1.00  0.00    -0.073 N 
ATOM     34  H81 UNL     1     -12.979   9.196 -17.827  1.00  0.00     0.277 HD
ATOM     35  H82 UNL     1     -12.790   9.736 -19.269  1.00  0.00     0.277 HD
HETATM   36  C20 UNL     1     -12.301  11.151 -17.841  1.00  0.00     0.262 C 
HETATM   37  C21 UNL     1     -13.263  12.035 -18.605  1.00  0.00     0.300 C 
ENDROOT
BRANCH   1  38
HETATM   38  C2  UNL     1     -12.635  12.791 -20.794  1.00  0.00     0.307 C 
HETATM   39  C1  UNL     1     -13.441  11.554 -21.101  1.00  0.00     0.053 C 
BRANCH  38  40
HETATM   40  C3  UNL     1     -11.346  12.707 -21.491  1.00  0.00     0.264 C 
HETATM   41  N1  UNL     1     -10.570  11.527 -21.270  1.00  0.00    -0.060 NA
HETATM   42  O1  UNL     1     -10.852  13.559 -22.261  1.00  0.00    -0.274 OA
ENDBRANCH  38  40
ENDBRANCH   1  38
TORSDOF 2
ENDMDL
MODEL 4
REMARK VINA RESULT: -6.776835569      1.518      2.289
REMARK  2 active torsions:
REMARK  status: ('A' for Active; 'I' for Inactive)
REMARK    1  A    between atoms: C2_2  and  C3_3 
REMARK    2  A    between atoms: C2_2  and  N2_6 
ROOT
HETATM    1  N2  UNL     1     -11.249  14.269 -18.309  1.00  0.00     0.103 N 
HETATM    2  C4  UNL     1     -11.141  15.597 -17.800  1.00  0.00     0.275 C 
HETATM    3  C5  UNL     1     -10.739  15.618 -16.343  1.00  0.00     0.057 C 
HETATM    4  C6  UNL     1      -9.653  16.643 -16.127  1.00  0.00     0.234 C 
HETATM    5  N3  UNL     1      -8.669  16.037 -15.247  1.00  0.00    -0.075 N 
ATOM      6  H31 UNL     1      -8.761  15.021 -15.235  1.00  0.00     0.277 HD
ATOM      7  H32 UNL     1      -8.880  16.231 -14.268  1.00  0.00     0.277 HD
HETATM    8  C7  UNL     1      -7.314  16.436 -15.581  1.00  0.00     0.241 C 
HETATM    9  C8  UNL     1      -6.386  15.572 -14.730  1.00  0.00     0.130 C 
HETATM   10  C9  UNL     1      -5.092  16.249 -14.492  1.00  0.00     0.219 C 
HETATM   11  O2  UNL     1      -5.039  17.516 -14.468  1.00  0.00    -0.274 OA
HETATM   12  N4  UNL     1      -3.905  15.497 -14.289  1.00  0.00    -0.359 N 
ATOM     13  H4  UNL     1      -3.237  15.821 -13.590  1.00  0.00     0.162 HD
HETATM   14  C10 UNL     1      -3.601  14.295 -15.026  1.00  0.00     0.150 C 
HETATM   15  C11 UNL     1      -2.933  13.245 -14.152  1.00  0.00     0.252 C 
HETATM   16  N5  UNL     1      -3.894  12.257 -13.762  1.00  0.00    -0.072 N 
ATOM     17  H51 UNL     1      -4.799  12.439 -14.197  1.00  0.00     0.277 HD
ATOM     18  H52 UNL     1      -4.153  12.370 -12.781  1.00  0.00     0.277 HD
HETATM   19  C12 UNL     1      -3.461  10.903 -14.026  1.00  0.00     0.259 C 
HETATM   20  C13 UNL     1      -4.682  10.009 -13.813  1.00  0.00     0.259 C 
HETATM   21  N6  UNL     1      -4.420   8.641 -14.181  1.00  0.00    -0.073 N 
ATOM     22  H61 UNL     1      -4.646   8.011 -13.412  1.00  0.00     0.277 HD
ATOM     23  H62 UNL     1      -3.417   8.472 -14.251  1.00  0.00     0.277 HD
HETATM   24  C14 UNL     1      -5.086   8.234 -15.382  1.00  0.00     0.234 C 
HETATM   25  C15 UNL     1      -6.557   8.064 -15.144  1.00  0.00     0.055 C 
HETATM   26  C16 UNL     1      -7.253   7.857 -16.489  1.00  0.00     0.233 C 
HETATM   27  N7  UNL     1      -8.352   8.771 -16.546  1.00  0.00    -0.075 N 
ATOM     28  H71 UNL     1      -8.093   9.621 -17.046  1.00  0.00     0.277 HD
ATOM     29  H72 UNL     1      -8.542   9.169 -15.627  1.00  0.00     0.277 HD
HETATM   30  C17 UNL     1      -9.549   8.186 -17.112  1.00  0.00     0.233 C 
HETATM   31  C18 UNL     1     -10.703   9.093 -16.719  1.00  0.00     0.055 C 
HETATM   32  C19 UNL     1     -10.907  10.040 -17.900  1.00  0.00     0.234 C 
HETATM   33  N8  UNL     1     -11.959  10.987 -17.621  1.00  0.00    -0.073 N 
ATOM     34  H81 UNL     1     -12.701  10.566 -17.062  1.00  0.00     0.277 HD
ATOM     35  H82 UNL     1     -12.497  11.205 -18.460  1.00  0.00     0.277 HD
HETATM   36  C20 UNL     1     -11.438  12.202 -16.989  1.00  0.00     0.262 C 
HETATM   37  C21 UNL     1     -12.138  13.431 -17.530  1.00  0.00     0.300 C 
ENDROOT
BRANCH   1  38
HETATM   38  C2  UNL     1     -11.526  14.237 -19.705  1.00  0.00     0.307 C 
HETATM   39  C1  UNL     1     -12.875  13.623 -19.984  1.00  0.00     0.053 C 
BRANCH  38  40
HETATM   40  C3  UNL     1     -10.520  13.583 -20.550  1.00  0.00     0.264 C 
HETATM   41  N1  UNL     1      -9.941  14.373 -21.592  1.00  0.00    -0.060 NA
HETATM   42  O1  UNL     1     -10.112  12.405 -20.456  1.00  0.00    -0.274 OA
ENDBRANCH  38  40
ENDBRANCH   1  38
TORSDOF 2
ENDMDL
MODEL 5
REMARK VINA RESULT: -6.760491837      3.045      7.834
REMARK  2 active torsions:
REMARK  status: ('A' for Active; 'I' for Inactive)
REMARK    1  A    between atoms: C2_2  and  C3_3 
REMARK    2  A    between atoms: C2_2  and  N2_6 
ROOT
HETATM    1  N2  UNL     1      -5.909  11.108 -13.913  1.00  0.00     0.103 N 
HETATM    2  C4  UNL     1      -5.591  12.485 -13.716  1.00  0.00     0.275 C 
HETATM    3  C5  UNL     1      -5.700  13.283 -14.994  1.00  0.00     0.057 C 
HETATM    4  C6  UNL     1      -6.442  14.571 -14.731  1.00  0.00     0.234 C 
HETATM    5  N3  UNL     1      -7.366  14.761 -15.835  1.00  0.00    -0.075 N 
ATOM      6  H31 UNL     1      -7.526  13.886 -16.337  1.00  0.00     0.277 HD
ATOM      7  H32 UNL     1      -6.937  15.302 -16.586  1.00  0.00     0.277 HD
HETATM    8  C7  UNL     1      -8.618  15.356 -15.408  1.00  0.00     0.241 C 
HETATM    9  C8  UNL     1      -9.557  15.299 -16.611  1.00  0.00     0.130 C 
HETATM   10  C9  UNL     1     -10.578  16.368 -16.544  1.00  0.00     0.219 C 
HETATM   11  O2  UNL     1     -10.313  17.457 -15.951  1.00  0.00    -0.274 OA
HETATM   12  N4  UNL     1     -11.856  16.191 -17.138  1.00  0.00    -0.359 N 
ATOM     13  H4  UNL     1     -12.283  16.983 -17.619  1.00  0.00     0.162 HD
HETATM   14  C10 UNL     1     -12.577  14.942 -17.093  1.00  0.00     0.150 C 
HETATM   15  C11 UNL     1     -13.310  14.661 -18.395  1.00  0.00     0.252 C 
HETATM   16  N5  UNL     1     -12.566  13.717 -19.175  1.00  0.00    -0.072 N 
ATOM     17  H51 UNL     1     -11.741  13.397 -18.668  1.00  0.00     0.277 HD
ATOM     18  H52 UNL     1     -12.112  14.177 -19.965  1.00  0.00     0.277 HD
HETATM   19  C12 UNL     1     -13.361  12.594 -19.623  1.00  0.00     0.259 C 
HETATM   20  C13 UNL     1     -12.380  11.570 -20.191  1.00  0.00     0.259 C 
HETATM   21  N6  UNL     1     -13.033  10.336 -20.546  1.00  0.00    -0.073 N 
ATOM     22  H61 UNL     1     -12.832  10.087 -21.514  1.00  0.00     0.277 HD
ATOM     23  H62 UNL     1     -14.042  10.468 -20.611  1.00  0.00     0.277 HD
HETATM   24  C14 UNL     1     -12.720   9.249 -19.668  1.00  0.00     0.234 C 
HETATM   25  C15 UNL     1     -11.319   8.767 -19.895  1.00  0.00     0.055 C 
HETATM   26  C16 UNL     1     -10.955   7.773 -18.792  1.00  0.00     0.233 C 
HETATM   27  N7  UNL     1      -9.694   8.178 -18.251  1.00  0.00    -0.075 N 
ATOM     28  H71 UNL     1      -9.823   8.744 -17.412  1.00  0.00     0.277 HD
ATOM     29  H72 UNL     1      -9.246   8.870 -18.851  1.00  0.00     0.277 HD
HETATM   30  C17 UNL     1      -8.804   7.068 -17.991  1.00  0.00     0.233 C 
HETATM   31  C18 UNL     1      -7.410   7.655 -17.843  1.00  0.00     0.055 C 
HETATM   32  C19 UNL     1      -7.200   7.853 -16.342  1.00  0.00     0.234 C 
HETATM   33  N8  UNL     1      -5.914   8.452 -16.080  1.00  0.00    -0.073 N 
ATOM     34  H81 UNL     1      -5.209   8.126 -16.741  1.00  0.00     0.277 HD
ATOM     35  H82 UNL     1      -5.503   8.091 -15.219  1.00  0.00     0.277 HD
HETATM   36  C20 UNL     1      -5.995   9.916 -16.063  1.00  0.00     0.262 C 
HETATM   37  C21 UNL     1      -5.126  10.488 -14.963  1.00  0.00     0.300 C 
ENDROOT
BRANCH   1  38
HETATM   38  C2  UNL     1      -5.910  10.365 -12.699  1.00  0.00     0.307 C 
HETATM   39  C1  UNL     1      -4.739   9.417 -12.633  1.00  0.00     0.053 C 
BRANCH  38  40
HETATM   40  C3  UNL     1      -7.141   9.627 -12.393  1.00  0.00     0.264 C 
HETATM   41  N1  UNL     1      -8.267   9.873 -13.239  1.00  0.00    -0.060 NA
HETATM   42  O1  UNL     1      -7.312   8.804 -11.468  1.00  0.00    -0.274 OA
ENDBRANCH  38  40
ENDBRANCH   1  38
TORSDOF 2
ENDMDL
