MODEL 1
REMARK VINA RESULT: -8.562850166      0.000      0.000
REMARK  4 active torsions:
REMARK  status: ('A' for Active; 'I' for Inactive)
REMARK    1  A    between atoms: N1_2  and  C2_4 
REMARK    2  A    between atoms: C3_7  and  C4_8 
REMARK    3  A    between atoms: C4_8  and  C5_9 
REMARK    4  A    between atoms: C18_37  and  N8_38 
ROOT
HETATM    1  C5  UNL     1      -5.405  15.641 -15.138  1.00  0.00     0.194 C 
HETATM    2  C6  UNL     1      -4.415  15.349 -14.015  1.00  0.00     0.060 C 
HETATM    3  C7  UNL     1      -3.198  14.622 -14.468  1.00  0.00     0.234 C 
HETATM    4  N3  UNL     1      -3.329  13.180 -14.413  1.00  0.00    -0.073 N 
ATOM      5  H31 UNL     1      -2.946  12.725 -15.241  1.00  0.00     0.277 HD
ATOM      6  H32 UNL     1      -4.297  12.876 -14.516  1.00  0.00     0.277 HD
HETATM    7  C8  UNL     1      -2.735  12.698 -13.207  1.00  0.00     0.259 C 
HETATM    8  C9  UNL     1      -3.371  11.491 -12.623  1.00  0.00     0.259 C 
HETATM    9  N4  UNL     1      -4.110  10.698 -13.581  1.00  0.00    -0.072 N 
ATOM     10  H41 UNL     1      -3.492  10.255 -14.262  1.00  0.00     0.277 HD
ATOM     11  H42 UNL     1      -4.648  11.282 -14.221  1.00  0.00     0.277 HD
HETATM   12  C10 UNL     1      -4.945   9.733 -12.909  1.00  0.00     0.259 C 
HETATM   13  C11 UNL     1      -6.169   9.370 -13.737  1.00  0.00     0.259 C 
HETATM   14  N5  UNL     1      -6.786  10.555 -14.307  1.00  0.00    -0.072 N 
ATOM     15  H51 UNL     1      -7.028  10.413 -15.288  1.00  0.00     0.277 HD
ATOM     16  H52 UNL     1      -6.109  11.311 -14.418  1.00  0.00     0.277 HD
HETATM   17  C12 UNL     1      -7.936  10.982 -13.535  1.00  0.00     0.258 C 
HETATM   18  C13 UNL     1      -7.815  12.433 -13.108  1.00  0.00     0.195 C 
HETATM   19  O1  UNL     1      -8.471  13.290 -13.986  1.00  0.00    -0.388 OA
HETATM   20  C14 UNL     1      -7.636  13.500 -15.072  1.00  0.00     0.195 C 
HETATM   21  C15 UNL     1      -7.642  14.961 -15.454  1.00  0.00     0.258 C 
HETATM   22  N6  UNL     1      -6.745  15.748 -14.661  1.00  0.00    -0.069 N 
ATOM     23  H61 UNL     1      -7.047  16.721 -14.607  1.00  0.00     0.277 HD
ATOM     24  H62 UNL     1      -6.810  15.508 -13.672  1.00  0.00     0.277 HD
ENDROOT
BRANCH   1  25
HETATM   25  C4  UNL     1      -4.978  16.718 -16.067  1.00  0.00     0.109 C 
BRANCH  25  26
HETATM   26  C3  UNL     1      -4.912  18.081 -15.516  1.00  0.00     0.087 A 
HETATM   27  N2  UNL     1      -3.925  18.477 -14.685  1.00  0.00    -0.330 N 
HETATM   28  C2  UNL     1      -3.776  19.681 -14.141  1.00  0.00     0.132 A 
ATOM     29  H2  UNL     1      -3.219  17.779 -14.449  1.00  0.00     0.168 HD
HETATM   30  C19 UNL     1      -4.731  20.684 -14.437  1.00  0.00     0.113 A 
HETATM   31  C17 UNL     1      -5.726  20.286 -15.275  1.00  0.00     0.111 A 
HETATM   32  N9  UNL     1      -4.760  21.929 -14.001  1.00  0.00    -0.332 N 
HETATM   33  N7  UNL     1      -5.823  19.021 -15.807  1.00  0.00    -0.333 N 
HETATM   34  S1  UNL     1      -6.675  21.711 -15.413  1.00  0.00    -0.034 SA
HETATM   35  C16 UNL     1      -6.939  18.823 -16.671  1.00  0.00     0.158 C 
HETATM   36  C18 UNL     1      -5.748  22.722 -14.398  1.00  0.00     0.144 A 
ATOM     37  H9  UNL     1      -4.035  22.276 -13.371  1.00  0.00     0.168 HD
BRANCH  28  38
HETATM   38  N1  UNL     1      -2.782  19.944 -13.353  1.00  0.00    -0.379 N 
HETATM   39  C1  UNL     1      -1.688  18.999 -13.328  1.00  0.00     0.147 C 
ATOM     40  H1  UNL     1      -2.772  20.783 -12.773  1.00  0.00     0.160 HD
ENDBRANCH  28  38
BRANCH  36  41
HETATM   41  N8  UNL     1      -5.966  23.975 -14.091  1.00  0.00    -0.380 N 
ATOM     42  H82 UNL     1      -5.315  24.760 -14.115  1.00  0.00     0.158 HD
ATOM     43  H81 UNL     1      -6.834  24.402 -13.767  1.00  0.00     0.158 HD
ENDBRANCH  36  41
ENDBRANCH  25  26
ENDBRANCH   1  25
TORSDOF 4
ENDMDL
MODEL 2
REMARK VINA RESULT: -8.303399210      1.001      1.091
REMARK  4 active torsions:
REMARK  status: ('A' for Active; 'I' for Inactive)
REMARK    1  A    between atoms: N1_2  and  C2_4 
REMARK    2  A    between atoms: C3_7  and  C4_8 
REMARK    3  A    between atoms: C4_8  and  C5_9 
REMARK    4  A    between atoms: C18_37  and  N8_38 
ROOT
HETATM    1  C5  UNL     1      -5.224  15.379 -14.974  1.00  0.00     0.194 C 
HETATM    2  C6  UNL     1      -4.304  14.970 -13.828  1.00  0.00     0.060 C 
HETATM    3  C7  UNL     1      -3.119  14.184 -14.268  1.00  0.00     0.234 C 
HETATM    4  N3  UNL     1      -3.346  12.753 -14.287  1.00  0.00    -0.073 N 
ATOM      5  H31 UNL     1      -2.959  12.311 -15.121  1.00  0.00     0.277 HD
ATOM      6  H32 UNL     1      -4.327  12.520 -14.442  1.00  0.00     0.277 HD
HETATM    7  C8  UNL     1      -2.836  12.179 -13.083  1.00  0.00     0.259 C 
HETATM    8  C9  UNL     1      -3.573  10.992 -12.583  1.00  0.00     0.259 C 
HETATM    9  N4  UNL     1      -4.321  10.294 -13.606  1.00  0.00    -0.072 N 
ATOM     10  H41 UNL     1      -3.706   9.842 -14.282  1.00  0.00     0.277 HD
ATOM     11  H42 UNL     1      -4.793  10.942 -14.238  1.00  0.00     0.277 HD
HETATM   12  C10 UNL     1      -5.245   9.358 -13.013  1.00  0.00     0.259 C 
HETATM   13  C11 UNL     1      -6.454   9.116 -13.905  1.00  0.00     0.259 C 
HETATM   14  N5  UNL     1      -6.968  10.364 -14.441  1.00  0.00    -0.072 N 
ATOM     15  H51 UNL     1      -7.178  10.284 -15.437  1.00  0.00     0.277 HD
ATOM     16  H52 UNL     1      -6.240  11.077 -14.490  1.00  0.00     0.277 HD
HETATM   17  C12 UNL     1      -8.119  10.833 -13.695  1.00  0.00     0.258 C 
HETATM   18  C13 UNL     1      -7.922  12.251 -13.195  1.00  0.00     0.195 C 
HETATM   19  O1  UNL     1      -8.484  13.189 -14.056  1.00  0.00    -0.388 OA
HETATM   20  C14 UNL     1      -7.592  13.391 -15.097  1.00  0.00     0.195 C 
HETATM   21  C15 UNL     1      -7.486  14.865 -15.409  1.00  0.00     0.258 C 
HETATM   22  N6  UNL     1      -6.573  15.553 -14.545  1.00  0.00    -0.069 N 
ATOM     23  H61 UNL     1      -6.813  16.541 -14.456  1.00  0.00     0.277 HD
ATOM     24  H62 UNL     1      -6.696  15.275 -13.572  1.00  0.00     0.277 HD
ENDROOT
BRANCH   1  25
HETATM   25  C4  UNL     1      -4.689  16.465 -15.833  1.00  0.00     0.109 C 
BRANCH  25  26
HETATM   26  C3  UNL     1      -4.265  17.700 -15.153  1.00  0.00     0.087 A 
HETATM   27  N2  UNL     1      -3.147  17.761 -14.399  1.00  0.00    -0.330 N 
HETATM   28  C2  UNL     1      -2.681  18.825 -13.752  1.00  0.00     0.132 A 
ATOM     29  H2  UNL     1      -2.604  16.902 -14.317  1.00  0.00     0.168 HD
HETATM   30  C19 UNL     1      -3.400  20.042 -13.834  1.00  0.00     0.113 A 
HETATM   31  C17 UNL     1      -4.527  19.980 -14.595  1.00  0.00     0.111 A 
HETATM   32  N9  UNL     1      -3.105  21.197 -13.270  1.00  0.00    -0.332 N 
HETATM   33  N7  UNL     1      -4.957  18.845 -15.242  1.00  0.00    -0.333 N 
HETATM   34  S1  UNL     1      -5.130  21.585 -14.477  1.00  0.00    -0.034 SA
HETATM   35  C16 UNL     1      -6.157  19.008 -15.994  1.00  0.00     0.158 C 
HETATM   36  C18 UNL     1      -3.914  22.231 -13.471  1.00  0.00     0.144 A 
ATOM     37  H9  UNL     1      -2.270  21.295 -12.691  1.00  0.00     0.168 HD
BRANCH  28  38
HETATM   38  N1  UNL     1      -1.591  18.762 -13.055  1.00  0.00    -0.379 N 
HETATM   39  C1  UNL     1      -0.357  19.112 -13.723  1.00  0.00     0.147 C 
ATOM     40  H1  UNL     1      -1.603  18.478 -12.075  1.00  0.00     0.160 HD
ENDBRANCH  28  38
BRANCH  36  41
HETATM   41  N8  UNL     1      -3.811  23.452 -13.011  1.00  0.00    -0.380 N 
ATOM     42  H82 UNL     1      -3.028  24.100 -13.094  1.00  0.00     0.158 HD
ATOM     43  H81 UNL     1      -4.501  23.986 -12.483  1.00  0.00     0.158 HD
ENDBRANCH  36  41
ENDBRANCH  25  26
ENDBRANCH   1  25
TORSDOF 4
ENDMDL
MODEL 3
REMARK VINA RESULT: -8.286807737      2.344      3.577
REMARK  4 active torsions:
REMARK  status: ('A' for Active; 'I' for Inactive)
REMARK    1  A    between atoms: N1_2  and  C2_4 
REMARK    2  A    between atoms: C3_7  and  C4_8 
REMARK    3  A    between atoms: C4_8  and  C5_9 
REMARK    4  A    between atoms: C18_37  and  N8_38 
ROOT
HETATM    1  C5  UNL     1      -4.801  16.049 -15.949  1.00  0.00     0.194 C 
HETATM    2  C6  UNL     1      -5.738  14.908 -15.564  1.00  0.00     0.060 C 
HETATM    3  C7  UNL     1      -6.138  14.924 -14.131  1.00  0.00     0.234 C 
HETATM    4  N3  UNL     1      -5.246  14.172 -13.271  1.00  0.00    -0.073 N 
ATOM      5  H31 UNL     1      -5.042  14.663 -12.401  1.00  0.00     0.277 HD
ATOM      6  H32 UNL     1      -4.297  14.131 -13.641  1.00  0.00     0.277 HD
HETATM    7  C8  UNL     1      -5.796  12.873 -13.044  1.00  0.00     0.259 C 
HETATM    8  C9  UNL     1      -4.803  11.785 -12.866  1.00  0.00     0.259 C 
HETATM    9  N4  UNL     1      -3.502  12.246 -12.430  1.00  0.00    -0.072 N 
ATOM     10  H41 UNL     1      -3.530  12.609 -11.477  1.00  0.00     0.277 HD
ATOM     11  H42 UNL     1      -3.222  13.100 -12.911  1.00  0.00     0.277 HD
HETATM   12  C10 UNL     1      -2.516  11.202 -12.575  1.00  0.00     0.259 C 
HETATM   13  C11 UNL     1      -1.120  11.770 -12.784  1.00  0.00     0.259 C 
HETATM   14  N5  UNL     1      -1.135  12.859 -13.745  1.00  0.00    -0.072 N 
ATOM     15  H51 UNL     1      -0.577  13.649 -13.422  1.00  0.00     0.277 HD
ATOM     16  H52 UNL     1      -2.048  13.313 -13.779  1.00  0.00     0.277 HD
HETATM   17  C12 UNL     1      -0.714  12.417 -15.060  1.00  0.00     0.258 C 
HETATM   18  C13 UNL     1      -1.746  12.754 -16.120  1.00  0.00     0.195 C 
HETATM   19  O1  UNL     1      -1.456  13.951 -16.767  1.00  0.00    -0.388 OA
HETATM   20  C14 UNL     1      -1.896  14.985 -15.955  1.00  0.00     0.195 C 
HETATM   21  C15 UNL     1      -2.595  16.034 -16.787  1.00  0.00     0.258 C 
HETATM   22  N6  UNL     1      -3.965  15.711 -17.054  1.00  0.00    -0.069 N 
ATOM     23  H61 UNL     1      -4.292  16.146 -17.917  1.00  0.00     0.277 HD
ATOM     24  H62 UNL     1      -4.075  14.733 -17.321  1.00  0.00     0.277 HD
ENDROOT
BRANCH   1  25
HETATM   25  C4  UNL     1      -5.457  17.377 -16.036  1.00  0.00     0.109 C 
BRANCH  25  26
HETATM   26  C3  UNL     1      -4.854  18.468 -15.252  1.00  0.00     0.087 A 
HETATM   27  N2  UNL     1      -3.761  18.284 -14.483  1.00  0.00    -0.330 N 
HETATM   28  C2  UNL     1      -3.143  19.201 -13.744  1.00  0.00     0.132 A 
ATOM     29  H2  UNL     1      -3.367  17.343 -14.465  1.00  0.00     0.168 HD
HETATM   30  C19 UNL     1      -3.652  20.523 -13.734  1.00  0.00     0.113 A 
HETATM   31  C17 UNL     1      -4.754  20.708 -14.510  1.00  0.00     0.111 A 
HETATM   32  N9  UNL     1      -3.187  21.565 -13.073  1.00  0.00    -0.332 N 
HETATM   33  N7  UNL     1      -5.348  19.715 -15.254  1.00  0.00    -0.333 N 
HETATM   34  S1  UNL     1      -5.091  22.376 -14.267  1.00  0.00    -0.034 SA
HETATM   35  C16 UNL     1      -6.486  20.132 -16.004  1.00  0.00     0.158 C 
HETATM   36  C18 UNL     1      -3.811  22.731 -13.197  1.00  0.00     0.144 A 
ATOM     37  H9  UNL     1      -2.362  21.478 -12.478  1.00  0.00     0.168 HD
BRANCH  28  38
HETATM   38  N1  UNL     1      -2.096  18.905 -13.042  1.00  0.00    -0.379 N 
HETATM   39  C1  UNL     1      -0.814  18.954 -13.711  1.00  0.00     0.147 C 
ATOM     40  H1  UNL     1      -2.172  18.648 -12.059  1.00  0.00     0.160 HD
ENDBRANCH  28  38
BRANCH  36  41
HETATM   41  N8  UNL     1      -3.522  23.878 -12.637  1.00  0.00    -0.380 N 
ATOM     42  H82 UNL     1      -4.142  24.661 -12.429  1.00  0.00     0.158 HD
ATOM     43  H81 UNL     1      -2.615  24.204 -12.302  1.00  0.00     0.158 HD
ENDBRANCH  36  41
ENDBRANCH  25  26
ENDBRANCH   1  25
TORSDOF 4
ENDMDL
MODEL 4
REMARK VINA RESULT: -8.006215574      1.054      2.260
REMARK  4 active torsions:
REMARK  status: ('A' for Active; 'I' for Inactive)
REMARK    1  A    between atoms: N1_2  and  C2_4 
REMARK    2  A    between atoms: C3_7  and  C4_8 
REMARK    3  A    between atoms: C4_8  and  C5_9 
REMARK    4  A    between atoms: C18_37  and  N8_38 
ROOT
HETATM    1  C5  UNL     1      -5.031  15.413 -15.012  1.00  0.00     0.194 C 
HETATM    2  C6  UNL     1      -4.164  14.983 -13.832  1.00  0.00     0.060 C 
HETATM    3  C7  UNL     1      -3.014  14.123 -14.221  1.00  0.00     0.234 C 
HETATM    4  N3  UNL     1      -3.319  12.706 -14.212  1.00  0.00    -0.073 N 
ATOM      5  H31 UNL     1      -2.936  12.222 -15.023  1.00  0.00     0.277 HD
ATOM      6  H32 UNL     1      -4.307  12.523 -14.388  1.00  0.00     0.277 HD
HETATM    7  C8  UNL     1      -2.874  12.135 -12.980  1.00  0.00     0.259 C 
HETATM    8  C9  UNL     1      -3.688  11.004 -12.473  1.00  0.00     0.259 C 
HETATM    9  N4  UNL     1      -4.447  10.322 -13.499  1.00  0.00    -0.072 N 
ATOM     10  H41 UNL     1      -3.840   9.820 -14.147  1.00  0.00     0.277 HD
ATOM     11  H42 UNL     1      -4.865  10.978 -14.159  1.00  0.00     0.277 HD
HETATM   12  C10 UNL     1      -5.436   9.454 -12.910  1.00  0.00     0.259 C 
HETATM   13  C11 UNL     1      -6.633   9.256 -13.829  1.00  0.00     0.259 C 
HETATM   14  N5  UNL     1      -7.063  10.516 -14.409  1.00  0.00    -0.072 N 
ATOM     15  H51 UNL     1      -7.250  10.422 -15.407  1.00  0.00     0.277 HD
ATOM     16  H52 UNL     1      -6.295  11.187 -14.454  1.00  0.00     0.277 HD
HETATM   17  C12 UNL     1      -8.205  11.065 -13.706  1.00  0.00     0.258 C 
HETATM   18  C13 UNL     1      -7.943  12.483 -13.234  1.00  0.00     0.195 C 
HETATM   19  O1  UNL     1      -8.429  13.429 -14.132  1.00  0.00    -0.388 OA
HETATM   20  C14 UNL     1      -7.500  13.555 -15.154  1.00  0.00     0.195 C 
HETATM   21  C15 UNL     1      -7.305  15.012 -15.497  1.00  0.00     0.258 C 
HETATM   22  N6  UNL     1      -6.378  15.671 -14.625  1.00  0.00    -0.069 N 
ATOM     23  H61 UNL     1      -6.566  16.673 -14.566  1.00  0.00     0.277 HD
ATOM     24  H62 UNL     1      -6.542  15.424 -13.649  1.00  0.00     0.277 HD
ENDROOT
BRANCH   1  25
HETATM   25  C4  UNL     1      -4.414  16.445 -15.881  1.00  0.00     0.109 C 
BRANCH  25  26
HETATM   26  C3  UNL     1      -4.736  17.849 -15.575  1.00  0.00     0.087 A 
HETATM   27  N2  UNL     1      -5.808  18.475 -16.104  1.00  0.00    -0.330 N 
HETATM   28  C2  UNL     1      -6.183  19.732 -15.886  1.00  0.00     0.132 A 
ATOM     29  H2  UNL     1      -6.391  17.928 -16.736  1.00  0.00     0.168 HD
HETATM   30  C19 UNL     1      -5.405  20.534 -15.016  1.00  0.00     0.113 A 
HETATM   31  C17 UNL     1      -4.325  19.902 -14.483  1.00  0.00     0.111 A 
HETATM   32  N9  UNL     1      -5.609  21.792 -14.675  1.00  0.00    -0.332 N 
HETATM   33  N7  UNL     1      -3.989  18.595 -14.748  1.00  0.00    -0.333 N 
HETATM   34  S1  UNL     1      -3.631  21.135 -13.507  1.00  0.00    -0.034 SA
HETATM   35  C16 UNL     1      -2.823  18.131 -14.071  1.00  0.00     0.158 C 
HETATM   36  C18 UNL     1      -4.757  22.373 -13.838  1.00  0.00     0.144 A 
ATOM     37  H9  UNL     1      -6.406  22.310 -15.048  1.00  0.00     0.168 HD
BRANCH  28  38
HETATM   38  N1  UNL     1      -7.237  20.226 -16.455  1.00  0.00    -0.379 N 
HETATM   39  C1  UNL     1      -8.450  19.441 -16.397  1.00  0.00     0.147 C 
ATOM     40  H1  UNL     1      -7.212  21.132 -16.923  1.00  0.00     0.160 HD
ENDBRANCH  28  38
BRANCH  36  41
HETATM   41  N8  UNL     1      -4.771  23.597 -13.374  1.00  0.00    -0.380 N 
ATOM     42  H82 UNL     1      -5.574  24.184 -13.148  1.00  0.00     0.158 HD
ATOM     43  H81 UNL     1      -3.975  24.194 -13.150  1.00  0.00     0.158 HD
ENDBRANCH  36  41
ENDBRANCH  25  26
ENDBRANCH   1  25
TORSDOF 4
ENDMDL
MODEL 5
REMARK VINA RESULT: -7.892546656      2.429      3.815
REMARK  4 active torsions:
REMARK  status: ('A' for Active; 'I' for Inactive)
REMARK    1  A    between atoms: N1_2  and  C2_4 
REMARK    2  A    between atoms: C3_7  and  C4_8 
REMARK    3  A    between atoms: C4_8  and  C5_9 
REMARK    4  A    between atoms: C18_37  and  N8_38 
ROOT
HETATM    1  C5  UNL     1      -5.113  14.563 -14.663  1.00  0.00     0.194 C 
HETATM    2  C6  UNL     1      -4.427  13.565 -15.591  1.00  0.00     0.060 C 
HETATM    3  C7  UNL     1      -4.676  13.826 -17.034  1.00  0.00     0.234 C 
HETATM    4  N3  UNL     1      -5.848  13.148 -17.553  1.00  0.00    -0.073 N 
ATOM      5  H31 UNL     1      -6.405  13.749 -18.160  1.00  0.00     0.277 HD
ATOM      6  H32 UNL     1      -6.549  12.982 -16.831  1.00  0.00     0.277 HD
HETATM    7  C8  UNL     1      -5.445  11.943 -18.204  1.00  0.00     0.259 C 
HETATM    8  C9  UNL     1      -6.416  10.824 -18.127  1.00  0.00     0.259 C 
HETATM    9  N4  UNL     1      -7.780  11.248 -17.893  1.00  0.00    -0.072 N 
ATOM     10  H41 UNL     1      -8.162  11.752 -18.693  1.00  0.00     0.277 HD
ATOM     11  H42 UNL     1      -7.829  11.997 -17.202  1.00  0.00     0.277 HD
HETATM   12  C10 UNL     1      -8.607  10.125 -17.524  1.00  0.00     0.259 C 
HETATM   13  C11 UNL     1      -9.782  10.550 -16.655  1.00  0.00     0.259 C 
HETATM   14  N5  UNL     1      -9.361  11.480 -15.622  1.00  0.00    -0.072 N 
ATOM     15  H51 UNL     1     -10.005  12.267 -15.544  1.00  0.00     0.277 HD
ATOM     16  H52 UNL     1      -8.521  11.990 -15.900  1.00  0.00     0.277 HD
HETATM   17  C12 UNL     1      -9.180  10.815 -14.347  1.00  0.00     0.258 C 
HETATM   18  C13 UNL     1      -7.795  11.064 -13.778  1.00  0.00     0.195 C 
HETATM   19  O1  UNL     1      -7.784  12.126 -12.879  1.00  0.00    -0.388 OA
HETATM   20  C14 UNL     1      -7.735  13.299 -13.615  1.00  0.00     0.195 C 
HETATM   21  C15 UNL     1      -6.750  14.259 -12.991  1.00  0.00     0.258 C 
HETATM   22  N6  UNL     1      -5.396  14.002 -13.383  1.00  0.00    -0.069 N 
ATOM     23  H61 UNL     1      -4.734  14.325 -12.677  1.00  0.00     0.277 HD
ATOM     24  H62 UNL     1      -5.181  13.006 -13.355  1.00  0.00     0.277 HD
ENDROOT
BRANCH   1  25
HETATM   25  C4  UNL     1      -4.485  15.908 -14.638  1.00  0.00     0.109 C 
BRANCH  25  26
HETATM   26  C3  UNL     1      -5.365  17.056 -14.914  1.00  0.00     0.087 A 
HETATM   27  N2  UNL     1      -6.653  16.904 -15.287  1.00  0.00    -0.330 N 
HETATM   28  C2  UNL     1      -7.525  17.873 -15.553  1.00  0.00     0.132 A 
ATOM     29  H2  UNL     1      -6.994  15.947 -15.375  1.00  0.00     0.168 HD
HETATM   30  C19 UNL     1      -7.100  19.219 -15.447  1.00  0.00     0.113 A 
HETATM   31  C17 UNL     1      -5.801  19.372 -15.069  1.00  0.00     0.111 A 
HETATM   32  N9  UNL     1      -7.806  20.312 -15.666  1.00  0.00    -0.332 N 
HETATM   33  N7  UNL     1      -4.948  18.326 -14.807  1.00  0.00    -0.333 N 
HETATM   34  S1  UNL     1      -5.632  21.082 -15.042  1.00  0.00    -0.034 SA
HETATM   35  C16 UNL     1      -3.634  18.714 -14.415  1.00  0.00     0.158 C 
HETATM   36  C18 UNL     1      -7.220  21.493 -15.510  1.00  0.00     0.144 A 
ATOM     37  H9  UNL     1      -8.784  20.250 -15.950  1.00  0.00     0.168 HD
BRANCH  28  38
HETATM   38  N1  UNL     1      -8.742  17.603 -15.906  1.00  0.00    -0.379 N 
HETATM   39  C1  UNL     1      -9.138  16.212 -15.906  1.00  0.00     0.147 C 
ATOM     40  H1  UNL     1      -9.393  18.341 -16.172  1.00  0.00     0.160 HD
ENDBRANCH  28  38
BRANCH  36  41
HETATM   41  N8  UNL     1      -7.730  22.688 -15.674  1.00  0.00    -0.380 N 
ATOM     42  H82 UNL     1      -7.320  23.593 -15.442  1.00  0.00     0.158 HD
ATOM     43  H81 UNL     1      -8.638  22.936 -16.067  1.00  0.00     0.158 HD
ENDBRANCH  36  41
ENDBRANCH  25  26
ENDBRANCH   1  25
TORSDOF 4
ENDMDL
