MODEL 1
REMARK VINA RESULT: -7.599416770      0.000      0.000
REMARK  4 active torsions:
REMARK  status: ('A' for Active; 'I' for Inactive)
REMARK    1  A    between atoms: C2_2  and  C3_3 
REMARK    2  A    between atoms: C8_12  and  C9_13 
REMARK    3  A    between atoms: C9_13  and  O1_14 
REMARK    4  A    between atoms: C9_13  and  N3_16 
ROOT
HETATM    1  N3  UNL     1      -9.824  14.583 -16.761  1.00  0.00    -0.362 N 
HETATM    2  C10 UNL     1      -9.079  13.684 -17.587  1.00  0.00     0.152 C 
HETATM    3  C11 UNL     1      -9.446  12.226 -17.331  1.00  0.00     0.252 C 
HETATM    4  N4  UNL     1     -10.043  11.724 -18.538  1.00  0.00    -0.074 N 
ATOM      5  H41 UNL     1      -9.356  11.686 -19.292  1.00  0.00     0.277 HD
ATOM      6  H42 UNL     1     -10.690  12.407 -18.931  1.00  0.00     0.277 HD
HETATM    7  C12 UNL     1     -10.690  10.445 -18.374  1.00  0.00     0.234 C 
HETATM    8  C13 UNL     1     -10.634   9.742 -19.722  1.00  0.00     0.046 C 
HETATM    9  C14 UNL     1     -12.005   9.520 -20.305  1.00  0.00     0.115 C 
HETATM   10  N5  UNL     1     -12.632  10.713 -20.782  1.00  0.00    -0.420 N 
ATOM     11  H5  UNL     1     -13.318  11.230 -20.231  1.00  0.00     0.153 HD
HETATM   12  C15 UNL     1     -12.224  11.127 -22.088  1.00  0.00     0.141 C 
HETATM   13  C16 UNL     1     -11.784  12.586 -22.004  1.00  0.00     0.251 C 
HETATM   14  N6  UNL     1     -12.814  13.444 -21.502  1.00  0.00    -0.072 N 
ATOM     15  H61 UNL     1     -13.647  12.912 -21.252  1.00  0.00     0.277 HD
ATOM     16  H62 UNL     1     -13.207  14.021 -22.246  1.00  0.00     0.277 HD
HETATM   17  C17 UNL     1     -12.355  14.271 -20.377  1.00  0.00     0.259 C 
HETATM   18  C18 UNL     1     -13.189  13.892 -19.178  1.00  0.00     0.259 C 
HETATM   19  N7  UNL     1     -13.248  14.892 -18.167  1.00  0.00    -0.072 N 
ATOM     20  H71 UNL     1     -13.800  14.569 -17.373  1.00  0.00     0.277 HD
ATOM     21  H72 UNL     1     -13.825  15.676 -18.470  1.00  0.00     0.277 HD
HETATM   22  C19 UNL     1     -11.945  15.357 -17.729  1.00  0.00     0.252 C 
HETATM   23  C20 UNL     1     -11.283  14.365 -16.800  1.00  0.00     0.152 C 
ENDROOT
BRANCH   1  24
HETATM   24  C9  UNL     1      -9.371  15.614 -15.946  1.00  0.00     0.127 C 
BRANCH  24  25
HETATM   25  C8  UNL     1      -7.973  16.090 -15.733  1.00  0.00     0.154 C 
HETATM   26  C7  UNL     1      -7.860  17.499 -15.255  1.00  0.00     0.042 C 
HETATM   27  C6  UNL     1      -7.217  18.510 -16.153  1.00  0.00     0.120 C 
HETATM   28  N2  UNL     1      -5.816  18.889 -15.839  1.00  0.00    -0.401 N 
HETATM   29  C5  UNL     1      -5.246  17.721 -15.415  1.00  0.00     0.075 C 
ATOM     30  H2  UNL     1      -5.380  19.808 -15.921  1.00  0.00     0.158 HD
HETATM   31  C4  UNL     1      -3.901  17.237 -15.184  1.00  0.00     0.165 C 
HETATM   32  N1  UNL     1      -4.145  15.947 -14.560  1.00  0.00    -0.375 N 
HETATM   33  C3  UNL     1      -4.689  14.866 -15.183  1.00  0.00     0.079 C 
ATOM     34  H1  UNL     1      -3.889  15.845 -13.578  1.00  0.00     0.161 HD
HETATM   35  N8  UNL     1      -6.033  14.436 -15.126  1.00  0.00    -0.316 N 
HETATM   36  C21 UNL     1      -7.312  15.005 -14.959  1.00  0.00     0.235 C 
ATOM     37  H8  UNL     1      -6.097  13.424 -15.238  1.00  0.00     0.170 HD
HETATM   38  O2  UNL     1      -7.980  14.487 -13.988  1.00  0.00    -0.272 OA
BRANCH  33  39
HETATM   39  C2  UNL     1      -4.124  14.516 -16.574  1.00  0.00     0.072 C 
HETATM   40  C1  UNL     1      -4.943  13.369 -17.177  1.00  0.00     0.013 C 
ENDBRANCH  33  39
ENDBRANCH  24  25
BRANCH  24  41
HETATM   41  O1  UNL     1     -10.237  16.291 -15.251  1.00  0.00    -0.349 OA
ATOM     42  H1  UNL     1     -11.116  16.233 -15.609  1.00  0.00     0.219 HD
ENDBRANCH  24  41
ENDBRANCH   1  24
TORSDOF 4
ENDMDL
MODEL 2
REMARK VINA RESULT: -7.587472689      5.619      7.677
REMARK  4 active torsions:
REMARK  status: ('A' for Active; 'I' for Inactive)
REMARK    1  A    between atoms: C2_2  and  C3_3 
REMARK    2  A    between atoms: C8_12  and  C9_13 
REMARK    3  A    between atoms: C9_13  and  O1_14 
REMARK    4  A    between atoms: C9_13  and  N3_16 
ROOT
HETATM    1  N3  UNL     1      -5.319  16.313 -15.244  1.00  0.00    -0.362 N 
HETATM    2  C10 UNL     1      -4.701  15.708 -16.383  1.00  0.00     0.152 C 
HETATM    3  C11 UNL     1      -3.242  15.344 -16.123  1.00  0.00     0.252 C 
HETATM    4  N4  UNL     1      -3.148  13.911 -16.193  1.00  0.00    -0.074 N 
ATOM      5  H41 UNL     1      -3.328  13.583 -17.142  1.00  0.00     0.277 HD
ATOM      6  H42 UNL     1      -3.933  13.474 -15.710  1.00  0.00     0.277 HD
HETATM    7  C12 UNL     1      -1.895  13.390 -15.703  1.00  0.00     0.234 C 
HETATM    8  C13 UNL     1      -1.639  12.084 -16.439  1.00  0.00     0.046 C 
HETATM    9  C14 UNL     1      -1.637  10.898 -15.511  1.00  0.00     0.115 C 
HETATM   10  N5  UNL     1      -2.932  10.544 -15.021  1.00  0.00    -0.420 N 
ATOM     11  H5  UNL     1      -3.271  10.836 -14.104  1.00  0.00     0.153 HD
HETATM   12  C15 UNL     1      -3.718   9.750 -15.914  1.00  0.00     0.141 C 
HETATM   13  C16 UNL     1      -5.070  10.435 -16.087  1.00  0.00     0.251 C 
HETATM   14  N6  UNL     1      -5.756  10.623 -14.845  1.00  0.00    -0.072 N 
ATOM     15  H61 UNL     1      -5.191  10.299 -14.060  1.00  0.00     0.277 HD
ATOM     16  H62 UNL     1      -6.542   9.979 -14.757  1.00  0.00     0.277 HD
HETATM   17  C17 UNL     1      -6.188  12.015 -14.649  1.00  0.00     0.259 C 
HETATM   18  C18 UNL     1      -5.478  12.532 -13.422  1.00  0.00     0.259 C 
HETATM   19  N7  UNL     1      -6.121  13.637 -12.797  1.00  0.00    -0.072 N 
ATOM     20  H71 UNL     1      -5.582  13.958 -11.993  1.00  0.00     0.277 HD
ATOM     21  H72 UNL     1      -6.972  13.336 -12.323  1.00  0.00     0.277 HD
HETATM   22  C19 UNL     1      -6.400  14.738 -13.699  1.00  0.00     0.252 C 
HETATM   23  C20 UNL     1      -5.156  15.545 -13.995  1.00  0.00     0.152 C 
ENDROOT
BRANCH   1  24
HETATM   24  C9  UNL     1      -6.040  17.498 -15.156  1.00  0.00     0.127 C 
BRANCH  24  25
HETATM   25  C8  UNL     1      -5.536  18.880 -14.908  1.00  0.00     0.154 C 
HETATM   26  C7  UNL     1      -4.051  18.996 -14.817  1.00  0.00     0.042 C 
HETATM   27  C6  UNL     1      -3.443  19.400 -13.509  1.00  0.00     0.120 C 
HETATM   28  N2  UNL     1      -2.993  20.810 -13.387  1.00  0.00    -0.401 N 
HETATM   29  C5  UNL     1      -3.934  21.517 -14.082  1.00  0.00     0.075 C 
ATOM     30  H2  UNL     1      -2.173  21.167 -12.898  1.00  0.00     0.158 HD
HETATM   31  C4  UNL     1      -4.318  22.908 -14.205  1.00  0.00     0.165 C 
HETATM   32  N1  UNL     1      -5.290  22.861 -15.283  1.00  0.00    -0.375 N 
HETATM   33  C3  UNL     1      -6.518  22.276 -15.209  1.00  0.00     0.079 C 
ATOM     34  H1  UNL     1      -5.033  23.301 -16.167  1.00  0.00     0.161 HD
HETATM   35  N8  UNL     1      -6.881  20.994 -15.677  1.00  0.00    -0.316 N 
HETATM   36  C21 UNL     1      -6.274  19.737 -15.874  1.00  0.00     0.235 C 
ATOM     37  H8  UNL     1      -7.863  20.971 -15.950  1.00  0.00     0.170 HD
HETATM   38  O2  UNL     1      -6.396  19.294 -17.076  1.00  0.00    -0.272 OA
BRANCH  33  39
HETATM   39  C2  UNL     1      -7.356  22.593 -13.954  1.00  0.00     0.072 C 
HETATM   40  C1  UNL     1      -7.684  24.091 -13.932  1.00  0.00     0.013 C 
ENDBRANCH  33  39
ENDBRANCH  24  25
BRANCH  24  41
HETATM   41  O1  UNL     1      -7.332  17.459 -15.301  1.00  0.00    -0.349 OA
ATOM     42  H1  UNL     1      -7.612  16.752 -15.872  1.00  0.00     0.219 HD
ENDBRANCH  24  41
ENDBRANCH   1  24
TORSDOF 4
ENDMDL
MODEL 3
REMARK VINA RESULT: -7.083475593      6.024      8.259
REMARK  4 active torsions:
REMARK  status: ('A' for Active; 'I' for Inactive)
REMARK    1  A    between atoms: C2_2  and  C3_3 
REMARK    2  A    between atoms: C8_12  and  C9_13 
REMARK    3  A    between atoms: C9_13  and  O1_14 
REMARK    4  A    between atoms: C9_13  and  N3_16 
ROOT
HETATM    1  N3  UNL     1      -5.525  16.186 -15.009  1.00  0.00    -0.362 N 
HETATM    2  C10 UNL     1      -5.099  15.539 -13.807  1.00  0.00     0.152 C 
HETATM    3  C11 UNL     1      -5.595  14.099 -13.719  1.00  0.00     0.252 C 
HETATM    4  N4  UNL     1      -4.434  13.251 -13.751  1.00  0.00    -0.074 N 
ATOM      5  H41 UNL     1      -3.870  13.379 -12.911  1.00  0.00     0.277 HD
ATOM      6  H42 UNL     1      -3.770  13.576 -14.453  1.00  0.00     0.277 HD
HETATM    7  C12 UNL     1      -4.744  11.856 -13.950  1.00  0.00     0.234 C 
HETATM    8  C13 UNL     1      -3.633  11.056 -13.289  1.00  0.00     0.046 C 
HETATM    9  C14 UNL     1      -2.840  10.251 -14.285  1.00  0.00     0.115 C 
HETATM   10  N5  UNL     1      -1.985  11.039 -15.117  1.00  0.00    -0.420 N 
ATOM     11  H5  UNL     1      -2.248  11.323 -16.061  1.00  0.00     0.153 HD
HETATM   12  C15 UNL     1      -0.735  11.400 -14.525  1.00  0.00     0.141 C 
HETATM   13  C16 UNL     1      -0.577  12.913 -14.642  1.00  0.00     0.251 C 
HETATM   14  N6  UNL     1      -0.644  13.371 -15.997  1.00  0.00    -0.072 N 
ATOM     15  H61 UNL     1      -0.827  12.599 -16.637  1.00  0.00     0.277 HD
ATOM     16  H62 UNL     1       0.276  13.650 -16.337  1.00  0.00     0.277 HD
HETATM   17  C17 UNL     1      -1.624  14.452 -16.175  1.00  0.00     0.259 C 
HETATM   18  C18 UNL     1      -2.675  13.947 -17.132  1.00  0.00     0.259 C 
HETATM   19  N7  UNL     1      -3.398  14.973 -17.802  1.00  0.00    -0.072 N 
ATOM     20  H71 UNL     1      -4.110  14.572 -18.411  1.00  0.00     0.277 HD
ATOM     21  H72 UNL     1      -2.811  15.429 -18.500  1.00  0.00     0.277 HD
HETATM   22  C19 UNL     1      -3.984  15.954 -16.908  1.00  0.00     0.252 C 
HETATM   23  C20 UNL     1      -5.230  15.423 -16.237  1.00  0.00     0.152 C 
ENDROOT
BRANCH   1  24
HETATM   24  C9  UNL     1      -6.162  17.410 -15.174  1.00  0.00     0.127 C 
BRANCH  24  25
HETATM   25  C8  UNL     1      -5.627  18.781 -14.932  1.00  0.00     0.154 C 
HETATM   26  C7  UNL     1      -4.140  18.862 -14.831  1.00  0.00     0.042 C 
HETATM   27  C6  UNL     1      -3.533  19.260 -13.521  1.00  0.00     0.120 C 
HETATM   28  N2  UNL     1      -3.049  20.659 -13.406  1.00  0.00    -0.401 N 
HETATM   29  C5  UNL     1      -3.967  21.384 -14.114  1.00  0.00     0.075 C 
ATOM     30  H2  UNL     1      -2.224  21.000 -12.914  1.00  0.00     0.158 HD
HETATM   31  C4  UNL     1      -4.315  22.783 -14.250  1.00  0.00     0.165 C 
HETATM   32  N1  UNL     1      -5.280  22.752 -15.336  1.00  0.00    -0.375 N 
HETATM   33  C3  UNL     1      -6.522  22.198 -15.267  1.00  0.00     0.079 C 
ATOM     34  H1  UNL     1      -5.004  23.178 -16.221  1.00  0.00     0.161 HD
HETATM   35  N8  UNL     1      -6.913  20.921 -15.728  1.00  0.00    -0.316 N 
HETATM   36  C21 UNL     1      -6.336  19.648 -15.911  1.00  0.00     0.235 C 
ATOM     37  H8  UNL     1      -7.894  20.920 -16.008  1.00  0.00     0.170 HD
HETATM   38  O2  UNL     1      -6.459  19.199 -17.111  1.00  0.00    -0.272 OA
BRANCH  33  39
HETATM   39  C2  UNL     1      -7.361  22.545 -14.021  1.00  0.00     0.072 C 
HETATM   40  C1  UNL     1      -7.490  24.068 -13.908  1.00  0.00     0.013 C 
ENDBRANCH  33  39
ENDBRANCH  24  25
BRANCH  24  41
HETATM   41  O1  UNL     1      -7.393  17.424 -15.595  1.00  0.00    -0.349 OA
ATOM     42  H1  UNL     1      -7.652  18.274 -15.934  1.00  0.00     0.219 HD
ENDBRANCH  24  41
ENDBRANCH   1  24
TORSDOF 4
ENDMDL
MODEL 4
REMARK VINA RESULT: -7.035874694      3.021      8.803
REMARK  4 active torsions:
REMARK  status: ('A' for Active; 'I' for Inactive)
REMARK    1  A    between atoms: C2_2  and  C3_3 
REMARK    2  A    between atoms: C8_12  and  C9_13 
REMARK    3  A    between atoms: C9_13  and  O1_14 
REMARK    4  A    between atoms: C9_13  and  N3_16 
ROOT
HETATM    1  N3  UNL     1      -8.030  11.075 -16.298  1.00  0.00    -0.362 N 
HETATM    2  C10 UNL     1      -6.693  10.876 -16.763  1.00  0.00     0.152 C 
HETATM    3  C11 UNL     1      -6.008  12.188 -17.133  1.00  0.00     0.252 C 
HETATM    4  N4  UNL     1      -4.914  12.365 -16.217  1.00  0.00    -0.074 N 
ATOM      5  H41 UNL     1      -4.199  11.652 -16.368  1.00  0.00     0.277 HD
ATOM      6  H42 UNL     1      -5.196  12.125 -15.268  1.00  0.00     0.277 HD
HETATM    7  C12 UNL     1      -4.334  13.685 -16.259  1.00  0.00     0.234 C 
HETATM    8  C13 UNL     1      -2.877  13.544 -15.847  1.00  0.00     0.046 C 
HETATM    9  C14 UNL     1      -2.576  14.266 -14.560  1.00  0.00     0.115 C 
HETATM   10  N5  UNL     1      -3.124  13.635 -13.400  1.00  0.00    -0.420 N 
ATOM     11  H5  UNL     1      -3.999  13.937 -12.973  1.00  0.00     0.153 HD
HETATM   12  C15 UNL     1      -2.351  12.548 -12.884  1.00  0.00     0.141 C 
HETATM   13  C16 UNL     1      -3.271  11.339 -12.749  1.00  0.00     0.251 C 
HETATM   14  N6  UNL     1      -4.401  11.597 -11.908  1.00  0.00    -0.072 N 
ATOM     15  H61 UNL     1      -4.405  12.564 -11.584  1.00  0.00     0.277 HD
ATOM     16  H62 UNL     1      -4.306  11.125 -11.009  1.00  0.00     0.277 HD
HETATM   17  C17 UNL     1      -5.673  11.249 -12.557  1.00  0.00     0.259 C 
HETATM   18  C18 UNL     1      -6.474  12.522 -12.675  1.00  0.00     0.259 C 
HETATM   19  N7  UNL     1      -7.877  12.320 -12.802  1.00  0.00    -0.072 N 
ATOM     20  H71 UNL     1      -8.360  13.212 -12.906  1.00  0.00     0.277 HD
ATOM     21  H72 UNL     1      -8.277  12.010 -11.917  1.00  0.00     0.277 HD
HETATM   22  C19 UNL     1      -8.242  11.413 -13.874  1.00  0.00     0.252 C 
HETATM   23  C20 UNL     1      -8.150  12.083 -15.227  1.00  0.00     0.152 C 
ENDROOT
BRANCH   1  24
HETATM   24  C9  UNL     1      -9.208  10.460 -16.708  1.00  0.00     0.127 C 
BRANCH  24  25
HETATM   25  C8  UNL     1     -10.266  10.985 -17.619  1.00  0.00     0.154 C 
HETATM   26  C7  UNL     1     -10.788   9.994 -18.606  1.00  0.00     0.042 C 
HETATM   27  C6  UNL     1     -10.537  10.235 -20.063  1.00  0.00     0.120 C 
HETATM   28  N2  UNL     1     -11.671  10.771 -20.857  1.00  0.00    -0.401 N 
HETATM   29  C5  UNL     1     -12.293  11.636 -20.000  1.00  0.00     0.075 C 
ATOM     30  H2  UNL     1     -11.927  10.547 -21.818  1.00  0.00     0.158 HD
HETATM   31  C4  UNL     1     -13.281  12.690 -20.111  1.00  0.00     0.165 C 
HETATM   32  N1  UNL     1     -13.547  13.004 -18.718  1.00  0.00    -0.375 N 
HETATM   33  C3  UNL     1     -12.664  13.588 -17.862  1.00  0.00     0.079 C 
ATOM     34  H1  UNL     1     -14.470  12.767 -18.352  1.00  0.00     0.161 HD
HETATM   35  N8  UNL     1     -11.853  12.943 -16.903  1.00  0.00    -0.316 N 
HETATM   36  C21 UNL     1     -11.223  11.695 -16.729  1.00  0.00     0.235 C 
ATOM     37  H8  UNL     1     -11.671  13.557 -16.108  1.00  0.00     0.170 HD
HETATM   38  O2  UNL     1     -11.541  11.110 -15.627  1.00  0.00    -0.272 OA
BRANCH  33  39
HETATM   39  C2  UNL     1     -11.905  14.822 -18.393  1.00  0.00     0.072 C 
HETATM   40  C1  UNL     1     -11.531  15.728 -17.215  1.00  0.00     0.013 C 
ENDBRANCH  33  39
ENDBRANCH  24  25
BRANCH  24  41
HETATM   41  O1  UNL     1      -9.477   9.265 -16.270  1.00  0.00    -0.349 OA
ATOM     42  H1  UNL     1      -9.364   9.189 -15.330  1.00  0.00     0.219 HD
ENDBRANCH  24  41
ENDBRANCH   1  24
TORSDOF 4
ENDMDL
MODEL 5
REMARK VINA RESULT: -7.017818850      3.233      9.271
REMARK  4 active torsions:
REMARK  status: ('A' for Active; 'I' for Inactive)
REMARK    1  A    between atoms: C2_2  and  C3_3 
REMARK    2  A    between atoms: C8_12  and  C9_13 
REMARK    3  A    between atoms: C9_13  and  O1_14 
REMARK    4  A    between atoms: C9_13  and  N3_16 
ROOT
HETATM    1  N3  UNL     1      -4.868  13.454 -15.584  1.00  0.00    -0.362 N 
HETATM    2  C10 UNL     1      -4.037  13.783 -16.700  1.00  0.00     0.152 C 
HETATM    3  C11 UNL     1      -3.388  15.156 -16.552  1.00  0.00     0.252 C 
HETATM    4  N4  UNL     1      -1.969  14.942 -16.457  1.00  0.00    -0.074 N 
ATOM      5  H41 UNL     1      -1.599  14.578 -17.335  1.00  0.00     0.277 HD
ATOM      6  H42 UNL     1      -1.764  14.153 -15.845  1.00  0.00     0.277 HD
HETATM    7  C12 UNL     1      -1.236  16.114 -16.042  1.00  0.00     0.234 C 
HETATM    8  C13 UNL     1       0.159  15.998 -16.637  1.00  0.00     0.046 C 
HETATM    9  C14 UNL     1       1.222  15.875 -15.578  1.00  0.00     0.115 C 
HETATM   10  N5  UNL     1       1.234  14.608 -14.915  1.00  0.00    -0.420 N 
ATOM     11  H5  UNL     1       0.789  14.458 -14.010  1.00  0.00     0.153 HD
HETATM   12  C15 UNL     1       1.919  13.568 -15.617  1.00  0.00     0.141 C 
HETATM   13  C16 UNL     1       0.974  12.375 -15.729  1.00  0.00     0.251 C 
HETATM   14  N6  UNL     1       0.522  11.908 -14.453  1.00  0.00    -0.072 N 
ATOM     15  H61 UNL     1       0.885  12.490 -13.699  1.00  0.00     0.277 HD
ATOM     16  H62 UNL     1       0.967  11.025 -14.206  1.00  0.00     0.277 HD
HETATM   17  C17 UNL     1      -0.943  11.802 -14.384  1.00  0.00     0.259 C 
HETATM   18  C18 UNL     1      -1.407  12.755 -13.310  1.00  0.00     0.259 C 
HETATM   19  N7  UNL     1      -2.681  12.439 -12.759  1.00  0.00    -0.072 N 
ATOM     20  H71 UNL     1      -2.952  13.132 -12.062  1.00  0.00     0.277 HD
ATOM     21  H72 UNL     1      -2.621  11.612 -12.166  1.00  0.00     0.277 HD
HETATM   22  C19 UNL     1      -3.725  12.279 -13.754  1.00  0.00     0.252 C 
HETATM   23  C20 UNL     1      -4.207  13.615 -14.275  1.00  0.00     0.152 C 
ENDROOT
BRANCH   1  24
HETATM   24  C9  UNL     1      -6.186  13.010 -15.565  1.00  0.00     0.127 C 
BRANCH  24  25
HETATM   25  C8  UNL     1      -7.425  13.751 -15.940  1.00  0.00     0.154 C 
HETATM   26  C7  UNL     1      -8.491  12.911 -16.561  1.00  0.00     0.042 C 
HETATM   27  C6  UNL     1      -8.865  13.168 -17.988  1.00  0.00     0.120 C 
HETATM   28  N2  UNL     1     -10.118  13.929 -18.225  1.00  0.00    -0.401 N 
HETATM   29  C5  UNL     1     -10.139  14.850 -17.215  1.00  0.00     0.075 C 
ATOM     30  H2  UNL     1     -10.804  13.795 -18.967  1.00  0.00     0.158 HD
HETATM   31  C4  UNL     1     -10.874  16.064 -16.921  1.00  0.00     0.165 C 
HETATM   32  N1  UNL     1     -10.444  16.358 -15.565  1.00  0.00    -0.375 N 
HETATM   33  C3  UNL     1      -9.188  16.741 -15.205  1.00  0.00     0.079 C 
ATOM     34  H1  UNL     1     -11.139  16.270 -14.823  1.00  0.00     0.161 HD
HETATM   35  N8  UNL     1      -8.167  15.923 -14.674  1.00  0.00    -0.316 N 
HETATM   36  C21 UNL     1      -7.754  14.577 -14.747  1.00  0.00     0.235 C 
ATOM     37  H8  UNL     1      -7.551  16.460 -14.064  1.00  0.00     0.170 HD
HETATM   38  O2  UNL     1      -7.657  14.009 -13.596  1.00  0.00    -0.272 OA
BRANCH  33  39
HETATM   39  C2  UNL     1      -8.534  17.845 -16.060  1.00  0.00     0.072 C 
HETATM   40  C1  UNL     1      -7.307  18.393 -15.322  1.00  0.00     0.013 C 
ENDBRANCH  33  39
ENDBRANCH  24  25
BRANCH  24  41
HETATM   41  O1  UNL     1      -6.433  11.793 -15.177  1.00  0.00    -0.349 OA
ATOM     42  H1  UNL     1      -7.126  11.752 -14.529  1.00  0.00     0.219 HD
ENDBRANCH  24  41
ENDBRANCH   1  24
TORSDOF 4
ENDMDL
