MODEL 1
REMARK VINA RESULT: -6.322872740      0.000      0.000
REMARK  2 active torsions:
REMARK  status: ('A' for Active; 'I' for Inactive)
REMARK    1  A    between atoms: C1_2  and  C2_4 
REMARK    2  A    between atoms: C2_4  and  C3_5 
ROOT
HETATM    1  C3  UNL     1      -8.297  11.181 -16.825  1.00  0.00     0.186 C 
HETATM    2  N1  UNL     1      -9.635  11.571 -17.241  1.00  0.00    -0.345 N 
ATOM      3  H1  UNL     1     -10.149  10.907 -17.820  1.00  0.00     0.163 HD
HETATM    4  C4  UNL     1     -10.293  12.782 -16.921  1.00  0.00     0.252 C 
HETATM    5  O3  UNL     1     -11.443  12.701 -16.388  1.00  0.00    -0.271 OA
HETATM    6  C5  UNL     1      -9.769  14.148 -17.150  1.00  0.00     0.315 C 
HETATM    7  C6  UNL     1     -10.712  14.911 -18.091  1.00  0.00     0.076 C 
HETATM    8  C7  UNL     1     -11.323  15.467 -16.846  1.00  0.00     0.276 C 
HETATM    9  N2  UNL     1     -10.111  15.085 -16.113  1.00  0.00     0.103 N 
HETATM   10  C8  UNL     1      -9.172  16.200 -16.204  1.00  0.00     0.300 C 
HETATM   11  C9  UNL     1      -9.451  17.288 -15.220  1.00  0.00     0.262 C 
HETATM   12  N3  UNL     1      -9.597  18.533 -15.969  1.00  0.00    -0.073 N 
ATOM     13  H31 UNL     1     -10.437  19.038 -15.687  1.00  0.00     0.277 HD
ATOM     14  H32 UNL     1      -9.837  18.353 -16.943  1.00  0.00     0.277 HD
HETATM   15  C10 UNL     1      -8.417  19.371 -15.863  1.00  0.00     0.232 C 
HETATM   16  C11 UNL     1      -7.399  19.085 -16.930  1.00  0.00     0.029 C 
HETATM   17  C12 UNL     1      -6.150  18.440 -16.391  1.00  0.00     0.029 C 
HETATM   18  C13 UNL     1      -5.798  19.110 -15.092  1.00  0.00     0.232 C 
HETATM   19  N4  UNL     1      -4.352  19.119 -14.883  1.00  0.00    -0.074 N 
ATOM     20  H41 UNL     1      -4.068  19.579 -14.018  1.00  0.00     0.277 HD
ATOM     21  H42 UNL     1      -3.851  19.738 -15.520  1.00  0.00     0.277 HD
HETATM   22  C14 UNL     1      -3.928  17.722 -14.971  1.00  0.00     0.259 C 
HETATM   23  C15 UNL     1      -2.632  17.575 -14.220  1.00  0.00     0.259 C 
HETATM   24  N5  UNL     1      -1.734  16.685 -14.921  1.00  0.00    -0.073 N 
ATOM     25  H51 UNL     1      -0.882  16.529 -14.381  1.00  0.00     0.277 HD
ATOM     26  H52 UNL     1      -1.333  17.143 -15.740  1.00  0.00     0.277 HD
HETATM   27  C16 UNL     1      -2.348  15.431 -15.283  1.00  0.00     0.234 C 
HETATM   28  C17 UNL     1      -2.700  14.607 -14.073  1.00  0.00     0.055 C 
HETATM   29  C18 UNL     1      -3.937  13.772 -14.363  1.00  0.00     0.234 C 
HETATM   30  N6  UNL     1      -3.534  12.770 -15.335  1.00  0.00    -0.074 N 
ATOM     31  H61 UNL     1      -2.593  12.411 -15.176  1.00  0.00     0.277 HD
ATOM     32  H62 UNL     1      -3.369  13.154 -16.265  1.00  0.00     0.277 HD
HETATM   33  C19 UNL     1      -4.552  11.737 -15.315  1.00  0.00     0.251 C 
HETATM   34  C20 UNL     1      -4.931  11.371 -16.728  1.00  0.00     0.150 C 
HETATM   35  N7  UNL     1      -5.960  12.184 -17.302  1.00  0.00    -0.358 N 
ATOM     36  H7  UNL     1      -5.722  13.165 -17.450  1.00  0.00     0.162 HD
HETATM   37  C21 UNL     1      -7.262  11.801 -17.689  1.00  0.00     0.241 C 
HETATM   38  O4  UNL     1      -7.655  11.981 -18.903  1.00  0.00    -0.271 OA
ENDROOT
BRANCH   1  39
HETATM   39  C2  UNL     1      -8.235   9.641 -16.936  1.00  0.00     0.147 C 
BRANCH  39  40
HETATM   40  C1  UNL     1      -9.533   9.189 -17.482  1.00  0.00     0.175 C 
HETATM   41  O1  UNL     1      -9.651   9.063 -18.738  1.00  0.00    -0.648 OA
HETATM   42  O2  UNL     1     -10.623   8.897 -16.702  1.00  0.00    -0.648 OA
ENDBRANCH  39  40
ENDBRANCH   1  39
TORSDOF 2
ENDMDL
MODEL 2
REMARK VINA RESULT: -6.136584893      3.445      7.097
REMARK  2 active torsions:
REMARK  status: ('A' for Active; 'I' for Inactive)
REMARK    1  A    between atoms: C1_2  and  C2_4 
REMARK    2  A    between atoms: C2_4  and  C3_5 
ROOT
HETATM    1  C3  UNL     1      -7.413  14.708 -15.174  1.00  0.00     0.186 C 
HETATM    2  N1  UNL     1      -8.322  13.773 -14.529  1.00  0.00    -0.345 N 
ATOM      3  H1  UNL     1      -9.181  14.160 -14.139  1.00  0.00     0.163 HD
HETATM    4  C4  UNL     1      -8.129  12.378 -14.389  1.00  0.00     0.252 C 
HETATM    5  O3  UNL     1      -9.054  11.614 -14.807  1.00  0.00    -0.271 OA
HETATM    6  C5  UNL     1      -6.945  11.714 -13.798  1.00  0.00     0.315 C 
HETATM    7  C6  UNL     1      -7.374  10.885 -12.578  1.00  0.00     0.076 C 
HETATM    8  C7  UNL     1      -7.420   9.728 -13.522  1.00  0.00     0.276 C 
HETATM    9  N2  UNL     1      -6.577  10.487 -14.452  1.00  0.00     0.103 N 
HETATM   10  C8  UNL     1      -5.184  10.209 -14.109  1.00  0.00     0.300 C 
HETATM   11  C9  UNL     1      -4.684   8.920 -14.672  1.00  0.00     0.262 C 
HETATM   12  N3  UNL     1      -4.169   8.124 -13.562  1.00  0.00    -0.073 N 
ATOM     13  H31 UNL     1      -4.533   7.171 -13.589  1.00  0.00     0.277 HD
ATOM     14  H32 UNL     1      -4.570   8.424 -12.673  1.00  0.00     0.277 HD
HETATM   15  C10 UNL     1      -2.719   8.134 -13.515  1.00  0.00     0.232 C 
HETATM   16  C11 UNL     1      -2.168   9.265 -12.694  1.00  0.00     0.029 C 
HETATM   17  C12 UNL     1      -1.465  10.304 -13.526  1.00  0.00     0.029 C 
HETATM   18  C13 UNL     1      -0.657   9.597 -14.579  1.00  0.00     0.232 C 
HETATM   19  N4  UNL     1       0.546  10.355 -14.913  1.00  0.00    -0.074 N 
ATOM     20  H41 UNL     1       1.131   9.903 -15.615  1.00  0.00     0.277 HD
ATOM     21  H42 UNL     1       1.239  10.371 -14.166  1.00  0.00     0.277 HD
HETATM   22  C14 UNL     1       0.081  11.685 -15.308  1.00  0.00     0.259 C 
HETATM   23  C15 UNL     1       1.130  12.309 -16.188  1.00  0.00     0.259 C 
HETATM   24  N5  UNL     1       1.276  13.716 -15.892  1.00  0.00    -0.073 N 
ATOM     25  H51 UNL     1       1.936  14.156 -16.532  1.00  0.00     0.277 HD
ATOM     26  H52 UNL     1       1.777  13.852 -15.013  1.00  0.00     0.277 HD
HETATM   27  C16 UNL     1       0.020  14.425 -15.881  1.00  0.00     0.234 C 
HETATM   28  C17 UNL     1      -0.610  14.474 -17.248  1.00  0.00     0.055 C 
HETATM   29  C18 UNL     1      -2.124  14.486 -17.114  1.00  0.00     0.234 C 
HETATM   30  N6  UNL     1      -2.474  15.778 -16.548  1.00  0.00    -0.074 N 
ATOM     31  H61 UNL     1      -1.897  16.541 -16.901  1.00  0.00     0.277 HD
ATOM     32  H62 UNL     1      -2.217  15.869 -15.564  1.00  0.00     0.277 HD
HETATM   33  C19 UNL     1      -3.890  15.970 -16.790  1.00  0.00     0.251 C 
HETATM   34  C20 UNL     1      -4.558  16.466 -15.532  1.00  0.00     0.150 C 
HETATM   35  N7  UNL     1      -4.989  15.437 -14.637  1.00  0.00    -0.358 N 
ATOM     36  H7  UNL     1      -4.249  14.876 -14.214  1.00  0.00     0.162 HD
HETATM   37  C21 UNL     1      -6.307  15.100 -14.264  1.00  0.00     0.241 C 
HETATM   38  O4  UNL     1      -6.653  15.113 -13.022  1.00  0.00    -0.271 OA
ENDROOT
BRANCH   1  39
HETATM   39  C2  UNL     1      -8.256  15.945 -15.555  1.00  0.00     0.147 C 
BRANCH  39  40
HETATM   40  C1  UNL     1      -9.523  15.450 -16.134  1.00  0.00     0.175 C 
HETATM   41  O1  UNL     1     -10.615  15.942 -15.715  1.00  0.00    -0.648 OA
HETATM   42  O2  UNL     1      -9.587  14.482 -17.105  1.00  0.00    -0.648 OA
ENDBRANCH  39  40
ENDBRANCH   1  39
TORSDOF 2
ENDMDL
MODEL 3
REMARK VINA RESULT: -6.120052419      2.233      3.484
REMARK  2 active torsions:
REMARK  status: ('A' for Active; 'I' for Inactive)
REMARK    1  A    between atoms: C1_2  and  C2_4 
REMARK    2  A    between atoms: C2_4  and  C3_5 
ROOT
HETATM    1  C3  UNL     1      -9.644   9.662 -16.822  1.00  0.00     0.186 C 
HETATM    2  N1  UNL     1     -10.534  10.694 -17.331  1.00  0.00    -0.345 N 
ATOM      3  H1  UNL     1     -11.226  10.406 -18.024  1.00  0.00     0.163 HD
HETATM    4  C4  UNL     1     -10.534  12.059 -16.959  1.00  0.00     0.252 C 
HETATM    5  O3  UNL     1     -11.632  12.557 -16.557  1.00  0.00    -0.271 OA
HETATM    6  C5  UNL     1      -9.371  12.974 -16.994  1.00  0.00     0.315 C 
HETATM    7  C6  UNL     1      -9.664  14.145 -17.945  1.00  0.00     0.076 C 
HETATM    8  C7  UNL     1     -10.080  14.890 -16.718  1.00  0.00     0.276 C 
HETATM    9  N2  UNL     1      -9.338  13.918 -15.908  1.00  0.00     0.103 N 
HETATM   10  C8  UNL     1      -7.965  14.401 -15.790  1.00  0.00     0.300 C 
HETATM   11  C9  UNL     1      -7.795  15.444 -14.735  1.00  0.00     0.262 C 
HETATM   12  N3  UNL     1      -7.193  16.615 -15.365  1.00  0.00    -0.073 N 
ATOM     13  H31 UNL     1      -7.697  17.467 -15.121  1.00  0.00     0.277 HD
ATOM     14  H32 UNL     1      -7.352  16.617 -16.372  1.00  0.00     0.277 HD
HETATM   15  C10 UNL     1      -5.780  16.730 -15.055  1.00  0.00     0.232 C 
HETATM   16  C11 UNL     1      -4.905  16.003 -16.036  1.00  0.00     0.029 C 
HETATM   17  C12 UNL     1      -4.236  14.793 -15.441  1.00  0.00     0.029 C 
HETATM   18  C13 UNL     1      -3.780  15.144 -14.051  1.00  0.00     0.232 C 
HETATM   19  N4  UNL     1      -2.569  14.408 -13.696  1.00  0.00    -0.074 N 
ATOM     20  H41 UNL     1      -2.217  14.628 -12.765  1.00  0.00     0.277 HD
ATOM     21  H42 UNL     1      -1.743  14.707 -14.214  1.00  0.00     0.277 HD
HETATM   22  C14 UNL     1      -2.894  12.994 -13.881  1.00  0.00     0.259 C 
HETATM   23  C15 UNL     1      -1.965  12.180 -13.022  1.00  0.00     0.259 C 
HETATM   24  N5  UNL     1      -1.546  10.982 -13.713  1.00  0.00    -0.073 N 
ATOM     25  H51 UNL     1      -0.971  10.396 -13.108  1.00  0.00     0.277 HD
ATOM     26  H52 UNL     1      -0.861  11.201 -14.436  1.00  0.00     0.277 HD
HETATM   27  C16 UNL     1      -2.648  10.231 -14.260  1.00  0.00     0.234 C 
HETATM   28  C17 UNL     1      -3.530   9.659 -13.182  1.00  0.00     0.055 C 
HETATM   29  C18 UNL     1      -4.964   9.582 -13.680  1.00  0.00     0.234 C 
HETATM   30  N6  UNL     1      -4.987   8.549 -14.702  1.00  0.00    -0.074 N 
ATOM     31  H61 UNL     1      -4.384   7.755 -14.485  1.00  0.00     0.277 HD
ATOM     32  H62 UNL     1      -4.523   8.828 -15.567  1.00  0.00     0.277 HD
HETATM   33  C19 UNL     1      -6.376   8.179 -14.890  1.00  0.00     0.251 C 
HETATM   34  C20 UNL     1      -6.687   8.108 -16.364  1.00  0.00     0.150 C 
HETATM   35  N7  UNL     1      -7.079   9.351 -16.954  1.00  0.00    -0.358 N 
ATOM     36  H7  UNL     1      -6.364  10.078 -16.978  1.00  0.00     0.162 HD
HETATM   37  C21 UNL     1      -8.329   9.698 -17.509  1.00  0.00     0.241 C 
HETATM   38  O4  UNL     1      -8.406  10.096 -18.733  1.00  0.00    -0.271 OA
ENDROOT
BRANCH   1  39
HETATM   39  C2  UNL     1     -10.346   8.311 -17.081  1.00  0.00     0.147 C 
BRANCH  39  40
HETATM   40  C1  UNL     1     -11.804   8.561 -17.045  1.00  0.00     0.175 C 
HETATM   41  O1  UNL     1     -12.475   8.394 -18.108  1.00  0.00    -0.648 OA
HETATM   42  O2  UNL     1     -12.476   8.965 -15.919  1.00  0.00    -0.648 OA
ENDBRANCH  39  40
ENDBRANCH   1  39
TORSDOF 2
ENDMDL
MODEL 4
REMARK VINA RESULT: -5.958598659      2.265      5.778
REMARK  2 active torsions:
REMARK  status: ('A' for Active; 'I' for Inactive)
REMARK    1  A    between atoms: C1_2  and  C2_4 
REMARK    2  A    between atoms: C2_4  and  C3_5 
ROOT
HETATM    1  C3  UNL     1     -10.318  14.465 -17.881  1.00  0.00     0.186 C 
HETATM    2  N1  UNL     1     -10.521  13.284 -18.707  1.00  0.00    -0.345 N 
ATOM      3  H1  UNL     1     -11.460  12.885 -18.716  1.00  0.00     0.163 HD
HETATM    4  C4  UNL     1      -9.544  12.637 -19.498  1.00  0.00     0.252 C 
HETATM    5  O3  UNL     1      -9.812  12.453 -20.726  1.00  0.00    -0.271 OA
HETATM    6  C5  UNL     1      -8.227  12.146 -19.032  1.00  0.00     0.315 C 
HETATM    7  C6  UNL     1      -8.136  10.628 -19.250  1.00  0.00     0.076 C 
HETATM    8  C7  UNL     1      -7.440  10.966 -20.528  1.00  0.00     0.276 C 
HETATM    9  N2  UNL     1      -7.170  12.307 -19.996  1.00  0.00     0.103 N 
HETATM   10  C8  UNL     1      -5.904  12.245 -19.270  1.00  0.00     0.300 C 
HETATM   11  C9  UNL     1      -4.709  12.333 -20.161  1.00  0.00     0.262 C 
HETATM   12  N3  UNL     1      -3.875  11.164 -19.898  1.00  0.00    -0.073 N 
ATOM     13  H31 UNL     1      -3.599  10.703 -20.765  1.00  0.00     0.277 HD
ATOM     14  H32 UNL     1      -4.418  10.409 -19.480  1.00  0.00     0.277 HD
HETATM   15  C10 UNL     1      -2.719  11.495 -19.085  1.00  0.00     0.232 C 
HETATM   16  C11 UNL     1      -2.989  11.383 -17.612  1.00  0.00     0.029 C 
HETATM   17  C12 UNL     1      -3.004  12.717 -16.915  1.00  0.00     0.029 C 
HETATM   18  C13 UNL     1      -1.884  13.552 -17.474  1.00  0.00     0.232 C 
HETATM   19  N4  UNL     1      -1.355  14.462 -16.462  1.00  0.00    -0.074 N 
ATOM     20  H41 UNL     1      -0.583  15.038 -16.796  1.00  0.00     0.277 HD
ATOM     21  H42 UNL     1      -0.843  13.991 -15.717  1.00  0.00     0.277 HD
HETATM   22  C14 UNL     1      -2.500  15.237 -15.985  1.00  0.00     0.259 C 
HETATM   23  C15 UNL     1      -1.988  16.531 -15.412  1.00  0.00     0.259 C 
HETATM   24  N5  UNL     1      -2.721  16.888 -14.219  1.00  0.00    -0.073 N 
ATOM     25  H51 UNL     1      -2.423  17.797 -13.867  1.00  0.00     0.277 HD
ATOM     26  H52 UNL     1      -2.442  16.303 -13.431  1.00  0.00     0.277 HD
HETATM   27  C16 UNL     1      -4.151  16.853 -14.402  1.00  0.00     0.234 C 
HETATM   28  C17 UNL     1      -4.621  17.909 -15.367  1.00  0.00     0.055 C 
HETATM   29  C18 UNL     1      -5.850  17.413 -16.112  1.00  0.00     0.234 C 
HETATM   30  N6  UNL     1      -6.926  17.361 -15.137  1.00  0.00    -0.074 N 
ATOM     31  H61 UNL     1      -6.900  18.131 -14.468  1.00  0.00     0.277 HD
ATOM     32  H62 UNL     1      -6.821  16.603 -14.462  1.00  0.00     0.277 HD
HETATM   33  C19 UNL     1      -8.165  17.293 -15.885  1.00  0.00     0.251 C 
HETATM   34  C20 UNL     1      -9.056  16.227 -15.298  1.00  0.00     0.150 C 
HETATM   35  N7  UNL     1      -8.832  14.910 -15.810  1.00  0.00    -0.358 N 
ATOM     36  H7  UNL     1      -7.925  14.496 -15.594  1.00  0.00     0.162 HD
HETATM   37  C21 UNL     1      -9.707  14.110 -16.576  1.00  0.00     0.241 C 
HETATM   38  O4  UNL     1     -10.051  12.942 -16.155  1.00  0.00    -0.271 OA
ENDROOT
BRANCH   1  39
HETATM   39  C2  UNL     1     -11.712  15.095 -17.666  1.00  0.00     0.147 C 
BRANCH  39  40
HETATM   40  C1  UNL     1     -12.675  14.310 -18.469  1.00  0.00     0.175 C 
HETATM   41  O1  UNL     1     -13.424  13.478 -17.874  1.00  0.00    -0.648 OA
HETATM   42  O2  UNL     1     -12.806  14.432 -19.829  1.00  0.00    -0.648 OA
ENDBRANCH  39  40
ENDBRANCH   1  39
TORSDOF 2
ENDMDL
MODEL 5
REMARK VINA RESULT: -5.953768150      3.689      7.417
REMARK  2 active torsions:
REMARK  status: ('A' for Active; 'I' for Inactive)
REMARK    1  A    between atoms: C1_2  and  C2_4 
REMARK    2  A    between atoms: C2_4  and  C3_5 
ROOT
HETATM    1  C3  UNL     1      -6.891  14.878 -14.944  1.00  0.00     0.186 C 
HETATM    2  N1  UNL     1      -8.130  14.139 -14.752  1.00  0.00    -0.345 N 
ATOM      3  H1  UNL     1      -8.954  14.682 -14.491  1.00  0.00     0.163 HD
HETATM    4  C4  UNL     1      -8.302  12.742 -14.892  1.00  0.00     0.252 C 
HETATM    5  O3  UNL     1      -9.222  12.341 -15.671  1.00  0.00    -0.271 OA
HETATM    6  C5  UNL     1      -7.511  11.692 -14.212  1.00  0.00     0.315 C 
HETATM    7  C6  UNL     1      -8.438  10.829 -13.343  1.00  0.00     0.076 C 
HETATM    8  C7  UNL     1      -8.479   9.896 -14.509  1.00  0.00     0.276 C 
HETATM    9  N2  UNL     1      -7.261  10.531 -15.025  1.00  0.00     0.103 N 
HETATM   10  C8  UNL     1      -6.119   9.828 -14.446  1.00  0.00     0.300 C 
HETATM   11  C9  UNL     1      -5.785   8.558 -15.156  1.00  0.00     0.262 C 
HETATM   12  N3  UNL     1      -5.793   7.484 -14.168  1.00  0.00    -0.073 N 
ATOM     13  H31 UNL     1      -6.339   6.686 -14.492  1.00  0.00     0.277 HD
ATOM     14  H32 UNL     1      -6.348   7.738 -13.350  1.00  0.00     0.277 HD
HETATM   15  C10 UNL     1      -4.450   7.086 -13.791  1.00  0.00     0.232 C 
HETATM   16  C11 UNL     1      -3.909   7.874 -12.632  1.00  0.00     0.029 C 
HETATM   17  C12 UNL     1      -2.788   8.799 -13.024  1.00  0.00     0.029 C 
HETATM   18  C13 UNL     1      -1.899   8.073 -13.997  1.00  0.00     0.232 C 
HETATM   19  N4  UNL     1      -0.512   8.514 -13.868  1.00  0.00    -0.074 N 
ATOM     20  H41 UNL     1       0.128   8.035 -14.502  1.00  0.00     0.277 HD
ATOM     21  H42 UNL     1      -0.069   8.217 -12.999  1.00  0.00     0.277 HD
HETATM   22  C14 UNL     1      -0.538   9.965 -14.047  1.00  0.00     0.259 C 
HETATM   23  C15 UNL     1       0.828  10.408 -14.500  1.00  0.00     0.259 C 
HETATM   24  N5  UNL     1       1.198  11.653 -13.868  1.00  0.00    -0.073 N 
ATOM     25  H51 UNL     1       2.092  11.990 -14.224  1.00  0.00     0.277 HD
ATOM     26  H52 UNL     1       1.452  11.503 -12.891  1.00  0.00     0.277 HD
HETATM   27  C16 UNL     1       0.182  12.670 -13.984  1.00  0.00     0.234 C 
HETATM   28  C17 UNL     1      -0.015  13.109 -15.411  1.00  0.00     0.055 C 
HETATM   29  C18 UNL     1      -1.463  13.517 -15.626  1.00  0.00     0.234 C 
HETATM   30  N6  UNL     1      -1.656  14.748 -14.877  1.00  0.00    -0.074 N 
ATOM     31  H61 UNL     1      -0.847  15.368 -14.908  1.00  0.00     0.277 HD
ATOM     32  H62 UNL     1      -1.670  14.606 -13.867  1.00  0.00     0.277 HD
HETATM   33  C19 UNL     1      -2.868  15.360 -15.386  1.00  0.00     0.251 C 
HETATM   34  C20 UNL     1      -3.730  15.813 -14.235  1.00  0.00     0.150 C 
HETATM   35  N7  UNL     1      -4.613  14.814 -13.718  1.00  0.00    -0.358 N 
ATOM     36  H7  UNL     1      -4.167  14.010 -13.276  1.00  0.00     0.162 HD
HETATM   37  C21 UNL     1      -6.024  14.798 -13.742  1.00  0.00     0.241 C 
HETATM   38  O4  UNL     1      -6.689  14.708 -12.642  1.00  0.00    -0.271 OA
ENDROOT
BRANCH   1  39
HETATM   39  C2  UNL     1      -7.293  16.344 -15.218  1.00  0.00     0.147 C 
BRANCH  39  40
HETATM   40  C1  UNL     1      -8.725  16.344 -15.588  1.00  0.00     0.175 C 
HETATM   41  O1  UNL     1      -9.545  16.962 -14.843  1.00  0.00    -0.648 OA
HETATM   42  O2  UNL     1      -9.221  15.708 -16.699  1.00  0.00    -0.648 OA
ENDBRANCH  39  40
ENDBRANCH   1  39
TORSDOF 2
ENDMDL
