MODEL 1
REMARK VINA RESULT: -7.197253409      0.000      0.000
REMARK  6 active torsions:
REMARK  status: ('A' for Active; 'I' for Inactive)
REMARK    1  A    between atoms: O1_1  and  C1_3 
REMARK    2  A    between atoms: C1_3  and  C2_4 
REMARK    3  A    between atoms: C2_4  and  N1_5 
REMARK    4  A    between atoms: N5_24  and  C12_25 
REMARK    5  A    between atoms: N7_36  and  C19_37 
REMARK    6  A    between atoms: C19_37  and  C20_38 
ROOT
HETATM    1  N1  UNL     1     -10.163   2.333   3.622  1.00  0.00    -0.404 N 
HETATM    2  C3  UNL     1     -10.020   1.957   2.243  1.00  0.00     0.144 C 
HETATM    3  C4  UNL     1      -8.649   1.392   1.998  1.00  0.00     0.251 C 
HETATM    4  N2  UNL     1      -8.497   0.051   2.569  1.00  0.00    -0.074 N 
ATOM      5  H21 UNL     1      -9.391  -0.348   2.855  1.00  0.00     0.277 HD
ATOM      6  H22 UNL     1      -8.046   0.071   3.483  1.00  0.00     0.277 HD
HETATM    7  C5  UNL     1      -7.794  -0.803   1.633  1.00  0.00     0.234 C 
HETATM    8  C6  UNL     1      -8.111  -2.251   1.812  1.00  0.00     0.055 C 
HETATM    9  C7  UNL     1      -7.847  -2.975   0.503  1.00  0.00     0.234 C 
HETATM   10  N3  UNL     1      -8.883  -3.945   0.205  1.00  0.00    -0.073 N 
ATOM     11  H31 UNL     1      -9.354  -4.292   1.040  1.00  0.00     0.277 HD
ATOM     12  H32 UNL     1      -8.509  -4.837  -0.119  1.00  0.00     0.277 HD
HETATM   13  C8  UNL     1      -9.786  -3.343  -0.737  1.00  0.00     0.259 C 
HETATM   14  C9  UNL     1     -10.698  -4.344  -1.398  1.00  0.00     0.259 C 
HETATM   15  N4  UNL     1     -11.672  -3.621  -2.162  1.00  0.00    -0.072 N 
ATOM     16  H41 UNL     1     -11.414  -3.597  -3.149  1.00  0.00     0.277 HD
ATOM     17  H42 UNL     1     -11.630  -2.623  -1.954  1.00  0.00     0.277 HD
HETATM   18  C10 UNL     1     -13.026  -4.129  -1.992  1.00  0.00     0.262 C 
HETATM   19  C11 UNL     1     -13.939  -3.183  -2.717  1.00  0.00     0.300 C 
HETATM   20  N5  UNL     1     -15.348  -3.444  -2.483  1.00  0.00     0.100 N 
HETATM   21  C15 UNL     1     -15.790  -2.839  -1.240  1.00  0.00     0.299 C 
HETATM   22  C16 UNL     1     -16.624  -1.638  -1.612  1.00  0.00     0.198 C 
HETATM   23  O2  UNL     1     -17.128  -0.975  -0.521  1.00  0.00    -0.384 OA
HETATM   24  C17 UNL     1     -16.193  -0.676   0.439  1.00  0.00     0.212 C 
HETATM   25  C18 UNL     1     -16.606   0.498   1.319  1.00  0.00     0.089 C 
HETATM   26  N7  UNL     1     -16.364   1.733   0.686  1.00  0.00    -0.366 N 
HETATM   27  C24 UNL     1     -15.973   2.846   1.439  1.00  0.00     0.065 C 
HETATM   28  C25 UNL     1     -15.066   2.593   2.599  1.00  0.00     0.064 C 
HETATM   29  C26 UNL     1     -13.766   1.946   2.289  1.00  0.00     0.124 C 
HETATM   30  N8  UNL     1     -12.714   2.793   1.875  1.00  0.00    -0.400 N 
ATOM     31  H8  UNL     1     -12.398   2.798   0.905  1.00  0.00     0.158 HD
HETATM   32  C27 UNL     1     -12.111   3.631   2.835  1.00  0.00     0.074 C 
HETATM   33  C28 UNL     1     -11.378   2.976   3.955  1.00  0.00     0.161 C 
ENDROOT
BRANCH  20  34
HETATM   34  C12 UNL     1     -15.555  -4.867  -2.497  1.00  0.00     0.274 C 
HETATM   35  C13 UNL     1     -16.899  -5.328  -2.012  1.00  0.00     0.269 C 
HETATM   36  N6  UNL     1     -16.909  -6.263  -3.144  1.00  0.00    -0.071 N 
HETATM   37  C14 UNL     1     -16.040  -5.340  -3.847  1.00  0.00     0.269 C 
ATOM     38  H62 UNL     1     -16.644  -7.240  -3.018  1.00  0.00     0.277 HD
ATOM     39  H61 UNL     1     -17.787  -6.574  -3.558  1.00  0.00     0.277 HD
ENDBRANCH  20  34
BRANCH  26  40
HETATM   40  C19 UNL     1     -17.377   2.080  -0.277  1.00  0.00     0.192 C 
BRANCH  40  41
HETATM   41  C20 UNL     1     -18.625   2.610   0.298  1.00  0.00     0.070 A 
HETATM   42  C21 UNL     1     -19.871   2.038   0.286  1.00  0.00     0.036 A 
HETATM   43  C22 UNL     1     -20.731   2.911   0.952  1.00  0.00     0.027 A 
HETATM   44  C23 UNL     1     -19.954   3.965   1.330  1.00  0.00     0.142 A 
HETATM   45  O3  UNL     1     -18.746   3.748   0.931  1.00  0.00    -0.325 OA
ENDBRANCH  40  41
ENDBRANCH  26  40
BRANCH   1  46
HETATM   46  C2  UNL     1      -8.989   2.903   4.197  1.00  0.00     0.143 C 
BRANCH  46  47
HETATM   47  C1  UNL     1      -8.627   2.314   5.545  1.00  0.00     0.183 C 
BRANCH  47  48
HETATM   48  O1  UNL     1      -8.826   0.934   5.502  1.00  0.00    -0.399 OA
ATOM     49  H1  UNL     1      -8.229   0.518   6.113  1.00  0.00     0.209 HD
ENDBRANCH  47  48
ENDBRANCH  46  47
ENDBRANCH   1  46
TORSDOF 6
ENDMDL
MODEL 2
REMARK VINA RESULT: -6.667461704      0.956      1.024
REMARK  6 active torsions:
REMARK  status: ('A' for Active; 'I' for Inactive)
REMARK    1  A    between atoms: O1_1  and  C1_3 
REMARK    2  A    between atoms: C1_3  and  C2_4 
REMARK    3  A    between atoms: C2_4  and  N1_5 
REMARK    4  A    between atoms: N5_24  and  C12_25 
REMARK    5  A    between atoms: N7_36  and  C19_37 
REMARK    6  A    between atoms: C19_37  and  C20_38 
ROOT
HETATM    1  N1  UNL     1      -9.616   1.106   3.363  1.00  0.00    -0.404 N 
HETATM    2  C3  UNL     1      -9.517   0.766   1.971  1.00  0.00     0.144 C 
HETATM    3  C4  UNL     1      -8.219   0.061   1.698  1.00  0.00     0.251 C 
HETATM    4  N2  UNL     1      -8.218  -1.308   2.219  1.00  0.00    -0.074 N 
ATOM      5  H21 UNL     1      -9.150  -1.615   2.496  1.00  0.00     0.277 HD
ATOM      6  H22 UNL     1      -7.766  -1.372   3.131  1.00  0.00     0.277 HD
HETATM    7  C5  UNL     1      -7.616  -2.201   1.249  1.00  0.00     0.234 C 
HETATM    8  C6  UNL     1      -8.093  -3.610   1.377  1.00  0.00     0.055 C 
HETATM    9  C7  UNL     1      -7.913  -4.311   0.042  1.00  0.00     0.234 C 
HETATM   10  N3  UNL     1      -9.051  -5.147  -0.286  1.00  0.00    -0.073 N 
ATOM     11  H31 UNL     1      -9.558  -5.469   0.538  1.00  0.00     0.277 HD
ATOM     12  H32 UNL     1      -8.780  -6.063  -0.644  1.00  0.00     0.277 HD
HETATM   13  C8  UNL     1      -9.882  -4.413  -1.201  1.00  0.00     0.259 C 
HETATM   14  C9  UNL     1     -10.902  -5.281  -1.893  1.00  0.00     0.259 C 
HETATM   15  N4  UNL     1     -11.789  -4.426  -2.625  1.00  0.00    -0.072 N 
ATOM     16  H41 UNL     1     -11.531  -4.395  -3.612  1.00  0.00     0.277 HD
ATOM     17  H42 UNL     1     -11.635  -3.448  -2.381  1.00  0.00     0.277 HD
HETATM   18  C10 UNL     1     -13.191  -4.785  -2.467  1.00  0.00     0.262 C 
HETATM   19  C11 UNL     1     -13.994  -3.717  -3.152  1.00  0.00     0.300 C 
HETATM   20  N5  UNL     1     -15.422  -3.827  -2.921  1.00  0.00     0.100 N 
HETATM   21  C15 UNL     1     -15.793  -3.223  -1.654  1.00  0.00     0.299 C 
HETATM   22  C16 UNL     1     -16.488  -1.923  -1.978  1.00  0.00     0.198 C 
HETATM   23  O2  UNL     1     -16.913  -1.248  -0.861  1.00  0.00    -0.384 OA
HETATM   24  C17 UNL     1     -15.949  -1.091   0.105  1.00  0.00     0.212 C 
HETATM   25  C18 UNL     1     -16.227   0.088   1.029  1.00  0.00     0.089 C 
HETATM   26  N7  UNL     1     -15.849   1.311   0.440  1.00  0.00    -0.366 N 
HETATM   27  C24 UNL     1     -15.335   2.345   1.230  1.00  0.00     0.065 C 
HETATM   28  C25 UNL     1     -14.460   1.950   2.376  1.00  0.00     0.064 C 
HETATM   29  C26 UNL     1     -13.242   1.173   2.036  1.00  0.00     0.124 C 
HETATM   30  N8  UNL     1     -12.101   1.912   1.648  1.00  0.00    -0.400 N 
ATOM     31  H8  UNL     1     -11.789   1.917   0.677  1.00  0.00     0.158 HD
HETATM   32  C27 UNL     1     -11.407   2.641   2.634  1.00  0.00     0.074 C 
HETATM   33  C28 UNL     1     -10.751   1.867   3.726  1.00  0.00     0.161 C 
ENDROOT
BRANCH  20  34
HETATM   34  C12 UNL     1     -15.788  -5.217  -2.985  1.00  0.00     0.274 C 
HETATM   35  C13 UNL     1     -17.093  -5.572  -2.334  1.00  0.00     0.269 C 
HETATM   36  N6  UNL     1     -17.367  -6.416  -3.503  1.00  0.00    -0.071 N 
HETATM   37  C14 UNL     1     -16.508  -5.538  -4.273  1.00  0.00     0.269 C 
ATOM     38  H62 UNL     1     -17.198  -7.422  -3.474  1.00  0.00     0.277 HD
ATOM     39  H61 UNL     1     -18.325  -6.604  -3.800  1.00  0.00     0.277 HD
ENDBRANCH  20  34
BRANCH  26  40
HETATM   40  C19 UNL     1     -16.817   1.804  -0.504  1.00  0.00     0.192 C 
BRANCH  40  41
HETATM   41  C20 UNL     1     -18.103   2.217   0.083  1.00  0.00     0.070 A 
HETATM   42  C21 UNL     1     -19.283   1.518   0.112  1.00  0.00     0.036 A 
HETATM   43  C22 UNL     1     -20.217   2.315   0.773  1.00  0.00     0.027 A 
HETATM   44  C23 UNL     1     -19.548   3.454   1.108  1.00  0.00     0.142 A 
HETATM   45  O3  UNL     1     -18.331   3.353   0.689  1.00  0.00    -0.325 OA
ENDBRANCH  40  41
ENDBRANCH  26  40
BRANCH   1  46
HETATM   46  C2  UNL     1      -8.385   1.519   3.952  1.00  0.00     0.143 C 
BRANCH  46  47
HETATM   47  C1  UNL     1      -8.085   0.837   5.272  1.00  0.00     0.183 C 
BRANCH  47  48
HETATM   48  O1  UNL     1      -8.555  -0.476   5.216  1.00  0.00    -0.399 OA
ATOM     49  H1  UNL     1      -7.965  -1.034   5.711  1.00  0.00     0.209 HD
ENDBRANCH  47  48
ENDBRANCH  46  47
ENDBRANCH   1  46
TORSDOF 6
ENDMDL
MODEL 3
REMARK VINA RESULT: -6.592399017      1.149      1.226
REMARK  6 active torsions:
REMARK  status: ('A' for Active; 'I' for Inactive)
REMARK    1  A    between atoms: O1_1  and  C1_3 
REMARK    2  A    between atoms: C1_3  and  C2_4 
REMARK    3  A    between atoms: C2_4  and  N1_5 
REMARK    4  A    between atoms: N5_24  and  C12_25 
REMARK    5  A    between atoms: N7_36  and  C19_37 
REMARK    6  A    between atoms: C19_37  and  C20_38 
ROOT
HETATM    1  N1  UNL     1     -10.342   0.995   3.659  1.00  0.00    -0.404 N 
HETATM    2  C3  UNL     1     -10.129   0.938   2.240  1.00  0.00     0.144 C 
HETATM    3  C4  UNL     1      -8.739   0.452   1.942  1.00  0.00     0.251 C 
HETATM    4  N2  UNL     1      -8.591  -0.982   2.205  1.00  0.00    -0.074 N 
ATOM      5  H21 UNL     1      -9.489  -1.441   2.351  1.00  0.00     0.277 HD
ATOM      6  H22 UNL     1      -8.183  -1.164   3.122  1.00  0.00     0.277 HD
HETATM    7  C5  UNL     1      -7.830  -1.600   1.137  1.00  0.00     0.234 C 
HETATM    8  C6  UNL     1      -8.130  -3.053   0.973  1.00  0.00     0.055 C 
HETATM    9  C7  UNL     1      -7.793  -3.464  -0.450  1.00  0.00     0.234 C 
HETATM   10  N3  UNL     1      -8.797  -4.349  -1.008  1.00  0.00    -0.073 N 
ATOM     11  H31 UNL     1      -9.300  -4.877  -0.296  1.00  0.00     0.277 HD
ATOM     12  H32 UNL     1      -8.393  -5.143  -1.504  1.00  0.00     0.277 HD
HETATM   13  C8  UNL     1      -9.666  -3.557  -1.835  1.00  0.00     0.259 C 
HETATM   14  C9  UNL     1     -10.529  -4.391  -2.746  1.00  0.00     0.259 C 
HETATM   15  N4  UNL     1     -11.479  -3.521  -3.376  1.00  0.00    -0.072 N 
ATOM     16  H41 UNL     1     -11.177  -3.275  -4.319  1.00  0.00     0.277 HD
ATOM     17  H42 UNL     1     -11.464  -2.595  -2.948  1.00  0.00     0.277 HD
HETATM   18  C10 UNL     1     -12.830  -4.063  -3.391  1.00  0.00     0.262 C 
HETATM   19  C11 UNL     1     -13.725  -2.985  -3.929  1.00  0.00     0.300 C 
HETATM   20  N5  UNL     1     -15.139  -3.301  -3.829  1.00  0.00     0.100 N 
HETATM   21  C15 UNL     1     -15.648  -2.993  -2.505  1.00  0.00     0.299 C 
HETATM   22  C16 UNL     1     -16.485  -1.745  -2.640  1.00  0.00     0.198 C 
HETATM   23  O2  UNL     1     -17.051  -1.347  -1.454  1.00  0.00    -0.384 OA
HETATM   24  C17 UNL     1     -16.166  -1.264  -0.406  1.00  0.00     0.212 C 
HETATM   25  C18 UNL     1     -16.640  -0.320   0.692  1.00  0.00     0.089 C 
HETATM   26  N7  UNL     1     -16.390   1.027   0.364  1.00  0.00    -0.366 N 
HETATM   27  C24 UNL     1     -16.054   1.946   1.365  1.00  0.00     0.065 C 
HETATM   28  C25 UNL     1     -15.197   1.445   2.482  1.00  0.00     0.064 C 
HETATM   29  C26 UNL     1     -13.873   0.892   2.099  1.00  0.00     0.124 C 
HETATM   30  N8  UNL     1     -12.818   1.818   1.937  1.00  0.00    -0.400 N 
ATOM     31  H8  UNL     1     -12.458   2.042   1.009  1.00  0.00     0.158 HD
HETATM   32  C27 UNL     1     -12.274   2.423   3.088  1.00  0.00     0.074 C 
HETATM   33  C28 UNL     1     -11.583   1.538   4.068  1.00  0.00     0.161 C 
ENDROOT
BRANCH  20  34
HETATM   34  C12 UNL     1     -15.321  -4.687  -4.170  1.00  0.00     0.274 C 
HETATM   35  C13 UNL     1     -16.675  -5.255  -3.859  1.00  0.00     0.269 C 
HETATM   36  N6  UNL     1     -16.623  -5.912  -5.171  1.00  0.00    -0.071 N 
HETATM   37  C14 UNL     1     -15.743  -4.848  -5.611  1.00  0.00     0.269 C 
ATOM     38  H62 UNL     1     -16.346  -6.890  -5.257  1.00  0.00     0.277 HD
ATOM     39  H61 UNL     1     -17.478  -6.129  -5.682  1.00  0.00     0.277 HD
ENDBRANCH  20  34
BRANCH  26  40
HETATM   40  C19 UNL     1     -17.363   1.574  -0.545  1.00  0.00     0.192 C 
BRANCH  40  41
HETATM   41  C20 UNL     1     -18.543   2.177   0.097  1.00  0.00     0.070 A 
HETATM   42  C21 UNL     1     -19.780   1.616   0.291  1.00  0.00     0.036 A 
HETATM   43  C22 UNL     1     -20.566   2.569   0.939  1.00  0.00     0.027 A 
HETATM   44  C23 UNL     1     -19.759   3.654   1.101  1.00  0.00     0.142 A 
HETATM   45  O3  UNL     1     -18.601   3.383   0.600  1.00  0.00    -0.325 OA
ENDBRANCH  40  41
ENDBRANCH  26  40
BRANCH   1  46
HETATM   46  C2  UNL     1      -9.206   1.429   4.403  1.00  0.00     0.143 C 
BRANCH  46  47
HETATM   47  C1  UNL     1      -9.224   2.908   4.731  1.00  0.00     0.183 C 
BRANCH  47  48
HETATM   48  O1  UNL     1      -9.163   3.062   6.117  1.00  0.00    -0.399 OA
ATOM     49  H1  UNL     1      -8.349   2.685   6.431  1.00  0.00     0.209 HD
ENDBRANCH  47  48
ENDBRANCH  46  47
ENDBRANCH   1  46
TORSDOF 6
ENDMDL
MODEL 4
REMARK VINA RESULT: -6.415419157      3.890      6.474
REMARK  6 active torsions:
REMARK  status: ('A' for Active; 'I' for Inactive)
REMARK    1  A    between atoms: O1_1  and  C1_3 
REMARK    2  A    between atoms: C1_3  and  C2_4 
REMARK    3  A    between atoms: C2_4  and  N1_5 
REMARK    4  A    between atoms: N5_24  and  C12_25 
REMARK    5  A    between atoms: N7_36  and  C19_37 
REMARK    6  A    between atoms: C19_37  and  C20_38 
ROOT
HETATM    1  N1  UNL     1     -10.853  -0.129   3.649  1.00  0.00    -0.404 N 
HETATM    2  C3  UNL     1     -11.269   1.245   3.577  1.00  0.00     0.144 C 
HETATM    3  C4  UNL     1     -10.146   2.151   3.995  1.00  0.00     0.251 C 
HETATM    4  N2  UNL     1      -9.094   2.227   2.978  1.00  0.00    -0.074 N 
ATOM      5  H21 UNL     1      -9.387   1.819   2.091  1.00  0.00     0.277 HD
ATOM      6  H22 UNL     1      -8.319   1.595   3.180  1.00  0.00     0.277 HD
HETATM    7  C5  UNL     1      -8.654   3.600   2.829  1.00  0.00     0.234 C 
HETATM    8  C6  UNL     1      -8.081   3.886   1.481  1.00  0.00     0.055 C 
HETATM    9  C7  UNL     1      -8.206   5.374   1.203  1.00  0.00     0.234 C 
HETATM   10  N3  UNL     1      -8.619   5.635  -0.163  1.00  0.00    -0.073 N 
ATOM     11  H31 UNL     1      -8.360   4.887  -0.805  1.00  0.00     0.277 HD
ATOM     12  H32 UNL     1      -8.084   6.383  -0.603  1.00  0.00     0.277 HD
HETATM   13  C8  UNL     1     -10.033   5.894  -0.149  1.00  0.00     0.259 C 
HETATM   14  C9  UNL     1     -10.528   6.520  -1.427  1.00  0.00     0.259 C 
HETATM   15  N4  UNL     1     -11.960   6.556  -1.379  1.00  0.00    -0.072 N 
ATOM     16  H41 UNL     1     -12.291   7.481  -1.105  1.00  0.00     0.277 HD
ATOM     17  H42 UNL     1     -12.311   6.013  -0.590  1.00  0.00     0.277 HD
HETATM   18  C10 UNL     1     -12.586   6.128  -2.622  1.00  0.00     0.262 C 
HETATM   19  C11 UNL     1     -14.064   6.067  -2.366  1.00  0.00     0.300 C 
HETATM   20  N5  UNL     1     -14.817   5.471  -3.455  1.00  0.00     0.100 N 
HETATM   21  C15 UNL     1     -14.793   4.022  -3.373  1.00  0.00     0.299 C 
HETATM   22  C16 UNL     1     -16.161   3.590  -2.902  1.00  0.00     0.198 C 
HETATM   23  O2  UNL     1     -16.287   2.227  -2.797  1.00  0.00    -0.384 OA
HETATM   24  C17 UNL     1     -15.281   1.620  -2.085  1.00  0.00     0.212 C 
HETATM   25  C18 UNL     1     -15.699   0.276  -1.503  1.00  0.00     0.089 C 
HETATM   26  N7  UNL     1     -16.452   0.433  -0.322  1.00  0.00    -0.366 N 
HETATM   27  C24 UNL     1     -16.335  -0.498   0.717  1.00  0.00     0.065 C 
HETATM   28  C25 UNL     1     -14.978  -1.075   0.958  1.00  0.00     0.064 C 
HETATM   29  C26 UNL     1     -13.898  -0.107   1.274  1.00  0.00     0.124 C 
HETATM   30  N8  UNL     1     -13.775   0.294   2.624  1.00  0.00    -0.400 N 
ATOM     31  H8  UNL     1     -14.048   1.233   2.916  1.00  0.00     0.158 HD
HETATM   32  C27 UNL     1     -13.268  -0.634   3.556  1.00  0.00     0.074 C 
HETATM   33  C28 UNL     1     -11.859  -1.085   3.378  1.00  0.00     0.161 C 
ENDROOT
BRANCH  20  34
HETATM   34  C12 UNL     1     -14.276   5.952  -4.698  1.00  0.00     0.274 C 
HETATM   35  C13 UNL     1     -14.294   4.969  -5.832  1.00  0.00     0.269 C 
HETATM   36  N6  UNL     1     -14.749   6.071  -6.689  1.00  0.00    -0.071 N 
HETATM   37  C14 UNL     1     -15.321   6.684  -5.506  1.00  0.00     0.269 C 
ATOM     38  H62 UNL     1     -14.091   6.582  -7.278  1.00  0.00     0.277 HD
ATOM     39  H61 UNL     1     -15.320   5.891  -7.514  1.00  0.00     0.277 HD
ENDBRANCH  20  34
BRANCH  26  40
HETATM   40  C19 UNL     1     -17.829   0.768  -0.574  1.00  0.00     0.192 C 
BRANCH  40  41
HETATM   41  C20 UNL     1     -18.322   1.953   0.147  1.00  0.00     0.070 A 
HETATM   42  C21 UNL     1     -19.615   2.256   0.492  1.00  0.00     0.036 A 
HETATM   43  C22 UNL     1     -19.585   3.480   1.162  1.00  0.00     0.027 A 
HETATM   44  C23 UNL     1     -18.273   3.848   1.183  1.00  0.00     0.142 A 
HETATM   45  O3  UNL     1     -17.581   2.937   0.586  1.00  0.00    -0.325 OA
ENDBRANCH  40  41
ENDBRANCH  26  40
BRANCH   1  46
HETATM   46  C2  UNL     1     -10.006  -0.424   4.757  1.00  0.00     0.143 C 
BRANCH  46  47
HETATM   47  C1  UNL     1      -8.711  -1.106   4.366  1.00  0.00     0.183 C 
BRANCH  47  48
HETATM   48  O1  UNL     1      -8.057  -1.529   5.524  1.00  0.00    -0.399 OA
ATOM     49  H1  UNL     1      -8.665  -1.481   6.253  1.00  0.00     0.209 HD
ENDBRANCH  47  48
ENDBRANCH  46  47
ENDBRANCH   1  46
TORSDOF 6
ENDMDL
MODEL 5
REMARK VINA RESULT: -6.369072705      1.143      1.725
REMARK  6 active torsions:
REMARK  status: ('A' for Active; 'I' for Inactive)
REMARK    1  A    between atoms: O1_1  and  C1_3 
REMARK    2  A    between atoms: C1_3  and  C2_4 
REMARK    3  A    between atoms: C2_4  and  N1_5 
REMARK    4  A    between atoms: N5_24  and  C12_25 
REMARK    5  A    between atoms: N7_36  and  C19_37 
REMARK    6  A    between atoms: C19_37  and  C20_38 
ROOT
HETATM    1  N1  UNL     1      -9.999   2.185   3.677  1.00  0.00    -0.404 N 
HETATM    2  C3  UNL     1      -9.872   1.827   2.291  1.00  0.00     0.144 C 
HETATM    3  C4  UNL     1      -8.505   1.265   2.022  1.00  0.00     0.251 C 
HETATM    4  N2  UNL     1      -8.347  -0.083   2.573  1.00  0.00    -0.074 N 
ATOM      5  H21 UNL     1      -9.238  -0.486   2.864  1.00  0.00     0.277 HD
ATOM      6  H22 UNL     1      -7.885  -0.075   3.482  1.00  0.00     0.277 HD
HETATM    7  C5  UNL     1      -7.656  -0.925   1.617  1.00  0.00     0.234 C 
HETATM    8  C6  UNL     1      -7.971  -2.375   1.780  1.00  0.00     0.055 C 
HETATM    9  C7  UNL     1      -7.723  -3.081   0.459  1.00  0.00     0.234 C 
HETATM   10  N3  UNL     1      -8.763  -4.047   0.159  1.00  0.00    -0.073 N 
ATOM     11  H31 UNL     1      -9.225  -4.404   0.995  1.00  0.00     0.277 HD
ATOM     12  H32 UNL     1      -8.394  -4.934  -0.181  1.00  0.00     0.277 HD
HETATM   13  C8  UNL     1      -9.677  -3.431  -0.764  1.00  0.00     0.259 C 
HETATM   14  C9  UNL     1     -10.597  -4.423  -1.427  1.00  0.00     0.259 C 
HETATM   15  N4  UNL     1     -11.580  -3.689  -2.170  1.00  0.00    -0.072 N 
ATOM     16  H41 UNL     1     -11.334  -3.652  -3.159  1.00  0.00     0.277 HD
ATOM     17  H42 UNL     1     -11.535  -2.694  -1.948  1.00  0.00     0.277 HD
HETATM   18  C10 UNL     1     -12.932  -4.199  -1.991  1.00  0.00     0.262 C 
HETATM   19  C11 UNL     1     -13.853  -3.243  -2.691  1.00  0.00     0.300 C 
HETATM   20  N5  UNL     1     -15.259  -3.507  -2.444  1.00  0.00     0.100 N 
HETATM   21  C15 UNL     1     -15.686  -2.919  -1.188  1.00  0.00     0.299 C 
HETATM   22  C16 UNL     1     -16.524  -1.712  -1.534  1.00  0.00     0.198 C 
HETATM   23  O2  UNL     1     -17.015  -1.064  -0.427  1.00  0.00    -0.384 OA
HETATM   24  C17 UNL     1     -16.068  -0.778   0.526  1.00  0.00     0.212 C 
HETATM   25  C18 UNL     1     -16.470   0.383   1.426  1.00  0.00     0.089 C 
HETATM   26  N7  UNL     1     -16.235   1.627   0.807  1.00  0.00    -0.366 N 
HETATM   27  C24 UNL     1     -15.835   2.729   1.570  1.00  0.00     0.065 C 
HETATM   28  C25 UNL     1     -14.914   2.460   2.716  1.00  0.00     0.064 C 
HETATM   29  C26 UNL     1     -13.618   1.817   2.382  1.00  0.00     0.124 C 
HETATM   30  N8  UNL     1     -12.570   2.669   1.967  1.00  0.00    -0.400 N 
ATOM     31  H8  UNL     1     -12.267   2.688   0.994  1.00  0.00     0.158 HD
HETATM   32  C27 UNL     1     -11.955   3.494   2.931  1.00  0.00     0.074 C 
HETATM   33  C28 UNL     1     -11.210   2.823   4.033  1.00  0.00     0.161 C 
ENDROOT
BRANCH  20  34
HETATM   34  C12 UNL     1     -15.468  -4.930  -2.475  1.00  0.00     0.274 C 
HETATM   35  C13 UNL     1     -16.813  -5.395  -1.999  1.00  0.00     0.269 C 
HETATM   36  N6  UNL     1     -16.821  -6.317  -3.141  1.00  0.00    -0.071 N 
HETATM   37  C14 UNL     1     -15.949  -5.387  -3.831  1.00  0.00     0.269 C 
ATOM     38  H62 UNL     1     -16.556  -7.296  -3.026  1.00  0.00     0.277 HD
ATOM     39  H61 UNL     1     -17.698  -6.623  -3.562  1.00  0.00     0.277 HD
ENDBRANCH  20  34
BRANCH  26  40
HETATM   40  C19 UNL     1     -17.259   1.987  -0.138  1.00  0.00     0.192 C 
BRANCH  40  41
HETATM   41  C20 UNL     1     -16.764   2.422  -1.455  1.00  0.00     0.070 A 
HETATM   42  C21 UNL     1     -16.637   1.677  -2.599  1.00  0.00     0.036 A 
HETATM   43  C22 UNL     1     -16.127   2.521  -3.585  1.00  0.00     0.027 A 
HETATM   44  C23 UNL     1     -15.973   3.732  -2.980  1.00  0.00     0.142 A 
HETATM   45  O3  UNL     1     -16.353   3.628  -1.751  1.00  0.00    -0.325 OA
ENDBRANCH  40  41
ENDBRANCH  26  40
BRANCH   1  46
HETATM   46  C2  UNL     1      -8.818   2.746   4.245  1.00  0.00     0.143 C 
BRANCH  46  47
HETATM   47  C1  UNL     1      -8.415   2.109   5.560  1.00  0.00     0.183 C 
BRANCH  47  48
HETATM   48  O1  UNL     1      -8.750   0.754   5.524  1.00  0.00    -0.399 OA
ATOM     49  H1  UNL     1      -8.279   0.304   6.216  1.00  0.00     0.209 HD
ENDBRANCH  47  48
ENDBRANCH  46  47
ENDBRANCH   1  46
TORSDOF 6
ENDMDL
