MODEL 1
REMARK VINA RESULT: -10.823370929      0.000      0.000
REMARK  8 active torsions:
REMARK  status: ('A' for Active; 'I' for Inactive)
REMARK    1  A    between atoms: C4_4  and  C5_5 
REMARK    2  A    between atoms: C5_5  and  N1_6 
REMARK    3  A    between atoms: N1_6  and  C6_8 
REMARK    4  A    between atoms: C7_11  and  N3_12 
REMARK    5  A    between atoms: C13_18  and  N4_19 
REMARK    6  A    between atoms: C15_26  and  N6_27 
REMARK    7  A    between atoms: N6_27  and  C16_29 
REMARK    8  A    between atoms: C22_40  and  C23_41 
ROOT
HETATM    1  C6  UNL     1     -15.508   2.971   2.432  1.00  0.00     0.707 A 
HETATM    2  N2  UNL     1     -16.051   2.099   1.590  1.00  0.00    -0.021 N 
ATOM      3  H2  UNL     1     -16.691   2.449   0.876  1.00  0.00     0.203 HD
HETATM    4  C7  UNL     1     -15.799   0.775   1.632  1.00  0.00     0.709 A 
HETATM    5  N5  UNL     1     -14.958   0.377   2.584  1.00  0.00    -0.021 N 
ATOM      6  H5  UNL     1     -14.745  -0.618   2.643  1.00  0.00     0.203 HD
HETATM    7  C15 UNL     1     -14.361   1.207   3.483  1.00  0.00     0.707 A 
HETATM    8  N8  UNL     1     -14.659   2.500   3.378  1.00  0.00    -0.021 N 
ATOM      9  H8  UNL     1     -14.235   3.158   4.032  1.00  0.00     0.203 HD
ENDROOT
BRANCH   1  10
HETATM   10  N1  UNL     1     -15.730   4.238   2.409  1.00  0.00    -0.221 N 
ATOM     11  H1  UNL     1     -15.421   4.810   3.195  1.00  0.00     0.178 HD
BRANCH  10  12
HETATM   12  C5  UNL     1     -16.409   4.879   1.296  1.00  0.00     0.176 C 
BRANCH  12  13
HETATM   13  C4  UNL     1     -17.710   5.445   1.671  1.00  0.00    -0.039 A 
HETATM   14  C3  UNL     1     -18.916   4.838   1.420  1.00  0.00     0.016 A 
HETATM   15  C2  UNL     1     -20.153   5.386   1.786  1.00  0.00    -0.051 A 
HETATM   16  C1  UNL     1     -21.389   4.622   1.456  1.00  0.00     0.049 C 
HETATM   17  C22 UNL     1     -20.131   6.591   2.426  1.00  0.00    -0.004 A 
HETATM   18  C21 UNL     1     -18.949   7.217   2.688  1.00  0.00     0.012 A 
HETATM   19  C20 UNL     1     -17.732   6.659   2.319  1.00  0.00     0.009 A 
BRANCH  17  20
HETATM   20  C23 UNL     1     -21.382   7.279   2.842  1.00  0.00     0.135 C 
HETATM   21  C24 UNL     1     -21.066   7.824   4.261  1.00  0.00     0.069 C 
HETATM   22  N9  UNL     1     -22.491   6.420   2.927  1.00  0.00    -0.334 N 
HETATM   23  C25 UNL     1     -23.526   6.523   2.202  1.00  0.00     0.192 C 
ATOM     24  H9  UNL     1     -22.461   5.667   3.615  1.00  0.00     0.165 HD
HETATM   25  N10 UNL     1     -24.580   5.542   2.415  1.00  0.00    -0.063 NA
HETATM   26  N11 UNL     1     -23.734   7.574   1.265  1.00  0.00    -0.305 N 
HETATM   27  C26 UNL     1     -22.786   8.451   1.200  1.00  0.00     0.194 C 
ATOM     28  H11 UNL     1     -24.571   7.630   0.685  1.00  0.00     0.171 HD
HETATM   29  N12 UNL     1     -22.901   9.550   0.272  1.00  0.00    -0.063 NA
HETATM   30  N13 UNL     1     -21.671   8.430   2.054  1.00  0.00    -0.329 N 
HETATM   31  C27 UNL     1     -20.835   9.646   2.127  1.00  0.00     0.155 C 
ENDBRANCH  17  20
ENDBRANCH  12  13
ENDBRANCH  10  12
ENDBRANCH   1  10
BRANCH   4  32
HETATM   32  N3  UNL     1     -16.406  -0.126   0.711  1.00  0.00    -0.215 N 
HETATM   33  C8  UNL     1     -17.649   0.432   0.171  1.00  0.00     0.141 C 
HETATM   34  C9  UNL     1     -17.417   0.902  -1.239  1.00  0.00     0.020 C 
HETATM   35  C10 UNL     1     -16.031   0.676  -1.737  1.00  0.00     0.002 C 
HETATM   36  C11 UNL     1     -15.745  -0.686  -2.249  1.00  0.00     0.002 C 
HETATM   37  C12 UNL     1     -16.624  -1.774  -1.717  1.00  0.00     0.034 C 
HETATM   38  C13 UNL     1     -16.231  -2.313  -0.393  1.00  0.00     0.202 C 
HETATM   39  C14 UNL     1     -15.644  -1.327   0.560  1.00  0.00     0.173 C 
BRANCH  38  40
HETATM   40  N4  UNL     1     -17.368  -3.027   0.185  1.00  0.00    -0.073 N 
ATOM     41  H43 UNL     1     -18.155  -2.409   0.384  1.00  0.00     0.274 HD
ATOM     42  H42 UNL     1     -17.831  -3.634  -0.493  1.00  0.00     0.274 HD
ATOM     43  H41 UNL     1     -17.054  -3.537   1.011  1.00  0.00     0.274 HD
ENDBRANCH  38  40
ENDBRANCH   4  32
BRANCH   7  44
HETATM   44  N6  UNL     1     -13.582   0.740   4.344  1.00  0.00    -0.219 N 
ATOM     45  H6  UNL     1     -14.061   0.520   5.216  1.00  0.00     0.178 HD
BRANCH  44  46
HETATM   46  C16 UNL     1     -12.212   0.442   4.407  1.00  0.00     0.126 C 
HETATM   47  C17 UNL     1     -11.832  -0.948   3.957  1.00  0.00     0.055 C 
HETATM   48  C18 UNL     1     -10.567  -0.777   3.176  1.00  0.00     0.234 C 
HETATM   49  N7  UNL     1     -10.090   0.566   3.481  1.00  0.00    -0.073 N 
HETATM   50  C19 UNL     1     -11.307   1.357   3.652  1.00  0.00     0.257 C 
ATOM     51  H72 UNL     1      -9.451   0.610   4.274  1.00  0.00     0.277 HD
ATOM     52  H71 UNL     1      -9.442   0.943   2.791  1.00  0.00     0.277 HD
ENDBRANCH  44  46
ENDBRANCH   7  44
TORSDOF 8
ENDMDL
MODEL 2
REMARK VINA RESULT: -10.783939608      1.528      4.834
REMARK  8 active torsions:
REMARK  status: ('A' for Active; 'I' for Inactive)
REMARK    1  A    between atoms: C4_4  and  C5_5 
REMARK    2  A    between atoms: C5_5  and  N1_6 
REMARK    3  A    between atoms: N1_6  and  C6_8 
REMARK    4  A    between atoms: C7_11  and  N3_12 
REMARK    5  A    between atoms: C13_18  and  N4_19 
REMARK    6  A    between atoms: C15_26  and  N6_27 
REMARK    7  A    between atoms: N6_27  and  C16_29 
REMARK    8  A    between atoms: C22_40  and  C23_41 
ROOT
HETATM    1  C6  UNL     1     -16.739   2.323   1.269  1.00  0.00     0.707 A 
HETATM    2  N2  UNL     1     -15.730   2.205   2.126  1.00  0.00    -0.021 N 
ATOM      3  H2  UNL     1     -15.670   2.868   2.899  1.00  0.00     0.203 HD
HETATM    4  C7  UNL     1     -14.781   1.251   2.024  1.00  0.00     0.709 A 
HETATM    5  N5  UNL     1     -14.911   0.415   0.997  1.00  0.00    -0.021 N 
ATOM      6  H5  UNL     1     -14.211  -0.319   0.890  1.00  0.00     0.203 HD
HETATM    7  C15 UNL     1     -15.914   0.470   0.078  1.00  0.00     0.707 A 
HETATM    8  N8  UNL     1     -16.812   1.438   0.245  1.00  0.00    -0.021 N 
ATOM      9  H8  UNL     1     -17.581   1.517  -0.420  1.00  0.00     0.203 HD
ENDROOT
BRANCH   1  10
HETATM   10  N1  UNL     1     -17.656   3.221   1.349  1.00  0.00    -0.221 N 
ATOM     11  H1  UNL     1     -17.410   4.152   1.685  1.00  0.00     0.178 HD
BRANCH  10  12
HETATM   12  C5  UNL     1     -19.033   2.950   0.974  1.00  0.00     0.176 C 
BRANCH  12  13
HETATM   13  C4  UNL     1     -19.942   4.053   1.306  1.00  0.00    -0.039 A 
HETATM   14  C3  UNL     1     -21.311   3.943   1.329  1.00  0.00     0.016 A 
HETATM   15  C2  UNL     1     -22.170   5.003   1.651  1.00  0.00    -0.051 A 
HETATM   16  C1  UNL     1     -23.638   4.749   1.642  1.00  0.00     0.049 C 
HETATM   17  C22 UNL     1     -21.590   6.200   1.954  1.00  0.00    -0.004 A 
HETATM   18  C21 UNL     1     -20.234   6.339   1.938  1.00  0.00     0.012 A 
HETATM   19  C20 UNL     1     -19.398   5.278   1.617  1.00  0.00     0.009 A 
BRANCH  17  20
HETATM   20  C23 UNL     1     -22.401   7.401   2.289  1.00  0.00     0.135 C 
HETATM   21  C24 UNL     1     -23.423   6.892   3.340  1.00  0.00     0.069 C 
HETATM   22  N9  UNL     1     -23.106   7.922   1.192  1.00  0.00    -0.334 N 
HETATM   23  C25 UNL     1     -22.910   9.077   0.705  1.00  0.00     0.192 C 
ATOM     24  H9  UNL     1     -23.821   7.336   0.760  1.00  0.00     0.165 HD
HETATM   25  N10 UNL     1     -23.724   9.456  -0.441  1.00  0.00    -0.063 NA
HETATM   26  N11 UNL     1     -22.007  10.027   1.260  1.00  0.00    -0.305 N 
HETATM   27  C26 UNL     1     -21.388   9.640   2.328  1.00  0.00     0.194 C 
ATOM     28  H11 UNL     1     -21.858  10.946   0.845  1.00  0.00     0.171 HD
HETATM   29  N12 UNL     1     -20.444  10.530   2.959  1.00  0.00    -0.063 NA
HETATM   30  N13 UNL     1     -21.648   8.411   2.955  1.00  0.00    -0.329 N 
HETATM   31  C27 UNL     1     -21.146   8.218   4.331  1.00  0.00     0.155 C 
ENDBRANCH  17  20
ENDBRANCH  12  13
ENDBRANCH  10  12
ENDBRANCH   1  10
BRANCH   4  32
HETATM   32  N3  UNL     1     -13.714   1.162   2.962  1.00  0.00    -0.215 N 
HETATM   33  C8  UNL     1     -14.012   0.176   4.004  1.00  0.00     0.141 C 
HETATM   34  C9  UNL     1     -13.211  -1.073   3.757  1.00  0.00     0.020 C 
HETATM   35  C10 UNL     1     -12.323  -1.002   2.563  1.00  0.00     0.002 C 
HETATM   36  C11 UNL     1     -11.019  -0.326   2.770  1.00  0.00     0.002 C 
HETATM   37  C12 UNL     1     -10.972   0.654   3.900  1.00  0.00     0.034 C 
HETATM   38  C13 UNL     1     -11.493   2.006   3.587  1.00  0.00     0.202 C 
HETATM   39  C14 UNL     1     -12.643   2.052   2.637  1.00  0.00     0.173 C 
BRANCH  38  40
HETATM   40  N4  UNL     1     -11.784   2.704   4.838  1.00  0.00    -0.073 N 
ATOM     41  H43 UNL     1     -12.627   3.274   4.778  1.00  0.00     0.274 HD
ATOM     42  H42 UNL     1     -12.092   2.069   5.574  1.00  0.00     0.274 HD
ATOM     43  H41 UNL     1     -10.965   3.248   5.111  1.00  0.00     0.274 HD
ENDBRANCH  38  40
ENDBRANCH   4  32
BRANCH   7  44
HETATM   44  N6  UNL     1     -15.954  -0.363  -0.856  1.00  0.00    -0.219 N 
ATOM     45  H6  UNL     1     -15.362  -0.088  -1.639  1.00  0.00     0.178 HD
BRANCH  44  46
HETATM   46  C16 UNL     1     -16.611  -1.580  -1.093  1.00  0.00     0.126 C 
HETATM   47  C17 UNL     1     -16.284  -2.244  -2.409  1.00  0.00     0.055 C 
HETATM   48  C18 UNL     1     -16.178  -3.703  -2.097  1.00  0.00     0.234 C 
HETATM   49  N7  UNL     1     -16.762  -3.870  -0.773  1.00  0.00    -0.073 N 
HETATM   50  C19 UNL     1     -16.419  -2.641  -0.062  1.00  0.00     0.257 C 
ATOM     51  H72 UNL     1     -17.760  -4.080  -0.783  1.00  0.00     0.277 HD
ATOM     52  H71 UNL     1     -16.472  -4.722  -0.295  1.00  0.00     0.277 HD
ENDBRANCH  44  46
ENDBRANCH   7  44
TORSDOF 8
ENDMDL
MODEL 3
REMARK VINA RESULT: -10.437400417      1.809      4.978
REMARK  8 active torsions:
REMARK  status: ('A' for Active; 'I' for Inactive)
REMARK    1  A    between atoms: C4_4  and  C5_5 
REMARK    2  A    between atoms: C5_5  and  N1_6 
REMARK    3  A    between atoms: N1_6  and  C6_8 
REMARK    4  A    between atoms: C7_11  and  N3_12 
REMARK    5  A    between atoms: C13_18  and  N4_19 
REMARK    6  A    between atoms: C15_26  and  N6_27 
REMARK    7  A    between atoms: N6_27  and  C16_29 
REMARK    8  A    between atoms: C22_40  and  C23_41 
ROOT
HETATM    1  C6  UNL     1     -17.971   1.724   0.438  1.00  0.00     0.707 A 
HETATM    2  N2  UNL     1     -16.935   2.029   1.212  1.00  0.00    -0.021 N 
ATOM      3  H2  UNL     1     -16.896   2.960   1.625  1.00  0.00     0.203 HD
HETATM    4  C7  UNL     1     -15.932   1.167   1.478  1.00  0.00     0.709 A 
HETATM    5  N5  UNL     1     -16.037  -0.034   0.912  1.00  0.00    -0.021 N 
ATOM      6  H5  UNL     1     -15.296  -0.710   1.093  1.00  0.00     0.203 HD
HETATM    7  C15 UNL     1     -17.065  -0.421   0.109  1.00  0.00     0.707 A 
HETATM    8  N8  UNL     1     -18.016   0.484  -0.108  1.00  0.00    -0.021 N 
ATOM      9  H8  UNL     1     -18.806   0.236  -0.705  1.00  0.00     0.203 HD
ENDROOT
BRANCH   1  10
HETATM   10  N1  UNL     1     -18.940   2.528   0.173  1.00  0.00    -0.221 N 
ATOM     11  H1  UNL     1     -18.783   3.294  -0.481  1.00  0.00     0.178 HD
BRANCH  10  12
HETATM   12  C5  UNL     1     -20.251   2.377   0.778  1.00  0.00     0.176 C 
BRANCH  12  13
HETATM   13  C4  UNL     1     -20.841   3.657   1.188  1.00  0.00    -0.039 A 
HETATM   14  C3  UNL     1     -22.187   3.866   1.360  1.00  0.00     0.016 A 
HETATM   15  C2  UNL     1     -22.739   5.092   1.754  1.00  0.00    -0.051 A 
HETATM   16  C1  UNL     1     -24.218   5.185   1.906  1.00  0.00     0.049 C 
HETATM   17  C22 UNL     1     -21.869   6.121   1.975  1.00  0.00    -0.004 A 
HETATM   18  C21 UNL     1     -20.527   5.942   1.812  1.00  0.00     0.012 A 
HETATM   19  C20 UNL     1     -19.998   4.720   1.420  1.00  0.00     0.009 A 
BRANCH  17  20
HETATM   20  C23 UNL     1     -22.340   7.473   2.375  1.00  0.00     0.135 C 
HETATM   21  C24 UNL     1     -23.381   7.201   3.495  1.00  0.00     0.069 C 
HETATM   22  N9  UNL     1     -22.973   8.175   1.336  1.00  0.00    -0.334 N 
HETATM   23  C25 UNL     1     -22.537   9.260   0.843  1.00  0.00     0.192 C 
ATOM     24  H9  UNL     1     -23.836   7.788   0.953  1.00  0.00     0.165 HD
HETATM   25  N10 UNL     1     -23.312   9.850  -0.238  1.00  0.00    -0.063 NA
HETATM   26  N11 UNL     1     -21.395   9.950   1.337  1.00  0.00    -0.305 N 
HETATM   27  C26 UNL     1     -20.816   9.400   2.355  1.00  0.00     0.194 C 
ATOM     28  H11 UNL     1     -21.057  10.817   0.918  1.00  0.00     0.171 HD
HETATM   29  N12 UNL     1     -19.643  10.022   2.921  1.00  0.00    -0.063 NA
HETATM   30  N13 UNL     1     -21.322   8.256   2.991  1.00  0.00    -0.329 N 
HETATM   31  C27 UNL     1     -20.787   7.915   4.326  1.00  0.00     0.155 C 
ENDBRANCH  17  20
ENDBRANCH  12  13
ENDBRANCH  10  12
ENDBRANCH   1  10
BRANCH   4  32
HETATM   32  N3  UNL     1     -14.838   1.535   2.311  1.00  0.00    -0.215 N 
HETATM   33  C8  UNL     1     -15.048   1.079   3.688  1.00  0.00     0.141 C 
HETATM   34  C9  UNL     1     -14.181  -0.119   3.958  1.00  0.00     0.020 C 
HETATM   35  C10 UNL     1     -13.329  -0.529   2.806  1.00  0.00     0.002 C 
HETATM   36  C11 UNL     1     -12.064   0.227   2.640  1.00  0.00     0.002 C 
HETATM   37  C12 UNL     1     -12.046   1.598   3.239  1.00  0.00     0.034 C 
HETATM   38  C13 UNL     1     -12.656   2.661   2.405  1.00  0.00     0.202 C 
HETATM   39  C14 UNL     1     -13.831   2.245   1.584  1.00  0.00     0.173 C 
BRANCH  38  40
HETATM   40  N4  UNL     1     -12.956   3.814   3.250  1.00  0.00    -0.073 N 
ATOM     41  H43 UNL     1     -13.950   4.042   3.260  1.00  0.00     0.274 HD
ATOM     42  H42 UNL     1     -12.847   3.607   4.244  1.00  0.00     0.274 HD
ATOM     43  H41 UNL     1     -12.379   4.602   2.953  1.00  0.00     0.274 HD
ENDBRANCH  38  40
ENDBRANCH   4  32
BRANCH   7  44
HETATM   44  N6  UNL     1     -17.077  -1.574  -0.379  1.00  0.00    -0.219 N 
ATOM     45  H6  UNL     1     -17.864  -2.126  -0.037  1.00  0.00     0.178 HD
BRANCH  44  46
HETATM   46  C16 UNL     1     -16.279  -2.297  -1.279  1.00  0.00     0.126 C 
HETATM   47  C17 UNL     1     -16.336  -3.798  -1.131  1.00  0.00     0.055 C 
HETATM   48  C18 UNL     1     -16.350  -4.330  -2.529  1.00  0.00     0.234 C 
HETATM   49  N7  UNL     1     -15.962  -3.216  -3.383  1.00  0.00    -0.073 N 
HETATM   50  C19 UNL     1     -16.525  -2.038  -2.728  1.00  0.00     0.257 C 
ATOM     51  H72 UNL     1     -14.959  -3.154  -3.557  1.00  0.00     0.277 HD
ATOM     52  H71 UNL     1     -16.240  -3.322  -4.358  1.00  0.00     0.277 HD
ENDBRANCH  44  46
ENDBRANCH   7  44
TORSDOF 8
ENDMDL
MODEL 4
REMARK VINA RESULT: -10.395596271      1.206      4.387
REMARK  8 active torsions:
REMARK  status: ('A' for Active; 'I' for Inactive)
REMARK    1  A    between atoms: C4_4  and  C5_5 
REMARK    2  A    between atoms: C5_5  and  N1_6 
REMARK    3  A    between atoms: N1_6  and  C6_8 
REMARK    4  A    between atoms: C7_11  and  N3_12 
REMARK    5  A    between atoms: C13_18  and  N4_19 
REMARK    6  A    between atoms: C15_26  and  N6_27 
REMARK    7  A    between atoms: N6_27  and  C16_29 
REMARK    8  A    between atoms: C22_40  and  C23_41 
ROOT
HETATM    1  C6  UNL     1     -15.831   2.765   0.635  1.00  0.00     0.707 A 
HETATM    2  N2  UNL     1     -14.999   2.560   1.650  1.00  0.00    -0.021 N 
ATOM      3  H2  UNL     1     -14.919   3.281   2.366  1.00  0.00     0.203 HD
HETATM    4  C7  UNL     1     -14.253   1.443   1.779  1.00  0.00     0.709 A 
HETATM    5  N5  UNL     1     -14.399   0.536   0.815  1.00  0.00    -0.021 N 
ATOM      6  H5  UNL     1     -13.850  -0.320   0.883  1.00  0.00     0.203 HD
HETATM    7  C15 UNL     1     -15.229   0.673  -0.254  1.00  0.00     0.707 A 
HETATM    8  N8  UNL     1     -15.932   1.802  -0.313  1.00  0.00    -0.021 N 
ATOM      9  H8  UNL     1     -16.567   1.947  -1.098  1.00  0.00     0.203 HD
ENDROOT
BRANCH   1  10
HETATM   10  N1  UNL     1     -16.555   3.820   0.492  1.00  0.00    -0.221 N 
ATOM     11  H1  UNL     1     -17.223   3.862  -0.277  1.00  0.00     0.178 HD
BRANCH  10  12
HETATM   12  C5  UNL     1     -16.448   4.953   1.395  1.00  0.00     0.176 C 
BRANCH  12  13
HETATM   13  C4  UNL     1     -17.753   5.527   1.745  1.00  0.00    -0.039 A 
HETATM   14  C3  UNL     1     -18.957   4.925   1.477  1.00  0.00     0.016 A 
HETATM   15  C2  UNL     1     -20.197   5.480   1.820  1.00  0.00    -0.051 A 
HETATM   16  C1  UNL     1     -21.432   4.721   1.472  1.00  0.00     0.049 C 
HETATM   17  C22 UNL     1     -20.181   6.688   2.455  1.00  0.00    -0.004 A 
HETATM   18  C21 UNL     1     -18.999   7.310   2.734  1.00  0.00     0.012 A 
HETATM   19  C20 UNL     1     -17.780   6.744   2.387  1.00  0.00     0.009 A 
BRANCH  17  20
HETATM   20  C23 UNL     1     -21.434   7.385   2.847  1.00  0.00     0.135 C 
HETATM   21  C24 UNL     1     -21.131   7.957   4.258  1.00  0.00     0.069 C 
HETATM   22  N9  UNL     1     -22.544   6.528   2.939  1.00  0.00    -0.334 N 
HETATM   23  C25 UNL     1     -23.573   6.617   2.203  1.00  0.00     0.192 C 
ATOM     24  H9  UNL     1     -22.521   5.788   3.641  1.00  0.00     0.165 HD
HETATM   25  N10 UNL     1     -24.629   5.640   2.425  1.00  0.00    -0.063 NA
HETATM   26  N11 UNL     1     -23.773   7.649   1.243  1.00  0.00    -0.305 N 
HETATM   27  C26 UNL     1     -22.824   8.525   1.171  1.00  0.00     0.194 C 
ATOM     28  H11 UNL     1     -24.605   7.695   0.655  1.00  0.00     0.171 HD
HETATM   29  N12 UNL     1     -22.931   9.606   0.220  1.00  0.00    -0.063 NA
HETATM   30  N13 UNL     1     -21.716   8.520   2.034  1.00  0.00    -0.329 N 
HETATM   31  C27 UNL     1     -20.880   9.737   2.091  1.00  0.00     0.155 C 
ENDBRANCH  17  20
ENDBRANCH  12  13
ENDBRANCH  10  12
ENDBRANCH   1  10
BRANCH   4  32
HETATM   32  N3  UNL     1     -13.370   1.264   2.881  1.00  0.00    -0.215 N 
HETATM   33  C8  UNL     1     -14.006   0.475   3.941  1.00  0.00     0.141 C 
HETATM   34  C9  UNL     1     -13.448  -0.921   3.932  1.00  0.00     0.020 C 
HETATM   35  C10 UNL     1     -12.403  -1.154   2.896  1.00  0.00     0.002 C 
HETATM   36  C11 UNL     1     -11.033  -0.714   3.252  1.00  0.00     0.002 C 
HETATM   37  C12 UNL     1     -10.948   0.362   4.288  1.00  0.00     0.034 C 
HETATM   38  C13 UNL     1     -11.136   1.743   3.783  1.00  0.00     0.202 C 
HETATM   39  C14 UNL     1     -12.106   1.894   2.659  1.00  0.00     0.173 C 
BRANCH  38  40
HETATM   40  N4  UNL     1     -11.453   2.621   4.907  1.00  0.00    -0.073 N 
ATOM     41  H43 UNL     1     -11.923   3.477   4.612  1.00  0.00     0.274 HD
ATOM     42  H42 UNL     1     -12.197   2.245   5.495  1.00  0.00     0.274 HD
ATOM     43  H41 UNL     1     -10.599   2.807   5.433  1.00  0.00     0.274 HD
ENDBRANCH  38  40
ENDBRANCH   4  32
BRANCH   7  44
HETATM   44  N6  UNL     1     -15.300  -0.236  -1.112  1.00  0.00    -0.219 N 
ATOM     45  H6  UNL     1     -14.847   0.027  -1.987  1.00  0.00     0.178 HD
BRANCH  44  46
HETATM   46  C16 UNL     1     -15.847  -1.527  -1.169  1.00  0.00     0.126 C 
HETATM   47  C17 UNL     1     -14.859  -2.655  -0.990  1.00  0.00     0.055 C 
HETATM   48  C18 UNL     1     -15.561  -3.659  -0.133  1.00  0.00     0.234 C 
HETATM   49  N7  UNL     1     -16.966  -3.276  -0.140  1.00  0.00    -0.073 N 
HETATM   50  C19 UNL     1     -16.948  -1.816  -0.205  1.00  0.00     0.257 C 
ATOM     51  H72 UNL     1     -17.515  -3.718  -0.877  1.00  0.00     0.277 HD
ATOM     52  H71 UNL     1     -17.504  -3.650   0.642  1.00  0.00     0.277 HD
ENDBRANCH  44  46
ENDBRANCH   7  44
TORSDOF 8
ENDMDL
MODEL 5
REMARK VINA RESULT: -10.373327264      0.957      4.537
REMARK  8 active torsions:
REMARK  status: ('A' for Active; 'I' for Inactive)
REMARK    1  A    between atoms: C4_4  and  C5_5 
REMARK    2  A    between atoms: C5_5  and  N1_6 
REMARK    3  A    between atoms: N1_6  and  C6_8 
REMARK    4  A    between atoms: C7_11  and  N3_12 
REMARK    5  A    between atoms: C13_18  and  N4_19 
REMARK    6  A    between atoms: C15_26  and  N6_27 
REMARK    7  A    between atoms: N6_27  and  C16_29 
REMARK    8  A    between atoms: C22_40  and  C23_41 
ROOT
HETATM    1  C6  UNL     1     -15.240   3.251   2.492  1.00  0.00     0.707 A 
HETATM    2  N2  UNL     1     -14.088   2.820   2.995  1.00  0.00    -0.021 N 
ATOM      3  H2  UNL     1     -13.456   3.502   3.414  1.00  0.00     0.203 HD
HETATM    4  C7  UNL     1     -13.713   1.524   2.979  1.00  0.00     0.709 A 
HETATM    5  N5  UNL     1     -14.578   0.680   2.420  1.00  0.00    -0.021 N 
ATOM      6  H5  UNL     1     -14.326  -0.308   2.391  1.00  0.00     0.203 HD
HETATM    7  C15 UNL     1     -15.775   1.043   1.884  1.00  0.00     0.707 A 
HETATM    8  N8  UNL     1     -16.075   2.338   1.937  1.00  0.00    -0.021 N 
ATOM      9  H8  UNL     1     -16.963   2.655   1.548  1.00  0.00     0.203 HD
ENDROOT
BRANCH   1  10
HETATM   10  N1  UNL     1     -15.620   4.480   2.500  1.00  0.00    -0.221 N 
ATOM     11  H1  UNL     1     -15.428   5.052   3.323  1.00  0.00     0.178 HD
BRANCH  10  12
HETATM   12  C5  UNL     1     -16.315   5.077   1.374  1.00  0.00     0.176 C 
BRANCH  12  13
HETATM   13  C4  UNL     1     -17.638   5.602   1.733  1.00  0.00    -0.039 A 
HETATM   14  C3  UNL     1     -18.822   4.963   1.458  1.00  0.00     0.016 A 
HETATM   15  C2  UNL     1     -20.079   5.472   1.809  1.00  0.00    -0.051 A 
HETATM   16  C1  UNL     1     -21.288   4.676   1.453  1.00  0.00     0.049 C 
HETATM   17  C22 UNL     1     -20.103   6.672   2.459  1.00  0.00    -0.004 A 
HETATM   18  C21 UNL     1     -18.943   7.329   2.745  1.00  0.00     0.012 A 
HETATM   19  C20 UNL     1     -17.705   6.809   2.390  1.00  0.00     0.009 A 
BRANCH  17  20
HETATM   20  C23 UNL     1     -21.379   7.320   2.861  1.00  0.00     0.135 C 
HETATM   21  C24 UNL     1     -21.090   7.893   4.275  1.00  0.00     0.069 C 
HETATM   22  N9  UNL     1     -22.457   6.423   2.952  1.00  0.00    -0.334 N 
HETATM   23  C25 UNL     1     -23.492   6.481   2.220  1.00  0.00     0.192 C 
ATOM     24  H9  UNL     1     -22.404   5.680   3.649  1.00  0.00     0.165 HD
HETATM   25  N10 UNL     1     -24.511   5.465   2.441  1.00  0.00    -0.063 NA
HETATM   26  N11 UNL     1     -23.732   7.512   1.269  1.00  0.00    -0.305 N 
HETATM   27  C26 UNL     1     -22.815   8.421   1.199  1.00  0.00     0.194 C 
ATOM     28  H11 UNL     1     -24.568   7.532   0.685  1.00  0.00     0.171 HD
HETATM   29  N12 UNL     1     -22.965   9.505   0.257  1.00  0.00    -0.063 NA
HETATM   30  N13 UNL     1     -21.705   8.450   2.057  1.00  0.00    -0.329 N 
HETATM   31  C27 UNL     1     -20.913   9.696   2.120  1.00  0.00     0.155 C 
ENDBRANCH  17  20
ENDBRANCH  12  13
ENDBRANCH  10  12
ENDBRANCH   1  10
BRANCH   4  32
HETATM   32  N3  UNL     1     -12.468   1.104   3.526  1.00  0.00    -0.215 N 
HETATM   33  C8  UNL     1     -12.659   0.031   4.505  1.00  0.00     0.141 C 
HETATM   34  C9  UNL     1     -12.246  -1.282   3.899  1.00  0.00     0.020 C 
HETATM   35  C10 UNL     1     -11.740  -1.176   2.502  1.00  0.00     0.002 C 
HETATM   36  C11 UNL     1     -10.319  -0.776   2.360  1.00  0.00     0.002 C 
HETATM   37  C12 UNL     1      -9.745  -0.011   3.510  1.00  0.00     0.034 C 
HETATM   38  C13 UNL     1     -10.035   1.443   3.511  1.00  0.00     0.202 C 
HETATM   39  C14 UNL     1     -11.370   1.837   2.974  1.00  0.00     0.173 C 
BRANCH  38  40
HETATM   40  N4  UNL     1      -9.802   1.973   4.852  1.00  0.00    -0.073 N 
ATOM     41  H43 UNL     1      -8.825   1.896   5.137  1.00  0.00     0.274 HD
ATOM     42  H42 UNL     1      -9.881   2.989   4.888  1.00  0.00     0.274 HD
ATOM     43  H41 UNL     1     -10.435   1.511   5.505  1.00  0.00     0.274 HD
ENDBRANCH  38  40
ENDBRANCH   4  32
BRANCH   7  44
HETATM   44  N6  UNL     1     -16.524   0.175   1.380  1.00  0.00    -0.219 N 
ATOM     45  H6  UNL     1     -17.055  -0.331   2.088  1.00  0.00     0.178 HD
BRANCH  44  46
HETATM   46  C16 UNL     1     -16.815  -0.274   0.083  1.00  0.00     0.126 C 
HETATM   47  C17 UNL     1     -17.617   0.683  -0.766  1.00  0.00     0.055 C 
HETATM   48  C18 UNL     1     -17.011   0.600  -2.131  1.00  0.00     0.234 C 
HETATM   49  N7  UNL     1     -16.168  -0.588  -2.121  1.00  0.00    -0.073 N 
HETATM   50  C19 UNL     1     -15.643  -0.652  -0.759  1.00  0.00     0.257 C 
ATOM     51  H72 UNL     1     -16.643  -1.438  -2.424  1.00  0.00     0.277 HD
ATOM     52  H71 UNL     1     -15.450  -0.594  -2.844  1.00  0.00     0.277 HD
ENDBRANCH  44  46
ENDBRANCH   7  44
TORSDOF 8
ENDMDL
