MODEL 1
REMARK VINA RESULT: -9.413306908      0.000      0.000
REMARK  10 active torsions:
REMARK  status: ('A' for Active; 'I' for Inactive)
REMARK    1  A    between atoms: C2_2  and  N1_3 
REMARK    2  A    between atoms: C2_2  and  C4_8 
REMARK       I    between atoms: N1_3  and  C3_5 
REMARK       I    between atoms: C4_8  and  N3_10 
REMARK    3  A    between atoms: N3_10  and  C5_12 
REMARK    4  A    between atoms: C8_15  and  C9_16 
REMARK    5  A    between atoms: C10_17  and  C11_18 
REMARK    6  A    between atoms: C12_21  and  N5_22 
REMARK    7  A    between atoms: N6_25  and  C15_26 
REMARK    8  A    between atoms: C17_28  and  N7_29 
REMARK    9  A    between atoms: N7_29  and  C18_31 
REMARK   10  A    between atoms: C25_44  and  N11_45 
ROOT
HETATM    1  C11 UNL     1     -17.146  -0.254   0.538  1.00  0.00     0.191 A 
HETATM    2  N4  UNL     1     -15.894  -0.237   1.030  1.00  0.00    -0.167 N 
ATOM      3  H4  UNL     1     -15.593   0.600   1.528  1.00  0.00     0.186 HD
HETATM    4  C12 UNL     1     -15.016  -1.234   0.913  1.00  0.00     0.697 A 
HETATM    5  N10 UNL     1     -15.417  -2.331   0.258  1.00  0.00    -0.022 N 
ATOM      6  H10 UNL     1     -14.787  -3.124   0.140  1.00  0.00     0.203 HD
HETATM    7  C25 UNL     1     -16.673  -2.372  -0.247  1.00  0.00     0.692 A 
HETATM    8  N12 UNL     1     -17.539  -1.342  -0.111  1.00  0.00    -0.168 N 
ATOM      9  H12 UNL     1     -18.479  -1.400  -0.501  1.00  0.00     0.186 HD
ENDROOT
BRANCH   1  10
HETATM   10  C10 UNL     1     -18.049   0.850   0.697  1.00  0.00    -0.024 C 
HETATM   11  C9  UNL     1     -18.801   1.775   0.856  1.00  0.00    -0.057 C 
BRANCH  11  12
HETATM   12  C8  UNL     1     -19.690   2.875   1.074  1.00  0.00     0.033 A 
HETATM   13  C7  UNL     1     -21.059   2.813   0.962  1.00  0.00     0.026 A 
HETATM   14  C6  UNL     1     -21.870   3.946   1.193  1.00  0.00     0.050 A 
HETATM   15  C5  UNL     1     -21.311   5.143   1.539  1.00  0.00     0.107 A 
HETATM   16  N13 UNL     1     -19.953   5.171   1.642  1.00  0.00    -0.351 N 
HETATM   17  C26 UNL     1     -19.170   4.104   1.425  1.00  0.00     0.110 A 
ATOM     18  H13 UNL     1     -19.507   6.051   1.899  1.00  0.00     0.166 HD
BRANCH  15  19
HETATM   19  N3  UNL     1     -22.024   6.317   1.789  1.00  0.00    -0.311 N 
HETATM   20  C4  UNL     1     -21.537   7.557   2.246  1.00  0.00     0.245 C 
HETATM   21  O2  UNL     1     -20.333   7.785   2.501  1.00  0.00    -0.271 OA
ATOM     22  H3  UNL     1     -23.029   6.271   1.618  1.00  0.00     0.170 HD
BRANCH  20  23
HETATM   23  C2  UNL     1     -22.545   8.669   2.432  1.00  0.00     0.174 C 
HETATM   24  C1  UNL     1     -22.583   9.025   3.889  1.00  0.00     0.042 C 
BRANCH  23  25
HETATM   25  N1  UNL     1     -22.152   9.771   1.593  1.00  0.00    -0.333 N 
HETATM   26  C3  UNL     1     -22.846  10.013   0.393  1.00  0.00     0.329 C 
HETATM   27  N2  UNL     1     -22.450  11.114  -0.443  1.00  0.00    -0.040 NA
HETATM   28  O1  UNL     1     -23.815   9.275   0.037  1.00  0.00    -0.251 OA
ATOM     29  H1  UNL     1     -21.375  10.373   1.867  1.00  0.00     0.164 HD
ENDBRANCH  23  25
ENDBRANCH  20  23
ENDBRANCH  15  19
ENDBRANCH  11  12
ENDBRANCH   1  10
BRANCH   4  30
HETATM   30  N5  UNL     1     -13.727  -1.072   1.483  1.00  0.00    -0.214 N 
HETATM   31  C13 UNL     1     -13.259  -1.909   2.541  1.00  0.00     0.161 C 
HETATM   32  C14 UNL     1     -12.283  -1.281   3.482  1.00  0.00     0.145 C 
HETATM   33  N6  UNL     1     -11.310  -0.416   2.836  1.00  0.00    -0.364 N 
HETATM   34  C23 UNL     1     -11.414  -0.234   1.415  1.00  0.00     0.145 C 
HETATM   35  C24 UNL     1     -12.852  -0.032   0.979  1.00  0.00     0.161 C 
BRANCH  33  36
HETATM   36  C15 UNL     1     -10.329   0.194   3.662  1.00  0.00     0.107 A 
HETATM   37  C16 UNL     1      -9.444  -0.496   4.460  1.00  0.00     0.096 A 
HETATM   38  C17 UNL     1      -8.488   0.135   5.251  1.00  0.00     0.105 A 
HETATM   39  N8  UNL     1      -8.436   1.468   5.232  1.00  0.00    -0.339 N 
HETATM   40  C22 UNL     1      -9.285   2.161   4.465  1.00  0.00     0.183 A 
ATOM     41  H8  UNL     1      -7.748   1.959   5.802  1.00  0.00     0.168 HD
HETATM   42  N9  UNL     1     -10.197   1.542   3.710  1.00  0.00    -0.339 N 
ATOM     43  H9  UNL     1     -10.824   2.112   3.143  1.00  0.00     0.168 HD
BRANCH  38  44
HETATM   44  N7  UNL     1      -7.739  -0.613   5.933  1.00  0.00    -0.368 N 
ATOM     45  H7  UNL     1      -8.176  -1.009   6.766  1.00  0.00     0.161 HD
BRANCH  44  46
HETATM   46  C18 UNL     1      -6.384  -0.998   5.733  1.00  0.00     0.021 C 
HETATM   47  C19 UNL     1      -5.888  -0.783   4.338  1.00  0.00     0.037 C 
HETATM   48  C20 UNL     1      -5.508  -0.209   6.682  1.00  0.00     0.037 C 
HETATM   49  C21 UNL     1      -6.175  -2.479   6.075  1.00  0.00     0.037 C 
ENDBRANCH  44  46
ENDBRANCH  38  44
ENDBRANCH  33  36
ENDBRANCH   4  30
BRANCH   7  50
HETATM   50  N11 UNL     1     -17.044  -3.444  -0.879  1.00  0.00    -0.234 N 
ATOM     51 2H11 UNL     1     -16.558  -3.720  -1.732  1.00  0.00     0.174 HD
ATOM     52 1H11 UNL     1     -17.821  -3.983  -0.498  1.00  0.00     0.174 HD
ENDBRANCH   7  50
TORSDOF 10
ENDMDL
MODEL 2
REMARK VINA RESULT: -9.267629370      1.111      2.299
REMARK  10 active torsions:
REMARK  status: ('A' for Active; 'I' for Inactive)
REMARK    1  A    between atoms: C2_2  and  N1_3 
REMARK    2  A    between atoms: C2_2  and  C4_8 
REMARK       I    between atoms: N1_3  and  C3_5 
REMARK       I    between atoms: C4_8  and  N3_10 
REMARK    3  A    between atoms: N3_10  and  C5_12 
REMARK    4  A    between atoms: C8_15  and  C9_16 
REMARK    5  A    between atoms: C10_17  and  C11_18 
REMARK    6  A    between atoms: C12_21  and  N5_22 
REMARK    7  A    between atoms: N6_25  and  C15_26 
REMARK    8  A    between atoms: C17_28  and  N7_29 
REMARK    9  A    between atoms: N7_29  and  C18_31 
REMARK   10  A    between atoms: C25_44  and  N11_45 
ROOT
HETATM    1  C11 UNL     1     -17.073  -0.229   0.558  1.00  0.00     0.191 A 
HETATM    2  N4  UNL     1     -15.828  -0.205   1.069  1.00  0.00    -0.167 N 
ATOM      3  H4  UNL     1     -15.541   0.632   1.575  1.00  0.00     0.186 HD
HETATM    4  C12 UNL     1     -14.942  -1.196   0.962  1.00  0.00     0.697 A 
HETATM    5  N10 UNL     1     -15.326  -2.293   0.296  1.00  0.00    -0.022 N 
ATOM      6  H10 UNL     1     -14.688  -3.081   0.185  1.00  0.00     0.203 HD
HETATM    7  C25 UNL     1     -16.573  -2.341  -0.227  1.00  0.00     0.692 A 
HETATM    8  N12 UNL     1     -17.448  -1.317  -0.101  1.00  0.00    -0.168 N 
ATOM      9  H12 UNL     1     -18.382  -1.380  -0.506  1.00  0.00     0.186 HD
ENDROOT
BRANCH   1  10
HETATM   10  C10 UNL     1     -17.985   0.869   0.707  1.00  0.00    -0.024 C 
HETATM   11  C9  UNL     1     -18.744   1.789   0.857  1.00  0.00    -0.057 C 
BRANCH  11  12
HETATM   12  C8  UNL     1     -19.641   2.885   1.065  1.00  0.00     0.033 A 
HETATM   13  C7  UNL     1     -21.009   2.814   0.946  1.00  0.00     0.026 A 
HETATM   14  C6  UNL     1     -21.828   3.943   1.168  1.00  0.00     0.050 A 
HETATM   15  C5  UNL     1     -21.278   5.145   1.510  1.00  0.00     0.107 A 
HETATM   16  N13 UNL     1     -19.921   5.182   1.619  1.00  0.00    -0.351 N 
HETATM   17  C26 UNL     1     -19.130   4.118   1.411  1.00  0.00     0.110 A 
ATOM     18  H13 UNL     1     -19.482   6.066   1.874  1.00  0.00     0.166 HD
BRANCH  15  19
HETATM   19  N3  UNL     1     -21.999   6.317   1.750  1.00  0.00    -0.311 N 
HETATM   20  C4  UNL     1     -21.530   7.547   2.249  1.00  0.00     0.245 C 
HETATM   21  O2  UNL     1     -20.338   7.768   2.560  1.00  0.00    -0.271 OA
ATOM     22  H3  UNL     1     -22.996   6.276   1.536  1.00  0.00     0.170 HD
BRANCH  20  23
HETATM   23  C2  UNL     1     -22.544   8.658   2.412  1.00  0.00     0.174 C 
HETATM   24  C1  UNL     1     -22.619   9.011   3.868  1.00  0.00     0.042 C 
BRANCH  23  25
HETATM   25  N1  UNL     1     -22.130   9.762   1.585  1.00  0.00    -0.333 N 
HETATM   26  C3  UNL     1     -22.799  10.010   0.372  1.00  0.00     0.329 C 
HETATM   27  N2  UNL     1     -22.383  11.113  -0.451  1.00  0.00    -0.040 NA
HETATM   28  O1  UNL     1     -23.763   9.277  -0.007  1.00  0.00    -0.251 OA
ATOM     29  H1  UNL     1     -21.357  10.361   1.877  1.00  0.00     0.164 HD
ENDBRANCH  23  25
ENDBRANCH  20  23
ENDBRANCH  15  19
ENDBRANCH  11  12
ENDBRANCH   1  10
BRANCH   4  30
HETATM   30  N5  UNL     1     -13.663  -1.027   1.552  1.00  0.00    -0.214 N 
HETATM   31  C13 UNL     1     -13.226  -1.832   2.647  1.00  0.00     0.161 C 
HETATM   32  C14 UNL     1     -12.261  -1.182   3.586  1.00  0.00     0.145 C 
HETATM   33  N6  UNL     1     -11.266  -0.350   2.931  1.00  0.00    -0.364 N 
HETATM   34  C23 UNL     1     -11.340  -0.216   1.502  1.00  0.00     0.145 C 
HETATM   35  C24 UNL     1     -12.767  -0.014   1.030  1.00  0.00     0.161 C 
BRANCH  33  36
HETATM   36  C15 UNL     1     -10.296   0.279   3.755  1.00  0.00     0.107 A 
HETATM   37  C16 UNL     1     -10.238   1.633   3.996  1.00  0.00     0.096 A 
HETATM   38  C17 UNL     1      -9.277   2.216   4.817  1.00  0.00     0.105 A 
HETATM   39  N8  UNL     1      -8.372   1.419   5.390  1.00  0.00    -0.339 N 
HETATM   40  C22 UNL     1      -8.406   0.100   5.170  1.00  0.00     0.183 A 
ATOM     41  H8  UNL     1      -7.654   1.816   5.995  1.00  0.00     0.168 HD
HETATM   42  N9  UNL     1      -9.335  -0.445   4.381  1.00  0.00    -0.339 N 
ATOM     43  H9  UNL     1      -9.322  -1.456   4.242  1.00  0.00     0.168 HD
BRANCH  38  44
HETATM   44  N7  UNL     1      -9.337   3.466   4.955  1.00  0.00    -0.368 N 
ATOM     45  H7  UNL     1     -10.164   3.801   5.450  1.00  0.00     0.161 HD
BRANCH  44  46
HETATM   46  C18 UNL     1      -8.442   4.489   4.534  1.00  0.00     0.021 C 
HETATM   47  C19 UNL     1      -7.617   4.124   3.340  1.00  0.00     0.037 C 
HETATM   48  C20 UNL     1      -9.240   5.731   4.207  1.00  0.00     0.037 C 
HETATM   49  C21 UNL     1      -7.476   4.875   5.663  1.00  0.00     0.037 C 
ENDBRANCH  44  46
ENDBRANCH  38  44
ENDBRANCH  33  36
ENDBRANCH   4  30
BRANCH   7  50
HETATM   50  N11 UNL     1     -16.927  -3.413  -0.870  1.00  0.00    -0.234 N 
ATOM     51 2H11 UNL     1     -17.243  -3.340  -1.837  1.00  0.00     0.174 HD
ATOM     52 1H11 UNL     1     -16.878  -4.305  -0.380  1.00  0.00     0.174 HD
ENDBRANCH   7  50
TORSDOF 10
ENDMDL
MODEL 3
REMARK VINA RESULT: -9.155085286      1.203      1.740
REMARK  10 active torsions:
REMARK  status: ('A' for Active; 'I' for Inactive)
REMARK    1  A    between atoms: C2_2  and  N1_3 
REMARK    2  A    between atoms: C2_2  and  C4_8 
REMARK       I    between atoms: N1_3  and  C3_5 
REMARK       I    between atoms: C4_8  and  N3_10 
REMARK    3  A    between atoms: N3_10  and  C5_12 
REMARK    4  A    between atoms: C8_15  and  C9_16 
REMARK    5  A    between atoms: C10_17  and  C11_18 
REMARK    6  A    between atoms: C12_21  and  N5_22 
REMARK    7  A    between atoms: N6_25  and  C15_26 
REMARK    8  A    between atoms: C17_28  and  N7_29 
REMARK    9  A    between atoms: N7_29  and  C18_31 
REMARK   10  A    between atoms: C25_44  and  N11_45 
ROOT
HETATM    1  C11 UNL     1     -17.099  -0.108   0.415  1.00  0.00     0.191 A 
HETATM    2  N4  UNL     1     -15.793   0.010   0.715  1.00  0.00    -0.167 N 
ATOM      3  H4  UNL     1     -15.474   0.902   1.095  1.00  0.00     0.186 HD
HETATM    4  C12 UNL     1     -14.883  -0.951   0.554  1.00  0.00     0.697 A 
HETATM    5  N10 UNL     1     -15.308  -2.120   0.055  1.00  0.00    -0.022 N 
ATOM      6  H10 UNL     1     -14.655  -2.890  -0.089  1.00  0.00     0.203 HD
HETATM    7  C25 UNL     1     -16.618  -2.263  -0.256  1.00  0.00     0.692 A 
HETATM    8  N12 UNL     1     -17.515  -1.266  -0.079  1.00  0.00    -0.168 N 
ATOM      9  H12 UNL     1     -18.496  -1.402  -0.323  1.00  0.00     0.186 HD
ENDROOT
BRANCH   1  10
HETATM   10  C10 UNL     1     -18.033   0.963   0.613  1.00  0.00    -0.024 C 
HETATM   11  C9  UNL     1     -18.801   1.870   0.799  1.00  0.00    -0.057 C 
BRANCH  11  12
HETATM   12  C8  UNL     1     -19.696   2.959   1.041  1.00  0.00     0.033 A 
HETATM   13  C7  UNL     1     -21.066   2.887   0.943  1.00  0.00     0.026 A 
HETATM   14  C6  UNL     1     -21.884   4.010   1.199  1.00  0.00     0.050 A 
HETATM   15  C5  UNL     1     -21.332   5.207   1.553  1.00  0.00     0.107 A 
HETATM   16  N13 UNL     1     -19.972   5.246   1.641  1.00  0.00    -0.351 N 
HETATM   17  C26 UNL     1     -19.183   4.188   1.401  1.00  0.00     0.110 A 
ATOM     18  H13 UNL     1     -19.531   6.127   1.904  1.00  0.00     0.166 HD
BRANCH  15  19
HETATM   19  N3  UNL     1     -22.051   6.372   1.826  1.00  0.00    -0.311 N 
HETATM   20  C4  UNL     1     -21.570   7.609   2.298  1.00  0.00     0.245 C 
HETATM   21  O2  UNL     1     -20.367   7.842   2.548  1.00  0.00    -0.271 OA
ATOM     22  H3  UNL     1     -23.057   6.321   1.662  1.00  0.00     0.170 HD
BRANCH  20  23
HETATM   23  C2  UNL     1     -22.586   8.710   2.508  1.00  0.00     0.174 C 
HETATM   24  C1  UNL     1     -22.600   9.059   3.967  1.00  0.00     0.042 C 
BRANCH  23  25
HETATM   25  N1  UNL     1     -22.218   9.820   1.668  1.00  0.00    -0.333 N 
HETATM   26  C3  UNL     1     -22.858   9.991   0.426  1.00  0.00     0.329 C 
HETATM   27  N2  UNL     1     -22.488  11.101  -0.411  1.00  0.00    -0.040 NA
HETATM   28  O1  UNL     1     -23.754   9.184   0.033  1.00  0.00    -0.251 OA
ATOM     29  H1  UNL     1     -21.500  10.478   1.970  1.00  0.00     0.164 HD
ENDBRANCH  23  25
ENDBRANCH  20  23
ENDBRANCH  15  19
ENDBRANCH  11  12
ENDBRANCH   1  10
BRANCH   4  30
HETATM   30  N5  UNL     1     -13.538  -0.680   0.915  1.00  0.00    -0.214 N 
HETATM   31  C13 UNL     1     -12.444  -1.384   0.328  1.00  0.00     0.161 C 
HETATM   32  C14 UNL     1     -11.234  -1.538   1.192  1.00  0.00     0.145 C 
HETATM   33  N6  UNL     1     -10.921  -0.364   1.988  1.00  0.00    -0.364 N 
HETATM   34  C23 UNL     1     -11.803   0.767   1.891  1.00  0.00     0.145 C 
HETATM   35  C24 UNL     1     -13.260   0.344   1.902  1.00  0.00     0.161 C 
BRANCH  33  36
HETATM   36  C15 UNL     1      -9.767  -0.422   2.813  1.00  0.00     0.107 A 
HETATM   37  C16 UNL     1      -9.537   0.404   3.891  1.00  0.00     0.096 A 
HETATM   38  C17 UNL     1      -8.397   0.314   4.684  1.00  0.00     0.105 A 
HETATM   39  N8  UNL     1      -7.490  -0.616   4.378  1.00  0.00    -0.339 N 
HETATM   40  C22 UNL     1      -7.689  -1.430   3.336  1.00  0.00     0.183 A 
ATOM     41  H8  UNL     1      -6.643  -0.706   4.940  1.00  0.00     0.168 HD
HETATM   42  N9  UNL     1      -8.789  -1.332   2.584  1.00  0.00    -0.339 N 
ATOM     43  H9  UNL     1      -8.898  -1.973   1.798  1.00  0.00     0.168 HD
BRANCH  38  44
HETATM   44  N7  UNL     1      -8.311   1.128   5.641  1.00  0.00    -0.368 N 
ATOM     45  H7  UNL     1      -8.929   0.928   6.428  1.00  0.00     0.161 HD
BRANCH  44  46
HETATM   46  C18 UNL     1      -7.495   2.282   5.804  1.00  0.00     0.021 C 
HETATM   47  C19 UNL     1      -7.172   2.987   4.525  1.00  0.00     0.037 C 
HETATM   48  C20 UNL     1      -8.201   3.253   6.724  1.00  0.00     0.037 C 
HETATM   49  C21 UNL     1      -6.166   1.925   6.483  1.00  0.00     0.037 C 
ENDBRANCH  44  46
ENDBRANCH  38  44
ENDBRANCH  33  36
ENDBRANCH   4  30
BRANCH   7  50
HETATM   50  N11 UNL     1     -17.012  -3.403  -0.738  1.00  0.00    -0.234 N 
ATOM     51 2H11 UNL     1     -17.995  -3.539  -0.975  1.00  0.00     0.174 HD
ATOM     52 1H11 UNL     1     -16.316  -4.137  -0.867  1.00  0.00     0.174 HD
ENDBRANCH   7  50
TORSDOF 10
ENDMDL
MODEL 4
REMARK VINA RESULT: -9.118208491      3.776     12.990
REMARK  10 active torsions:
REMARK  status: ('A' for Active; 'I' for Inactive)
REMARK    1  A    between atoms: C2_2  and  N1_3 
REMARK    2  A    between atoms: C2_2  and  C4_8 
REMARK       I    between atoms: N1_3  and  C3_5 
REMARK       I    between atoms: C4_8  and  N3_10 
REMARK    3  A    between atoms: N3_10  and  C5_12 
REMARK    4  A    between atoms: C8_15  and  C9_16 
REMARK    5  A    between atoms: C10_17  and  C11_18 
REMARK    6  A    between atoms: C12_21  and  N5_22 
REMARK    7  A    between atoms: N6_25  and  C15_26 
REMARK    8  A    between atoms: C17_28  and  N7_29 
REMARK    9  A    between atoms: N7_29  and  C18_31 
REMARK   10  A    between atoms: C25_44  and  N11_45 
ROOT
HETATM    1  C11 UNL     1     -15.362  -0.608   1.474  1.00  0.00     0.191 A 
HETATM    2  N4  UNL     1     -16.300   0.346   1.327  1.00  0.00    -0.167 N 
ATOM      3  H4  UNL     1     -16.112   1.259   1.740  1.00  0.00     0.186 HD
HETATM    4  C12 UNL     1     -17.456   0.186   0.682  1.00  0.00     0.697 A 
HETATM    5  N10 UNL     1     -17.695  -1.016   0.142  1.00  0.00    -0.022 N 
ATOM      6  H10 UNL     1     -18.563  -1.194  -0.363  1.00  0.00     0.203 HD
HETATM    7  C25 UNL     1     -16.767  -1.993   0.276  1.00  0.00     0.692 A 
HETATM    8  N12 UNL     1     -15.604  -1.797   0.938  1.00  0.00    -0.168 N 
ATOM      9  H12 UNL     1     -14.923  -2.551   1.024  1.00  0.00     0.186 HD
ENDROOT
BRANCH   1  10
HETATM   10  C10 UNL     1     -14.134  -0.376   2.178  1.00  0.00    -0.024 C 
HETATM   11  C9  UNL     1     -13.103  -0.206   2.775  1.00  0.00    -0.057 C 
BRANCH  11  12
HETATM   12  C8  UNL     1     -11.879  -0.032   3.494  1.00  0.00     0.033 A 
HETATM   13  C7  UNL     1     -11.186  -1.040   4.122  1.00  0.00     0.026 A 
HETATM   14  C6  UNL     1      -9.981  -0.787   4.814  1.00  0.00     0.050 A 
HETATM   15  C5  UNL     1      -9.466   0.476   4.875  1.00  0.00     0.107 A 
HETATM   16  N13 UNL     1     -10.175   1.452   4.242  1.00  0.00    -0.351 N 
HETATM   17  C26 UNL     1     -11.321   1.227   3.583  1.00  0.00     0.110 A 
ATOM     18  H13 UNL     1      -9.815   2.405   4.271  1.00  0.00     0.166 HD
BRANCH  15  19
HETATM   19  N3  UNL     1      -8.284   0.828   5.531  1.00  0.00    -0.311 N 
HETATM   20  C4  UNL     1      -7.826   2.113   5.881  1.00  0.00     0.245 C 
HETATM   21  O2  UNL     1      -8.453   3.169   5.640  1.00  0.00    -0.271 OA
ATOM     22  H3  UNL     1      -7.672   0.054   5.790  1.00  0.00     0.170 HD
BRANCH  20  23
HETATM   23  C2  UNL     1      -6.494   2.201   6.592  1.00  0.00     0.174 C 
HETATM   24  C1  UNL     1      -5.743   0.929   6.334  1.00  0.00     0.042 C 
BRANCH  23  25
HETATM   25  N1  UNL     1      -5.807   3.370   6.105  1.00  0.00    -0.333 N 
HETATM   26  C3  UNL     1      -5.546   4.437   6.984  1.00  0.00     0.329 C 
HETATM   27  N2  UNL     1      -4.860   5.603   6.495  1.00  0.00    -0.040 NA
HETATM   28  O1  UNL     1      -5.906   4.389   8.200  1.00  0.00    -0.251 OA
ATOM     29  H1  UNL     1      -5.511   3.423   5.131  1.00  0.00     0.164 HD
ENDBRANCH  23  25
ENDBRANCH  20  23
ENDBRANCH  15  19
ENDBRANCH  11  12
ENDBRANCH   1  10
BRANCH   4  30
HETATM   30  N5  UNL     1     -18.350   1.285   0.611  1.00  0.00    -0.214 N 
HETATM   31  C13 UNL     1     -17.883   2.630   0.498  1.00  0.00     0.161 C 
HETATM   32  C14 UNL     1     -18.768   3.675   1.097  1.00  0.00     0.145 C 
HETATM   33  N6  UNL     1     -20.186   3.442   0.889  1.00  0.00    -0.364 N 
HETATM   34  C23 UNL     1     -20.574   2.250   0.186  1.00  0.00     0.145 C 
HETATM   35  C24 UNL     1     -19.778   1.043   0.648  1.00  0.00     0.161 C 
BRANCH  33  36
HETATM   36  C15 UNL     1     -21.090   4.409   1.403  1.00  0.00     0.107 A 
HETATM   37  C16 UNL     1     -20.721   5.654   1.862  1.00  0.00     0.096 A 
HETATM   38  C17 UNL     1     -21.635   6.581   2.353  1.00  0.00     0.105 A 
HETATM   39  N8  UNL     1     -22.925   6.239   2.379  1.00  0.00    -0.339 N 
HETATM   40  C22 UNL     1     -23.309   5.036   1.941  1.00  0.00     0.183 A 
ATOM     41  H8  UNL     1     -23.619   6.897   2.735  1.00  0.00     0.168 HD
HETATM   42  N9  UNL     1     -22.420   4.156   1.472  1.00  0.00    -0.339 N 
ATOM     43  H9  UNL     1     -22.759   3.249   1.149  1.00  0.00     0.168 HD
BRANCH  38  44
HETATM   44  N7  UNL     1     -21.166   7.684   2.739  1.00  0.00    -0.368 N 
ATOM     45  H7  UNL     1     -20.243   7.627   3.170  1.00  0.00     0.161 HD
BRANCH  44  46
HETATM   46  C18 UNL     1     -21.711   8.997   2.673  1.00  0.00     0.021 C 
HETATM   47  C19 UNL     1     -22.560   9.245   1.466  1.00  0.00     0.037 C 
HETATM   48  C20 UNL     1     -22.549   9.240   3.909  1.00  0.00     0.037 C 
HETATM   49  C21 UNL     1     -20.600  10.056   2.683  1.00  0.00     0.037 C 
ENDBRANCH  44  46
ENDBRANCH  38  44
ENDBRANCH  33  36
ENDBRANCH   4  30
BRANCH   7  50
HETATM   50  N11 UNL     1     -17.017  -3.152  -0.254  1.00  0.00    -0.234 N 
ATOM     51 2H11 UNL     1     -17.447  -3.203  -1.177  1.00  0.00     0.174 HD
ATOM     52 1H11 UNL     1     -16.771  -3.987   0.277  1.00  0.00     0.174 HD
ENDBRANCH   7  50
TORSDOF 10
ENDMDL
MODEL 5
REMARK VINA RESULT: -8.799264210      1.286      2.177
REMARK  10 active torsions:
REMARK  status: ('A' for Active; 'I' for Inactive)
REMARK    1  A    between atoms: C2_2  and  N1_3 
REMARK    2  A    between atoms: C2_2  and  C4_8 
REMARK       I    between atoms: N1_3  and  C3_5 
REMARK       I    between atoms: C4_8  and  N3_10 
REMARK    3  A    between atoms: N3_10  and  C5_12 
REMARK    4  A    between atoms: C8_15  and  C9_16 
REMARK    5  A    between atoms: C10_17  and  C11_18 
REMARK    6  A    between atoms: C12_21  and  N5_22 
REMARK    7  A    between atoms: N6_25  and  C15_26 
REMARK    8  A    between atoms: C17_28  and  N7_29 
REMARK    9  A    between atoms: N7_29  and  C18_31 
REMARK   10  A    between atoms: C25_44  and  N11_45 
ROOT
HETATM    1  C11 UNL     1     -16.868  -0.039   0.433  1.00  0.00     0.191 A 
HETATM    2  N4  UNL     1     -15.695  -0.090   1.091  1.00  0.00    -0.167 N 
ATOM      3  H4  UNL     1     -15.484   0.668   1.739  1.00  0.00     0.186 HD
HETATM    4  C12 UNL     1     -14.788  -1.058   0.956  1.00  0.00     0.697 A 
HETATM    5  N10 UNL     1     -15.072  -2.051   0.103  1.00  0.00    -0.022 N 
ATOM      6  H10 UNL     1     -14.414  -2.817  -0.038  1.00  0.00     0.203 HD
HETATM    7  C25 UNL     1     -16.246  -2.021  -0.571  1.00  0.00     0.692 A 
HETATM    8  N12 UNL     1     -17.144  -1.023  -0.411  1.00  0.00    -0.168 N 
ATOM      9  H12 UNL     1     -18.021  -1.027  -0.932  1.00  0.00     0.186 HD
ENDROOT
BRANCH   1  10
HETATM   10  C10 UNL     1     -17.807   1.029   0.621  1.00  0.00    -0.024 C 
HETATM   11  C9  UNL     1     -18.588   1.926   0.803  1.00  0.00    -0.057 C 
BRANCH  11  12
HETATM   12  C8  UNL     1     -19.508   2.994   1.048  1.00  0.00     0.033 A 
HETATM   13  C7  UNL     1     -20.876   2.893   0.943  1.00  0.00     0.026 A 
HETATM   14  C6  UNL     1     -21.719   3.996   1.203  1.00  0.00     0.050 A 
HETATM   15  C5  UNL     1     -21.194   5.202   1.568  1.00  0.00     0.107 A 
HETATM   16  N13 UNL     1     -19.837   5.269   1.664  1.00  0.00    -0.351 N 
HETATM   17  C26 UNL     1     -19.024   4.230   1.420  1.00  0.00     0.110 A 
ATOM     18  H13 UNL     1     -19.416   6.157   1.935  1.00  0.00     0.166 HD
BRANCH  15  19
HETATM   19  N3  UNL     1     -21.941   6.349   1.846  1.00  0.00    -0.311 N 
HETATM   20  C4  UNL     1     -21.485   7.602   2.301  1.00  0.00     0.245 C 
HETATM   21  O2  UNL     1     -20.284   7.869   2.528  1.00  0.00    -0.271 OA
ATOM     22  H3  UNL     1     -22.947   6.270   1.700  1.00  0.00     0.170 HD
BRANCH  20  23
HETATM   23  C2  UNL     1     -22.526   8.676   2.521  1.00  0.00     0.174 C 
HETATM   24  C1  UNL     1     -22.545   9.014   3.983  1.00  0.00     0.042 C 
BRANCH  23  25
HETATM   25  N1  UNL     1     -22.187   9.801   1.688  1.00  0.00    -0.333 N 
HETATM   26  C3  UNL     1     -22.872   9.997   0.475  1.00  0.00     0.329 C 
HETATM   27  N2  UNL     1     -22.531  11.122  -0.355  1.00  0.00    -0.040 NA
HETATM   28  O1  UNL     1     -23.786   9.200   0.101  1.00  0.00    -0.251 OA
ATOM     29  H1  UNL     1     -21.456  10.452   1.976  1.00  0.00     0.164 HD
ENDBRANCH  23  25
ENDBRANCH  20  23
ENDBRANCH  15  19
ENDBRANCH  11  12
ENDBRANCH   1  10
BRANCH   4  30
HETATM   30  N5  UNL     1     -13.592  -0.976   1.716  1.00  0.00    -0.214 N 
HETATM   31  C13 UNL     1     -13.584  -1.164   3.131  1.00  0.00     0.161 C 
HETATM   32  C14 UNL     1     -12.522  -0.423   3.877  1.00  0.00     0.145 C 
HETATM   33  N6  UNL     1     -11.236  -0.390   3.202  1.00  0.00    -0.364 N 
HETATM   34  C23 UNL     1     -11.139  -1.020   1.914  1.00  0.00     0.145 C 
HETATM   35  C24 UNL     1     -12.339  -0.700   1.042  1.00  0.00     0.161 C 
BRANCH  33  36
HETATM   36  C15 UNL     1     -10.167   0.270   3.863  1.00  0.00     0.107 A 
HETATM   37  C16 UNL     1      -9.734   1.542   3.564  1.00  0.00     0.096 A 
HETATM   38  C17 UNL     1      -8.687   2.164   4.239  1.00  0.00     0.105 A 
HETATM   39  N8  UNL     1      -8.080   1.488   5.216  1.00  0.00    -0.339 N 
HETATM   40  C22 UNL     1      -8.482   0.250   5.526  1.00  0.00     0.183 A 
ATOM     41  H8  UNL     1      -7.308   1.915   5.728  1.00  0.00     0.168 HD
HETATM   42  N9  UNL     1      -9.488  -0.333   4.870  1.00  0.00    -0.339 N 
ATOM     43  H9  UNL     1      -9.760  -1.279   5.140  1.00  0.00     0.168 HD
BRANCH  38  44
HETATM   44  N7  UNL     1      -8.391   3.330   3.867  1.00  0.00    -0.368 N 
ATOM     45  H7  UNL     1      -8.907   4.072   4.340  1.00  0.00     0.161 HD
BRANCH  44  46
HETATM   46  C18 UNL     1      -7.456   3.784   2.895  1.00  0.00     0.021 C 
HETATM   47  C19 UNL     1      -8.080   4.479   1.726  1.00  0.00     0.037 C 
HETATM   48  C20 UNL     1      -6.485   4.735   3.559  1.00  0.00     0.037 C 
HETATM   49  C21 UNL     1      -6.621   2.619   2.348  1.00  0.00     0.037 C 
ENDBRANCH  44  46
ENDBRANCH  38  44
ENDBRANCH  33  36
ENDBRANCH   4  30
BRANCH   7  50
HETATM   50  N11 UNL     1     -16.504  -2.992  -1.394  1.00  0.00    -0.234 N 
ATOM     51 2H11 UNL     1     -15.823  -3.239  -2.112  1.00  0.00     0.174 HD
ATOM     52 1H11 UNL     1     -17.392  -3.483  -1.295  1.00  0.00     0.174 HD
ENDBRANCH   7  50
TORSDOF 10
ENDMDL
