MODEL 1
REMARK VINA RESULT: -9.798021213      0.000      0.000
REMARK  7 active torsions:
REMARK  status: ('A' for Active; 'I' for Inactive)
REMARK    1  A    between atoms: C3_9  and  C4_10 
REMARK       I    between atoms: C4_10  and  N4_12 
REMARK    2  A    between atoms: N4_12  and  C5_14 
REMARK    3  A    between atoms: C8_23  and  N8_24 
REMARK    4  A    between atoms: N8_24  and  C9_25 
REMARK    5  A    between atoms: C12_28  and  S2_29 
REMARK    6  A    between atoms: S2_29  and  N9_32 
REMARK       I    between atoms: N9_32  and  C13_34 
REMARK       I    between atoms: C13_34  and  N10_36 
REMARK    7  A    between atoms: N10_36  and  C14_38 
ROOT
HETATM    1  N1  UNL     1     -15.032   4.002   0.979  1.00  0.00    -0.191 NA
HETATM    2  C1  UNL     1     -14.272   3.202   1.327  1.00  0.00     0.111 C 
HETATM    3  C2  UNL     1     -13.304   2.198   1.742  1.00  0.00     0.136 A 
HETATM    4  S1  UNL     1     -11.604   2.178   1.599  1.00  0.00     0.015 SA
HETATM    5  N2  UNL     1     -11.317   0.684   2.322  1.00  0.00    -0.268 N 
ATOM      6  H2  UNL     1     -10.422   0.219   2.475  1.00  0.00     0.195 HD
HETATM    7  N3  UNL     1     -12.504   0.266   2.639  1.00  0.00    -0.288 N 
ATOM      8  H3  UNL     1     -12.622  -0.636   3.102  1.00  0.00     0.188 HD
HETATM    9  C3  UNL     1     -13.542   0.997   2.365  1.00  0.00     0.146 A 
ENDROOT
BRANCH   9  10
HETATM   10  C4  UNL     1     -14.926   0.577   2.706  1.00  0.00     0.277 C 
HETATM   11  O1  UNL     1     -15.558   1.122   3.651  1.00  0.00    -0.266 OA
HETATM   12  N4  UNL     1     -15.613  -0.438   2.011  1.00  0.00    -0.305 N 
ATOM     13  H4  UNL     1     -15.758  -1.308   2.523  1.00  0.00     0.170 HD
BRANCH  12  14
HETATM   14  C5  UNL     1     -16.071  -0.408   0.834  1.00  0.00     0.140 A 
HETATM   15  N5  UNL     1     -15.785  -1.298  -0.112  1.00  0.00    -0.337 N 
HETATM   16  C6  UNL     1     -16.345  -1.150  -1.330  1.00  0.00     0.183 A 
ATOM     17  H5  UNL     1     -15.156  -2.077   0.080  1.00  0.00     0.168 HD
HETATM   18  N6  UNL     1     -17.176  -0.153  -1.652  1.00  0.00    -0.336 N 
HETATM   19  C7  UNL     1     -17.500   0.786  -0.716  1.00  0.00     0.140 A 
ATOM     20  H6  UNL     1     -17.566  -0.095  -2.593  1.00  0.00     0.168 HD
HETATM   21  N7  UNL     1     -18.270   1.864  -0.726  1.00  0.00    -0.300 N 
HETATM   22  C20 UNL     1     -16.938   0.651   0.533  1.00  0.00     0.125 A 
HETATM   23  C8  UNL     1     -18.238   2.464   0.505  1.00  0.00     0.261 A 
ATOM     24  H7  UNL     1     -18.804   2.197  -1.528  1.00  0.00     0.171 HD
HETATM   25  N12 UNL     1     -17.402   1.673   1.243  1.00  0.00    -0.310 N 
ATOM     26  H12 UNL     1     -17.163   1.848   2.219  1.00  0.00     0.170 HD
BRANCH  23  27
HETATM   27  N8  UNL     1     -18.775   3.441   0.918  1.00  0.00    -0.371 NA
BRANCH  27  28
HETATM   28  C9  UNL     1     -19.311   4.530   1.380  1.00  0.00     0.111 A 
HETATM   29  C10 UNL     1     -18.514   5.603   1.837  1.00  0.00     0.046 A 
HETATM   30  C11 UNL     1     -19.044   6.766   2.325  1.00  0.00     0.028 A 
HETATM   31  C12 UNL     1     -20.396   6.921   2.385  1.00  0.00     0.080 A 
HETATM   32  C18 UNL     1     -21.238   5.917   1.959  1.00  0.00     0.028 A 
HETATM   33  C19 UNL     1     -20.698   4.764   1.474  1.00  0.00     0.046 A 
BRANCH  31  34
HETATM   34  S2  UNL     1     -21.133   8.383   2.993  1.00  0.00     0.266 S 
HETATM   35  O2  UNL     1     -21.312   8.294   4.488  1.00  0.00    -0.200 OA
HETATM   36  O3  UNL     1     -22.458   8.647   2.331  1.00  0.00    -0.200 OA
BRANCH  34  37
HETATM   37  N9  UNL     1     -20.052   9.694   2.664  1.00  0.00    -0.232 N 
HETATM   38  C13 UNL     1     -20.358  10.709   1.731  1.00  0.00     0.330 C 
HETATM   39  O4  UNL     1     -21.439  10.679   1.111  1.00  0.00    -0.246 OA
HETATM   40  N10 UNL     1     -19.443  11.756   1.502  1.00  0.00    -0.336 N 
ATOM     41  H10 UNL     1     -18.557  11.787   2.006  1.00  0.00     0.164 HD
ATOM     42  H9  UNL     1     -19.163   9.736   3.162  1.00  0.00     0.183 HD
BRANCH  40  43
HETATM   43  C14 UNL     1     -19.775  12.786   0.541  1.00  0.00     0.113 C 
HETATM   44  C15 UNL     1     -18.812  12.757  -0.650  1.00  0.00     0.054 C 
HETATM   45  C16 UNL     1     -18.954  14.162  -1.177  1.00  0.00     0.234 C 
HETATM   46  N11 UNL     1     -19.466  14.982  -0.100  1.00  0.00    -0.073 N 
HETATM   47  C17 UNL     1     -19.483  14.164   1.090  1.00  0.00     0.257 C 
ATOM     48 2H11 UNL     1     -18.947  15.852   0.021  1.00  0.00     0.277 HD
ATOM     49 1H11 UNL     1     -20.373  15.399  -0.311  1.00  0.00     0.277 HD
ENDBRANCH  40  43
ENDBRANCH  34  37
ENDBRANCH  31  34
ENDBRANCH  27  28
ENDBRANCH  23  27
ENDBRANCH  12  14
ENDBRANCH   9  10
TORSDOF 7
ENDMDL
MODEL 2
REMARK VINA RESULT: -9.775974468      1.611      1.993
REMARK  7 active torsions:
REMARK  status: ('A' for Active; 'I' for Inactive)
REMARK    1  A    between atoms: C3_9  and  C4_10 
REMARK       I    between atoms: C4_10  and  N4_12 
REMARK    2  A    between atoms: N4_12  and  C5_14 
REMARK    3  A    between atoms: C8_23  and  N8_24 
REMARK    4  A    between atoms: N8_24  and  C9_25 
REMARK    5  A    between atoms: C12_28  and  S2_29 
REMARK    6  A    between atoms: S2_29  and  N9_32 
REMARK       I    between atoms: N9_32  and  C13_34 
REMARK       I    between atoms: C13_34  and  N10_36 
REMARK    7  A    between atoms: N10_36  and  C14_38 
ROOT
HETATM    1  N1  UNL     1     -11.877   3.486   3.664  1.00  0.00    -0.191 NA
HETATM    2  C1  UNL     1     -12.202   2.385   3.518  1.00  0.00     0.111 C 
HETATM    3  C2  UNL     1     -12.587   0.992   3.345  1.00  0.00     0.136 A 
HETATM    4  S1  UNL     1     -12.451  -0.332   4.412  1.00  0.00     0.015 SA
HETATM    5  N2  UNL     1     -13.124  -1.514   3.419  1.00  0.00    -0.268 N 
ATOM      6  H2  UNL     1     -13.265  -2.503   3.624  1.00  0.00     0.195 HD
HETATM    7  N3  UNL     1     -13.421  -0.868   2.334  1.00  0.00    -0.288 N 
ATOM      8  H3  UNL     1     -13.853  -1.357   1.549  1.00  0.00     0.188 HD
HETATM    9  C3  UNL     1     -13.168   0.403   2.248  1.00  0.00     0.146 A 
ENDROOT
BRANCH   9  10
HETATM   10  C4  UNL     1     -13.488   1.200   1.035  1.00  0.00     0.277 C 
HETATM   11  O1  UNL     1     -12.610   1.436   0.160  1.00  0.00    -0.266 OA
HETATM   12  N4  UNL     1     -14.766   1.736   0.785  1.00  0.00    -0.305 N 
ATOM     13  H4  UNL     1     -14.846   2.751   0.862  1.00  0.00     0.170 HD
BRANCH  12  14
HETATM   14  C5  UNL     1     -15.826   1.122   0.479  1.00  0.00     0.140 A 
HETATM   15  N5  UNL     1     -15.871  -0.126   0.019  1.00  0.00    -0.337 N 
HETATM   16  C6  UNL     1     -17.073  -0.665  -0.270  1.00  0.00     0.183 A 
ATOM     17  H5  UNL     1     -15.015  -0.663  -0.111  1.00  0.00     0.168 HD
HETATM   18  N6  UNL     1     -18.235  -0.018  -0.127  1.00  0.00    -0.336 N 
HETATM   19  C7  UNL     1     -18.241   1.264   0.341  1.00  0.00     0.140 A 
ATOM     20  H6  UNL     1     -19.112  -0.481  -0.365  1.00  0.00     0.168 HD
HETATM   21  N7  UNL     1     -19.197   2.147   0.585  1.00  0.00    -0.300 N 
HETATM   22  C20 UNL     1     -17.023   1.831   0.642  1.00  0.00     0.125 A 
HETATM   23  C8  UNL     1     -18.643   3.310   1.049  1.00  0.00     0.261 A 
ATOM     24  H7  UNL     1     -20.195   1.986   0.446  1.00  0.00     0.171 HD
HETATM   25  N12 UNL     1     -17.299   3.060   1.066  1.00  0.00    -0.310 N 
ATOM     26  H12 UNL     1     -16.595   3.733   1.366  1.00  0.00     0.170 HD
BRANCH  23  27
HETATM   27  N8  UNL     1     -19.137   4.340   1.379  1.00  0.00    -0.371 NA
BRANCH  27  28
HETATM   28  C9  UNL     1     -19.653   5.459   1.788  1.00  0.00     0.111 A 
HETATM   29  C10 UNL     1     -21.051   5.665   1.788  1.00  0.00     0.046 A 
HETATM   30  C11 UNL     1     -21.629   6.830   2.216  1.00  0.00     0.028 A 
HETATM   31  C12 UNL     1     -20.847   7.849   2.665  1.00  0.00     0.080 A 
HETATM   32  C18 UNL     1     -19.474   7.723   2.693  1.00  0.00     0.028 A 
HETATM   33  C19 UNL     1     -18.910   6.558   2.265  1.00  0.00     0.046 A 
BRANCH  31  34
HETATM   34  S2  UNL     1     -21.525   9.357   3.229  1.00  0.00     0.266 S 
HETATM   35  O2  UNL     1     -21.649   9.343   4.732  1.00  0.00    -0.200 OA
HETATM   36  O3  UNL     1     -22.867   9.623   2.605  1.00  0.00    -0.200 OA
BRANCH  34  37
HETATM   37  N9  UNL     1     -20.425  10.623   2.798  1.00  0.00    -0.232 N 
HETATM   38  C13 UNL     1     -20.437  11.230   1.523  1.00  0.00     0.330 C 
HETATM   39  O4  UNL     1     -21.258  10.858   0.664  1.00  0.00    -0.246 OA
HETATM   40  N10 UNL     1     -19.520  12.259   1.224  1.00  0.00    -0.336 N 
ATOM     41  H10 UNL     1     -18.846  12.570   1.923  1.00  0.00     0.164 HD
ATOM     42  H9  UNL     1     -19.746  10.941   3.489  1.00  0.00     0.183 HD
BRANCH  40  43
HETATM   43  C14 UNL     1     -19.548  12.869  -0.088  1.00  0.00     0.113 C 
HETATM   44  C15 UNL     1     -18.190  12.733  -0.785  1.00  0.00     0.054 C 
HETATM   45  C16 UNL     1     -18.259  13.859  -1.785  1.00  0.00     0.234 C 
HETATM   46  N11 UNL     1     -19.247  14.804  -1.310  1.00  0.00    -0.073 N 
HETATM   47  C17 UNL     1     -19.652  14.373   0.007  1.00  0.00     0.257 C 
ATOM     48 2H11 UNL     1     -18.919  15.770  -1.331  1.00  0.00     0.277 HD
ATOM     49 1H11 UNL     1     -20.032  14.919  -1.952  1.00  0.00     0.277 HD
ENDBRANCH  40  43
ENDBRANCH  34  37
ENDBRANCH  31  34
ENDBRANCH  27  28
ENDBRANCH  23  27
ENDBRANCH  12  14
ENDBRANCH   9  10
TORSDOF 7
ENDMDL
MODEL 3
REMARK VINA RESULT: -9.688985343      2.732      3.448
REMARK  7 active torsions:
REMARK  status: ('A' for Active; 'I' for Inactive)
REMARK    1  A    between atoms: C3_9  and  C4_10 
REMARK       I    between atoms: C4_10  and  N4_12 
REMARK    2  A    between atoms: N4_12  and  C5_14 
REMARK    3  A    between atoms: C8_23  and  N8_24 
REMARK    4  A    between atoms: N8_24  and  C9_25 
REMARK    5  A    between atoms: C12_28  and  S2_29 
REMARK    6  A    between atoms: S2_29  and  N9_32 
REMARK       I    between atoms: N9_32  and  C13_34 
REMARK       I    between atoms: C13_34  and  N10_36 
REMARK    7  A    between atoms: N10_36  and  C14_38 
ROOT
HETATM    1  N1  UNL     1     -17.633   4.939  -4.961  1.00  0.00    -0.191 NA
HETATM    2  C1  UNL     1     -16.735   4.566  -4.332  1.00  0.00     0.111 C 
HETATM    3  C2  UNL     1     -15.591   4.116  -3.553  1.00  0.00     0.136 A 
HETATM    4  S1  UNL     1     -14.436   5.009  -2.671  1.00  0.00     0.015 SA
HETATM    5  N2  UNL     1     -13.512   3.720  -2.105  1.00  0.00    -0.268 N 
ATOM      6  H2  UNL     1     -12.682   3.751  -1.513  1.00  0.00     0.195 HD
HETATM    7  N3  UNL     1     -14.108   2.678  -2.600  1.00  0.00    -0.288 N 
ATOM      8  H3  UNL     1     -13.746   1.744  -2.408  1.00  0.00     0.188 HD
HETATM    9  C3  UNL     1     -15.164   2.828  -3.340  1.00  0.00     0.146 A 
ENDROOT
BRANCH   9  10
HETATM   10  C4  UNL     1     -15.893   1.676  -3.932  1.00  0.00     0.277 C 
HETATM   11  O1  UNL     1     -15.537   1.177  -5.035  1.00  0.00    -0.266 OA
HETATM   12  N4  UNL     1     -17.008   1.076  -3.316  1.00  0.00    -0.305 N 
ATOM     13  H4  UNL     1     -17.908   1.235  -3.770  1.00  0.00     0.170 HD
BRANCH  12  14
HETATM   14  C5  UNL     1     -17.037   0.366  -2.272  1.00  0.00     0.140 A 
HETATM   15  N5  UNL     1     -16.623  -0.897  -2.205  1.00  0.00    -0.337 N 
HETATM   16  C6  UNL     1     -16.709  -1.543  -1.024  1.00  0.00     0.183 A 
ATOM     17  H5  UNL     1     -16.250  -1.367  -3.029  1.00  0.00     0.168 HD
HETATM   18  N6  UNL     1     -17.190  -0.992   0.095  1.00  0.00    -0.336 N 
HETATM   19  C7  UNL     1     -17.627   0.301   0.078  1.00  0.00     0.140 A 
ATOM     20  H6  UNL     1     -17.230  -1.535   0.958  1.00  0.00     0.168 HD
HETATM   21  N7  UNL     1     -18.145   1.107   0.992  1.00  0.00    -0.300 N 
HETATM   22  C20 UNL     1     -17.547   0.977  -1.119  1.00  0.00     0.125 A 
HETATM   23  C8  UNL     1     -18.417   2.326   0.430  1.00  0.00     0.261 A 
ATOM     24  H7  UNL     1     -18.315   0.858   1.966  1.00  0.00     0.171 HD
HETATM   25  N12 UNL     1     -18.029   2.190  -0.874  1.00  0.00    -0.310 N 
ATOM     26  H12 UNL     1     -18.101   2.930  -1.572  1.00  0.00     0.170 HD
BRANCH  23  27
HETATM   27  N8  UNL     1     -18.884   3.318   0.891  1.00  0.00    -0.371 NA
BRANCH  27  28
HETATM   28  C9  UNL     1     -19.380   4.427   1.348  1.00  0.00     0.111 A 
HETATM   29  C10 UNL     1     -18.543   5.478   1.786  1.00  0.00     0.046 A 
HETATM   30  C11 UNL     1     -19.029   6.662   2.269  1.00  0.00     0.028 A 
HETATM   31  C12 UNL     1     -20.374   6.862   2.343  1.00  0.00     0.080 A 
HETATM   32  C18 UNL     1     -21.254   5.882   1.936  1.00  0.00     0.028 A 
HETATM   33  C19 UNL     1     -20.757   4.707   1.456  1.00  0.00     0.046 A 
BRANCH  31  34
HETATM   34  S2  UNL     1     -21.057   8.353   2.945  1.00  0.00     0.266 S 
HETATM   35  O2  UNL     1     -21.311   8.249   4.428  1.00  0.00    -0.200 OA
HETATM   36  O3  UNL     1     -22.332   8.702   2.228  1.00  0.00    -0.200 OA
BRANCH  34  37
HETATM   37  N9  UNL     1     -19.890   9.606   2.692  1.00  0.00    -0.232 N 
HETATM   38  C13 UNL     1     -20.136  10.705   1.841  1.00  0.00     0.330 C 
HETATM   39  O4  UNL     1     -21.223  10.796   1.240  1.00  0.00    -0.246 OA
HETATM   40  N10 UNL     1     -19.151  11.700   1.671  1.00  0.00    -0.336 N 
ATOM     41  H10 UNL     1     -18.258  11.632   2.160  1.00  0.00     0.164 HD
ATOM     42  H9  UNL     1     -18.994   9.549   3.176  1.00  0.00     0.183 HD
BRANCH  40  43
HETATM   43  C14 UNL     1     -19.422  12.819   0.794  1.00  0.00     0.113 C 
HETATM   44  C15 UNL     1     -18.785  12.603  -0.583  1.00  0.00     0.054 C 
HETATM   45  C16 UNL     1     -18.687  14.020  -1.087  1.00  0.00     0.234 C 
HETATM   46  N11 UNL     1     -18.727  14.896   0.065  1.00  0.00    -0.073 N 
HETATM   47  C17 UNL     1     -18.683  14.059   1.240  1.00  0.00     0.257 C 
ATOM     48 2H11 UNL     1     -17.995  15.606   0.052  1.00  0.00     0.277 HD
ATOM     49 1H11 UNL     1     -19.526  15.531   0.056  1.00  0.00     0.277 HD
ENDBRANCH  40  43
ENDBRANCH  34  37
ENDBRANCH  31  34
ENDBRANCH  27  28
ENDBRANCH  23  27
ENDBRANCH  12  14
ENDBRANCH   9  10
TORSDOF 7
ENDMDL
MODEL 4
REMARK VINA RESULT: -9.646952438      0.946      1.105
REMARK  7 active torsions:
REMARK  status: ('A' for Active; 'I' for Inactive)
REMARK    1  A    between atoms: C3_9  and  C4_10 
REMARK       I    between atoms: C4_10  and  N4_12 
REMARK    2  A    between atoms: N4_12  and  C5_14 
REMARK    3  A    between atoms: C8_23  and  N8_24 
REMARK    4  A    between atoms: N8_24  and  C9_25 
REMARK    5  A    between atoms: C12_28  and  S2_29 
REMARK    6  A    between atoms: S2_29  and  N9_32 
REMARK       I    between atoms: N9_32  and  C13_34 
REMARK       I    between atoms: C13_34  and  N10_36 
REMARK    7  A    between atoms: N10_36  and  C14_38 
ROOT
HETATM    1  N1  UNL     1     -14.925   3.687   0.408  1.00  0.00    -0.191 NA
HETATM    2  C1  UNL     1     -14.203   2.951   0.933  1.00  0.00     0.111 C 
HETATM    3  C2  UNL     1     -13.281   2.023   1.570  1.00  0.00     0.136 A 
HETATM    4  S1  UNL     1     -11.576   1.971   1.548  1.00  0.00     0.015 SA
HETATM    5  N2  UNL     1     -11.361   0.614   2.522  1.00  0.00    -0.268 N 
ATOM      6  H2  UNL     1     -10.486   0.176   2.809  1.00  0.00     0.195 HD
HETATM    7  N3  UNL     1     -12.574   0.259   2.821  1.00  0.00    -0.288 N 
ATOM      8  H3  UNL     1     -12.736  -0.554   3.416  1.00  0.00     0.188 HD
HETATM    9  C3  UNL     1     -13.579   0.940   2.362  1.00  0.00     0.146 A 
ENDROOT
BRANCH   9  10
HETATM   10  C4  UNL     1     -14.989   0.589   2.671  1.00  0.00     0.277 C 
HETATM   11  O1  UNL     1     -15.609   1.151   3.616  1.00  0.00    -0.266 OA
HETATM   12  N4  UNL     1     -15.715  -0.376   1.947  1.00  0.00    -0.305 N 
ATOM     13  H4  UNL     1     -15.916  -1.246   2.441  1.00  0.00     0.170 HD
BRANCH  12  14
HETATM   14  C5  UNL     1     -16.150  -0.303   0.764  1.00  0.00     0.140 A 
HETATM   15  N5  UNL     1     -15.822  -1.140  -0.217  1.00  0.00    -0.337 N 
HETATM   16  C6  UNL     1     -16.361  -0.949  -1.438  1.00  0.00     0.183 A 
ATOM     17  H5  UNL     1     -15.177  -1.911  -0.048  1.00  0.00     0.168 HD
HETATM   18  N6  UNL     1     -17.210   0.042  -1.732  1.00  0.00    -0.336 N 
HETATM   19  C7  UNL     1     -17.578   0.928  -0.761  1.00  0.00     0.140 A 
ATOM     20  H6  UNL     1     -17.582   0.134  -2.677  1.00  0.00     0.168 HD
HETATM   21  N7  UNL     1     -18.374   1.985  -0.737  1.00  0.00    -0.300 N 
HETATM   22  C20 UNL     1     -17.038   0.747   0.493  1.00  0.00     0.125 A 
HETATM   23  C8  UNL     1     -18.383   2.527   0.521  1.00  0.00     0.261 A 
ATOM     24  H7  UNL     1     -18.900   2.342  -1.534  1.00  0.00     0.171 HD
HETATM   25  N12 UNL     1     -17.542   1.724   1.240  1.00  0.00    -0.310 N 
ATOM     26  H12 UNL     1     -17.328   1.858   2.228  1.00  0.00     0.170 HD
BRANCH  23  27
HETATM   27  N8  UNL     1     -18.953   3.471   0.967  1.00  0.00    -0.371 NA
BRANCH  27  28
HETATM   28  C9  UNL     1     -19.600   4.507   1.406  1.00  0.00     0.111 A 
HETATM   29  C10 UNL     1     -18.919   5.671   1.828  1.00  0.00     0.046 A 
HETATM   30  C11 UNL     1     -19.567   6.783   2.292  1.00  0.00     0.028 A 
HETATM   31  C12 UNL     1     -20.927   6.795   2.361  1.00  0.00     0.080 A 
HETATM   32  C18 UNL     1     -21.660   5.696   1.967  1.00  0.00     0.028 A 
HETATM   33  C19 UNL     1     -21.003   4.595   1.507  1.00  0.00     0.046 A 
BRANCH  31  34
HETATM   34  S2  UNL     1     -21.813   8.185   2.938  1.00  0.00     0.266 S 
HETATM   35  O2  UNL     1     -21.384   8.530   4.342  1.00  0.00    -0.200 OA
HETATM   36  O3  UNL     1     -23.297   7.947   2.897  1.00  0.00    -0.200 OA
BRANCH  34  37
HETATM   37  N9  UNL     1     -21.414   9.525   1.917  1.00  0.00    -0.232 N 
HETATM   38  C13 UNL     1     -20.301  10.357   2.165  1.00  0.00     0.330 C 
HETATM   39  O4  UNL     1     -19.567  10.139   3.148  1.00  0.00    -0.246 OA
HETATM   40  N10 UNL     1     -20.019  11.435   1.301  1.00  0.00    -0.336 N 
ATOM     41  H10 UNL     1     -20.615  11.619   0.494  1.00  0.00     0.164 HD
ATOM     42  H9  UNL     1     -22.003   9.720   1.107  1.00  0.00     0.183 HD
BRANCH  40  43
HETATM   43  C14 UNL     1     -18.874  12.276   1.573  1.00  0.00     0.113 C 
HETATM   44  C15 UNL     1     -19.303  13.729   1.803  1.00  0.00     0.054 C 
HETATM   45  C16 UNL     1     -18.024  14.466   1.496  1.00  0.00     0.234 C 
HETATM   46  N11 UNL     1     -17.208  13.598   0.673  1.00  0.00    -0.073 N 
HETATM   47  C17 UNL     1     -18.010  12.443   0.344  1.00  0.00     0.257 C 
ATOM     48 2H11 UNL     1     -16.828  14.068  -0.149  1.00  0.00     0.277 HD
ATOM     49 1H11 UNL     1     -16.318  13.355   1.109  1.00  0.00     0.277 HD
ENDBRANCH  40  43
ENDBRANCH  34  37
ENDBRANCH  31  34
ENDBRANCH  27  28
ENDBRANCH  23  27
ENDBRANCH  12  14
ENDBRANCH   9  10
TORSDOF 7
ENDMDL
MODEL 5
REMARK VINA RESULT: -9.460084780      1.658      2.356
REMARK  7 active torsions:
REMARK  status: ('A' for Active; 'I' for Inactive)
REMARK    1  A    between atoms: C3_9  and  C4_10 
REMARK       I    between atoms: C4_10  and  N4_12 
REMARK    2  A    between atoms: N4_12  and  C5_14 
REMARK    3  A    between atoms: C8_23  and  N8_24 
REMARK    4  A    between atoms: N8_24  and  C9_25 
REMARK    5  A    between atoms: C12_28  and  S2_29 
REMARK    6  A    between atoms: S2_29  and  N9_32 
REMARK       I    between atoms: N9_32  and  C13_34 
REMARK       I    between atoms: C13_34  and  N10_36 
REMARK    7  A    between atoms: N10_36  and  C14_38 
ROOT
HETATM    1  N1  UNL     1     -14.391  -0.416   2.013  1.00  0.00    -0.191 NA
HETATM    2  C1  UNL     1     -14.049   0.677   1.842  1.00  0.00     0.111 C 
HETATM    3  C2  UNL     1     -13.635   2.058   1.647  1.00  0.00     0.136 A 
HETATM    4  S1  UNL     1     -13.129   3.229   2.779  1.00  0.00     0.015 SA
HETATM    5  N2  UNL     1     -12.852   4.499   1.708  1.00  0.00    -0.268 N 
ATOM      6  H2  UNL     1     -12.527   5.443   1.919  1.00  0.00     0.195 HD
HETATM    7  N3  UNL     1     -13.150   3.992   0.551  1.00  0.00    -0.288 N 
ATOM      8  H3  UNL     1     -13.069   4.561  -0.292  1.00  0.00     0.188 HD
HETATM    9  C3  UNL     1     -13.552   2.761   0.469  1.00  0.00     0.146 A 
ENDROOT
BRANCH   9  10
HETATM   10  C4  UNL     1     -13.904   2.121  -0.826  1.00  0.00     0.277 C 
HETATM   11  O1  UNL     1     -13.010   1.664  -1.591  1.00  0.00    -0.266 OA
HETATM   12  N4  UNL     1     -15.231   1.982  -1.277  1.00  0.00    -0.305 N 
ATOM     13  H4  UNL     1     -15.495   2.570  -2.069  1.00  0.00     0.170 HD
BRANCH  12  14
HETATM   14  C5  UNL     1     -16.135   1.224  -0.828  1.00  0.00     0.140 A 
HETATM   15  N5  UNL     1     -16.155  -0.098  -0.972  1.00  0.00    -0.337 N 
HETATM   16  C6  UNL     1     -17.182  -0.791  -0.441  1.00  0.00     0.183 A 
ATOM     17  H5  UNL     1     -15.408  -0.578  -1.474  1.00  0.00     0.168 HD
HETATM   18  N6  UNL     1     -18.195  -0.229   0.227  1.00  0.00    -0.336 N 
HETATM   19  C7  UNL     1     -18.221   1.124   0.401  1.00  0.00     0.140 A 
ATOM     20  H6  UNL     1     -18.945  -0.809   0.604  1.00  0.00     0.168 HD
HETATM   21  N7  UNL     1     -19.062   1.957   0.995  1.00  0.00    -0.300 N 
HETATM   22  C20 UNL     1     -17.180   1.849  -0.134  1.00  0.00     0.125 A 
HETATM   23  C8  UNL     1     -18.604   3.242   0.870  1.00  0.00     0.261 A 
ATOM     24  H7  UNL     1     -19.921   1.684   1.473  1.00  0.00     0.171 HD
HETATM   25  N12 UNL     1     -17.439   3.117   0.165  1.00  0.00    -0.310 N 
ATOM     26  H12 UNL     1     -16.843   3.901  -0.099  1.00  0.00     0.170 HD
BRANCH  23  27
HETATM   27  N8  UNL     1     -19.050   4.276   1.249  1.00  0.00    -0.371 NA
BRANCH  27  28
HETATM   28  C9  UNL     1     -19.566   5.379   1.701  1.00  0.00     0.111 A 
HETATM   29  C10 UNL     1     -20.965   5.573   1.738  1.00  0.00     0.046 A 
HETATM   30  C11 UNL     1     -21.543   6.720   2.212  1.00  0.00     0.028 A 
HETATM   31  C12 UNL     1     -20.759   7.733   2.672  1.00  0.00     0.080 A 
HETATM   32  C18 UNL     1     -19.385   7.618   2.667  1.00  0.00     0.028 A 
HETATM   33  C19 UNL     1     -18.822   6.471   2.193  1.00  0.00     0.046 A 
BRANCH  31  34
HETATM   34  S2  UNL     1     -21.436   9.219   3.294  1.00  0.00     0.266 S 
HETATM   35  O2  UNL     1     -21.785   9.061   4.753  1.00  0.00    -0.200 OA
HETATM   36  O3  UNL     1     -22.654   9.635   2.516  1.00  0.00    -0.200 OA
BRANCH  34  37
HETATM   37  N9  UNL     1     -20.221  10.445   3.167  1.00  0.00    -0.232 N 
HETATM   38  C13 UNL     1     -20.047  11.215   1.996  1.00  0.00     0.330 C 
HETATM   39  O4  UNL     1     -20.781  11.022   1.008  1.00  0.00    -0.246 OA
HETATM   40  N10 UNL     1     -19.042  12.203   1.946  1.00  0.00    -0.336 N 
ATOM     41  H10 UNL     1     -18.438  12.368   2.751  1.00  0.00     0.164 HD
ATOM     42  H9  UNL     1     -19.611  10.618   3.965  1.00  0.00     0.183 HD
BRANCH  40  43
HETATM   43  C14 UNL     1     -18.879  12.982   0.737  1.00  0.00     0.113 C 
HETATM   44  C15 UNL     1     -17.730  12.435  -0.117  1.00  0.00     0.054 C 
HETATM   45  C16 UNL     1     -17.378  13.644  -0.945  1.00  0.00     0.234 C 
HETATM   46  N11 UNL     1     -17.869  14.811  -0.244  1.00  0.00    -0.073 N 
HETATM   47  C17 UNL     1     -18.353  14.365   1.041  1.00  0.00     0.257 C 
ATOM     48 2H11 UNL     1     -17.175  15.556  -0.173  1.00  0.00     0.277 HD
ATOM     49 1H11 UNL     1     -18.567  15.333  -0.775  1.00  0.00     0.277 HD
ENDBRANCH  40  43
ENDBRANCH  34  37
ENDBRANCH  31  34
ENDBRANCH  27  28
ENDBRANCH  23  27
ENDBRANCH  12  14
ENDBRANCH   9  10
TORSDOF 7
ENDMDL
