MODEL 1
REMARK VINA RESULT: -6.824066271      0.000      0.000
REMARK  8 active torsions:
REMARK  status: ('A' for Active; 'I' for Inactive)
REMARK    1  A    between atoms: C1_2  and  N2_4 
REMARK    2  A    between atoms: N2_4  and  C2_6 
REMARK    3  A    between atoms: C4_10  and  C5_11 
REMARK    4  A    between atoms: C6_14  and  S2_15 
REMARK    5  A    between atoms: S2_15  and  C7_16 
REMARK    6  A    between atoms: C9_19  and  N4_20 
REMARK    7  A    between atoms: N4_20  and  C10_22 
REMARK    8  A    between atoms: C10_22  and  N5_24 
ROOT
HETATM    1  S2  UNL     1     -15.709   1.493  -1.446  1.00  0.00    -0.105 SA
ENDROOT
BRANCH   1   2
HETATM    2  C6  UNL     1     -16.046  -0.191  -1.802  1.00  0.00     0.023 C 
HETATM    3  C4  UNL     1     -15.434  -0.733  -2.859  1.00  0.00     0.129 C 
HETATM    4  N3  UNL     1     -15.619  -2.072  -3.250  1.00  0.00    -0.292 N 
HETATM    5  C3  UNL     1     -15.829  -3.111  -4.233  1.00  0.00     0.251 C 
HETATM    6  C15 UNL     1     -15.638  -3.122  -2.248  1.00  0.00     0.187 C 
HETATM    7  C2  UNL     1     -16.611  -3.800  -3.160  1.00  0.00     0.210 C 
HETATM    8  O1  UNL     1     -15.455  -3.225  -5.403  1.00  0.00    -0.271 OA
HETATM    9  S6  UNL     1     -16.314  -2.577  -0.667  1.00  0.00    -0.135 SA
HETATM   10  C14 UNL     1     -16.980  -0.923  -0.944  1.00  0.00     0.124 C 
BRANCH   3  11
HETATM   11  C5  UNL     1     -14.532   0.096  -3.671  1.00  0.00     0.228 C 
HETATM   12  O2  UNL     1     -14.886   0.789  -4.641  1.00  0.00    -0.643 OA
HETATM   13  O3  UNL     1     -13.175   0.125  -3.350  1.00  0.00    -0.643 OA
ENDBRANCH   3  11
BRANCH   7  14
HETATM   14  N2  UNL     1     -16.689  -5.214  -3.221  1.00  0.00    -0.353 N 
ATOM     15  H2  UNL     1     -15.798  -5.699  -3.111  1.00  0.00     0.162 HD
BRANCH  14  16
HETATM   16  C1  UNL     1     -17.792  -6.047  -3.406  1.00  0.00     0.181 C 
HETATM   17  N1  UNL     1     -18.857  -6.076  -2.473  1.00  0.00    -0.070 NA
HETATM   18  S1  UNL     1     -17.921  -7.003  -4.708  1.00  0.00    -0.044 SA
ENDBRANCH  14  16
ENDBRANCH   7  14
ENDBRANCH   1   2
BRANCH   1  19
HETATM   19  C7  UNL     1     -15.269   1.869   0.233  1.00  0.00     0.176 C 
HETATM   20  S3  UNL     1     -14.705   3.586   0.355  1.00  0.00    -0.140 SA
HETATM   21  C8  UNL     1     -16.121   4.511   1.018  1.00  0.00     0.112 C 
HETATM   22  C9  UNL     1     -17.341   3.678   0.787  1.00  0.00     0.157 C 
HETATM   23  S5  UNL     1     -16.809   1.967   1.213  1.00  0.00    -0.117 SA
BRANCH  22  24
HETATM   24  N4  UNL     1     -18.481   4.052   1.535  1.00  0.00    -0.352 N 
ATOM     25  H4  UNL     1     -18.338   4.623   2.369  1.00  0.00     0.163 HD
BRANCH  24  26
HETATM   26  C10 UNL     1     -19.795   3.692   1.206  1.00  0.00     0.189 C 
HETATM   27  S4  UNL     1     -20.113   2.226   0.586  1.00  0.00    -0.039 SA
BRANCH  26  28
HETATM   28  N5  UNL     1     -20.880   4.590   1.420  1.00  0.00    -0.263 N 
HETATM   29  C11 UNL     1     -22.225   4.119   1.287  1.00  0.00     0.178 C 
HETATM   30  C12 UNL     1     -23.256   5.026   1.881  1.00  0.00     0.200 C 
HETATM   31  O4  UNL     1     -22.698   5.990   2.734  1.00  0.00    -0.322 OA
HETATM   32  C13 UNL     1     -21.520   6.631   2.403  1.00  0.00     0.246 C 
HETATM   33  N6  UNL     1     -21.238   7.987   2.728  1.00  0.00    -0.055 NA
HETATM   34  N7  UNL     1     -20.642   5.922   1.756  1.00  0.00    -0.263 N 
ATOM     35  H7  UNL     1     -19.756   6.351   1.487  1.00  0.00     0.190 HD
ENDBRANCH  26  28
ENDBRANCH  24  26
ENDBRANCH  22  24
ENDBRANCH   1  19
TORSDOF 8
ENDMDL
MODEL 2
REMARK VINA RESULT: -6.766755212      4.175      7.362
REMARK  8 active torsions:
REMARK  status: ('A' for Active; 'I' for Inactive)
REMARK    1  A    between atoms: C1_2  and  N2_4 
REMARK    2  A    between atoms: N2_4  and  C2_6 
REMARK    3  A    between atoms: C4_10  and  C5_11 
REMARK    4  A    between atoms: C6_14  and  S2_15 
REMARK    5  A    between atoms: S2_15  and  C7_16 
REMARK    6  A    between atoms: C9_19  and  N4_20 
REMARK    7  A    between atoms: N4_20  and  C10_22 
REMARK    8  A    between atoms: C10_22  and  N5_24 
ROOT
HETATM    1  S2  UNL     1     -14.377  -2.748  -1.361  1.00  0.00    -0.105 SA
ENDROOT
BRANCH   1   2
HETATM    2  C6  UNL     1     -13.834  -1.615  -0.137  1.00  0.00     0.023 C 
HETATM    3  C4  UNL     1     -14.725  -1.220   0.777  1.00  0.00     0.129 C 
HETATM    4  N3  UNL     1     -14.415  -0.317   1.811  1.00  0.00    -0.292 N 
HETATM    5  C3  UNL     1     -14.697   0.823   2.655  1.00  0.00     0.251 C 
HETATM    6  C15 UNL     1     -13.165  -0.449   2.537  1.00  0.00     0.187 C 
HETATM    7  C2  UNL     1     -13.218   1.042   2.646  1.00  0.00     0.210 C 
HETATM    8  O1  UNL     1     -15.755   1.277   3.098  1.00  0.00    -0.271 OA
HETATM    9  S6  UNL     1     -11.825  -1.102   1.523  1.00  0.00    -0.135 SA
HETATM   10  C14 UNL     1     -12.446  -1.147  -0.170  1.00  0.00     0.124 C 
BRANCH   3  11
HETATM   11  C5  UNL     1     -16.101  -1.731   0.708  1.00  0.00     0.228 C 
HETATM   12  O2  UNL     1     -16.440  -2.895   0.985  1.00  0.00    -0.643 OA
HETATM   13  O3  UNL     1     -17.119  -0.867   0.305  1.00  0.00    -0.643 OA
ENDBRANCH   3  11
BRANCH   7  14
HETATM   14  N2  UNL     1     -12.654   1.710   3.763  1.00  0.00    -0.353 N 
ATOM     15  H2  UNL     1     -13.212   1.667   4.616  1.00  0.00     0.162 HD
BRANCH  14  16
HETATM   16  C1  UNL     1     -11.458   2.418   3.878  1.00  0.00     0.181 C 
HETATM   17  N1  UNL     1     -11.443   3.832   3.952  1.00  0.00    -0.070 NA
HETATM   18  S1  UNL     1     -10.030   1.656   3.959  1.00  0.00    -0.044 SA
ENDBRANCH  14  16
ENDBRANCH   7  14
ENDBRANCH   1   2
BRANCH   1  19
HETATM   19  C7  UNL     1     -14.212  -2.220  -3.049  1.00  0.00     0.176 C 
HETATM   20  S3  UNL     1     -15.581  -2.873  -4.038  1.00  0.00    -0.140 SA
HETATM   21  C8  UNL     1     -16.747  -1.491  -4.217  1.00  0.00     0.112 C 
HETATM   22  C9  UNL     1     -16.427  -0.502  -3.143  1.00  0.00     0.157 C 
HETATM   23  S5  UNL     1     -14.587  -0.433  -3.123  1.00  0.00    -0.117 SA
BRANCH  22  24
HETATM   24  N4  UNL     1     -16.978   0.788  -3.324  1.00  0.00    -0.352 N 
ATOM     25  H4  UNL     1     -17.704   0.901  -4.031  1.00  0.00     0.163 HD
BRANCH  24  26
HETATM   26  C10 UNL     1     -16.590   1.922  -2.595  1.00  0.00     0.189 C 
HETATM   27  S4  UNL     1     -15.558   2.997  -3.238  1.00  0.00    -0.039 SA
BRANCH  26  28
HETATM   28  N5  UNL     1     -17.102   2.167  -1.289  1.00  0.00    -0.263 N 
HETATM   29  C11 UNL     1     -16.360   2.987  -0.381  1.00  0.00     0.178 C 
HETATM   30  C12 UNL     1     -17.147   3.467   0.798  1.00  0.00     0.200 C 
HETATM   31  O4  UNL     1     -18.529   3.302   0.627  1.00  0.00    -0.322 OA
HETATM   32  C13 UNL     1     -19.039   2.153   0.051  1.00  0.00     0.246 C 
HETATM   33  N6  UNL     1     -20.273   1.558   0.429  1.00  0.00    -0.055 NA
HETATM   34  N7  UNL     1     -18.318   1.613  -0.889  1.00  0.00    -0.263 N 
ATOM     35  H7  UNL     1     -18.650   0.763  -1.344  1.00  0.00     0.190 HD
ENDBRANCH  26  28
ENDBRANCH  24  26
ENDBRANCH  22  24
ENDBRANCH   1  19
TORSDOF 8
ENDMDL
MODEL 3
REMARK VINA RESULT: -6.727965313      2.734      3.185
REMARK  8 active torsions:
REMARK  status: ('A' for Active; 'I' for Inactive)
REMARK    1  A    between atoms: C1_2  and  N2_4 
REMARK    2  A    between atoms: N2_4  and  C2_6 
REMARK    3  A    between atoms: C4_10  and  C5_11 
REMARK    4  A    between atoms: C6_14  and  S2_15 
REMARK    5  A    between atoms: S2_15  and  C7_16 
REMARK    6  A    between atoms: C9_19  and  N4_20 
REMARK    7  A    between atoms: N4_20  and  C10_22 
REMARK    8  A    between atoms: C10_22  and  N5_24 
ROOT
HETATM    1  S2  UNL     1     -16.736   0.033  -1.291  1.00  0.00    -0.105 SA
ENDROOT
BRANCH   1   2
HETATM    2  C6  UNL     1     -16.115  -1.416  -2.060  1.00  0.00     0.023 C 
HETATM    3  C4  UNL     1     -16.149  -2.551  -1.356  1.00  0.00     0.129 C 
HETATM    4  N3  UNL     1     -15.682  -3.780  -1.859  1.00  0.00    -0.292 N 
HETATM    5  C3  UNL     1     -14.964  -5.031  -1.746  1.00  0.00     0.251 C 
HETATM    6  C15 UNL     1     -15.999  -4.173  -3.220  1.00  0.00     0.187 C 
HETATM    7  C2  UNL     1     -14.665  -4.849  -3.200  1.00  0.00     0.210 C 
HETATM    8  O1  UNL     1     -14.778  -5.789  -0.792  1.00  0.00    -0.271 OA
HETATM    9  S6  UNL     1     -16.137  -2.770  -4.345  1.00  0.00    -0.135 SA
HETATM   10  C14 UNL     1     -15.582  -1.323  -3.421  1.00  0.00     0.124 C 
BRANCH   3  11
HETATM   11  C5  UNL     1     -16.682  -2.533   0.013  1.00  0.00     0.228 C 
HETATM   12  O2  UNL     1     -17.887  -2.622   0.306  1.00  0.00    -0.643 OA
HETATM   13  O3  UNL     1     -15.792  -2.407   1.080  1.00  0.00    -0.643 OA
ENDBRANCH   3  11
BRANCH   7  14
HETATM   14  N2  UNL     1     -14.431  -6.020  -3.965  1.00  0.00    -0.353 N 
ATOM     15  H2  UNL     1     -14.863  -6.868  -3.597  1.00  0.00     0.162 HD
BRANCH  14  16
HETATM   16  C1  UNL     1     -13.704  -6.195  -5.142  1.00  0.00     0.181 C 
HETATM   17  N1  UNL     1     -13.968  -5.413  -6.293  1.00  0.00    -0.070 NA
HETATM   18  S1  UNL     1     -12.506  -7.281  -5.242  1.00  0.00    -0.044 SA
ENDBRANCH  14  16
ENDBRANCH   7  14
ENDBRANCH   1   2
BRANCH   1  19
HETATM   19  C7  UNL     1     -15.604   0.913  -0.243  1.00  0.00     0.176 C 
HETATM   20  S3  UNL     1     -15.118   2.471  -1.027  1.00  0.00    -0.140 SA
HETATM   21  C8  UNL     1     -16.122   3.751  -0.218  1.00  0.00     0.112 C 
HETATM   22  C9  UNL     1     -17.280   3.060   0.429  1.00  0.00     0.157 C 
HETATM   23  S5  UNL     1     -16.542   1.554   1.189  1.00  0.00    -0.117 SA
BRANCH  22  24
HETATM   24  N4  UNL     1     -17.977   3.823   1.395  1.00  0.00    -0.352 N 
ATOM     25  H4  UNL     1     -17.445   4.198   2.181  1.00  0.00     0.163 HD
BRANCH  24  26
HETATM   26  C10 UNL     1     -19.351   4.098   1.342  1.00  0.00     0.189 C 
HETATM   27  S4  UNL     1     -20.402   2.944   0.899  1.00  0.00    -0.039 SA
BRANCH  26  28
HETATM   28  N5  UNL     1     -19.858   5.383   1.690  1.00  0.00    -0.263 N 
HETATM   29  C11 UNL     1     -21.271   5.593   1.749  1.00  0.00     0.178 C 
HETATM   30  C12 UNL     1     -21.678   6.843   2.466  1.00  0.00     0.200 C 
HETATM   31  O4  UNL     1     -20.633   7.396   3.220  1.00  0.00    -0.322 OA
HETATM   32  C13 UNL     1     -19.344   7.437   2.721  1.00  0.00     0.246 C 
HETATM   33  N6  UNL     1     -18.427   8.491   2.984  1.00  0.00    -0.055 NA
HETATM   34  N7  UNL     1     -18.987   6.436   1.970  1.00  0.00    -0.263 N 
ATOM     35  H7  UNL     1     -18.046   6.420   1.576  1.00  0.00     0.190 HD
ENDBRANCH  26  28
ENDBRANCH  24  26
ENDBRANCH  22  24
ENDBRANCH   1  19
TORSDOF 8
ENDMDL
MODEL 4
REMARK VINA RESULT: -6.692291979      4.323      7.621
REMARK  8 active torsions:
REMARK  status: ('A' for Active; 'I' for Inactive)
REMARK    1  A    between atoms: C1_2  and  N2_4 
REMARK    2  A    between atoms: N2_4  and  C2_6 
REMARK    3  A    between atoms: C4_10  and  C5_11 
REMARK    4  A    between atoms: C6_14  and  S2_15 
REMARK    5  A    between atoms: S2_15  and  C7_16 
REMARK    6  A    between atoms: C9_19  and  N4_20 
REMARK    7  A    between atoms: N4_20  and  C10_22 
REMARK    8  A    between atoms: C10_22  and  N5_24 
ROOT
HETATM    1  S2  UNL     1     -15.831  -2.110   0.057  1.00  0.00    -0.105 SA
ENDROOT
BRANCH   1   2
HETATM    2  C6  UNL     1     -15.026  -1.072   1.218  1.00  0.00     0.023 C 
HETATM    3  C4  UNL     1     -13.976  -1.576   1.873  1.00  0.00     0.129 C 
HETATM    4  N3  UNL     1     -13.244  -0.846   2.828  1.00  0.00    -0.292 N 
HETATM    5  C3  UNL     1     -12.561  -0.702   4.094  1.00  0.00     0.251 C 
HETATM    6  C15 UNL     1     -12.895   0.539   2.569  1.00  0.00     0.187 C 
HETATM    7  C2  UNL     1     -13.031   0.717   4.048  1.00  0.00     0.210 C 
HETATM    8  O1  UNL     1     -11.917  -1.502   4.778  1.00  0.00    -0.271 OA
HETATM    9  S6  UNL     1     -14.125   1.402   1.571  1.00  0.00    -0.135 SA
HETATM   10  C14 UNL     1     -15.535   0.285   1.428  1.00  0.00     0.124 C 
BRANCH   3  11
HETATM   11  C5  UNL     1     -13.559  -2.960   1.607  1.00  0.00     0.228 C 
HETATM   12  O2  UNL     1     -14.060  -3.966   2.137  1.00  0.00    -0.643 OA
HETATM   13  O3  UNL     1     -12.527  -3.187   0.695  1.00  0.00    -0.643 OA
ENDBRANCH   3  11
BRANCH   7  14
HETATM   14  N2  UNL     1     -12.254   1.681   4.739  1.00  0.00    -0.353 N 
ATOM     15  H2  UNL     1     -12.317   1.634   5.756  1.00  0.00     0.162 HD
BRANCH  14  16
HETATM   16  C1  UNL     1     -11.417   2.683   4.247  1.00  0.00     0.181 C 
HETATM   17  N1  UNL     1     -11.944   3.854   3.649  1.00  0.00    -0.070 NA
HETATM   18  S1  UNL     1      -9.805   2.568   4.359  1.00  0.00    -0.044 SA
ENDBRANCH  14  16
ENDBRANCH   7  14
ENDBRANCH   1   2
BRANCH   1  19
HETATM   19  C7  UNL     1     -15.099  -2.201  -1.558  1.00  0.00     0.176 C 
HETATM   20  S3  UNL     1     -16.307  -2.830  -2.752  1.00  0.00    -0.140 SA
HETATM   21  C8  UNL     1     -16.922  -1.365  -3.632  1.00  0.00     0.112 C 
HETATM   22  C9  UNL     1     -16.601  -0.175  -2.786  1.00  0.00     0.157 C 
HETATM   23  S5  UNL     1     -14.891  -0.496  -2.182  1.00  0.00    -0.117 SA
BRANCH  22  24
HETATM   24  N4  UNL     1     -16.677   1.074  -3.445  1.00  0.00    -0.352 N 
ATOM     25  H4  UNL     1     -16.796   1.073  -4.458  1.00  0.00     0.163 HD
BRANCH  24  26
HETATM   26  C10 UNL     1     -16.600   2.316  -2.796  1.00  0.00     0.189 C 
HETATM   27  S4  UNL     1     -16.017   3.614  -3.576  1.00  0.00    -0.039 SA
BRANCH  26  28
HETATM   28  N5  UNL     1     -17.044   2.472  -1.451  1.00  0.00    -0.263 N 
HETATM   29  C11 UNL     1     -16.333   3.345  -0.569  1.00  0.00     0.178 C 
HETATM   30  C12 UNL     1     -17.084   3.708   0.674  1.00  0.00     0.200 C 
HETATM   31  O4  UNL     1     -18.449   3.398   0.589  1.00  0.00    -0.322 OA
HETATM   32  C13 UNL     1     -18.871   2.215   0.012  1.00  0.00     0.246 C 
HETATM   33  N6  UNL     1     -20.006   1.480   0.452  1.00  0.00    -0.055 NA
HETATM   34  N7  UNL     1     -18.163   1.779  -0.990  1.00  0.00    -0.263 N 
ATOM     35  H7  UNL     1     -18.433   0.910  -1.449  1.00  0.00     0.190 HD
ENDBRANCH  26  28
ENDBRANCH  24  26
ENDBRANCH  22  24
ENDBRANCH   1  19
TORSDOF 8
ENDMDL
MODEL 5
REMARK VINA RESULT: -6.659683021      4.658      6.778
REMARK  8 active torsions:
REMARK  status: ('A' for Active; 'I' for Inactive)
REMARK    1  A    between atoms: C1_2  and  N2_4 
REMARK    2  A    between atoms: N2_4  and  C2_6 
REMARK    3  A    between atoms: C4_10  and  C5_11 
REMARK    4  A    between atoms: C6_14  and  S2_15 
REMARK    5  A    between atoms: S2_15  and  C7_16 
REMARK    6  A    between atoms: C9_19  and  N4_20 
REMARK    7  A    between atoms: N4_20  and  C10_22 
REMARK    8  A    between atoms: C10_22  and  N5_24 
ROOT
HETATM    1  S2  UNL     1     -16.316   2.988  -1.482  1.00  0.00    -0.105 SA
ENDROOT
BRANCH   1   2
HETATM    2  C6  UNL     1     -16.109   1.259  -1.691  1.00  0.00     0.023 C 
HETATM    3  C4  UNL     1     -16.892   0.452  -0.969  1.00  0.00     0.129 C 
HETATM    4  N3  UNL     1     -16.825  -0.952  -1.046  1.00  0.00    -0.292 N 
HETATM    5  C3  UNL     1     -16.806  -2.276  -0.464  1.00  0.00     0.251 C 
HETATM    6  C15 UNL     1     -16.706  -1.602  -2.338  1.00  0.00     0.187 C 
HETATM    7  C2  UNL     1     -15.907  -2.632  -1.605  1.00  0.00     0.210 C 
HETATM    8  O1  UNL     1     -17.352  -2.741   0.540  1.00  0.00    -0.271 OA
HETATM    9  S6  UNL     1     -15.783  -0.621  -3.539  1.00  0.00    -0.135 SA
HETATM   10  C14 UNL     1     -15.093   0.775  -2.629  1.00  0.00     0.124 C 
BRANCH   3  11
HETATM   11  C5  UNL     1     -17.865   1.038  -0.037  1.00  0.00     0.228 C 
HETATM   12  O2  UNL     1     -18.955   1.535  -0.370  1.00  0.00    -0.643 OA
HETATM   13  O3  UNL     1     -17.567   1.050   1.326  1.00  0.00    -0.643 OA
ENDBRANCH   3  11
BRANCH   7  14
HETATM   14  N2  UNL     1     -15.901  -3.985  -2.028  1.00  0.00    -0.353 N 
ATOM     15  H2  UNL     1     -16.801  -4.338  -2.353  1.00  0.00     0.162 HD
BRANCH  14  16
HETATM   16  C1  UNL     1     -14.858  -4.910  -2.069  1.00  0.00     0.181 C 
HETATM   17  N1  UNL     1     -14.824  -6.021  -1.191  1.00  0.00    -0.070 NA
HETATM   18  S1  UNL     1     -13.649  -4.774  -3.139  1.00  0.00    -0.044 SA
ENDBRANCH  14  16
ENDBRANCH   7  14
ENDBRANCH   1   2
BRANCH   1  19
HETATM   19  C7  UNL     1     -14.904   3.882  -0.882  1.00  0.00     0.176 C 
HETATM   20  S3  UNL     1     -15.260   4.579   0.751  1.00  0.00    -0.140 SA
HETATM   21  C8  UNL     1     -14.460   3.460   1.936  1.00  0.00     0.112 C 
HETATM   22  C9  UNL     1     -14.217   2.166   1.227  1.00  0.00     0.157 C 
HETATM   23  S5  UNL     1     -13.612   2.669  -0.438  1.00  0.00    -0.117 SA
BRANCH  22  24
HETATM   24  N4  UNL     1     -13.298   1.295   1.856  1.00  0.00    -0.352 N 
ATOM     25  H4  UNL     1     -12.323   1.591   1.916  1.00  0.00     0.163 HD
BRANCH  24  26
HETATM   26  C10 UNL     1     -13.638   0.049   2.404  1.00  0.00     0.189 C 
HETATM   27  S4  UNL     1     -14.056  -0.072   3.967  1.00  0.00    -0.039 SA
BRANCH  26  28
HETATM   28  N5  UNL     1     -13.641  -1.130   1.605  1.00  0.00    -0.263 N 
HETATM   29  C11 UNL     1     -12.885  -1.163   0.391  1.00  0.00     0.178 C 
HETATM   30  C12 UNL     1     -12.668  -2.538  -0.161  1.00  0.00     0.200 C 
HETATM   31  O4  UNL     1     -12.956  -3.545   0.772  1.00  0.00    -0.322 OA
HETATM   32  C13 UNL     1     -14.058  -3.448   1.601  1.00  0.00     0.246 C 
HETATM   33  N6  UNL     1     -14.832  -4.563   2.023  1.00  0.00    -0.055 NA
HETATM   34  N7  UNL     1     -14.375  -2.249   1.996  1.00  0.00    -0.263 N 
ATOM     35  H7  UNL     1     -15.182  -2.124   2.608  1.00  0.00     0.190 HD
ENDBRANCH  26  28
ENDBRANCH  24  26
ENDBRANCH  22  24
ENDBRANCH   1  19
TORSDOF 8
ENDMDL
