MODEL 1
REMARK VINA RESULT: -7.156474565      0.000      0.000
REMARK  5 active torsions:
REMARK  status: ('A' for Active; 'I' for Inactive)
REMARK    1  A    between atoms: C2_2  and  C4_4 
REMARK    2  A    between atoms: C8_11  and  C9_12 
REMARK    3  A    between atoms: C10_13  and  S1_14 
REMARK    4  A    between atoms: C13_22  and  N3_23 
REMARK    5  A    between atoms: C22_35  and  C23_36 
ROOT
HETATM    1  C4  UNL     1       2.317 -12.136  12.393  1.00  0.00     0.180 C 
HETATM    2  N1  UNL     1       1.339 -11.103  12.708  1.00  0.00    -0.347 N 
ATOM      3  H1  UNL     1       0.435 -11.186  12.242  1.00  0.00     0.163 HD
HETATM    4  C5  UNL     1       1.489 -10.012  13.570  1.00  0.00     0.224 C 
HETATM    5  O1  UNL     1       1.350  -8.849  13.024  1.00  0.00    -0.273 OA
HETATM    6  C6  UNL     1       1.782 -10.011  15.011  1.00  0.00     0.100 C 
HETATM    7  C7  UNL     1       2.903 -10.861  15.464  1.00  0.00     0.022 C 
HETATM    8  C8  UNL     1       2.071  -8.586  15.508  1.00  0.00     0.120 C 
HETATM    9  N2  UNL     1       2.590  -8.597  16.843  1.00  0.00    -0.351 N 
ATOM     10  H2  UNL     1       2.104  -9.212  17.495  1.00  0.00     0.163 HD
HETATM   11  C12 UNL     1       3.664  -7.889  17.382  1.00  0.00     0.251 C 
HETATM   12  O4  UNL     1       3.960  -7.999  18.629  1.00  0.00    -0.271 OA
HETATM   13  C13 UNL     1       4.578  -6.958  16.657  1.00  0.00     0.313 C 
HETATM   14  C16 UNL     1       6.011  -7.352  16.767  1.00  0.00     0.045 C 
HETATM   15  C17 UNL     1       6.679  -7.549  15.414  1.00  0.00     0.003 C 
HETATM   16  C18 UNL     1       7.638  -8.724  15.462  1.00  0.00     0.002 C 
HETATM   17  C19 UNL     1       6.948 -10.030  15.620  1.00  0.00     0.020 C 
HETATM   18  C20 UNL     1       7.044 -10.958  14.442  1.00  0.00     0.122 C 
HETATM   19  N4  UNL     1       6.960 -10.297  13.152  1.00  0.00    -0.359 N 
ATOM     20  H4  UNL     1       7.132  -9.294  13.099  1.00  0.00     0.162 HD
HETATM   21  C21 UNL     1       6.642 -11.012  11.950  1.00  0.00     0.240 C 
HETATM   22  O5  UNL     1       7.412 -10.848  10.978  1.00  0.00    -0.271 OA
HETATM   23  C22 UNL     1       5.488 -11.912  11.788  1.00  0.00     0.182 C 
HETATM   24  N5  UNL     1       4.374 -11.306  11.049  1.00  0.00    -0.341 N 
HETATM   25  C26 UNL     1       4.638 -10.163  10.189  1.00  0.00     0.153 C 
HETATM   26  C27 UNL     1       3.049 -11.807  11.135  1.00  0.00     0.243 C 
HETATM   27  O6  UNL     1       2.452 -11.984  10.015  1.00  0.00    -0.271 OA
ENDROOT
BRANCH   8  28
HETATM   28  C9  UNL     1       0.827  -7.771  15.393  1.00  0.00     0.010 C 
HETATM   29  C10 UNL     1       0.009  -7.689  16.431  1.00  0.00     0.106 C 
BRANCH  29  30
HETATM   30  S1  UNL     1      -1.476  -6.768  16.417  1.00  0.00     0.161 S 
HETATM   31  C11 UNL     1      -2.570  -7.397  17.680  1.00  0.00     0.166 C 
HETATM   32  O2  UNL     1      -2.157  -6.923  15.109  1.00  0.00    -0.224 OA
HETATM   33  O3  UNL     1      -1.157  -5.309  16.691  1.00  0.00    -0.224 OA
ENDBRANCH  29  30
ENDBRANCH   8  28
BRANCH  13  34
HETATM   34  N3  UNL     1       4.427  -5.600  17.116  1.00  0.00     0.093 N 
HETATM   35  C14 UNL     1       5.447  -5.142  18.004  1.00  0.00     0.310 C 
HETATM   36  C15 UNL     1       3.120  -5.226  17.526  1.00  0.00     0.310 C 
ENDBRANCH  13  34
BRANCH   1  37
HETATM   37  C2  UNL     1       1.629 -13.469  12.233  1.00  0.00     0.009 C 
HETATM   38  C1  UNL     1       0.415 -13.683  13.067  1.00  0.00     0.012 C 
HETATM   39  C3  UNL     1       2.643 -14.614  12.418  1.00  0.00     0.012 C 
ENDBRANCH   1  37
BRANCH  23  40
HETATM   40  C23 UNL     1       5.953 -13.207  11.201  1.00  0.00     0.009 C 
HETATM   41  C24 UNL     1       6.911 -13.836  12.223  1.00  0.00     0.012 C 
HETATM   42  C25 UNL     1       6.707 -13.076   9.913  1.00  0.00     0.012 C 
ENDBRANCH  23  40
TORSDOF 5
ENDMDL
MODEL 2
REMARK VINA RESULT: -7.130038709      2.724      6.392
REMARK  5 active torsions:
REMARK  status: ('A' for Active; 'I' for Inactive)
REMARK    1  A    between atoms: C2_2  and  C4_4 
REMARK    2  A    between atoms: C8_11  and  C9_12 
REMARK    3  A    between atoms: C10_13  and  S1_14 
REMARK    4  A    between atoms: C13_22  and  N3_23 
REMARK    5  A    between atoms: C22_35  and  C23_36 
ROOT
HETATM    1  C4  UNL     1       5.590  -6.499  15.721  1.00  0.00     0.180 C 
HETATM    2  N1  UNL     1       4.992  -6.042  16.970  1.00  0.00    -0.347 N 
ATOM      3  H1  UNL     1       5.610  -5.535  17.603  1.00  0.00     0.163 HD
HETATM    4  C5  UNL     1       3.673  -6.214  17.405  1.00  0.00     0.224 C 
HETATM    5  O1  UNL     1       3.534  -6.867  18.511  1.00  0.00    -0.273 OA
HETATM    6  C6  UNL     1       2.428  -5.753  16.773  1.00  0.00     0.100 C 
HETATM    7  C7  UNL     1       2.268  -6.031  15.331  1.00  0.00     0.022 C 
HETATM    8  C8  UNL     1       1.203  -6.349  17.483  1.00  0.00     0.120 C 
HETATM    9  N2  UNL     1       0.002  -6.106  16.740  1.00  0.00    -0.351 N 
ATOM     10  H2  UNL     1      -0.102  -5.158  16.380  1.00  0.00     0.163 HD
HETATM   11  C12 UNL     1      -1.044  -6.977  16.437  1.00  0.00     0.251 C 
HETATM   12  O4  UNL     1      -2.072  -6.561  15.785  1.00  0.00    -0.271 OA
HETATM   13  C13 UNL     1      -1.138  -8.423  16.793  1.00  0.00     0.313 C 
HETATM   14  C16 UNL     1      -1.324  -9.301  15.603  1.00  0.00     0.045 C 
HETATM   15  C17 UNL     1      -0.253 -10.373  15.482  1.00  0.00     0.003 C 
HETATM   16  C18 UNL     1       0.127 -10.581  14.027  1.00  0.00     0.002 C 
HETATM   17  C19 UNL     1       0.837  -9.416  13.441  1.00  0.00     0.020 C 
HETATM   18  C20 UNL     1       2.276  -9.653  13.076  1.00  0.00     0.122 C 
HETATM   19  N4  UNL     1       3.001 -10.487  14.016  1.00  0.00    -0.359 N 
ATOM     20  H4  UNL     1       2.476 -11.076  14.662  1.00  0.00     0.162 HD
HETATM   21  C21 UNL     1       4.435 -10.509  14.065  1.00  0.00     0.240 C 
HETATM   22  O5  UNL     1       4.982 -11.634  14.026  1.00  0.00    -0.271 OA
HETATM   23  C22 UNL     1       5.291  -9.315  14.157  1.00  0.00     0.182 C 
HETATM   24  N5  UNL     1       5.813  -9.074  15.507  1.00  0.00    -0.341 N 
HETATM   25  C26 UNL     1       5.856 -10.177  16.454  1.00  0.00     0.153 C 
HETATM   26  C27 UNL     1       6.291  -7.801  15.916  1.00  0.00     0.243 C 
HETATM   27  O6  UNL     1       7.431  -7.801  16.502  1.00  0.00    -0.271 OA
ENDROOT
BRANCH   8  28
HETATM   28  C9  UNL     1       1.129  -5.800  18.869  1.00  0.00     0.010 C 
HETATM   29  C10 UNL     1       0.136  -4.986  19.189  1.00  0.00     0.106 C 
BRANCH  29  30
HETATM   30  S1  UNL     1      -0.055  -4.279  20.776  1.00  0.00     0.161 S 
HETATM   31  C11 UNL     1      -0.943  -5.420  21.825  1.00  0.00     0.166 C 
HETATM   32  O2  UNL     1      -0.854  -3.034  20.684  1.00  0.00    -0.224 OA
HETATM   33  O3  UNL     1       1.317  -4.000  21.364  1.00  0.00    -0.224 OA
ENDBRANCH  29  30
ENDBRANCH   8  28
BRANCH  13  34
HETATM   34  N3  UNL     1      -2.202  -8.672  17.732  1.00  0.00     0.093 N 
HETATM   35  C14 UNL     1      -2.073  -8.002  18.987  1.00  0.00     0.310 C 
HETATM   36  C15 UNL     1      -2.612 -10.025  17.861  1.00  0.00     0.310 C 
ENDBRANCH  13  34
BRANCH   1  37
HETATM   37  C2  UNL     1       6.574  -5.475  15.215  1.00  0.00     0.009 C 
HETATM   38  C1  UNL     1       6.932  -4.385  16.163  1.00  0.00     0.012 C 
HETATM   39  C3  UNL     1       6.099  -4.907  13.864  1.00  0.00     0.012 C 
ENDBRANCH   1  37
BRANCH  23  40
HETATM   40  C23 UNL     1       6.361  -9.396  13.114  1.00  0.00     0.009 C 
HETATM   41  C24 UNL     1       5.649  -9.582  11.766  1.00  0.00     0.012 C 
HETATM   42  C25 UNL     1       7.307 -10.546  13.275  1.00  0.00     0.012 C 
ENDBRANCH  23  40
TORSDOF 5
ENDMDL
MODEL 3
REMARK VINA RESULT: -7.014854580      2.448      3.666
REMARK  5 active torsions:
REMARK  status: ('A' for Active; 'I' for Inactive)
REMARK    1  A    between atoms: C2_2  and  C4_4 
REMARK    2  A    between atoms: C8_11  and  C9_12 
REMARK    3  A    between atoms: C10_13  and  S1_14 
REMARK    4  A    between atoms: C13_22  and  N3_23 
REMARK    5  A    between atoms: C22_35  and  C23_36 
ROOT
HETATM    1  C4  UNL     1       2.506  -9.927  15.483  1.00  0.00     0.180 C 
HETATM    2  N1  UNL     1       1.875  -8.738  16.043  1.00  0.00    -0.347 N 
ATOM      3  H1  UNL     1       0.856  -8.755  16.098  1.00  0.00     0.163 HD
HETATM    4  C5  UNL     1       2.496  -7.576  16.513  1.00  0.00     0.224 C 
HETATM    5  O1  UNL     1       2.166  -6.484  15.905  1.00  0.00    -0.273 OA
HETATM    6  C6  UNL     1       3.472  -7.431  17.604  1.00  0.00     0.100 C 
HETATM    7  C7  UNL     1       4.620  -8.361  17.600  1.00  0.00     0.022 C 
HETATM    8  C8  UNL     1       4.048  -6.007  17.634  1.00  0.00     0.120 C 
HETATM    9  N2  UNL     1       5.165  -5.917  18.527  1.00  0.00    -0.351 N 
ATOM     10  H2  UNL     1       5.037  -6.372  19.431  1.00  0.00     0.163 HD
HETATM   11  C12 UNL     1       6.401  -5.300  18.341  1.00  0.00     0.251 C 
HETATM   12  O4  UNL     1       7.275  -5.289  19.285  1.00  0.00    -0.271 OA
HETATM   13  C13 UNL     1       6.879  -4.603  17.111  1.00  0.00     0.313 C 
HETATM   14  C16 UNL     1       8.150  -5.172  16.580  1.00  0.00     0.045 C 
HETATM   15  C17 UNL     1       8.038  -5.629  15.134  1.00  0.00     0.003 C 
HETATM   16  C18 UNL     1       8.826  -6.908  14.920  1.00  0.00     0.002 C 
HETATM   17  C19 UNL     1       8.237  -8.077  15.623  1.00  0.00     0.020 C 
HETATM   18  C20 UNL     1       7.680  -9.152  14.734  1.00  0.00     0.122 C 
HETATM   19  N4  UNL     1       6.997  -8.656  13.552  1.00  0.00    -0.359 N 
ATOM     20  H4  UNL     1       7.174  -7.701  13.244  1.00  0.00     0.162 HD
HETATM   21  C21 UNL     1       6.081  -9.469  12.806  1.00  0.00     0.240 C 
HETATM   22  O5  UNL     1       6.268  -9.538  11.571  1.00  0.00    -0.271 OA
HETATM   23  C22 UNL     1       4.954 -10.217  13.387  1.00  0.00     0.182 C 
HETATM   24  N5  UNL     1       3.655  -9.564  13.187  1.00  0.00    -0.341 N 
HETATM   25  C26 UNL     1       3.515  -8.586  12.118  1.00  0.00     0.153 C 
HETATM   26  C27 UNL     1       2.525  -9.864  13.993  1.00  0.00     0.243 C 
HETATM   27  O6  UNL     1       1.439 -10.099  13.355  1.00  0.00    -0.271 OA
ENDROOT
BRANCH   8  28
HETATM   28  C9  UNL     1       2.960  -5.051  17.994  1.00  0.00     0.010 C 
HETATM   29  C10 UNL     1       2.330  -5.193  19.149  1.00  0.00     0.106 C 
BRANCH  29  30
HETATM   30  S1  UNL     1       1.041  -4.139  19.679  1.00  0.00     0.161 S 
HETATM   31  C11 UNL     1      -0.508  -5.025  19.616  1.00  0.00     0.166 C 
HETATM   32  O2  UNL     1       0.933  -2.973  18.769  1.00  0.00    -0.224 OA
HETATM   33  O3  UNL     1       1.321  -3.690  21.102  1.00  0.00    -0.224 OA
ENDBRANCH  29  30
ENDBRANCH   8  28
BRANCH  13  34
HETATM   34  N3  UNL     1       7.052  -3.190  17.334  1.00  0.00     0.093 N 
HETATM   35  C14 UNL     1       8.390  -2.712  17.189  1.00  0.00     0.310 C 
HETATM   36  C15 UNL     1       6.388  -2.655  18.469  1.00  0.00     0.310 C 
ENDBRANCH  13  34
BRANCH   1  37
HETATM   37  C2  UNL     1       1.758 -11.162  15.918  1.00  0.00     0.009 C 
HETATM   38  C1  UNL     1       1.806 -12.320  14.984  1.00  0.00     0.012 C 
HETATM   39  C3  UNL     1       0.306 -10.801  16.286  1.00  0.00     0.012 C 
ENDBRANCH   1  37
BRANCH  23  40
HETATM   40  C23 UNL     1       4.991 -11.627  12.891  1.00  0.00     0.009 C 
HETATM   41  C24 UNL     1       6.419 -12.140  13.124  1.00  0.00     0.012 C 
HETATM   42  C25 UNL     1       4.698 -11.785  11.430  1.00  0.00     0.012 C 
ENDBRANCH  23  40
TORSDOF 5
ENDMDL
MODEL 4
REMARK VINA RESULT: -6.959466276      2.648      6.231
REMARK  5 active torsions:
REMARK  status: ('A' for Active; 'I' for Inactive)
REMARK    1  A    between atoms: C2_2  and  C4_4 
REMARK    2  A    between atoms: C8_11  and  C9_12 
REMARK    3  A    between atoms: C10_13  and  S1_14 
REMARK    4  A    between atoms: C13_22  and  N3_23 
REMARK    5  A    between atoms: C22_35  and  C23_36 
ROOT
HETATM    1  C4  UNL     1       5.180  -6.774  15.346  1.00  0.00     0.180 C 
HETATM    2  N1  UNL     1       4.521  -6.391  16.588  1.00  0.00    -0.347 N 
ATOM      3  H1  UNL     1       5.075  -5.829  17.234  1.00  0.00     0.163 HD
HETATM    4  C5  UNL     1       3.221  -6.701  17.003  1.00  0.00     0.224 C 
HETATM    5  O1  UNL     1       3.134  -7.374  18.103  1.00  0.00    -0.273 OA
HETATM    6  C6  UNL     1       1.943  -6.364  16.356  1.00  0.00     0.100 C 
HETATM    7  C7  UNL     1       1.833  -6.646  14.910  1.00  0.00     0.022 C 
HETATM    8  C8  UNL     1       0.776  -7.089  17.044  1.00  0.00     0.120 C 
HETATM    9  N2  UNL     1      -0.432  -6.964  16.285  1.00  0.00    -0.351 N 
ATOM     10  H2  UNL     1      -0.628  -6.028  15.930  1.00  0.00     0.163 HD
HETATM   11  C12 UNL     1      -1.379  -7.934  15.961  1.00  0.00     0.251 C 
HETATM   12  O4  UNL     1      -2.436  -7.621  15.297  1.00  0.00    -0.271 OA
HETATM   13  C13 UNL     1      -1.330  -9.385  16.306  1.00  0.00     0.313 C 
HETATM   14  C16 UNL     1      -1.409 -10.268  15.107  1.00  0.00     0.045 C 
HETATM   15  C17 UNL     1      -0.231 -11.224  14.994  1.00  0.00     0.003 C 
HETATM   16  C18 UNL     1       0.188 -11.380  13.544  1.00  0.00     0.002 C 
HETATM   17  C19 UNL     1       0.783 -10.143  12.976  1.00  0.00     0.020 C 
HETATM   18  C20 UNL     1       2.243 -10.229  12.631  1.00  0.00     0.122 C 
HETATM   19  N4  UNL     1       3.038 -10.992  13.576  1.00  0.00    -0.359 N 
ATOM     20  H4  UNL     1       2.566 -11.637  14.210  1.00  0.00     0.162 HD
HETATM   21  C21 UNL     1       4.465 -10.868  13.645  1.00  0.00     0.240 C 
HETATM   22  O5  UNL     1       5.124 -11.930  13.606  1.00  0.00    -0.271 OA
HETATM   23  C22 UNL     1       5.193  -9.593  13.758  1.00  0.00     0.182 C 
HETATM   24  N5  UNL     1       5.669  -9.311  15.117  1.00  0.00    -0.341 N 
HETATM   25  C26 UNL     1       5.811 -10.412  16.057  1.00  0.00     0.153 C 
HETATM   26  C27 UNL     1       6.008  -7.999  15.542  1.00  0.00     0.243 C 
HETATM   27  O6  UNL     1       7.134  -7.888  16.144  1.00  0.00    -0.271 OA
ENDROOT
BRANCH   8  28
HETATM   28  C9  UNL     1       0.628  -6.561  18.432  1.00  0.00     0.010 C 
HETATM   29  C10 UNL     1      -0.573  -6.215  18.867  1.00  0.00     0.106 C 
BRANCH  29  30
HETATM   30  S1  UNL     1      -0.872  -5.585  20.469  1.00  0.00     0.161 S 
HETATM   31  C11 UNL     1      -2.438  -4.726  20.481  1.00  0.00     0.166 C 
HETATM   32  O2  UNL     1       0.182  -4.609  20.835  1.00  0.00    -0.224 OA
HETATM   33  O3  UNL     1      -0.909  -6.737  21.457  1.00  0.00    -0.224 OA
ENDBRANCH  29  30
ENDBRANCH   8  28
BRANCH  13  34
HETATM   34  N3  UNL     1      -2.376  -9.749  17.228  1.00  0.00     0.093 N 
HETATM   35  C14 UNL     1      -1.968  -9.873  18.591  1.00  0.00     0.310 C 
HETATM   36  C15 UNL     1      -3.238 -10.795  16.806  1.00  0.00     0.310 C 
ENDBRANCH  13  34
BRANCH   1  37
HETATM   37  C2  UNL     1       6.061  -5.651  14.861  1.00  0.00     0.009 C 
HETATM   38  C1  UNL     1       6.580  -4.728  15.906  1.00  0.00     0.012 C 
HETATM   39  C3  UNL     1       5.357  -4.876  13.731  1.00  0.00     0.012 C 
ENDBRANCH   1  37
BRANCH  23  40
HETATM   40  C23 UNL     1       6.279  -9.556  12.730  1.00  0.00     0.009 C 
HETATM   41  C24 UNL     1       5.600  -9.723  11.364  1.00  0.00     0.012 C 
HETATM   42  C25 UNL     1       7.296 -10.648  12.854  1.00  0.00     0.012 C 
ENDBRANCH  23  40
TORSDOF 5
ENDMDL
MODEL 5
REMARK VINA RESULT: -6.867736471      4.131     10.085
REMARK  5 active torsions:
REMARK  status: ('A' for Active; 'I' for Inactive)
REMARK    1  A    between atoms: C2_2  and  C4_4 
REMARK    2  A    between atoms: C8_11  and  C9_12 
REMARK    3  A    between atoms: C10_13  and  S1_14 
REMARK    4  A    between atoms: C13_22  and  N3_23 
REMARK    5  A    between atoms: C22_35  and  C23_36 
ROOT
HETATM    1  C4  UNL     1      -4.203  -5.898  19.147  1.00  0.00     0.180 C 
HETATM    2  N1  UNL     1      -4.059  -7.152  18.419  1.00  0.00    -0.347 N 
ATOM      3  H1  UNL     1      -4.904  -7.717  18.328  1.00  0.00     0.163 HD
HETATM    4  C5  UNL     1      -2.904  -7.676  17.829  1.00  0.00     0.224 C 
HETATM    5  O1  UNL     1      -2.520  -8.824  18.281  1.00  0.00    -0.273 OA
HETATM    6  C6  UNL     1      -2.069  -7.096  16.766  1.00  0.00     0.100 C 
HETATM    7  C7  UNL     1      -1.664  -5.685  16.931  1.00  0.00     0.022 C 
HETATM    8  C8  UNL     1      -0.781  -7.913  16.578  1.00  0.00     0.120 C 
HETATM    9  N2  UNL     1       0.146  -7.232  15.724  1.00  0.00    -0.351 N 
ATOM     10  H2  UNL     1      -0.258  -6.825  14.880  1.00  0.00     0.163 HD
HETATM   11  C12 UNL     1       1.518  -7.044  15.876  1.00  0.00     0.251 C 
HETATM   12  O4  UNL     1       2.200  -6.433  14.972  1.00  0.00    -0.271 OA
HETATM   13  C13 UNL     1       2.362  -7.487  17.026  1.00  0.00     0.313 C 
HETATM   14  C16 UNL     1       3.096  -6.362  17.672  1.00  0.00     0.045 C 
HETATM   15  C17 UNL     1       2.803  -6.237  19.159  1.00  0.00     0.003 C 
HETATM   16  C18 UNL     1       2.721  -4.776  19.562  1.00  0.00     0.002 C 
HETATM   17  C19 UNL     1       1.539  -4.082  18.991  1.00  0.00     0.020 C 
HETATM   18  C20 UNL     1       0.503  -3.644  19.987  1.00  0.00     0.122 C 
HETATM   19  N4  UNL     1       0.280  -4.585  21.070  1.00  0.00    -0.359 N 
ATOM     20  H4  UNL     1       0.987  -5.294  21.262  1.00  0.00     0.162 HD
HETATM   21  C21 UNL     1      -0.904  -4.547  21.878  1.00  0.00     0.240 C 
HETATM   22  O5  UNL     1      -0.739  -4.538  23.118  1.00  0.00    -0.271 OA
HETATM   23  C22 UNL     1      -2.280  -4.518  21.353  1.00  0.00     0.182 C 
HETATM   24  N5  UNL     1      -2.958  -5.817  21.421  1.00  0.00    -0.341 N 
HETATM   25  C26 UNL     1      -2.466  -6.822  22.351  1.00  0.00     0.153 C 
HETATM   26  C27 UNL     1      -4.088  -6.123  20.617  1.00  0.00     0.243 C 
HETATM   27  O6  UNL     1      -5.084  -6.637  21.238  1.00  0.00    -0.271 OA
ENDROOT
BRANCH   8  28
HETATM   28  C9  UNL     1      -1.136  -9.266  16.060  1.00  0.00     0.010 C 
HETATM   29  C10 UNL     1      -1.374  -9.422  14.767  1.00  0.00     0.106 C 
BRANCH  29  30
HETATM   30  S1  UNL     1      -1.799 -10.955  14.044  1.00  0.00     0.161 S 
HETATM   31  C11 UNL     1      -0.380 -11.613  13.183  1.00  0.00     0.166 C 
HETATM   32  O2  UNL     1      -2.883 -10.764  13.050  1.00  0.00    -0.224 OA
HETATM   33  O3  UNL     1      -2.230 -11.916  15.137  1.00  0.00    -0.224 OA
ENDBRANCH  29  30
ENDBRANCH   8  28
BRANCH  13  34
HETATM   34  N3  UNL     1       3.306  -8.502  16.633  1.00  0.00     0.093 N 
HETATM   35  C14 UNL     1       4.600  -8.020  16.270  1.00  0.00     0.310 C 
HETATM   36  C15 UNL     1       2.813  -9.498  15.750  1.00  0.00     0.310 C 
ENDBRANCH  13  34
BRANCH   1  37
HETATM   37  C2  UNL     1      -5.542  -5.274  18.844  1.00  0.00     0.009 C 
HETATM   38  C1  UNL     1      -6.558  -6.171  18.228  1.00  0.00     0.012 C 
HETATM   39  C3  UNL     1      -5.352  -3.992  18.011  1.00  0.00     0.012 C 
ENDBRANCH   1  37
BRANCH  23  40
HETATM   40  C23 UNL     1      -3.039  -3.418  22.025  1.00  0.00     0.009 C 
HETATM   41  C24 UNL     1      -3.817  -4.062  23.182  1.00  0.00     0.012 C 
HETATM   42  C25 UNL     1      -4.040  -2.724  21.153  1.00  0.00     0.012 C 
ENDBRANCH  23  40
TORSDOF 5
ENDMDL
