MODEL 1
REMARK VINA RESULT: -8.083714979      0.000      0.000
REMARK  8 active torsions:
REMARK  status: ('A' for Active; 'I' for Inactive)
REMARK    1  A    between atoms: C2_2  and  C3_3 
REMARK    2  A    between atoms: C10_17  and  O3_18 
REMARK    3  A    between atoms: C11_21  and  O4_22 
REMARK    4  A    between atoms: C12_24  and  C13_25 
REMARK    5  A    between atoms: C13_25  and  C14_26 
REMARK    6  A    between atoms: C18_32  and  C19_33 
REMARK    7  A    between atoms: C23_38  and  O7_39 
REMARK    8  A    between atoms: C24_41  and  C25_42 
ROOT
HETATM    1  C3  UNL     1      -0.481  -7.790  17.242  1.00  0.00     0.106 C 
HETATM    2  N1  UNL     1      -0.568  -6.840  18.244  1.00  0.00    -0.326 N 
ATOM      3  H1  UNL     1       0.130  -6.596  18.949  1.00  0.00     0.165 HD
HETATM    4  C4  UNL     1      -1.896  -6.270  18.053  1.00  0.00     0.317 C 
HETATM    5  O1  UNL     1      -2.548  -5.558  18.884  1.00  0.00    -0.247 OA
HETATM    6  N2  UNL     1      -2.330  -6.675  16.730  1.00  0.00    -0.327 N 
ATOM      7  H2  UNL     1      -3.276  -6.729  16.351  1.00  0.00     0.165 HD
HETATM    8  C5  UNL     1      -1.091  -6.976  16.097  1.00  0.00     0.213 C 
HETATM    9  C6  UNL     1      -0.972  -7.954  15.069  1.00  0.00     0.250 C 
HETATM   10  O2  UNL     1      -1.806  -8.247  14.137  1.00  0.00    -0.271 OA
HETATM   11  N3  UNL     1       0.302  -8.591  15.258  1.00  0.00    -0.315 N 
HETATM   12  C7  UNL     1       1.081  -9.352  14.290  1.00  0.00     0.157 C 
HETATM   13  C8  UNL     1       1.505 -10.670  14.750  1.00  0.00     0.111 C 
HETATM   14  C9  UNL     1       0.373 -11.703  14.457  1.00  0.00     0.081 C 
HETATM   15  C10 UNL     1       1.527 -12.630  14.696  1.00  0.00     0.224 C 
HETATM   16  N4  UNL     1       2.326 -11.533  14.039  1.00  0.00    -0.330 N 
HETATM   17  C11 UNL     1       3.421 -11.437  13.162  1.00  0.00     0.146 C 
HETATM   18  C12 UNL     1       4.202 -10.259  12.850  1.00  0.00     0.206 C 
HETATM   19  O5  UNL     1       4.504  -9.480  13.969  1.00  0.00    -0.306 OA
HETATM   20  C17 UNL     1       5.195  -9.356  15.058  1.00  0.00     0.283 C 
HETATM   21  O6  UNL     1       5.525 -10.236  15.952  1.00  0.00    -0.263 OA
HETATM   22  C18 UNL     1       5.763  -8.014  15.457  1.00  0.00     0.189 C 
HETATM   23  N5  UNL     1       4.976  -6.867  15.242  1.00  0.00    -0.351 N 
HETATM   24  C22 UNL     1       5.738  -5.701  14.705  1.00  0.00     0.152 C 
HETATM   25  C23 UNL     1       3.615  -6.594  15.444  1.00  0.00     0.145 C 
HETATM   26  C24 UNL     1       2.659  -6.662  16.539  1.00  0.00    -0.002 C 
HETATM   27  C28 UNL     1       2.065  -7.943  16.928  1.00  0.00     0.039 C 
HETATM   28  C29 UNL     1       0.698  -8.354  16.630  1.00  0.00     0.046 C 
ENDROOT
BRANCH  18  29
HETATM   29  C13 UNL     1       3.756  -9.464  11.681  1.00  0.00     0.044 C 
BRANCH  29  30
HETATM   30  C14 UNL     1       4.330  -9.729  10.324  1.00  0.00    -0.020 C 
HETATM   31  C15 UNL     1       3.471 -10.845   9.663  1.00  0.00     0.009 C 
HETATM   32  C16 UNL     1       5.732 -10.309  10.371  1.00  0.00     0.009 C 
ENDBRANCH  29  30
ENDBRANCH  18  29
BRANCH  17  33
HETATM   33  O4  UNL     1       3.819 -12.523  12.541  1.00  0.00    -0.347 OA
ATOM     34  H4  UNL     1       3.556 -12.646  11.636  1.00  0.00     0.219 HD
ENDBRANCH  17  33
BRANCH  15  35
HETATM   35  O3  UNL     1       1.850 -12.789  16.037  1.00  0.00    -0.377 OA
ATOM     36  H3  UNL     1       2.378 -13.558  16.215  1.00  0.00     0.212 HD
ENDBRANCH  15  35
BRANCH  22  37
HETATM   37  C19 UNL     1       7.143  -8.032  14.865  1.00  0.00     0.010 C 
HETATM   38  C20 UNL     1       8.183  -8.084  16.017  1.00  0.00     0.012 C 
HETATM   39  C21 UNL     1       7.462  -9.311  14.101  1.00  0.00     0.012 C 
ENDBRANCH  22  37
BRANCH  25  40
HETATM   40  O7  UNL     1       3.103  -6.157  14.313  1.00  0.00    -0.346 OA
ATOM     41  H7  UNL     1       2.223  -6.504  14.225  1.00  0.00     0.219 HD
ENDBRANCH  25  40
BRANCH  26  42
HETATM   42  C25 UNL     1       3.069  -5.797  17.750  1.00  0.00     0.015 C 
HETATM   43  C26 UNL     1       3.466  -6.663  18.917  1.00  0.00     0.015 C 
HETATM   44  C27 UNL     1       2.072  -4.727  18.088  1.00  0.00     0.015 C 
ENDBRANCH  26  42
BRANCH   1  45
HETATM   45  C2  UNL     1      -1.495  -8.888  17.630  1.00  0.00     0.036 C 
HETATM   46  C1  UNL     1      -0.733 -10.182  17.813  1.00  0.00     0.008 C 
ENDBRANCH   1  45
TORSDOF 8
ENDMDL
MODEL 2
REMARK VINA RESULT: -7.698000785      0.886      1.068
REMARK  8 active torsions:
REMARK  status: ('A' for Active; 'I' for Inactive)
REMARK    1  A    between atoms: C2_2  and  C3_3 
REMARK    2  A    between atoms: C10_17  and  O3_18 
REMARK    3  A    between atoms: C11_21  and  O4_22 
REMARK    4  A    between atoms: C12_24  and  C13_25 
REMARK    5  A    between atoms: C13_25  and  C14_26 
REMARK    6  A    between atoms: C18_32  and  C19_33 
REMARK    7  A    between atoms: C23_38  and  O7_39 
REMARK    8  A    between atoms: C24_41  and  C25_42 
ROOT
HETATM    1  C3  UNL     1      -1.083  -8.859  17.256  1.00  0.00     0.106 C 
HETATM    2  N1  UNL     1      -1.288  -7.982  18.306  1.00  0.00    -0.326 N 
ATOM      3  H1  UNL     1      -0.624  -7.683  19.021  1.00  0.00     0.165 HD
HETATM    4  C4  UNL     1      -2.683  -7.588  18.148  1.00  0.00     0.317 C 
HETATM    5  O1  UNL     1      -3.418  -7.014  19.016  1.00  0.00    -0.247 OA
HETATM    6  N2  UNL     1      -3.070  -7.979  16.806  1.00  0.00    -0.327 N 
ATOM      7  H2  UNL     1      -4.003  -8.142  16.426  1.00  0.00     0.165 HD
HETATM    8  C5  UNL     1      -1.808  -8.077  16.156  1.00  0.00     0.213 C 
HETATM    9  C6  UNL     1      -1.567  -8.977  15.078  1.00  0.00     0.250 C 
HETATM   10  O2  UNL     1      -2.363  -9.332  14.134  1.00  0.00    -0.271 OA
HETATM   11  N3  UNL     1      -0.217  -9.444  15.231  1.00  0.00    -0.315 N 
HETATM   12  C7  UNL     1       0.648 -10.043  14.224  1.00  0.00     0.157 C 
HETATM   13  C8  UNL     1       1.251 -11.313  14.613  1.00  0.00     0.111 C 
HETATM   14  C9  UNL     1       0.265 -12.473  14.269  1.00  0.00     0.081 C 
HETATM   15  C10 UNL     1       1.536 -13.247  14.457  1.00  0.00     0.224 C 
HETATM   16  N4  UNL     1       2.174 -12.019  13.857  1.00  0.00    -0.330 N 
HETATM   17  C11 UNL     1       3.238 -11.731  12.983  1.00  0.00     0.146 C 
HETATM   18  C12 UNL     1       3.850 -10.444  12.731  1.00  0.00     0.206 C 
HETATM   19  O5  UNL     1       4.054  -9.690  13.889  1.00  0.00    -0.306 OA
HETATM   20  C17 UNL     1       4.732  -9.530  14.981  1.00  0.00     0.283 C 
HETATM   21  O6  UNL     1       5.186 -10.402  15.828  1.00  0.00    -0.263 OA
HETATM   22  C18 UNL     1       5.118  -8.145  15.448  1.00  0.00     0.189 C 
HETATM   23  N5  UNL     1       4.181  -7.106  15.296  1.00  0.00    -0.351 N 
HETATM   24  C22 UNL     1       4.774  -5.822  14.818  1.00  0.00     0.152 C 
HETATM   25  C23 UNL     1       2.798  -7.030  15.514  1.00  0.00     0.145 C 
HETATM   26  C24 UNL     1       1.869  -7.283  16.605  1.00  0.00    -0.002 C 
HETATM   27  C28 UNL     1       1.457  -8.650  16.929  1.00  0.00     0.039 C 
HETATM   28  C29 UNL     1       0.155  -9.227  16.613  1.00  0.00     0.046 C 
ENDROOT
BRANCH  18  29
HETATM   29  C13 UNL     1       3.290  -9.657  11.606  1.00  0.00     0.044 C 
BRANCH  29  30
HETATM   30  C14 UNL     1       3.853  -9.806  10.227  1.00  0.00    -0.020 C 
HETATM   31  C15 UNL     1       3.070 -10.950   9.523  1.00  0.00     0.009 C 
HETATM   32  C16 UNL     1       5.297 -10.276  10.218  1.00  0.00     0.009 C 
ENDBRANCH  29  30
ENDBRANCH  18  29
BRANCH  17  33
HETATM   33  O4  UNL     1       3.773 -12.720  12.305  1.00  0.00    -0.347 OA
ATOM     34  H4  UNL     1       4.687 -12.652  12.055  1.00  0.00     0.219 HD
ENDBRANCH  17  33
BRANCH  15  35
HETATM   35  O3  UNL     1       1.889 -13.429  15.787  1.00  0.00    -0.377 OA
ATOM     36  H3  UNL     1       2.417 -14.205  15.941  1.00  0.00     0.212 HD
ENDBRANCH  15  35
BRANCH  22  37
HETATM   37  C19 UNL     1       6.482  -7.946  14.854  1.00  0.00     0.010 C 
HETATM   38  C20 UNL     1       7.525  -7.879  16.001  1.00  0.00     0.012 C 
HETATM   39  C21 UNL     1       6.978  -9.144  14.053  1.00  0.00     0.012 C 
ENDBRANCH  22  37
BRANCH  25  40
HETATM   40  O7  UNL     1       2.221  -6.609  14.408  1.00  0.00    -0.346 OA
ATOM     41  H7  UNL     1       2.151  -5.662  14.445  1.00  0.00     0.219 HD
ENDBRANCH  25  40
BRANCH  26  42
HETATM   42  C25 UNL     1       2.170  -6.434  17.859  1.00  0.00     0.015 C 
HETATM   43  C26 UNL     1       2.133  -4.964  17.532  1.00  0.00     0.015 C 
HETATM   44  C27 UNL     1       3.403  -6.870  18.596  1.00  0.00     0.015 C 
ENDBRANCH  26  42
BRANCH   1  45
HETATM   45  C2  UNL     1      -1.937 -10.103  17.589  1.00  0.00     0.036 C 
HETATM   46  C1  UNL     1      -1.009 -11.177  18.110  1.00  0.00     0.008 C 
ENDBRANCH   1  45
TORSDOF 8
ENDMDL
MODEL 3
REMARK VINA RESULT: -7.613972192      2.558      5.963
REMARK  8 active torsions:
REMARK  status: ('A' for Active; 'I' for Inactive)
REMARK    1  A    between atoms: C2_2  and  C3_3 
REMARK    2  A    between atoms: C10_17  and  O3_18 
REMARK    3  A    between atoms: C11_21  and  O4_22 
REMARK    4  A    between atoms: C12_24  and  C13_25 
REMARK    5  A    between atoms: C13_25  and  C14_26 
REMARK    6  A    between atoms: C18_32  and  C19_33 
REMARK    7  A    between atoms: C23_38  and  O7_39 
REMARK    8  A    between atoms: C24_41  and  C25_42 
ROOT
HETATM    1  C3  UNL     1       1.777 -12.222  12.053  1.00  0.00     0.106 C 
HETATM    2  N1  UNL     1       0.447 -12.544  12.256  1.00  0.00    -0.326 N 
ATOM      3  H1  UNL     1      -0.068 -12.580  13.136  1.00  0.00     0.165 HD
HETATM    4  C4  UNL     1      -0.041 -12.821  10.911  1.00  0.00     0.317 C 
HETATM    5  O1  UNL     1      -1.121 -13.421  10.599  1.00  0.00    -0.247 OA
HETATM    6  N2  UNL     1       0.946 -12.280   9.996  1.00  0.00    -0.327 N 
ATOM      7  H2  UNL     1       1.116 -12.518   9.019  1.00  0.00     0.165 HD
HETATM    8  C5  UNL     1       1.614 -11.330  10.819  1.00  0.00     0.213 C 
HETATM    9  C6  UNL     1       2.984 -10.986  10.636  1.00  0.00     0.250 C 
HETATM   10  O2  UNL     1       3.648 -10.880   9.541  1.00  0.00    -0.271 OA
HETATM   11  N3  UNL     1       3.527 -10.767  11.948  1.00  0.00    -0.315 N 
HETATM   12  C7  UNL     1       4.727 -10.026  12.313  1.00  0.00     0.157 C 
HETATM   13  C8  UNL     1       5.658 -10.756  13.168  1.00  0.00     0.111 C 
HETATM   14  C9  UNL     1       6.612 -11.609  12.275  1.00  0.00     0.081 C 
HETATM   15  C10 UNL     1       7.371 -11.622  13.568  1.00  0.00     0.224 C 
HETATM   16  N4  UNL     1       6.818 -10.226  13.713  1.00  0.00    -0.330 N 
HETATM   17  C11 UNL     1       7.259  -8.988  14.213  1.00  0.00     0.146 C 
HETATM   18  C12 UNL     1       6.461  -7.812  14.488  1.00  0.00     0.206 C 
HETATM   19  O5  UNL     1       5.247  -8.099  15.115  1.00  0.00    -0.306 OA
HETATM   20  C17 UNL     1       4.639  -8.471  16.198  1.00  0.00     0.283 C 
HETATM   21  O6  UNL     1       4.966  -9.357  17.087  1.00  0.00    -0.263 OA
HETATM   22  C18 UNL     1       3.324  -7.839  16.594  1.00  0.00     0.189 C 
HETATM   23  N5  UNL     1       2.391  -7.553  15.580  1.00  0.00    -0.351 N 
HETATM   24  C22 UNL     1       1.716  -6.230  15.735  1.00  0.00     0.152 C 
HETATM   25  C23 UNL     1       1.956  -8.268  14.455  1.00  0.00     0.145 C 
HETATM   26  C24 UNL     1       1.391  -9.579  14.170  1.00  0.00    -0.002 C 
HETATM   27  C28 UNL     1       2.251 -10.762  14.114  1.00  0.00     0.039 C 
HETATM   28  C29 UNL     1       2.657 -11.441  12.888  1.00  0.00     0.046 C 
ENDROOT
BRANCH  18  29
HETATM   29  C13 UNL     1       6.338  -6.827  13.387  1.00  0.00     0.044 C 
BRANCH  29  30
HETATM   30  C14 UNL     1       6.220  -5.366  13.691  1.00  0.00    -0.020 C 
HETATM   31  C15 UNL     1       7.095  -5.077  14.944  1.00  0.00     0.009 C 
HETATM   32  C16 UNL     1       4.820  -4.952  14.103  1.00  0.00     0.009 C 
ENDBRANCH  29  30
ENDBRANCH  18  29
BRANCH  17  33
HETATM   33  O4  UNL     1       8.535  -8.844  14.484  1.00  0.00    -0.347 OA
ATOM     34  H4  UNL     1       9.133  -8.680  13.764  1.00  0.00     0.219 HD
ENDBRANCH  17  33
BRANCH  15  35
HETATM   35  O3  UNL     1       6.852 -12.497  14.514  1.00  0.00    -0.377 OA
ATOM     36  H3  UNL     1       6.490 -12.064  15.278  1.00  0.00     0.212 HD
ENDBRANCH  15  35
BRANCH  22  37
HETATM   37  C19 UNL     1       3.739  -6.714  17.497  1.00  0.00     0.010 C 
HETATM   38  C20 UNL     1       3.379  -7.086  18.961  1.00  0.00     0.012 C 
HETATM   39  C21 UNL     1       5.249  -6.528  17.586  1.00  0.00     0.012 C 
ENDBRANCH  22  37
BRANCH  25  40
HETATM   40  O7  UNL     1       2.116  -7.512  13.389  1.00  0.00    -0.346 OA
ATOM     41  H7  UNL     1       2.094  -8.067  12.618  1.00  0.00     0.219 HD
ENDBRANCH  25  40
BRANCH  26  42
HETATM   42  C25 UNL     1       0.064  -9.836  14.916  1.00  0.00     0.015 C 
HETATM   43  C26 UNL     1      -0.912  -8.714  14.674  1.00  0.00     0.015 C 
HETATM   44  C27 UNL     1       0.249 -10.189  16.364  1.00  0.00     0.015 C 
ENDBRANCH  26  42
BRANCH   1  45
HETATM   45  C2  UNL     1       2.451 -13.535  11.597  1.00  0.00     0.036 C 
HETATM   46  C1  UNL     1       2.867 -14.298  12.836  1.00  0.00     0.008 C 
ENDBRANCH   1  45
TORSDOF 8
ENDMDL
MODEL 4
REMARK VINA RESULT: -6.913210902      1.533      1.888
REMARK  8 active torsions:
REMARK  status: ('A' for Active; 'I' for Inactive)
REMARK    1  A    between atoms: C2_2  and  C3_3 
REMARK    2  A    between atoms: C10_17  and  O3_18 
REMARK    3  A    between atoms: C11_21  and  O4_22 
REMARK    4  A    between atoms: C12_24  and  C13_25 
REMARK    5  A    between atoms: C13_25  and  C14_26 
REMARK    6  A    between atoms: C18_32  and  C19_33 
REMARK    7  A    between atoms: C23_38  and  O7_39 
REMARK    8  A    between atoms: C24_41  and  C25_42 
ROOT
HETATM    1  C3  UNL     1      -1.677  -9.218  17.155  1.00  0.00     0.106 C 
HETATM    2  N1  UNL     1      -1.964  -8.209  18.058  1.00  0.00    -0.326 N 
ATOM      3  H1  UNL     1      -1.340  -7.769  18.735  1.00  0.00     0.165 HD
HETATM    4  C4  UNL     1      -3.372  -7.926  17.809  1.00  0.00     0.317 C 
HETATM    5  O1  UNL     1      -4.165  -7.274  18.564  1.00  0.00    -0.247 OA
HETATM    6  N2  UNL     1      -3.694  -8.533  16.532  1.00  0.00    -0.327 N 
ATOM      7  H2  UNL     1      -4.604  -8.804  16.159  1.00  0.00     0.165 HD
HETATM    8  C5  UNL     1      -2.408  -8.651  15.934  1.00  0.00     0.213 C 
HETATM    9  C6  UNL     1      -2.084  -9.684  15.008  1.00  0.00     0.250 C 
HETATM   10  O2  UNL     1      -2.828 -10.221  14.109  1.00  0.00    -0.271 OA
HETATM   11  N3  UNL     1      -0.716 -10.044  15.262  1.00  0.00    -0.315 N 
HETATM   12  C7  UNL     1       0.212 -10.732  14.375  1.00  0.00     0.157 C 
HETATM   13  C8  UNL     1       0.871 -11.893  14.964  1.00  0.00     0.111 C 
HETATM   14  C9  UNL     1      -0.038 -13.148  14.774  1.00  0.00     0.081 C 
HETATM   15  C10 UNL     1       1.266 -13.809  15.105  1.00  0.00     0.224 C 
HETATM   16  N4  UNL     1       1.856 -12.648  14.344  1.00  0.00    -0.330 N 
HETATM   17  C11 UNL     1       2.929 -12.430  13.462  1.00  0.00     0.146 C 
HETATM   18  C12 UNL     1       3.478 -11.160  13.036  1.00  0.00     0.206 C 
HETATM   19  O5  UNL     1       3.603 -10.233  14.072  1.00  0.00    -0.306 OA
HETATM   20  C17 UNL     1       4.236  -9.874  15.145  1.00  0.00     0.283 C 
HETATM   21  O6  UNL     1       4.709 -10.582  16.122  1.00  0.00    -0.263 OA
HETATM   22  C18 UNL     1       4.530  -8.415  15.408  1.00  0.00     0.189 C 
HETATM   23  N5  UNL     1       3.543  -7.467  15.080  1.00  0.00    -0.351 N 
HETATM   24  C22 UNL     1       4.080  -6.234  14.430  1.00  0.00     0.152 C 
HETATM   25  C23 UNL     1       2.152  -7.441  15.252  1.00  0.00     0.145 C 
HETATM   26  C24 UNL     1       1.203  -7.584  16.347  1.00  0.00    -0.002 C 
HETATM   27  C28 UNL     1       0.857  -8.911  16.861  1.00  0.00     0.039 C 
HETATM   28  C29 UNL     1      -0.401  -9.603  16.603  1.00  0.00     0.046 C 
ENDROOT
BRANCH  18  29
HETATM   29  C13 UNL     1       2.912 -10.583  11.793  1.00  0.00     0.044 C 
BRANCH  29  30
HETATM   30  C14 UNL     1       2.336 -11.476  10.739  1.00  0.00    -0.020 C 
HETATM   31  C15 UNL     1       2.508 -10.757   9.371  1.00  0.00     0.009 C 
HETATM   32  C16 UNL     1       0.838 -11.674  10.877  1.00  0.00     0.009 C 
ENDBRANCH  29  30
ENDBRANCH  18  29
BRANCH  17  33
HETATM   33  O4  UNL     1       3.539 -13.475  12.953  1.00  0.00    -0.347 OA
ATOM     34  H4  UNL     1       4.489 -13.484  12.948  1.00  0.00     0.219 HD
ENDBRANCH  17  33
BRANCH  15  35
HETATM   35  O3  UNL     1       1.586 -13.772  16.456  1.00  0.00    -0.377 OA
ATOM     36  H3  UNL     1       0.948 -14.203  17.013  1.00  0.00     0.212 HD
ENDBRANCH  15  35
BRANCH  22  37
HETATM   37  C19 UNL     1       5.900  -8.226  14.823  1.00  0.00     0.010 C 
HETATM   38  C20 UNL     1       6.902  -7.936  15.973  1.00  0.00     0.012 C 
HETATM   39  C21 UNL     1       6.484  -9.495  14.216  1.00  0.00     0.012 C 
ENDBRANCH  22  37
BRANCH  25  40
HETATM   40  O7  UNL     1       1.588  -7.222  14.082  1.00  0.00    -0.346 OA
ATOM     41  H7  UNL     1       1.160  -6.374  14.107  1.00  0.00     0.219 HD
ENDBRANCH  25  40
BRANCH  26  42
HETATM   42  C25 UNL     1       1.417  -6.543  17.466  1.00  0.00     0.015 C 
HETATM   43  C26 UNL     1       1.107  -5.154  16.973  1.00  0.00     0.015 C 
HETATM   44  C27 UNL     1       2.745  -6.669  18.157  1.00  0.00     0.015 C 
ENDBRANCH  26  42
BRANCH   1  45
HETATM   45  C2  UNL     1      -2.472 -10.447  17.649  1.00  0.00     0.036 C 
HETATM   46  C1  UNL     1      -1.567 -11.251  18.557  1.00  0.00     0.008 C 
ENDBRANCH   1  45
TORSDOF 8
ENDMDL
MODEL 5
REMARK VINA RESULT: -6.892718159      1.894      6.412
REMARK  8 active torsions:
REMARK  status: ('A' for Active; 'I' for Inactive)
REMARK    1  A    between atoms: C2_2  and  C3_3 
REMARK    2  A    between atoms: C10_17  and  O3_18 
REMARK    3  A    between atoms: C11_21  and  O4_22 
REMARK    4  A    between atoms: C12_24  and  C13_25 
REMARK    5  A    between atoms: C13_25  and  C14_26 
REMARK    6  A    between atoms: C18_32  and  C19_33 
REMARK    7  A    between atoms: C23_38  and  O7_39 
REMARK    8  A    between atoms: C24_41  and  C25_42 
ROOT
HETATM    1  C3  UNL     1       1.497 -12.383  14.056  1.00  0.00     0.106 C 
HETATM    2  N1  UNL     1       2.169 -13.319  13.290  1.00  0.00    -0.326 N 
ATOM      3  H1  UNL     1       2.835 -13.157  12.534  1.00  0.00     0.165 HD
HETATM    4  C4  UNL     1       1.696 -14.592  13.821  1.00  0.00     0.317 C 
HETATM    5  O1  UNL     1       1.808 -15.736  13.274  1.00  0.00    -0.247 OA
HETATM    6  N2  UNL     1       1.070 -14.297  15.096  1.00  0.00    -0.327 N 
ATOM      7  H2  UNL     1       0.386 -14.844  15.619  1.00  0.00     0.165 HD
HETATM    8  C5  UNL     1       1.661 -13.046  15.428  1.00  0.00     0.213 C 
HETATM    9  C6  UNL     1       0.988 -12.062  16.209  1.00  0.00     0.250 C 
HETATM   10  O2  UNL     1       0.188 -12.231  17.198  1.00  0.00    -0.271 OA
HETATM   11  N3  UNL     1       1.376 -10.785  15.676  1.00  0.00    -0.315 N 
HETATM   12  C7  UNL     1       1.308  -9.482  16.323  1.00  0.00     0.157 C 
HETATM   13  C8  UNL     1       0.627  -8.450  15.548  1.00  0.00     0.111 C 
HETATM   14  C9  UNL     1      -0.906  -8.526  15.830  1.00  0.00     0.081 C 
HETATM   15  C10 UNL     1      -0.813  -7.162  15.215  1.00  0.00     0.224 C 
HETATM   16  N4  UNL     1       0.520  -7.118  15.920  1.00  0.00    -0.330 N 
HETATM   17  C11 UNL     1       1.302  -6.162  16.591  1.00  0.00     0.146 C 
HETATM   18  C12 UNL     1       2.690  -6.274  16.983  1.00  0.00     0.206 C 
HETATM   19  O5  UNL     1       3.499  -6.850  16.001  1.00  0.00    -0.306 OA
HETATM   20  C17 UNL     1       4.084  -6.716  14.851  1.00  0.00     0.283 C 
HETATM   21  O6  UNL     1       3.676  -6.148  13.759  1.00  0.00    -0.263 OA
HETATM   22  C18 UNL     1       5.470  -7.274  14.627  1.00  0.00     0.189 C 
HETATM   23  N5  UNL     1       5.787  -8.521  15.197  1.00  0.00    -0.351 N 
HETATM   24  C22 UNL     1       7.148  -8.580  15.807  1.00  0.00     0.152 C 
HETATM   25  C23 UNL     1       5.082  -9.729  15.297  1.00  0.00     0.145 C 
HETATM   26  C24 UNL     1       4.419 -10.662  14.397  1.00  0.00    -0.002 C 
HETATM   27  C28 UNL     1       3.082 -10.369  13.878  1.00  0.00     0.039 C 
HETATM   28  C29 UNL     1       1.853 -11.012  14.328  1.00  0.00     0.046 C 
ENDROOT
BRANCH  18  29
HETATM   29  C13 UNL     1       2.951  -6.799  18.344  1.00  0.00     0.044 C 
BRANCH  29  30
HETATM   30  C14 UNL     1       3.227  -5.859  19.476  1.00  0.00    -0.020 C 
HETATM   31  C15 UNL     1       1.867  -5.253  19.924  1.00  0.00     0.009 C 
HETATM   32  C16 UNL     1       4.059  -4.658  19.066  1.00  0.00     0.009 C 
ENDBRANCH  29  30
ENDBRANCH  18  29
BRANCH  17  33
HETATM   33  O4  UNL     1       0.747  -5.015  16.908  1.00  0.00    -0.347 OA
ATOM     34  H4  UNL     1       0.663  -4.795  17.829  1.00  0.00     0.219 HD
ENDBRANCH  17  33
BRANCH  15  35
HETATM   35  O3  UNL     1      -0.680  -7.179  13.833  1.00  0.00    -0.377 OA
ATOM     36  H3  UNL     1      -1.419  -6.800  13.372  1.00  0.00     0.212 HD
ENDBRANCH  15  35
BRANCH  22  37
HETATM   37  C19 UNL     1       6.366  -6.113  14.949  1.00  0.00     0.010 C 
HETATM   38  C20 UNL     1       6.200  -5.029  13.851  1.00  0.00     0.012 C 
HETATM   39  C21 UNL     1       5.951  -5.351  16.202  1.00  0.00     0.012 C 
ENDBRANCH  22  37
BRANCH  25  40
HETATM   40  O7  UNL     1       5.033 -10.083  16.564  1.00  0.00    -0.346 OA
ATOM     41  H7  UNL     1       5.706 -10.734  16.723  1.00  0.00     0.219 HD
ENDBRANCH  25  40
BRANCH  26  42
HETATM   42  C25 UNL     1       5.367 -11.239  13.325  1.00  0.00     0.015 C 
HETATM   43  C26 UNL     1       6.646 -11.732  13.949  1.00  0.00     0.015 C 
HETATM   44  C27 UNL     1       5.568 -10.327  12.149  1.00  0.00     0.015 C 
ENDBRANCH  26  42
BRANCH   1  45
HETATM   45  C2  UNL     1       0.012 -12.511  13.649  1.00  0.00     0.036 C 
HETATM   46  C1  UNL     1      -0.184 -11.738  12.363  1.00  0.00     0.008 C 
ENDBRANCH   1  45
TORSDOF 8
ENDMDL
