MODEL 1
REMARK VINA RESULT: -6.881003975      0.000      0.000
REMARK  8 active torsions:
REMARK  status: ('A' for Active; 'I' for Inactive)
REMARK    1  A    between atoms: O1_2  and  N1_3 
REMARK    2  A    between atoms: C2_5  and  C3_6 
REMARK    3  A    between atoms: C2_5  and  C13_22 
REMARK       I    between atoms: C3_6  and  N2_8 
REMARK    4  A    between atoms: N2_8  and  C4_10 
REMARK    5  A    between atoms: C7_13  and  N3_14 
REMARK    6  A    between atoms: C13_22  and  C14_24 
REMARK    7  A    between atoms: C14_24  and  O4_25 
REMARK    8  A    between atoms: C14_24  and  C15_27 
ROOT
HETATM    1  C3  UNL     1       5.090  -6.896  15.748  1.00  0.00     0.278 C 
HETATM    2  O2  UNL     1       4.785  -7.724  16.700  1.00  0.00    -0.265 OA
HETATM    3  N2  UNL     1       4.601  -5.587  15.873  1.00  0.00    -0.322 N 
ATOM      4  H2  UNL     1       4.834  -4.912  15.144  1.00  0.00     0.169 HD
ENDROOT
BRANCH   1   5
HETATM    5  C2  UNL     1       5.896  -7.461  14.694  1.00  0.00     0.171 C 
HETATM    6  N1  UNL     1       7.087  -6.965  14.492  1.00  0.00    -0.258 N 
ATOM      7  H1  UNL     1       7.663  -7.359  13.748  1.00  0.00     0.194 HD
BRANCH   6   8
HETATM    8  O1  UNL     1       7.576  -5.966  15.220  1.00  0.00    -0.285 OA
HETATM    9  C1  UNL     1       8.926  -5.672  15.475  1.00  0.00     0.237 C 
ENDBRANCH   6   8
BRANCH   5  10
HETATM   10  C13 UNL     1       5.433  -8.554  13.856  1.00  0.00     0.216 C 
HETATM   11  O3  UNL     1       5.976  -9.670  13.933  1.00  0.00    -0.287 OA
BRANCH  10  12
HETATM   12  C14 UNL     1       4.317  -8.452  12.880  1.00  0.00     0.248 C 
BRANCH  12  13
HETATM   13  O4  UNL     1       4.191  -7.087  12.460  1.00  0.00    -0.383 OA
ATOM     14  H4  UNL     1       3.735  -7.063  11.627  1.00  0.00     0.210 HD
ENDBRANCH  12  13
BRANCH  12  15
HETATM   15  C15 UNL     1       2.962  -8.780  13.469  1.00  0.00     0.221 C 
HETATM   16 CL1  UNL     1       2.005  -7.307  13.747  1.00  0.00    -0.080 Cl
HETATM   17 CL2  UNL     1       2.051  -9.749  12.247  1.00  0.00    -0.080 Cl
HETATM   18 CL3  UNL     1       3.056  -9.773  14.911  1.00  0.00    -0.080 Cl
ENDBRANCH  12  15
ENDBRANCH  10  12
ENDBRANCH   5  10
ENDBRANCH   1   5
BRANCH   3  19
HETATM   19  C4  UNL     1       3.798  -5.154  16.963  1.00  0.00     0.035 A 
HETATM   20  C5  UNL     1       4.285  -4.675  18.143  1.00  0.00     0.032 A 
HETATM   21  C6  UNL     1       3.390  -4.247  19.113  1.00  0.00     0.034 A 
HETATM   22  C7  UNL     1       2.033  -4.304  18.894  1.00  0.00     0.056 A 
HETATM   23  C11 UNL     1       1.530  -4.790  17.703  1.00  0.00     0.034 A 
HETATM   24  C12 UNL     1       2.413  -5.209  16.751  1.00  0.00     0.032 A 
BRANCH  22  25
HETATM   25  N3  UNL     1       1.119  -3.864  19.894  1.00  0.00    -0.268 N 
HETATM   26  C8  UNL     1      -0.078  -4.433  20.101  1.00  0.00     0.118 A 
HETATM   27  C9  UNL     1      -0.709  -3.758  21.148  1.00  0.00     0.038 A 
HETATM   28  C10 UNL     1       0.175  -2.774  21.537  1.00  0.00     0.109 A 
HETATM   29  N4  UNL     1       1.275  -2.870  20.751  1.00  0.00    -0.305 N 
ATOM     30  H4  UNL     1       2.096  -2.267  20.811  1.00  0.00     0.186 HD
ENDBRANCH  22  25
ENDBRANCH   3  19
TORSDOF 8
ENDMDL
MODEL 2
REMARK VINA RESULT: -6.858368909      0.741      1.200
REMARK  8 active torsions:
REMARK  status: ('A' for Active; 'I' for Inactive)
REMARK    1  A    between atoms: O1_2  and  N1_3 
REMARK    2  A    between atoms: C2_5  and  C3_6 
REMARK    3  A    between atoms: C2_5  and  C13_22 
REMARK       I    between atoms: C3_6  and  N2_8 
REMARK    4  A    between atoms: N2_8  and  C4_10 
REMARK    5  A    between atoms: C7_13  and  N3_14 
REMARK    6  A    between atoms: C13_22  and  C14_24 
REMARK    7  A    between atoms: C14_24  and  O4_25 
REMARK    8  A    between atoms: C14_24  and  C15_27 
ROOT
HETATM    1  C3  UNL     1       5.456  -7.026  15.876  1.00  0.00     0.278 C 
HETATM    2  O2  UNL     1       5.016  -7.859  16.768  1.00  0.00    -0.265 OA
HETATM    3  N2  UNL     1       5.028  -5.695  15.992  1.00  0.00    -0.322 N 
ATOM      4  H2  UNL     1       5.365  -5.016  15.310  1.00  0.00     0.169 HD
ENDROOT
BRANCH   1   5
HETATM    5  C2  UNL     1       6.330  -7.608  14.887  1.00  0.00     0.171 C 
HETATM    6  N1  UNL     1       7.366  -6.918  14.493  1.00  0.00    -0.258 N 
ATOM      7  H1  UNL     1       7.988  -7.322  13.794  1.00  0.00     0.194 HD
BRANCH   6   8
HETATM    8  O1  UNL     1       7.638  -5.707  14.970  1.00  0.00    -0.285 OA
HETATM    9  C1  UNL     1       8.816  -5.284  15.609  1.00  0.00     0.237 C 
ENDBRANCH   6   8
BRANCH   5  10
HETATM   10  C13 UNL     1       6.099  -8.925  14.318  1.00  0.00     0.216 C 
HETATM   11  O3  UNL     1       6.455  -9.941  14.939  1.00  0.00    -0.287 OA
BRANCH  10  12
HETATM   12  C14 UNL     1       5.442  -9.174  13.008  1.00  0.00     0.248 C 
BRANCH  12  13
HETATM   13  O4  UNL     1       5.819  -8.135  12.096  1.00  0.00    -0.383 OA
ATOM     14  H4  UNL     1       6.495  -7.602  12.498  1.00  0.00     0.210 HD
ENDBRANCH  12  13
BRANCH  12  15
HETATM   15  C15 UNL     1       3.931  -9.086  13.059  1.00  0.00     0.221 C 
HETATM   16 CL1  UNL     1       3.303  -9.646  14.626  1.00  0.00    -0.080 Cl
HETATM   17 CL2  UNL     1       3.478  -7.343  12.929  1.00  0.00    -0.080 Cl
HETATM   18 CL3  UNL     1       3.146  -9.899  11.718  1.00  0.00    -0.080 Cl
ENDBRANCH  12  15
ENDBRANCH  10  12
ENDBRANCH   5  10
ENDBRANCH   1   5
BRANCH   3  19
HETATM   19  C4  UNL     1       4.147  -5.246  17.014  1.00  0.00     0.035 A 
HETATM   20  C5  UNL     1       4.545  -4.745  18.218  1.00  0.00     0.032 A 
HETATM   21  C6  UNL     1       3.581  -4.304  19.112  1.00  0.00     0.034 A 
HETATM   22  C7  UNL     1       2.244  -4.367  18.796  1.00  0.00     0.056 A 
HETATM   23  C11 UNL     1       1.829  -4.873  17.580  1.00  0.00     0.034 A 
HETATM   24  C12 UNL     1       2.780  -5.306  16.702  1.00  0.00     0.032 A 
BRANCH  22  25
HETATM   25  N3  UNL     1       1.259  -3.912  19.719  1.00  0.00    -0.268 N 
HETATM   26  C8  UNL     1       0.069  -4.510  19.881  1.00  0.00     0.118 A 
HETATM   27  C9  UNL     1      -0.645  -3.809  20.857  1.00  0.00     0.038 A 
HETATM   28  C10 UNL     1       0.185  -2.781  21.250  1.00  0.00     0.109 A 
HETATM   29  N4  UNL     1       1.333  -2.876  20.536  1.00  0.00    -0.305 N 
ATOM     30  H4  UNL     1       2.131  -2.245  20.616  1.00  0.00     0.186 HD
ENDBRANCH  22  25
ENDBRANCH   3  19
TORSDOF 8
ENDMDL
MODEL 3
REMARK VINA RESULT: -6.811684251      2.457      3.237
REMARK  8 active torsions:
REMARK  status: ('A' for Active; 'I' for Inactive)
REMARK    1  A    between atoms: O1_2  and  N1_3 
REMARK    2  A    between atoms: C2_5  and  C3_6 
REMARK    3  A    between atoms: C2_5  and  C13_22 
REMARK       I    between atoms: C3_6  and  N2_8 
REMARK    4  A    between atoms: N2_8  and  C4_10 
REMARK    5  A    between atoms: C7_13  and  N3_14 
REMARK    6  A    between atoms: C13_22  and  C14_24 
REMARK    7  A    between atoms: C14_24  and  O4_25 
REMARK    8  A    between atoms: C14_24  and  C15_27 
ROOT
HETATM    1  C3  UNL     1       5.460  -4.977  16.864  1.00  0.00     0.278 C 
HETATM    2  O2  UNL     1       4.439  -5.023  16.064  1.00  0.00    -0.265 OA
HETATM    3  N2  UNL     1       5.191  -4.683  18.209  1.00  0.00    -0.322 N 
ATOM      4  H2  UNL     1       5.974  -4.650  18.863  1.00  0.00     0.169 HD
ENDROOT
BRANCH   1   5
HETATM    5  C2  UNL     1       6.731  -5.238  16.235  1.00  0.00     0.171 C 
HETATM    6  N1  UNL     1       7.743  -4.472  16.542  1.00  0.00    -0.258 N 
ATOM      7  H1  UNL     1       8.645  -4.650  16.101  1.00  0.00     0.194 HD
BRANCH   6   8
HETATM    8  O1  UNL     1       7.639  -3.470  17.409  1.00  0.00    -0.285 OA
HETATM    9  C1  UNL     1       7.723  -2.093  17.140  1.00  0.00     0.237 C 
ENDBRANCH   6   8
BRANCH   5  10
HETATM   10  C13 UNL     1       6.923  -6.315  15.278  1.00  0.00     0.216 C 
HETATM   11  O3  UNL     1       6.520  -6.187  14.109  1.00  0.00    -0.287 OA
BRANCH  10  12
HETATM   12  C14 UNL     1       7.590  -7.606  15.586  1.00  0.00     0.248 C 
BRANCH  12  13
HETATM   13  O4  UNL     1       8.519  -7.912  14.538  1.00  0.00    -0.383 OA
ATOM     14  H4  UNL     1       9.099  -8.604  14.833  1.00  0.00     0.210 HD
ENDBRANCH  12  13
BRANCH  12  15
HETATM   15  C15 UNL     1       6.647  -8.791  15.595  1.00  0.00     0.221 C 
HETATM   16 CL1  UNL     1       6.493  -9.506  13.973  1.00  0.00    -0.080 Cl
HETATM   17 CL2  UNL     1       7.379 -10.069  16.641  1.00  0.00    -0.080 Cl
HETATM   18 CL3  UNL     1       5.081  -8.423  16.293  1.00  0.00    -0.080 Cl
ENDBRANCH  12  15
ENDBRANCH  10  12
ENDBRANCH   5  10
ENDBRANCH   1   5
BRANCH   3  19
HETATM   19  C4  UNL     1       3.884  -4.430  18.707  1.00  0.00     0.035 A 
HETATM   20  C5  UNL     1       2.789  -5.199  18.441  1.00  0.00     0.032 A 
HETATM   21  C6  UNL     1       1.577  -4.862  19.024  1.00  0.00     0.034 A 
HETATM   22  C7  UNL     1       1.473  -3.773  19.857  1.00  0.00     0.056 A 
HETATM   23  C11 UNL     1       2.575  -2.987  20.133  1.00  0.00     0.034 A 
HETATM   24  C12 UNL     1       3.766  -3.321  19.558  1.00  0.00     0.032 A 
BRANCH  22  25
HETATM   25  N3  UNL     1       0.224  -3.433  20.453  1.00  0.00    -0.268 N 
HETATM   26  C8  UNL     1      -0.875  -4.194  20.346  1.00  0.00     0.118 A 
HETATM   27  C9  UNL     1      -1.911  -3.568  21.044  1.00  0.00     0.038 A 
HETATM   28  C10 UNL     1      -1.362  -2.412  21.557  1.00  0.00     0.109 A 
HETATM   29  N4  UNL     1      -0.062  -2.365  21.177  1.00  0.00    -0.305 N 
ATOM     30  H4  UNL     1       0.594  -1.619  21.412  1.00  0.00     0.186 HD
ENDBRANCH  22  25
ENDBRANCH   3  19
TORSDOF 8
ENDMDL
MODEL 4
REMARK VINA RESULT: -6.803289351      0.984      1.421
REMARK  8 active torsions:
REMARK  status: ('A' for Active; 'I' for Inactive)
REMARK    1  A    between atoms: O1_2  and  N1_3 
REMARK    2  A    between atoms: C2_5  and  C3_6 
REMARK    3  A    between atoms: C2_5  and  C13_22 
REMARK       I    between atoms: C3_6  and  N2_8 
REMARK    4  A    between atoms: N2_8  and  C4_10 
REMARK    5  A    between atoms: C7_13  and  N3_14 
REMARK    6  A    between atoms: C13_22  and  C14_24 
REMARK    7  A    between atoms: C14_24  and  O4_25 
REMARK    8  A    between atoms: C14_24  and  C15_27 
ROOT
HETATM    1  C3  UNL     1       5.168  -7.013  16.168  1.00  0.00     0.278 C 
HETATM    2  O2  UNL     1       4.720  -7.779  17.115  1.00  0.00    -0.265 OA
HETATM    3  N2  UNL     1       4.635  -5.717  16.103  1.00  0.00    -0.322 N 
ATOM      4  H2  UNL     1       4.976  -5.089  15.375  1.00  0.00     0.169 HD
ENDROOT
BRANCH   1   5
HETATM    5  C2  UNL     1       6.159  -7.624  15.317  1.00  0.00     0.171 C 
HETATM    6  N1  UNL     1       7.122  -6.875  14.851  1.00  0.00    -0.258 N 
ATOM      7  H1  UNL     1       7.826  -7.299  14.248  1.00  0.00     0.194 HD
BRANCH   6   8
HETATM    8  O1  UNL     1       7.218  -5.580  15.135  1.00  0.00    -0.285 OA
HETATM    9  C1  UNL     1       8.339  -4.891  15.627  1.00  0.00     0.237 C 
ENDBRANCH   6   8
BRANCH   5  10
HETATM   10  C13 UNL     1       6.123  -9.033  14.962  1.00  0.00     0.216 C 
HETATM   11  O3  UNL     1       6.470  -9.891  15.790  1.00  0.00    -0.287 OA
BRANCH  10  12
HETATM   12  C14 UNL     1       5.684  -9.557  13.642  1.00  0.00     0.248 C 
BRANCH  12  13
HETATM   13  O4  UNL     1       6.311  -8.791  12.606  1.00  0.00    -0.383 OA
ATOM     14  H4  UNL     1       5.639  -8.438  12.035  1.00  0.00     0.210 HD
ENDBRANCH  12  13
BRANCH  12  15
HETATM   15  C15 UNL     1       4.203  -9.383  13.380  1.00  0.00     0.221 C 
HETATM   16 CL1  UNL     1       3.857  -7.792  12.665  1.00  0.00    -0.080 Cl
HETATM   17 CL2  UNL     1       3.715 -10.607  12.146  1.00  0.00    -0.080 Cl
HETATM   18 CL3  UNL     1       3.210  -9.688  14.794  1.00  0.00    -0.080 Cl
ENDBRANCH  12  15
ENDBRANCH  10  12
ENDBRANCH   5  10
ENDBRANCH   1   5
BRANCH   3  19
HETATM   19  C4  UNL     1       3.644  -5.234  17.001  1.00  0.00     0.035 A 
HETATM   20  C5  UNL     1       2.300  -5.308  16.786  1.00  0.00     0.032 A 
HETATM   21  C6  UNL     1       1.438  -4.834  17.764  1.00  0.00     0.034 A 
HETATM   22  C7  UNL     1       1.925  -4.298  18.934  1.00  0.00     0.056 A 
HETATM   23  C11 UNL     1       3.285  -4.218  19.162  1.00  0.00     0.034 A 
HETATM   24  C12 UNL     1       4.130  -4.685  18.197  1.00  0.00     0.032 A 
BRANCH  22  25
HETATM   25  N3  UNL     1       1.035  -3.813  19.935  1.00  0.00    -0.268 N 
HETATM   26  C8  UNL     1      -0.193  -4.315  20.135  1.00  0.00     0.118 A 
HETATM   27  C9  UNL     1      -0.789  -3.612  21.185  1.00  0.00     0.038 A 
HETATM   28  C10 UNL     1       0.149  -2.682  21.582  1.00  0.00     0.109 A 
HETATM   29  N4  UNL     1       1.244  -2.835  20.799  1.00  0.00    -0.305 N 
ATOM     30  H4  UNL     1       2.098  -2.281  20.865  1.00  0.00     0.186 HD
ENDBRANCH  22  25
ENDBRANCH   3  19
TORSDOF 8
ENDMDL
MODEL 5
REMARK VINA RESULT: -6.773975598      1.707      2.322
REMARK  8 active torsions:
REMARK  status: ('A' for Active; 'I' for Inactive)
REMARK    1  A    between atoms: O1_2  and  N1_3 
REMARK    2  A    between atoms: C2_5  and  C3_6 
REMARK    3  A    between atoms: C2_5  and  C13_22 
REMARK       I    between atoms: C3_6  and  N2_8 
REMARK    4  A    between atoms: N2_8  and  C4_10 
REMARK    5  A    between atoms: C7_13  and  N3_14 
REMARK    6  A    between atoms: C13_22  and  C14_24 
REMARK    7  A    between atoms: C14_24  and  O4_25 
REMARK    8  A    between atoms: C14_24  and  C15_27 
ROOT
HETATM    1  C3  UNL     1       4.091  -6.173  17.232  1.00  0.00     0.278 C 
HETATM    2  O2  UNL     1       3.888  -6.868  18.310  1.00  0.00    -0.265 OA
HETATM    3  N2  UNL     1       3.370  -4.975  17.112  1.00  0.00    -0.322 N 
ATOM      4  H2  UNL     1       3.516  -4.403  16.280  1.00  0.00     0.169 HD
ENDROOT
BRANCH   1   5
HETATM    5  C2  UNL     1       5.039  -6.750  16.312  1.00  0.00     0.171 C 
HETATM    6  N1  UNL     1       6.099  -6.056  15.997  1.00  0.00    -0.258 N 
ATOM      7  H1  UNL     1       6.773  -6.457  15.347  1.00  0.00     0.194 HD
BRANCH   6   8
HETATM    8  O1  UNL     1       6.330  -4.845  16.495  1.00  0.00    -0.285 OA
HETATM    9  C1  UNL     1       7.311  -4.476  17.430  1.00  0.00     0.237 C 
ENDBRANCH   6   8
BRANCH   5  10
HETATM   10  C13 UNL     1       4.856  -8.068  15.726  1.00  0.00     0.216 C 
HETATM   11  O3  UNL     1       5.845  -8.777  15.471  1.00  0.00    -0.287 OA
BRANCH  10  12
HETATM   12  C14 UNL     1       3.537  -8.669  15.399  1.00  0.00     0.248 C 
BRANCH  12  13
HETATM   13  O4  UNL     1       3.729 -10.043  15.041  1.00  0.00    -0.383 OA
ATOM     14  H4  UNL     1       4.420 -10.409  15.581  1.00  0.00     0.210 HD
ENDBRANCH  12  13
BRANCH  12  15
HETATM   15  C15 UNL     1       2.879  -8.062  14.178  1.00  0.00     0.221 C 
HETATM   16 CL1  UNL     1       4.091  -7.487  13.009  1.00  0.00    -0.080 Cl
HETATM   17 CL2  UNL     1       1.955  -9.370  13.344  1.00  0.00    -0.080 Cl
HETATM   18 CL3  UNL     1       1.714  -6.811  14.570  1.00  0.00    -0.080 Cl
ENDBRANCH  12  15
ENDBRANCH  10  12
ENDBRANCH   5  10
ENDBRANCH   1   5
BRANCH   3  19
HETATM   19  C4  UNL     1       2.447  -4.518  18.093  1.00  0.00     0.035 A 
HETATM   20  C5  UNL     1       1.130  -4.866  18.140  1.00  0.00     0.032 A 
HETATM   21  C6  UNL     1       0.345  -4.380  19.175  1.00  0.00     0.034 A 
HETATM   22  C7  UNL     1       0.881  -3.560  20.141  1.00  0.00     0.056 A 
HETATM   23  C11 UNL     1       2.214  -3.201  20.102  1.00  0.00     0.034 A 
HETATM   24  C12 UNL     1       2.983  -3.681  19.082  1.00  0.00     0.032 A 
BRANCH  22  25
HETATM   25  N3  UNL     1       0.070  -3.064  21.202  1.00  0.00    -0.268 N 
HETATM   26  C8  UNL     1      -1.218  -3.403  21.366  1.00  0.00     0.118 A 
HETATM   27  C9  UNL     1      -1.706  -2.740  22.494  1.00  0.00     0.038 A 
HETATM   28  C10 UNL     1      -0.644  -2.004  22.975  1.00  0.00     0.109 A 
HETATM   29  N4  UNL     1       0.418  -2.226  22.163  1.00  0.00    -0.305 N 
ATOM     30  H4  UNL     1       1.343  -1.811  22.276  1.00  0.00     0.186 HD
ENDBRANCH  22  25
ENDBRANCH   3  19
TORSDOF 8
ENDMDL
