MODEL 1
REMARK VINA RESULT: -6.307215359      0.000      0.000
REMARK  6 active torsions:
REMARK  status: ('A' for Active; 'I' for Inactive)
REMARK    1  A    between atoms: O1_2  and  C2_3 
REMARK    2  A    between atoms: C2_3  and  C3_5 
REMARK    3  A    between atoms: C3_5  and  S1_6 
REMARK    4  A    between atoms: S1_6  and  C4_7 
REMARK    5  A    between atoms: N2_13  and  C7_15 
REMARK    6  A    between atoms: C7_15  and  C8_19 
ROOT
HETATM    1  C4  UNL     1       2.215  -5.792  17.694  1.00  0.00     0.117 A 
HETATM    2  N1  UNL     1       2.006  -6.991  17.386  1.00  0.00    -0.310 N 
ATOM      3  H1  UNL     1       1.318  -7.538  17.904  1.00  0.00     0.170 HD
HETATM    4  C5  UNL     1       2.706  -7.569  16.350  1.00  0.00     0.280 A 
HETATM    5  O3  UNL     1       2.544  -8.785  15.983  1.00  0.00    -0.265 OA
HETATM    6  C6  UNL     1       3.664  -6.709  15.672  1.00  0.00     0.147 A 
HETATM    7  N2  UNL     1       4.446  -6.947  14.695  1.00  0.00    -0.333 N 
ATOM      8  H2  UNL     1       4.477  -7.864  14.247  1.00  0.00     0.168 HD
HETATM    9  S2  UNL     1       3.462  -5.155  16.593  1.00  0.00    -0.042 SA
ENDROOT
BRANCH   7  10
HETATM   10  C7  UNL     1       5.288  -5.858  14.248  1.00  0.00     0.099 C 
HETATM   11  N3  UNL     1       4.755  -4.824  13.732  1.00  0.00    -0.385 N 
ATOM     12  H32 UNL     1       3.748  -4.714  13.612  1.00  0.00     0.157 HD
ATOM     13  H31 UNL     1       5.349  -4.056  13.417  1.00  0.00     0.157 HD
BRANCH  10  14
HETATM   14  C8  UNL     1       6.715  -6.014  14.418  1.00  0.00     0.050 C 
HETATM   15  C9  UNL     1       7.368  -5.380  15.365  1.00  0.00    -0.084 C 
HETATM   16  C10 UNL     1       6.775  -4.458  16.347  1.00  0.00     0.043 C 
HETATM   17  C11 UNL     1       8.863  -5.656  15.408  1.00  0.00     0.043 C 
ENDBRANCH  10  14
ENDBRANCH   7  10
BRANCH   1  18
HETATM   18  S1  UNL     1       1.431  -4.861  18.983  1.00  0.00    -0.095 SA
BRANCH  18  19
HETATM   19  C3  UNL     1       2.693  -3.885  19.886  1.00  0.00     0.192 C 
BRANCH  19  20
HETATM   20  C2  UNL     1       2.735  -2.513  19.348  1.00  0.00     0.268 C 
HETATM   21  O2  UNL     1       1.920  -2.169  18.456  1.00  0.00    -0.264 OA
BRANCH  20  22
HETATM   22  O1  UNL     1       3.643  -1.578  19.790  1.00  0.00    -0.326 OA
HETATM   23  C1  UNL     1       5.007  -1.909  19.839  1.00  0.00     0.213 C 
ENDBRANCH  20  22
ENDBRANCH  19  20
ENDBRANCH  18  19
ENDBRANCH   1  18
TORSDOF 6
ENDMDL
MODEL 2
REMARK VINA RESULT: -6.172645150      2.820      4.396
REMARK  6 active torsions:
REMARK  status: ('A' for Active; 'I' for Inactive)
REMARK    1  A    between atoms: O1_2  and  C2_3 
REMARK    2  A    between atoms: C2_3  and  C3_5 
REMARK    3  A    between atoms: C3_5  and  S1_6 
REMARK    4  A    between atoms: S1_6  and  C4_7 
REMARK    5  A    between atoms: N2_13  and  C7_15 
REMARK    6  A    between atoms: C7_15  and  C8_19 
ROOT
HETATM    1  C4  UNL     1       2.039  -6.661  16.538  1.00  0.00     0.117 A 
HETATM    2  N1  UNL     1       2.185  -5.751  17.390  1.00  0.00    -0.310 N 
ATOM      3  H1  UNL     1       1.491  -5.627  18.127  1.00  0.00     0.170 HD
HETATM    4  C5  UNL     1       3.280  -4.919  17.329  1.00  0.00     0.280 A 
HETATM    5  O3  UNL     1       3.492  -3.970  18.164  1.00  0.00    -0.265 OA
HETATM    6  C6  UNL     1       4.214  -5.173  16.243  1.00  0.00     0.147 A 
HETATM    7  N2  UNL     1       5.301  -4.588  15.928  1.00  0.00    -0.333 N 
ATOM      8  H2  UNL     1       5.657  -3.798  16.466  1.00  0.00     0.168 HD
HETATM    9  S2  UNL     1       3.422  -6.586  15.418  1.00  0.00    -0.042 SA
ENDROOT
BRANCH   7  10
HETATM   10  C7  UNL     1       6.007  -5.094  14.770  1.00  0.00     0.099 C 
HETATM   11  N3  UNL     1       5.626  -4.755  13.604  1.00  0.00    -0.385 N 
ATOM     12  H32 UNL     1       4.835  -4.133  13.433  1.00  0.00     0.157 HD
ATOM     13  H31 UNL     1       6.124  -5.112  12.788  1.00  0.00     0.157 HD
BRANCH  10  14
HETATM   14  C8  UNL     1       7.127  -5.975  15.013  1.00  0.00     0.050 C 
HETATM   15  C9  UNL     1       8.278  -5.519  15.453  1.00  0.00    -0.084 C 
HETATM   16  C10 UNL     1       8.587  -4.111  15.749  1.00  0.00     0.043 C 
HETATM   17  C11 UNL     1       9.351  -6.578  15.658  1.00  0.00     0.043 C 
ENDBRANCH  10  14
ENDBRANCH   7  10
BRANCH   1  18
HETATM   18  S1  UNL     1       0.713  -7.833  16.434  1.00  0.00    -0.095 SA
BRANCH  18  19
HETATM   19  C3  UNL     1      -0.837  -7.057  17.032  1.00  0.00     0.192 C 
BRANCH  19  20
HETATM   20  C2  UNL     1      -1.318  -6.081  16.036  1.00  0.00     0.268 C 
HETATM   21  O2  UNL     1      -1.462  -4.877  16.366  1.00  0.00    -0.264 OA
BRANCH  20  22
HETATM   22  O1  UNL     1      -1.619  -6.439  14.742  1.00  0.00    -0.326 OA
HETATM   23  C1  UNL     1      -2.727  -7.265  14.495  1.00  0.00     0.213 C 
ENDBRANCH  20  22
ENDBRANCH  19  20
ENDBRANCH  18  19
ENDBRANCH   1  18
TORSDOF 6
ENDMDL
MODEL 3
REMARK VINA RESULT: -6.162111378      4.152      7.737
REMARK  6 active torsions:
REMARK  status: ('A' for Active; 'I' for Inactive)
REMARK    1  A    between atoms: O1_2  and  C2_3 
REMARK    2  A    between atoms: C2_3  and  C3_5 
REMARK    3  A    between atoms: C3_5  and  S1_6 
REMARK    4  A    between atoms: S1_6  and  C4_7 
REMARK    5  A    between atoms: N2_13  and  C7_15 
REMARK    6  A    between atoms: C7_15  and  C8_19 
ROOT
HETATM    1  C4  UNL     1       4.607  -7.365  13.157  1.00  0.00     0.117 A 
HETATM    2  N1  UNL     1       5.702  -6.753  13.164  1.00  0.00    -0.310 N 
ATOM      3  H1  UNL     1       6.285  -6.743  12.327  1.00  0.00     0.170 HD
HETATM    4  C5  UNL     1       6.118  -6.096  14.300  1.00  0.00     0.280 A 
HETATM    5  O3  UNL     1       7.223  -5.452  14.378  1.00  0.00    -0.265 OA
HETATM    6  C6  UNL     1       5.219  -6.166  15.441  1.00  0.00     0.147 A 
HETATM    7  N2  UNL     1       5.321  -5.669  16.610  1.00  0.00    -0.333 N 
ATOM      8  H2  UNL     1       6.132  -5.115  16.885  1.00  0.00     0.168 HD
HETATM    9  S2  UNL     1       3.864  -7.171  14.765  1.00  0.00    -0.042 SA
ENDROOT
BRANCH   7  10
HETATM   10  C7  UNL     1       4.233  -5.927  17.529  1.00  0.00     0.099 C 
HETATM   11  N3  UNL     1       4.173  -7.045  18.134  1.00  0.00    -0.385 N 
ATOM     12  H32 UNL     1       4.862  -7.787  18.006  1.00  0.00     0.157 HD
ATOM     13  H31 UNL     1       3.407  -7.227  18.782  1.00  0.00     0.157 HD
BRANCH  10  14
HETATM   14  C8  UNL     1       3.258  -4.875  17.710  1.00  0.00     0.050 C 
HETATM   15  C9  UNL     1       3.417  -3.936  18.615  1.00  0.00    -0.084 C 
HETATM   16  C10 UNL     1       4.557  -3.820  19.539  1.00  0.00     0.043 C 
HETATM   17  C11 UNL     1       2.301  -2.906  18.673  1.00  0.00     0.043 C 
ENDBRANCH  10  14
ENDBRANCH   7  10
BRANCH   1  18
HETATM   18  S1  UNL     1       3.888  -8.269  11.812  1.00  0.00    -0.095 SA
BRANCH  18  19
HETATM   19  C3  UNL     1       5.001  -9.647  11.340  1.00  0.00     0.192 C 
BRANCH  19  20
HETATM   20  C2  UNL     1       5.858  -9.229  10.215  1.00  0.00     0.268 C 
HETATM   21  O2  UNL     1       6.640  -8.257  10.358  1.00  0.00    -0.264 OA
BRANCH  20  22
HETATM   22  O1  UNL     1       5.837  -9.870   8.997  1.00  0.00    -0.326 OA
HETATM   23  C1  UNL     1       6.193 -11.226   8.925  1.00  0.00     0.213 C 
ENDBRANCH  20  22
ENDBRANCH  19  20
ENDBRANCH  18  19
ENDBRANCH   1  18
TORSDOF 6
ENDMDL
MODEL 4
REMARK VINA RESULT: -6.140064568      3.484      6.942
REMARK  6 active torsions:
REMARK  status: ('A' for Active; 'I' for Inactive)
REMARK    1  A    between atoms: O1_2  and  C2_3 
REMARK    2  A    between atoms: C2_3  and  C3_5 
REMARK    3  A    between atoms: C3_5  and  S1_6 
REMARK    4  A    between atoms: S1_6  and  C4_7 
REMARK    5  A    between atoms: N2_13  and  C7_15 
REMARK    6  A    between atoms: C7_15  and  C8_19 
ROOT
HETATM    1  C4  UNL     1       5.344  -5.210  17.065  1.00  0.00     0.117 A 
HETATM    2  N1  UNL     1       6.050  -4.631  17.926  1.00  0.00    -0.310 N 
ATOM      3  H1  UNL     1       7.055  -4.800  17.959  1.00  0.00     0.170 HD
HETATM    4  C5  UNL     1       5.468  -3.768  18.828  1.00  0.00     0.280 A 
HETATM    5  O3  UNL     1       6.127  -3.144  19.732  1.00  0.00    -0.265 OA
HETATM    6  C6  UNL     1       4.030  -3.592  18.703  1.00  0.00     0.147 A 
HETATM    7  N2  UNL     1       3.220  -2.874  19.374  1.00  0.00    -0.333 N 
ATOM      8  H2  UNL     1       3.539  -2.291  20.149  1.00  0.00     0.168 HD
HETATM    9  S2  UNL     1       3.658  -4.685  17.299  1.00  0.00    -0.042 SA
ENDROOT
BRANCH   7  10
HETATM   10  C7  UNL     1       1.825  -2.921  18.989  1.00  0.00     0.099 C 
HETATM   11  N3  UNL     1       1.323  -1.957  18.328  1.00  0.00    -0.385 N 
ATOM     12  H32 UNL     1       1.857  -1.133  18.047  1.00  0.00     0.157 HD
ATOM     13  H31 UNL     1       0.340  -1.991  18.056  1.00  0.00     0.157 HD
BRANCH  10  14
HETATM   14  C8  UNL     1       1.070  -4.088  19.386  1.00  0.00     0.050 C 
HETATM   15  C9  UNL     1       0.331  -4.093  20.473  1.00  0.00    -0.084 C 
HETATM   16  C10 UNL     1       0.171  -2.966  21.406  1.00  0.00     0.043 C 
HETATM   17  C11 UNL     1      -0.400  -5.398  20.745  1.00  0.00     0.043 C 
ENDBRANCH  10  14
ENDBRANCH   7  10
BRANCH   1  18
HETATM   18  S1  UNL     1       5.887  -6.351  15.821  1.00  0.00    -0.095 SA
BRANCH  18  19
HETATM   19  C3  UNL     1       7.015  -5.494  14.657  1.00  0.00     0.192 C 
BRANCH  19  20
HETATM   20  C2  UNL     1       8.306  -5.232  15.320  1.00  0.00     0.268 C 
HETATM   21  O2  UNL     1       8.497  -4.131  15.895  1.00  0.00    -0.264 OA
BRANCH  20  22
HETATM   22  O1  UNL     1       9.324  -6.157  15.338  1.00  0.00    -0.326 OA
HETATM   23  C1  UNL     1      10.657  -5.716  15.348  1.00  0.00     0.213 C 
ENDBRANCH  20  22
ENDBRANCH  19  20
ENDBRANCH  18  19
ENDBRANCH   1  18
TORSDOF 6
ENDMDL
MODEL 5
REMARK VINA RESULT: -6.103510056      2.809      4.660
REMARK  6 active torsions:
REMARK  status: ('A' for Active; 'I' for Inactive)
REMARK    1  A    between atoms: O1_2  and  C2_3 
REMARK    2  A    between atoms: C2_3  and  C3_5 
REMARK    3  A    between atoms: C3_5  and  S1_6 
REMARK    4  A    between atoms: S1_6  and  C4_7 
REMARK    5  A    between atoms: N2_13  and  C7_15 
REMARK    6  A    between atoms: C7_15  and  C8_19 
ROOT
HETATM    1  C4  UNL     1       3.405  -6.614  15.663  1.00  0.00     0.117 A 
HETATM    2  N1  UNL     1       3.693  -5.981  14.619  1.00  0.00    -0.310 N 
ATOM      3  H1  UNL     1       3.160  -6.139  13.764  1.00  0.00     0.170 HD
HETATM    4  C5  UNL     1       4.728  -5.073  14.626  1.00  0.00     0.280 A 
HETATM    5  O3  UNL     1       5.077  -4.393  13.598  1.00  0.00    -0.265 OA
HETATM    6  C6  UNL     1       5.428  -4.916  15.891  1.00  0.00     0.147 A 
HETATM    7  N2  UNL     1       6.409  -4.167  16.210  1.00  0.00    -0.333 N 
ATOM      8  H2  UNL     1       6.843  -3.539  15.533  1.00  0.00     0.168 HD
HETATM    9  S2  UNL     1       4.527  -6.091  16.945  1.00  0.00    -0.042 SA
ENDROOT
BRANCH   7  10
HETATM   10  C7  UNL     1       6.879  -4.249  17.577  1.00  0.00     0.099 C 
HETATM   11  N3  UNL     1       7.986  -4.824  17.826  1.00  0.00    -0.385 N 
ATOM     12  H32 UNL     1       8.576  -5.240  17.104  1.00  0.00     0.157 HD
ATOM     13  H31 UNL     1       8.318  -4.882  18.790  1.00  0.00     0.157 HD
BRANCH  10  14
HETATM   14  C8  UNL     1       6.044  -3.659  18.599  1.00  0.00     0.050 C 
HETATM   15  C9  UNL     1       6.213  -2.418  18.995  1.00  0.00    -0.084 C 
HETATM   16  C10 UNL     1       7.232  -1.486  18.483  1.00  0.00     0.043 C 
HETATM   17  C11 UNL     1       5.251  -1.952  20.075  1.00  0.00     0.043 C 
ENDBRANCH  10  14
ENDBRANCH   7  10
BRANCH   1  18
HETATM   18  S1  UNL     1       2.121  -7.819  15.871  1.00  0.00    -0.095 SA
BRANCH  18  19
HETATM   19  C3  UNL     1       0.629  -7.008  16.561  1.00  0.00     0.192 C 
BRANCH  19  20
HETATM   20  C2  UNL     1       0.268  -5.845  15.730  1.00  0.00     0.268 C 
HETATM   21  O2  UNL     1       0.400  -5.908  14.482  1.00  0.00    -0.264 OA
BRANCH  20  22
HETATM   22  O1  UNL     1      -0.214  -4.676  16.271  1.00  0.00    -0.326 OA
HETATM   23  C1  UNL     1       0.384  -4.153  17.429  1.00  0.00     0.213 C 
ENDBRANCH  20  22
ENDBRANCH  19  20
ENDBRANCH  18  19
ENDBRANCH   1  18
TORSDOF 6
ENDMDL
