MODEL 1
REMARK VINA RESULT: -7.590163628      0.000      0.000
REMARK  4 active torsions:
REMARK  status: ('A' for Active; 'I' for Inactive)
REMARK    1  A    between atoms: C6_8  and  O3_9 
REMARK    2  A    between atoms: O3_9  and  C7_10 
REMARK    3  A    between atoms: C13_17  and  C15_19 
REMARK    4  A    between atoms: C17_21  and  O5_22 
ROOT
HETATM    1  C1  UNL     1       2.123  -8.195  16.075  1.00  0.00     0.028 C 
HETATM    2  C2  UNL     1       3.047  -7.272  15.978  1.00  0.00     0.045 C 
HETATM    3  C3  UNL     1       3.516  -6.690  14.736  1.00  0.00     0.292 C 
HETATM    4  O1  UNL     1       3.249  -7.076  13.581  1.00  0.00    -0.259 OA
HETATM    5  O2  UNL     1       4.327  -5.613  15.059  1.00  0.00    -0.300 OA
HETATM    6  C4  UNL     1       4.852  -5.756  16.367  1.00  0.00     0.129 C 
HETATM    7  C5  UNL     1       6.138  -6.580  16.207  1.00  0.00     0.053 C 
HETATM    8  C6  UNL     1       5.143  -4.457  16.985  1.00  0.00     0.170 C 
HETATM    9  C9  UNL     1       4.823  -4.299  18.423  1.00  0.00     0.041 C 
HETATM   10  C10 UNL     1       3.581  -4.948  18.907  1.00  0.00     0.003 C 
HETATM   11  C11 UNL     1       2.925  -5.899  17.984  1.00  0.00     0.034 C 
HETATM   12  C12 UNL     1       2.047  -4.816  17.498  1.00  0.00     0.018 C 
HETATM   13  C13 UNL     1       2.319  -4.117  18.814  1.00  0.00    -0.040 C 
HETATM   14  C14 UNL     1       2.571  -2.649  18.732  1.00  0.00     0.015 C 
HETATM   15  C17 UNL     1       3.825  -6.603  17.045  1.00  0.00     0.128 C 
ENDROOT
BRANCH   8  16
HETATM   16  O3  UNL     1       6.552  -4.203  16.835  1.00  0.00    -0.313 OA
BRANCH  16  17
HETATM   17  C7  UNL     1       7.302  -3.521  17.747  1.00  0.00     0.255 C 
HETATM   18  C8  UNL     1       7.430  -2.022  17.654  1.00  0.00     0.126 C 
HETATM   19  O4  UNL     1       7.878  -4.174  18.656  1.00  0.00    -0.266 OA
ENDBRANCH  16  17
ENDBRANCH   8  16
BRANCH  15  20
HETATM   20  O5  UNL     1       4.494  -7.588  17.780  1.00  0.00    -0.381 OA
ATOM     21  H5  UNL     1       5.322  -7.226  18.074  1.00  0.00     0.211 HD
ENDBRANCH  15  20
BRANCH  13  22
HETATM   22  C15 UNL     1       1.311  -4.560  19.840  1.00  0.00     0.005 C 
HETATM   23  C16 UNL     1       0.767  -3.397  20.642  1.00  0.00     0.006 C 
ENDBRANCH  13  22
TORSDOF 4
ENDMDL
MODEL 2
REMARK VINA RESULT: -7.507721569      2.044      5.594
REMARK  4 active torsions:
REMARK  status: ('A' for Active; 'I' for Inactive)
REMARK    1  A    between atoms: C6_8  and  O3_9 
REMARK    2  A    between atoms: O3_9  and  C7_10 
REMARK    3  A    between atoms: C13_17  and  C15_19 
REMARK    4  A    between atoms: C17_21  and  O5_22 
ROOT
HETATM    1  C1  UNL     1       4.315  -3.690  19.729  1.00  0.00     0.028 C 
HETATM    2  C2  UNL     1       3.765  -4.293  18.705  1.00  0.00     0.045 C 
HETATM    3  C3  UNL     1       2.572  -3.842  18.016  1.00  0.00     0.292 C 
HETATM    4  O1  UNL     1       1.800  -2.932  18.374  1.00  0.00    -0.259 OA
HETATM    5  O2  UNL     1       2.435  -4.611  16.870  1.00  0.00    -0.300 OA
HETATM    6  C4  UNL     1       3.109  -5.849  17.015  1.00  0.00     0.129 C 
HETATM    7  C5  UNL     1       2.098  -6.794  17.680  1.00  0.00     0.053 C 
HETATM    8  C6  UNL     1       3.547  -6.388  15.722  1.00  0.00     0.170 C 
HETATM    9  C9  UNL     1       4.880  -7.033  15.668  1.00  0.00     0.041 C 
HETATM   10  C10 UNL     1       5.957  -6.412  16.476  1.00  0.00     0.003 C 
HETATM   11  C11 UNL     1       5.546  -5.378  17.450  1.00  0.00     0.034 C 
HETATM   12  C12 UNL     1       5.830  -4.329  16.451  1.00  0.00     0.018 C 
HETATM   13  C13 UNL     1       6.757  -5.326  15.788  1.00  0.00    -0.040 C 
HETATM   14  C14 UNL     1       6.695  -5.385  14.299  1.00  0.00     0.015 C 
HETATM   15  C17 UNL     1       4.182  -5.528  18.002  1.00  0.00     0.128 C 
ENDROOT
BRANCH   8  16
HETATM   16  O3  UNL     1       2.584  -7.371  15.304  1.00  0.00    -0.313 OA
BRANCH  16  17
HETATM   17  C7  UNL     1       1.804  -7.248  14.192  1.00  0.00     0.255 C 
HETATM   18  C8  UNL     1       0.541  -6.428  14.240  1.00  0.00     0.126 C 
HETATM   19  O4  UNL     1       2.169  -7.833  13.139  1.00  0.00    -0.266 OA
ENDBRANCH  16  17
ENDBRANCH   8  16
BRANCH  15  20
HETATM   20  O5  UNL     1       4.232  -6.566  18.939  1.00  0.00    -0.381 OA
ATOM     21  H5  UNL     1       4.166  -7.390  18.472  1.00  0.00     0.211 HD
ENDBRANCH  15  20
BRANCH  13  22
HETATM   22  C15 UNL     1       8.133  -5.215  16.390  1.00  0.00     0.005 C 
HETATM   23  C16 UNL     1       9.221  -5.515  15.381  1.00  0.00     0.006 C 
ENDBRANCH  13  22
TORSDOF 4
ENDMDL
MODEL 3
REMARK VINA RESULT: -7.201162988      2.156      3.493
REMARK  4 active torsions:
REMARK  status: ('A' for Active; 'I' for Inactive)
REMARK    1  A    between atoms: C6_8  and  O3_9 
REMARK    2  A    between atoms: O3_9  and  C7_10 
REMARK    3  A    between atoms: C13_17  and  C15_19 
REMARK    4  A    between atoms: C17_21  and  O5_22 
ROOT
HETATM    1  C1  UNL     1       4.097  -7.176  13.418  1.00  0.00     0.028 C 
HETATM    2  C2  UNL     1       4.109  -6.455  14.512  1.00  0.00     0.045 C 
HETATM    3  C3  UNL     1       4.810  -5.196  14.671  1.00  0.00     0.292 C 
HETATM    4  O1  UNL     1       5.628  -4.690  13.879  1.00  0.00    -0.259 OA
HETATM    5  O2  UNL     1       4.408  -4.644  15.878  1.00  0.00    -0.300 OA
HETATM    6  C4  UNL     1       3.928  -5.650  16.753  1.00  0.00     0.129 C 
HETATM    7  C5  UNL     1       5.166  -6.177  17.493  1.00  0.00     0.053 C 
HETATM    8  C6  UNL     1       2.943  -5.122  17.705  1.00  0.00     0.170 C 
HETATM    9  C9  UNL     1       1.770  -5.973  18.014  1.00  0.00     0.041 C 
HETATM   10  C10 UNL     1       1.192  -6.748  16.892  1.00  0.00     0.003 C 
HETATM   11  C11 UNL     1       1.983  -6.804  15.644  1.00  0.00     0.034 C 
HETATM   12  C12 UNL     1       1.220  -5.658  15.112  1.00  0.00     0.018 C 
HETATM   13  C13 UNL     1       0.123  -6.044  16.082  1.00  0.00    -0.040 C 
HETATM   14  C14 UNL     1      -0.534  -4.917  16.806  1.00  0.00     0.015 C 
HETATM   15  C17 UNL     1       3.449  -6.706  15.813  1.00  0.00     0.128 C 
ENDROOT
BRANCH   8  16
HETATM   16  O3  UNL     1       3.622  -4.868  18.948  1.00  0.00    -0.313 OA
BRANCH  16  17
HETATM   17  C7  UNL     1       3.704  -3.638  19.532  1.00  0.00     0.255 C 
HETATM   18  C8  UNL     1       2.507  -3.052  20.235  1.00  0.00     0.126 C 
HETATM   19  O4  UNL     1       4.797  -3.018  19.466  1.00  0.00    -0.266 OA
ENDBRANCH  16  17
ENDBRANCH   8  16
BRANCH  15  20
HETATM   20  O5  UNL     1       3.890  -7.944  16.293  1.00  0.00    -0.381 OA
ATOM     21  H5  UNL     1       3.555  -8.621  15.717  1.00  0.00     0.211 HD
ENDBRANCH  15  20
BRANCH  13  22
HETATM   22  C15 UNL     1      -0.799  -7.042  15.433  1.00  0.00     0.005 C 
HETATM   23  C16 UNL     1      -2.253  -6.762  15.749  1.00  0.00     0.006 C 
ENDBRANCH  13  22
TORSDOF 4
ENDMDL
MODEL 4
REMARK VINA RESULT: -7.104193698      2.181      5.276
REMARK  4 active torsions:
REMARK  status: ('A' for Active; 'I' for Inactive)
REMARK    1  A    between atoms: C6_8  and  O3_9 
REMARK    2  A    between atoms: O3_9  and  C7_10 
REMARK    3  A    between atoms: C13_17  and  C15_19 
REMARK    4  A    between atoms: C17_21  and  O5_22 
ROOT
HETATM    1  C1  UNL     1       1.862  -4.342  19.019  1.00  0.00     0.028 C 
HETATM    2  C2  UNL     1       1.876  -4.991  17.882  1.00  0.00     0.045 C 
HETATM    3  C3  UNL     1       0.931  -4.796  16.800  1.00  0.00     0.292 C 
HETATM    4  O1  UNL     1      -0.118  -4.124  16.835  1.00  0.00    -0.259 OA
HETATM    5  O2  UNL     1       1.401  -5.499  15.701  1.00  0.00    -0.300 OA
HETATM    6  C4  UNL     1       2.266  -6.545  16.110  1.00  0.00     0.129 C 
HETATM    7  C5  UNL     1       1.353  -7.747  16.394  1.00  0.00     0.053 C 
HETATM    8  C6  UNL     1       3.251  -6.876  15.073  1.00  0.00     0.170 C 
HETATM    9  C9  UNL     1       4.632  -7.177  15.517  1.00  0.00     0.041 C 
HETATM   10  C10 UNL     1       5.165  -6.370  16.639  1.00  0.00     0.003 C 
HETATM   11  C11 UNL     1       4.194  -5.531  17.375  1.00  0.00     0.034 C 
HETATM   12  C12 UNL     1       4.543  -4.381  16.517  1.00  0.00     0.018 C 
HETATM   13  C13 UNL     1       5.861  -5.080  16.256  1.00  0.00    -0.040 C 
HETATM   14  C14 UNL     1       6.344  -5.054  14.845  1.00  0.00     0.015 C 
HETATM   15  C17 UNL     1       2.806  -6.040  17.407  1.00  0.00     0.128 C 
ENDROOT
BRANCH   8  16
HETATM   16  O3  UNL     1       2.773  -8.033  14.364  1.00  0.00    -0.313 OA
BRANCH  16  17
HETATM   17  C7  UNL     1       3.009  -8.266  13.041  1.00  0.00     0.255 C 
HETATM   18  C8  UNL     1       2.393  -9.460  12.360  1.00  0.00     0.126 C 
HETATM   19  O4  UNL     1       3.750  -7.463  12.417  1.00  0.00    -0.266 OA
ENDBRANCH  16  17
ENDBRANCH   8  16
BRANCH  15  20
HETATM   20  O5  UNL     1       2.778  -7.094  18.326  1.00  0.00    -0.381 OA
ATOM     21  H5  UNL     1       3.524  -7.657  18.154  1.00  0.00     0.211 HD
ENDBRANCH  15  20
BRANCH  13  22
HETATM   22  C15 UNL     1       6.862  -4.681  17.307  1.00  0.00     0.005 C 
HETATM   23  C16 UNL     1       8.266  -4.585  16.747  1.00  0.00     0.006 C 
ENDBRANCH  13  22
TORSDOF 4
ENDMDL
MODEL 5
REMARK VINA RESULT: -7.041060841      2.285      4.623
REMARK  4 active torsions:
REMARK  status: ('A' for Active; 'I' for Inactive)
REMARK    1  A    between atoms: C6_8  and  O3_9 
REMARK    2  A    between atoms: O3_9  and  C7_10 
REMARK    3  A    between atoms: C13_17  and  C15_19 
REMARK    4  A    between atoms: C17_21  and  O5_22 
ROOT
HETATM    1  C1  UNL     1       2.444  -8.267  13.458  1.00  0.00     0.028 C 
HETATM    2  C2  UNL     1       2.293  -7.846  14.688  1.00  0.00     0.045 C 
HETATM    3  C3  UNL     1       1.856  -8.666  15.801  1.00  0.00     0.292 C 
HETATM    4  O1  UNL     1       1.405  -9.826  15.743  1.00  0.00    -0.259 OA
HETATM    5  O2  UNL     1       2.029  -7.924  16.960  1.00  0.00    -0.300 OA
HETATM    6  C4  UNL     1       2.035  -6.537  16.670  1.00  0.00     0.129 C 
HETATM    7  C5  UNL     1       0.562  -6.103  16.701  1.00  0.00     0.053 C 
HETATM    8  C6  UNL     1       2.819  -5.777  17.651  1.00  0.00     0.170 C 
HETATM    9  C9  UNL     1       3.660  -4.669  17.140  1.00  0.00     0.041 C 
HETATM   10  C10 UNL     1       4.340  -4.889  15.842  1.00  0.00     0.003 C 
HETATM   11  C11 UNL     1       3.917  -6.072  15.061  1.00  0.00     0.034 C 
HETATM   12  C12 UNL     1       5.018  -6.855  15.656  1.00  0.00     0.018 C 
HETATM   13  C13 UNL     1       5.710  -5.532  15.913  1.00  0.00    -0.040 C 
HETATM   14  C14 UNL     1       6.372  -5.391  17.242  1.00  0.00     0.015 C 
HETATM   15  C17 UNL     1       2.514  -6.496  15.257  1.00  0.00     0.128 C 
ENDROOT
BRANCH   8  16
HETATM   16  O3  UNL     1       1.903  -5.209  18.604  1.00  0.00    -0.313 OA
BRANCH  16  17
HETATM   17  C7  UNL     1       2.006  -3.940  19.095  1.00  0.00     0.255 C 
HETATM   18  C8  UNL     1       1.241  -2.814  18.451  1.00  0.00     0.126 C 
HETATM   19  O4  UNL     1       2.752  -3.745  20.089  1.00  0.00    -0.266 OA
ENDBRANCH  16  17
ENDBRANCH   8  16
BRANCH  15  20
HETATM   20  O5  UNL     1       1.710  -5.592  14.554  1.00  0.00    -0.381 OA
ATOM     21  H5  UNL     1       2.280  -4.982  14.100  1.00  0.00     0.211 HD
ENDBRANCH  15  20
BRANCH  13  22
HETATM   22  C15 UNL     1       6.540  -5.153  14.715  1.00  0.00     0.005 C 
HETATM   23  C16 UNL     1       7.984  -4.888  15.086  1.00  0.00     0.006 C 
ENDBRANCH  13  22
TORSDOF 4
ENDMDL
