MODEL 1
REMARK VINA RESULT: -7.011944793      0.000      0.000
REMARK  4 active torsions:
REMARK  status: ('A' for Active; 'I' for Inactive)
REMARK    1  A    between atoms: C2_2  and  C3_3 
REMARK    2  A    between atoms: C14_16  and  O3_17 
REMARK    3  A    between atoms: C15_19  and  O4_20 
REMARK    4  A    between atoms: O4_20  and  C16_21 
ROOT
HETATM    1  C3  UNL     1       4.987  -5.047  17.496  1.00  0.00     0.052 C 
HETATM    2  C4  UNL     1       5.079  -6.516  17.220  1.00  0.00     0.189 C 
HETATM    3  C5  UNL     1       4.024  -7.117  18.127  1.00  0.00     0.005 C 
HETATM    4  C6  UNL     1       2.842  -6.509  17.882  1.00  0.00    -0.013 C 
HETATM    5  C7  UNL     1       2.691  -5.431  16.864  1.00  0.00     0.033 C 
HETATM    6  C8  UNL     1       1.211  -5.143  16.961  1.00  0.00     0.019 C 
HETATM    7  C9  UNL     1       0.562  -6.494  16.632  1.00  0.00     0.009 C 
HETATM    8  C10 UNL     1       1.266  -7.468  15.791  1.00  0.00     0.021 C 
HETATM    9  C11 UNL     1       1.068  -8.904  16.311  1.00  0.00     0.013 C 
HETATM   10  C12 UNL     1       2.645  -7.239  15.309  1.00  0.00     0.122 C 
HETATM   11  C13 UNL     1       2.808  -7.547  13.807  1.00  0.00     0.052 C 
HETATM   12  O1  UNL     1       3.716  -7.807  15.922  1.00  0.00    -0.226 OA
HETATM   13  O2  UNL     1       4.775  -6.982  15.994  1.00  0.00    -0.230 OA
HETATM   14  C14 UNL     1       2.818  -5.750  15.416  1.00  0.00     0.170 C 
HETATM   15  C15 UNL     1       3.666  -4.385  17.188  1.00  0.00     0.153 C 
ENDROOT
BRANCH  15  16
HETATM   16  O4  UNL     1       3.281  -3.407  18.097  1.00  0.00    -0.315 OA
BRANCH  16  17
HETATM   17  C16 UNL     1       3.422  -3.386  19.445  1.00  0.00     0.255 C 
HETATM   18  C17 UNL     1       4.564  -2.645  20.039  1.00  0.00     0.126 C 
HETATM   19  O5  UNL     1       2.573  -3.999  20.100  1.00  0.00    -0.266 OA
ENDBRANCH  16  17
ENDBRANCH  15  16
BRANCH   1  20
HETATM   20  C2  UNL     1       6.171  -4.254  17.002  1.00  0.00     0.006 C 
HETATM   21  C1  UNL     1       7.254  -4.229  18.091  1.00  0.00     0.006 C 
ENDBRANCH   1  20
BRANCH  14  22
HETATM   22  O3  UNL     1       3.876  -5.206  14.731  1.00  0.00    -0.391 OA
ATOM     23  H3  UNL     1       4.199  -5.674  13.970  1.00  0.00     0.210 HD
ENDBRANCH  14  22
TORSDOF 4
ENDMDL
MODEL 2
REMARK VINA RESULT: -6.773612961      1.719      2.259
REMARK  4 active torsions:
REMARK  status: ('A' for Active; 'I' for Inactive)
REMARK    1  A    between atoms: C2_2  and  C3_3 
REMARK    2  A    between atoms: C14_16  and  O3_17 
REMARK    3  A    between atoms: C15_19  and  O4_20 
REMARK    4  A    between atoms: O4_20  and  C16_21 
ROOT
HETATM    1  C3  UNL     1       6.173  -5.862  16.427  1.00  0.00     0.052 C 
HETATM    2  C4  UNL     1       5.489  -7.152  16.094  1.00  0.00     0.189 C 
HETATM    3  C5  UNL     1       4.773  -7.517  17.379  1.00  0.00     0.005 C 
HETATM    4  C6  UNL     1       3.996  -6.478  17.756  1.00  0.00    -0.013 C 
HETATM    5  C7  UNL     1       3.916  -5.213  16.973  1.00  0.00     0.033 C 
HETATM    6  C8  UNL     1       2.908  -4.432  17.782  1.00  0.00     0.019 C 
HETATM    7  C9  UNL     1       1.663  -5.330  17.766  1.00  0.00     0.009 C 
HETATM    8  C10 UNL     1       1.441  -6.266  16.659  1.00  0.00     0.021 C 
HETATM    9  C11 UNL     1       0.878  -7.607  17.165  1.00  0.00     0.013 C 
HETATM   10  C12 UNL     1       2.432  -6.454  15.577  1.00  0.00     0.122 C 
HETATM   11  C13 UNL     1       1.791  -6.437  14.176  1.00  0.00     0.052 C 
HETATM   12  O1  UNL     1       3.294  -7.504  15.577  1.00  0.00    -0.226 OA
HETATM   13  O2  UNL     1       4.524  -7.170  15.154  1.00  0.00    -0.230 OA
HETATM   14  C14 UNL     1       3.264  -5.204  15.634  1.00  0.00     0.170 C 
HETATM   15  C15 UNL     1       5.283  -4.707  16.816  1.00  0.00     0.153 C 
ENDROOT
BRANCH  15  16
HETATM   16  O4  UNL     1       5.790  -3.901  17.829  1.00  0.00    -0.315 OA
BRANCH  16  17
HETATM   17  C16 UNL     1       7.053  -3.446  18.012  1.00  0.00     0.255 C 
HETATM   18  C17 UNL     1       7.500  -2.241  17.267  1.00  0.00     0.126 C 
HETATM   19  O5  UNL     1       7.761  -4.079  18.802  1.00  0.00    -0.266 OA
ENDBRANCH  16  17
ENDBRANCH  15  16
BRANCH   1  20
HETATM   20  C2  UNL     1       7.250  -5.469  15.446  1.00  0.00     0.006 C 
HETATM   21  C1  UNL     1       8.564  -6.164  15.831  1.00  0.00     0.006 C 
ENDBRANCH   1  20
BRANCH  14  22
HETATM   22  O3  UNL     1       4.051  -4.944  14.540  1.00  0.00    -0.391 OA
ATOM     23  H3  UNL     1       3.677  -5.091  13.680  1.00  0.00     0.210 HD
ENDBRANCH  14  22
TORSDOF 4
ENDMDL
MODEL 3
REMARK VINA RESULT: -6.570145995      0.911      1.095
REMARK  4 active torsions:
REMARK  status: ('A' for Active; 'I' for Inactive)
REMARK    1  A    between atoms: C2_2  and  C3_3 
REMARK    2  A    between atoms: C14_16  and  O3_17 
REMARK    3  A    between atoms: C15_19  and  O4_20 
REMARK    4  A    between atoms: O4_20  and  C16_21 
ROOT
HETATM    1  C3  UNL     1       4.707  -4.879  17.897  1.00  0.00     0.052 C 
HETATM    2  C4  UNL     1       5.053  -6.299  17.571  1.00  0.00     0.189 C 
HETATM    3  C5  UNL     1       3.899  -7.090  18.155  1.00  0.00     0.005 C 
HETATM    4  C6  UNL     1       2.741  -6.601  17.659  1.00  0.00    -0.013 C 
HETATM    5  C7  UNL     1       2.698  -5.463  16.698  1.00  0.00     0.033 C 
HETATM    6  C8  UNL     1       1.213  -5.353  16.442  1.00  0.00     0.019 C 
HETATM    7  C9  UNL     1       0.842  -6.736  15.888  1.00  0.00     0.009 C 
HETATM    8  C10 UNL     1       1.846  -7.548  15.194  1.00  0.00     0.021 C 
HETATM    9  C11 UNL     1       1.719  -9.036  15.568  1.00  0.00     0.013 C 
HETATM   10  C12 UNL     1       3.259  -7.125  15.081  1.00  0.00     0.122 C 
HETATM   11  C13 UNL     1       3.813  -7.282  13.651  1.00  0.00     0.052 C 
HETATM   12  O1  UNL     1       4.218  -7.619  15.907  1.00  0.00    -0.226 OA
HETATM   13  O2  UNL     1       5.112  -6.690  16.283  1.00  0.00    -0.230 OA
HETATM   14  C14 UNL     1       3.206  -5.641  15.310  1.00  0.00     0.170 C 
HETATM   15  C15 UNL     1       3.424  -4.346  17.310  1.00  0.00     0.153 C 
ENDROOT
BRANCH  15  16
HETATM   16  O4  UNL     1       2.709  -3.499  18.149  1.00  0.00    -0.315 OA
BRANCH  16  17
HETATM   17  C16 UNL     1       2.448  -3.624  19.472  1.00  0.00     0.255 C 
HETATM   18  C17 UNL     1       1.261  -4.409  19.901  1.00  0.00     0.126 C 
HETATM   19  O5  UNL     1       3.230  -3.065  20.248  1.00  0.00    -0.266 OA
ENDBRANCH  16  17
ENDBRANCH  15  16
BRANCH   1  20
HETATM   20  C2  UNL     1       5.862  -3.919  17.755  1.00  0.00     0.006 C 
HETATM   21  C1  UNL     1       6.219  -3.348  19.136  1.00  0.00     0.006 C 
ENDBRANCH   1  20
BRANCH  14  22
HETATM   22  O3  UNL     1       4.317  -4.925  14.939  1.00  0.00    -0.391 OA
ATOM     23  H3  UNL     1       4.625  -5.017  14.045  1.00  0.00     0.210 HD
ENDBRANCH  14  22
TORSDOF 4
ENDMDL
MODEL 4
REMARK VINA RESULT: -6.458406014      1.496      5.354
REMARK  4 active torsions:
REMARK  status: ('A' for Active; 'I' for Inactive)
REMARK    1  A    between atoms: C2_2  and  C3_3 
REMARK    2  A    between atoms: C14_16  and  O3_17 
REMARK    3  A    between atoms: C15_19  and  O4_20 
REMARK    4  A    between atoms: O4_20  and  C16_21 
ROOT
HETATM    1  C3  UNL     1       2.765  -7.344  16.288  1.00  0.00     0.052 C 
HETATM    2  C4  UNL     1       3.614  -7.424  17.519  1.00  0.00     0.189 C 
HETATM    3  C5  UNL     1       5.018  -7.586  16.974  1.00  0.00     0.005 C 
HETATM    4  C6  UNL     1       5.268  -6.579  16.108  1.00  0.00    -0.013 C 
HETATM    5  C7  UNL     1       4.266  -5.520  15.798  1.00  0.00     0.033 C 
HETATM    6  C8  UNL     1       5.046  -4.651  14.841  1.00  0.00     0.019 C 
HETATM    7  C9  UNL     1       6.268  -4.220  15.664  1.00  0.00     0.009 C 
HETATM    8  C10 UNL     1       6.188  -4.151  17.127  1.00  0.00     0.021 C 
HETATM    9  C11 UNL     1       7.481  -4.669  17.783  1.00  0.00     0.013 C 
HETATM   10  C12 UNL     1       4.981  -4.577  17.869  1.00  0.00     0.122 C 
HETATM   11  C13 UNL     1       4.556  -3.558  18.945  1.00  0.00     0.052 C 
HETATM   12  O1  UNL     1       4.905  -5.796  18.463  1.00  0.00    -0.226 OA
HETATM   13  O2  UNL     1       3.692  -6.360  18.342  1.00  0.00    -0.230 OA
HETATM   14  C14 UNL     1       3.890  -4.523  16.838  1.00  0.00     0.170 C 
HETATM   15  C15 UNL     1       3.043  -6.194  15.350  1.00  0.00     0.153 C 
ENDROOT
BRANCH  15  16
HETATM   16  O4  UNL     1       2.941  -6.509  14.000  1.00  0.00    -0.315 OA
BRANCH  16  17
HETATM   17  C16 UNL     1       3.351  -7.623  13.347  1.00  0.00     0.255 C 
HETATM   18  C17 UNL     1       2.354  -8.674  13.019  1.00  0.00     0.126 C 
HETATM   19  O5  UNL     1       4.551  -7.689  13.063  1.00  0.00    -0.266 OA
ENDBRANCH  16  17
ENDBRANCH  15  16
BRANCH   1  20
HETATM   20  C2  UNL     1       1.292  -7.550  16.543  1.00  0.00     0.006 C 
HETATM   21  C1  UNL     1       0.924  -9.008  16.236  1.00  0.00     0.006 C 
ENDBRANCH   1  20
BRANCH  14  22
HETATM   22  O3  UNL     1       2.601  -4.545  17.309  1.00  0.00    -0.391 OA
ATOM     23  H3  UNL     1       2.441  -4.192  18.176  1.00  0.00     0.210 HD
ENDBRANCH  14  22
TORSDOF 4
ENDMDL
MODEL 5
REMARK VINA RESULT: -6.415951044      2.028      4.836
REMARK  4 active torsions:
REMARK  status: ('A' for Active; 'I' for Inactive)
REMARK    1  A    between atoms: C2_2  and  C3_3 
REMARK    2  A    between atoms: C14_16  and  O3_17 
REMARK    3  A    between atoms: C15_19  and  O4_20 
REMARK    4  A    between atoms: O4_20  and  C16_21 
ROOT
HETATM    1  C3  UNL     1       3.696  -6.129  14.815  1.00  0.00     0.052 C 
HETATM    2  C4  UNL     1       4.911  -5.916  13.967  1.00  0.00     0.189 C 
HETATM    3  C5  UNL     1       5.195  -4.435  14.116  1.00  0.00     0.005 C 
HETATM    4  C6  UNL     1       5.293  -4.141  15.431  1.00  0.00    -0.013 C 
HETATM    5  C7  UNL     1       5.134  -5.171  16.497  1.00  0.00     0.033 C 
HETATM    6  C8  UNL     1       5.374  -4.345  17.738  1.00  0.00     0.019 C 
HETATM    7  C9  UNL     1       6.788  -3.786  17.529  1.00  0.00     0.009 C 
HETATM    8  C10 UNL     1       7.753  -4.509  16.693  1.00  0.00     0.021 C 
HETATM    9  C11 UNL     1       8.583  -3.540  15.832  1.00  0.00     0.013 C 
HETATM   10  C12 UNL     1       7.387  -5.735  15.950  1.00  0.00     0.122 C 
HETATM   11  C13 UNL     1       8.426  -6.861  16.116  1.00  0.00     0.052 C 
HETATM   12  O1  UNL     1       7.085  -5.701  14.626  1.00  0.00    -0.226 OA
HETATM   13  O2  UNL     1       6.069  -6.517  14.301  1.00  0.00    -0.230 OA
HETATM   14  C14 UNL     1       6.163  -6.233  16.666  1.00  0.00     0.170 C 
HETATM   15  C15 UNL     1       3.837  -5.822  16.285  1.00  0.00     0.153 C 
ENDROOT
BRANCH  15  16
HETATM   16  O4  UNL     1       2.721  -5.232  16.865  1.00  0.00    -0.315 OA
BRANCH  16  17
HETATM   17  C16 UNL     1       1.878  -5.728  17.803  1.00  0.00     0.255 C 
HETATM   18  C17 UNL     1       1.637  -4.944  19.042  1.00  0.00     0.126 C 
HETATM   19  O5  UNL     1       1.358  -6.821  17.558  1.00  0.00    -0.266 OA
ENDBRANCH  16  17
ENDBRANCH  15  16
BRANCH   1  20
HETATM   20  C2  UNL     1       2.987  -7.435  14.553  1.00  0.00     0.006 C 
HETATM   21  C1  UNL     1       1.562  -7.148  14.057  1.00  0.00     0.006 C 
ENDBRANCH   1  20
BRANCH  14  22
HETATM   22  O3  UNL     1       5.792  -7.530  16.411  1.00  0.00    -0.391 OA
ATOM     23  H3  UNL     1       6.229  -8.219  16.897  1.00  0.00     0.210 HD
ENDBRANCH  14  22
TORSDOF 4
ENDMDL
