MODEL 1
REMARK VINA RESULT: -6.678693541      0.000      0.000
REMARK  6 active torsions:
REMARK  status: ('A' for Active; 'I' for Inactive)
REMARK    1  A    between atoms: C2_2  and  C3_3 
REMARK    2  A    between atoms: C3_3  and  O1_4 
REMARK       I    between atoms: N1_8  and  C6_9 
REMARK    3  A    between atoms: C6_9  and  O3_11 
REMARK    4  A    between atoms: O3_11  and  C7_12 
REMARK    5  A    between atoms: C12_17  and  C14_19 
REMARK    6  A    between atoms: C14_19  and  O5_21 
ROOT
HETATM    1  C3  UNL     1       5.305  -5.321  14.889  1.00  0.00     0.077 C 
HETATM    2  C4  UNL     1       5.683  -4.479  16.044  1.00  0.00     0.059 C 
HETATM    3  C5  UNL     1       4.646  -4.241  17.064  1.00  0.00     0.131 C 
HETATM    4  N1  UNL     1       3.434  -4.967  16.935  1.00  0.00    -0.327 N 
HETATM    5  C6  UNL     1       2.573  -5.067  18.061  1.00  0.00     0.363 C 
HETATM    6  O2  UNL     1       1.475  -5.705  18.004  1.00  0.00    -0.238 OA
HETATM    7  C11 UNL     1       3.047  -5.603  15.716  1.00  0.00     0.150 C 
HETATM    8  C12 UNL     1       4.269  -6.387  15.222  1.00  0.00     0.091 C 
HETATM    9  C13 UNL     1       4.840  -7.234  16.318  1.00  0.00     0.031 C 
ENDROOT
BRANCH   5  10
HETATM   10  O3  UNL     1       2.865  -4.482  19.285  1.00  0.00    -0.294 OA
BRANCH  10  11
HETATM   11  C7  UNL     1       2.340  -3.238  19.695  1.00  0.00     0.061 C 
HETATM   12  C8  UNL     1       1.379  -3.359  20.845  1.00  0.00     0.046 C 
HETATM   13  C9  UNL     1       3.526  -2.408  20.184  1.00  0.00     0.046 C 
HETATM   14  C10 UNL     1       1.732  -2.478  18.527  1.00  0.00     0.046 C 
ENDBRANCH  10  11
ENDBRANCH   5  10
BRANCH   8  15
HETATM   15  C14 UNL     1       3.947  -7.185  14.046  1.00  0.00     0.271 C 
HETATM   16  O4  UNL     1       2.765  -7.569  13.864  1.00  0.00    -0.264 OA
BRANCH  15  17
HETATM   17  O5  UNL     1       4.892  -7.546  13.102  1.00  0.00    -0.326 OA
HETATM   18  C15 UNL     1       4.553  -8.306  11.935  1.00  0.00     0.213 C 
ENDBRANCH  15  17
ENDBRANCH   8  15
BRANCH   1  19
HETATM   19  C2  UNL     1       6.540  -6.025  14.369  1.00  0.00     0.035 C 
HETATM   20  C1  UNL     1       7.799  -5.523  15.012  1.00  0.00     0.008 C 
ENDBRANCH   1  19
BRANCH   1  21
HETATM   21  O1  UNL     1       4.827  -4.513  13.837  1.00  0.00    -0.388 OA
ATOM     22  H1  UNL     1       3.971  -4.851  13.601  1.00  0.00     0.210 HD
ENDBRANCH   1  21
TORSDOF 6
ENDMDL
MODEL 2
REMARK VINA RESULT: -6.613862610      2.636      5.352
REMARK  6 active torsions:
REMARK  status: ('A' for Active; 'I' for Inactive)
REMARK    1  A    between atoms: C2_2  and  C3_3 
REMARK    2  A    between atoms: C3_3  and  O1_4 
REMARK       I    between atoms: N1_8  and  C6_9 
REMARK    3  A    between atoms: C6_9  and  O3_11 
REMARK    4  A    between atoms: O3_11  and  C7_12 
REMARK    5  A    between atoms: C12_17  and  C14_19 
REMARK    6  A    between atoms: C14_19  and  O5_21 
ROOT
HETATM    1  C3  UNL     1       0.821  -5.584  17.377  1.00  0.00     0.077 C 
HETATM    2  C4  UNL     1       1.773  -4.542  17.820  1.00  0.00     0.059 C 
HETATM    3  C5  UNL     1       3.188  -4.938  17.937  1.00  0.00     0.131 C 
HETATM    4  N1  UNL     1       3.539  -6.228  17.463  1.00  0.00    -0.327 N 
HETATM    5  C6  UNL     1       4.907  -6.513  17.205  1.00  0.00     0.363 C 
HETATM    6  O2  UNL     1       5.280  -7.651  16.778  1.00  0.00    -0.238 OA
HETATM    7  C11 UNL     1       2.570  -7.252  17.235  1.00  0.00     0.150 C 
HETATM    8  C12 UNL     1       1.433  -6.609  16.431  1.00  0.00     0.091 C 
HETATM    9  C13 UNL     1       1.970  -5.859  15.250  1.00  0.00     0.031 C 
ENDROOT
BRANCH   5  10
HETATM   10  O3  UNL     1       5.918  -5.582  17.397  1.00  0.00    -0.294 OA
BRANCH  10  11
HETATM   11  C7  UNL     1       6.567  -4.911  16.339  1.00  0.00     0.061 C 
HETATM   12  C8  UNL     1       5.645  -4.594  15.194  1.00  0.00     0.046 C 
HETATM   13  C9  UNL     1       7.055  -3.579  16.906  1.00  0.00     0.046 C 
HETATM   14  C10 UNL     1       7.804  -5.665  15.877  1.00  0.00     0.046 C 
ENDBRANCH  10  11
ENDBRANCH   5  10
BRANCH   8  15
HETATM   15  C14 UNL     1       0.444  -7.600  16.028  1.00  0.00     0.271 C 
HETATM   16  O4  UNL     1       0.134  -7.707  14.816  1.00  0.00    -0.264 OA
BRANCH  15  17
HETATM   17  O5  UNL     1      -0.182  -8.445  16.928  1.00  0.00    -0.326 OA
HETATM   18  C15 UNL     1      -1.575  -8.766  16.832  1.00  0.00     0.213 C 
ENDBRANCH  15  17
ENDBRANCH   8  15
BRANCH   1  19
HETATM   19  C2  UNL     1      -0.332  -4.920  16.654  1.00  0.00     0.035 C 
HETATM   20  C1  UNL     1      -1.617  -5.012  17.420  1.00  0.00     0.008 C 
ENDBRANCH   1  19
BRANCH   1  21
HETATM   21  O1  UNL     1       0.271  -6.243  18.495  1.00  0.00    -0.388 OA
ATOM     22  H1  UNL     1       0.000  -5.567  19.104  1.00  0.00     0.210 HD
ENDBRANCH   1  21
TORSDOF 6
ENDMDL
MODEL 3
REMARK VINA RESULT: -6.341840310      3.189      4.341
REMARK  6 active torsions:
REMARK  status: ('A' for Active; 'I' for Inactive)
REMARK    1  A    between atoms: C2_2  and  C3_3 
REMARK    2  A    between atoms: C3_3  and  O1_4 
REMARK       I    between atoms: N1_8  and  C6_9 
REMARK    3  A    between atoms: C6_9  and  O3_11 
REMARK    4  A    between atoms: O3_11  and  C7_12 
REMARK    5  A    between atoms: C12_17  and  C14_19 
REMARK    6  A    between atoms: C14_19  and  O5_21 
ROOT
HETATM    1  C3  UNL     1       0.827  -6.683  14.747  1.00  0.00     0.077 C 
HETATM    2  C4  UNL     1       2.110  -6.241  15.334  1.00  0.00     0.059 C 
HETATM    3  C5  UNL     1       2.039  -5.469  16.588  1.00  0.00     0.131 C 
HETATM    4  N1  UNL     1       0.767  -5.356  17.205  1.00  0.00    -0.327 N 
HETATM    5  C6  UNL     1       0.701  -4.963  18.569  1.00  0.00     0.363 C 
HETATM    6  O2  UNL     1      -0.411  -4.846  19.175  1.00  0.00    -0.238 OA
HETATM    7  C11 UNL     1      -0.451  -5.623  16.509  1.00  0.00     0.150 C 
HETATM    8  C12 UNL     1      -0.257  -6.959  15.781  1.00  0.00     0.091 C 
HETATM    9  C13 UNL     1       0.275  -8.004  16.713  1.00  0.00     0.031 C 
ENDROOT
BRANCH   5  10
HETATM   10  O3  UNL     1       1.829  -4.683  19.326  1.00  0.00    -0.294 OA
BRANCH  10  11
HETATM   11  C7  UNL     1       2.319  -3.376  19.534  1.00  0.00     0.061 C 
HETATM   12  C8  UNL     1       1.727  -2.371  18.584  1.00  0.00     0.046 C 
HETATM   13  C9  UNL     1       1.888  -2.971  20.943  1.00  0.00     0.046 C 
HETATM   14  C10 UNL     1       3.839  -3.342  19.519  1.00  0.00     0.046 C 
ENDBRANCH  10  11
ENDBRANCH   5  10
BRANCH   8  15
HETATM   15  C14 UNL     1      -1.489  -7.396  15.138  1.00  0.00     0.271 C 
HETATM   16  O4  UNL     1      -2.152  -6.581  14.450  1.00  0.00    -0.264 OA
BRANCH  15  17
HETATM   17  O5  UNL     1      -1.977  -8.687  15.249  1.00  0.00    -0.326 OA
HETATM   18  C15 UNL     1      -2.615  -9.358  14.156  1.00  0.00     0.213 C 
ENDBRANCH  15  17
ENDBRANCH   8  15
BRANCH   1  19
HETATM   19  C2  UNL     1       1.058  -7.961  13.968  1.00  0.00     0.035 C 
HETATM   20  C1  UNL     1       2.473  -8.094  13.492  1.00  0.00     0.008 C 
ENDBRANCH   1  19
BRANCH   1  21
HETATM   21  O1  UNL     1       0.363  -5.725  13.822  1.00  0.00    -0.388 OA
ATOM     22  H1  UNL     1       0.515  -4.873  14.214  1.00  0.00     0.210 HD
ENDBRANCH   1  21
TORSDOF 6
ENDMDL
MODEL 4
REMARK VINA RESULT: -6.233931113      3.127      5.696
REMARK  6 active torsions:
REMARK  status: ('A' for Active; 'I' for Inactive)
REMARK    1  A    between atoms: C2_2  and  C3_3 
REMARK    2  A    between atoms: C3_3  and  O1_4 
REMARK       I    between atoms: N1_8  and  C6_9 
REMARK    3  A    between atoms: C6_9  and  O3_11 
REMARK    4  A    between atoms: O3_11  and  C7_12 
REMARK    5  A    between atoms: C12_17  and  C14_19 
REMARK    6  A    between atoms: C14_19  and  O5_21 
ROOT
HETATM    1  C3  UNL     1      -0.196  -5.935  17.707  1.00  0.00     0.077 C 
HETATM    2  C4  UNL     1       0.852  -5.210  18.458  1.00  0.00     0.059 C 
HETATM    3  C5  UNL     1       2.225  -5.738  18.367  1.00  0.00     0.131 C 
HETATM    4  N1  UNL     1       2.451  -6.792  17.444  1.00  0.00    -0.327 N 
HETATM    5  C6  UNL     1       3.785  -7.076  17.044  1.00  0.00     0.363 C 
HETATM    6  O2  UNL     1       4.048  -8.008  16.220  1.00  0.00    -0.238 OA
HETATM    7  C11 UNL     1       1.390  -7.577  16.900  1.00  0.00     0.150 C 
HETATM    8  C12 UNL     1       0.311  -6.593  16.430  1.00  0.00     0.091 C 
HETATM    9  C13 UNL     1       0.906  -5.512  15.580  1.00  0.00     0.031 C 
ENDROOT
BRANCH   5  10
HETATM   10  O3  UNL     1       4.879  -6.368  17.520  1.00  0.00    -0.294 OA
BRANCH  10  11
HETATM   11  C7  UNL     1       5.586  -5.422  16.747  1.00  0.00     0.061 C 
HETATM   12  C8  UNL     1       4.732  -4.769  15.695  1.00  0.00     0.046 C 
HETATM   13  C9  UNL     1       6.032  -4.323  17.711  1.00  0.00     0.046 C 
HETATM   14  C10 UNL     1       6.853  -6.021  16.156  1.00  0.00     0.046 C 
ENDBRANCH  10  11
ENDBRANCH   5  10
BRANCH   8  15
HETATM   15  C14 UNL     1      -0.769  -7.282  15.736  1.00  0.00     0.271 C 
HETATM   16  O4  UNL     1      -1.092  -8.442  16.092  1.00  0.00    -0.264 OA
BRANCH  15  17
HETATM   17  O5  UNL     1      -1.470  -6.713  14.687  1.00  0.00    -0.326 OA
HETATM   18  C15 UNL     1      -2.818  -7.088  14.378  1.00  0.00     0.213 C 
ENDBRANCH  15  17
ENDBRANCH   8  15
BRANCH   1  19
HETATM   19  C2  UNL     1      -1.287  -4.959  17.321  1.00  0.00     0.035 C 
HETATM   20  C1  UNL     1      -2.487  -5.058  18.215  1.00  0.00     0.008 C 
ENDBRANCH   1  19
BRANCH   1  21
HETATM   21  O1  UNL     1      -0.797  -6.908  18.532  1.00  0.00    -0.388 OA
ATOM     22  H1  UNL     1      -1.008  -7.646  17.972  1.00  0.00     0.210 HD
ENDBRANCH   1  21
TORSDOF 6
ENDMDL
MODEL 5
REMARK VINA RESULT: -6.145889570      3.066      4.756
REMARK  6 active torsions:
REMARK  status: ('A' for Active; 'I' for Inactive)
REMARK    1  A    between atoms: C2_2  and  C3_3 
REMARK    2  A    between atoms: C3_3  and  O1_4 
REMARK       I    between atoms: N1_8  and  C6_9 
REMARK    3  A    between atoms: C6_9  and  O3_11 
REMARK    4  A    between atoms: O3_11  and  C7_12 
REMARK    5  A    between atoms: C12_17  and  C14_19 
REMARK    6  A    between atoms: C14_19  and  O5_21 
ROOT
HETATM    1  C3  UNL     1       3.554  -5.120  17.383  1.00  0.00     0.077 C 
HETATM    2  C4  UNL     1       2.177  -4.639  17.628  1.00  0.00     0.059 C 
HETATM    3  C5  UNL     1       1.178  -4.916  16.579  1.00  0.00     0.131 C 
HETATM    4  N1  UNL     1       1.582  -5.753  15.508  1.00  0.00    -0.327 N 
HETATM    5  C6  UNL     1       0.583  -6.349  14.692  1.00  0.00     0.363 C 
HETATM    6  O2  UNL     1       0.885  -7.109  13.718  1.00  0.00    -0.238 OA
HETATM    7  C11 UNL     1       2.955  -6.022  15.218  1.00  0.00     0.150 C 
HETATM    8  C12 UNL     1       3.619  -6.393  16.550  1.00  0.00     0.091 C 
HETATM    9  C13 UNL     1       2.825  -7.438  17.272  1.00  0.00     0.031 C 
ENDROOT
BRANCH   5  10
HETATM   10  O3  UNL     1      -0.774  -6.145  14.895  1.00  0.00    -0.294 OA
BRANCH  10  11
HETATM   11  C7  UNL     1      -1.621  -7.101  15.496  1.00  0.00     0.061 C 
HETATM   12  C8  UNL     1      -0.878  -8.312  15.991  1.00  0.00     0.046 C 
HETATM   13  C9  UNL     1      -2.241  -6.423  16.717  1.00  0.00     0.046 C 
HETATM   14  C10 UNL     1      -2.773  -7.480  14.579  1.00  0.00     0.046 C 
ENDBRANCH  10  11
ENDBRANCH   5  10
BRANCH   8  15
HETATM   15  C14 UNL     1       5.000  -6.816  16.353  1.00  0.00     0.271 C 
HETATM   16  O4  UNL     1       5.419  -7.850  16.929  1.00  0.00    -0.264 OA
BRANCH  15  17
HETATM   17  O5  UNL     1       5.888  -6.125  15.547  1.00  0.00    -0.326 OA
HETATM   18  C15 UNL     1       7.265  -5.952  15.904  1.00  0.00     0.213 C 
ENDBRANCH  15  17
ENDBRANCH   8  15
BRANCH   1  19
HETATM   19  C2  UNL     1       4.218  -5.405  18.714  1.00  0.00     0.035 C 
HETATM   20  C1  UNL     1       4.448  -4.161  19.519  1.00  0.00     0.008 C 
ENDBRANCH   1  19
BRANCH   1  21
HETATM   21  O1  UNL     1       4.316  -4.110  16.761  1.00  0.00    -0.388 OA
ATOM     22  H1  UNL     1       5.219  -4.405  16.772  1.00  0.00     0.210 HD
ENDBRANCH   1  21
TORSDOF 6
ENDMDL
