MODEL 1
REMARK VINA RESULT: -6.411592757      0.000      0.000
REMARK  5 active torsions:
REMARK  status: ('A' for Active; 'I' for Inactive)
REMARK    1  A    between atoms: C2_2  and  O2_4 
REMARK    2  A    between atoms: O2_4  and  C3_5 
REMARK    3  A    between atoms: C11_13  and  O3_14 
REMARK    4  A    between atoms: C12_16  and  O4_17 
REMARK    5  A    between atoms: O4_17  and  C13_18 
ROOT
HETATM    1  C3  UNL     1       2.692  -5.449  18.260  1.00  0.00     0.143 C 
HETATM    2  C4  UNL     1       3.577  -4.864  19.327  1.00  0.00     0.034 C 
HETATM    3  C5  UNL     1       4.814  -4.213  18.894  1.00  0.00     0.007 C 
HETATM    4  C6  UNL     1       5.226  -4.302  17.482  1.00  0.00    -0.014 C 
HETATM    5  C7  UNL     1       6.634  -4.915  17.384  1.00  0.00     0.010 C 
HETATM    6  C8  UNL     1       4.302  -5.029  16.551  1.00  0.00     0.003 C 
HETATM    7  C9  UNL     1       4.969  -5.548  15.329  1.00  0.00     0.008 C 
HETATM    8  C10 UNL     1       3.912  -5.856  14.280  1.00  0.00     0.035 C 
HETATM    9  C11 UNL     1       2.556  -6.019  14.883  1.00  0.00     0.148 C 
HETATM   10  C12 UNL     1       2.742  -6.849  16.160  1.00  0.00     0.171 C 
HETATM   11  C15 UNL     1       3.521  -6.143  17.213  1.00  0.00     0.016 C 
HETATM   12  C16 UNL     1       4.441  -7.159  17.861  1.00  0.00     0.021 C 
ENDROOT
BRANCH   1  13
HETATM   13  O2  UNL     1       2.039  -4.348  17.648  1.00  0.00    -0.315 OA
BRANCH  13  14
HETATM   14  C2  UNL     1       0.672  -4.134  17.705  1.00  0.00     0.255 C 
HETATM   15  C1  UNL     1       0.044  -3.951  19.021  1.00  0.00     0.126 C 
HETATM   16  O1  UNL     1       0.000  -4.099  16.669  1.00  0.00    -0.266 OA
ENDBRANCH  13  14
ENDBRANCH   1  13
BRANCH  10  17
HETATM   17  O4  UNL     1       1.535  -7.388  16.620  1.00  0.00    -0.313 OA
BRANCH  17  18
HETATM   18  C13 UNL     1       1.121  -8.660  16.324  1.00  0.00     0.255 C 
HETATM   19  C14 UNL     1      -0.247  -9.161  16.709  1.00  0.00     0.126 C 
HETATM   20  O5  UNL     1       1.921  -9.416  15.710  1.00  0.00    -0.266 OA
ENDBRANCH  17  18
ENDBRANCH  10  17
BRANCH   9  21
HETATM   21  O3  UNL     1       1.776  -6.828  14.024  1.00  0.00    -0.393 OA
ATOM     22  H3  UNL     1       1.203  -7.367  14.556  1.00  0.00     0.210 HD
ENDBRANCH   9  21
TORSDOF 5
ENDMDL
MODEL 2
REMARK VINA RESULT: -6.067530435      1.410      1.660
REMARK  5 active torsions:
REMARK  status: ('A' for Active; 'I' for Inactive)
REMARK    1  A    between atoms: C2_2  and  O2_4 
REMARK    2  A    between atoms: O2_4  and  C3_5 
REMARK    3  A    between atoms: C11_13  and  O3_14 
REMARK    4  A    between atoms: C12_16  and  O4_17 
REMARK    5  A    between atoms: O4_17  and  C13_18 
ROOT
HETATM    1  C3  UNL     1       2.333  -6.111  17.121  1.00  0.00     0.143 C 
HETATM    2  C4  UNL     1       3.112  -5.180  18.010  1.00  0.00     0.034 C 
HETATM    3  C5  UNL     1       4.287  -4.525  17.434  1.00  0.00     0.007 C 
HETATM    4  C6  UNL     1       4.756  -4.922  16.095  1.00  0.00    -0.014 C 
HETATM    5  C7  UNL     1       6.224  -5.378  16.167  1.00  0.00     0.010 C 
HETATM    6  C8  UNL     1       3.949  -5.959  15.374  1.00  0.00     0.003 C 
HETATM    7  C9  UNL     1       4.710  -6.692  14.329  1.00  0.00     0.008 C 
HETATM    8  C10 UNL     1       3.730  -7.372  13.386  1.00  0.00     0.035 C 
HETATM    9  C11 UNL     1       2.378  -7.528  14.001  1.00  0.00     0.148 C 
HETATM   10  C12 UNL     1       2.606  -7.982  15.449  1.00  0.00     0.171 C 
HETATM   11  C15 UNL     1       3.267  -6.950  16.293  1.00  0.00     0.016 C 
HETATM   12  C16 UNL     1       4.267  -7.659  17.185  1.00  0.00     0.021 C 
ENDROOT
BRANCH   1  13
HETATM   13  O2  UNL     1       1.588  -5.281  16.243  1.00  0.00    -0.315 OA
BRANCH  13  14
HETATM   14  C2  UNL     1       0.226  -5.060  16.361  1.00  0.00     0.255 C 
HETATM   15  C1  UNL     1      -0.698  -6.021  15.743  1.00  0.00     0.126 C 
HETATM   16  O1  UNL     1      -0.197  -4.075  16.976  1.00  0.00    -0.266 OA
ENDBRANCH  13  14
ENDBRANCH   1  13
BRANCH  10  17
HETATM   17  O4  UNL     1       1.448  -8.518  16.022  1.00  0.00    -0.313 OA
BRANCH  17  18
HETATM   18  C13 UNL     1       1.007  -9.791  15.771  1.00  0.00     0.255 C 
HETATM   19  C14 UNL     1      -0.458 -10.139  15.763  1.00  0.00     0.126 C 
HETATM   20  O5  UNL     1       1.869 -10.682  15.541  1.00  0.00    -0.266 OA
ENDBRANCH  17  18
ENDBRANCH  10  17
BRANCH   9  21
HETATM   21  O3  UNL     1       1.720  -8.610  13.371  1.00  0.00    -0.393 OA
ATOM     22  H3  UNL     1       1.461  -9.235  14.038  1.00  0.00     0.210 HD
ENDBRANCH   9  21
TORSDOF 5
ENDMDL
MODEL 3
REMARK VINA RESULT: -5.666909613      2.090      4.451
REMARK  5 active torsions:
REMARK  status: ('A' for Active; 'I' for Inactive)
REMARK    1  A    between atoms: C2_2  and  O2_4 
REMARK    2  A    between atoms: O2_4  and  C3_5 
REMARK    3  A    between atoms: C11_13  and  O3_14 
REMARK    4  A    between atoms: C12_16  and  O4_17 
REMARK    5  A    between atoms: O4_17  and  C13_18 
ROOT
HETATM    1  C3  UNL     1       2.820  -5.015  17.348  1.00  0.00     0.143 C 
HETATM    2  C4  UNL     1       4.102  -4.233  17.446  1.00  0.00     0.034 C 
HETATM    3  C5  UNL     1       4.445  -3.662  18.750  1.00  0.00     0.007 C 
HETATM    4  C6  UNL     1       3.467  -3.724  19.849  1.00  0.00    -0.014 C 
HETATM    5  C7  UNL     1       3.171  -2.306  20.370  1.00  0.00     0.010 C 
HETATM    6  C8  UNL     1       2.174  -4.429  19.568  1.00  0.00     0.003 C 
HETATM    7  C9  UNL     1       1.060  -4.017  20.461  1.00  0.00     0.008 C 
HETATM    8  C10 UNL     1      -0.038  -5.068  20.402  1.00  0.00     0.035 C 
HETATM    9  C11 UNL     1       0.064  -5.915  19.176  1.00  0.00     0.148 C 
HETATM   10  C12 UNL     1       0.386  -4.966  18.014  1.00  0.00     0.171 C 
HETATM   11  C15 UNL     1       1.727  -4.332  18.125  1.00  0.00     0.016 C 
HETATM   12  C16 UNL     1       1.591  -2.890  17.681  1.00  0.00     0.021 C 
ENDROOT
BRANCH   1  13
HETATM   13  O2  UNL     1       3.081  -6.269  17.962  1.00  0.00    -0.315 OA
BRANCH  13  14
HETATM   14  C2  UNL     1       3.539  -7.381  17.277  1.00  0.00     0.255 C 
HETATM   15  C1  UNL     1       2.697  -7.946  16.212  1.00  0.00     0.126 C 
HETATM   16  O1  UNL     1       4.632  -7.883  17.557  1.00  0.00    -0.266 OA
ENDBRANCH  13  14
ENDBRANCH   1  13
BRANCH  10  17
HETATM   17  O4  UNL     1       0.146  -5.557  16.768  1.00  0.00    -0.313 OA
BRANCH  17  18
HETATM   18  C13 UNL     1      -1.094  -5.601  16.186  1.00  0.00     0.255 C 
HETATM   19  C14 UNL     1      -1.494  -6.709  15.247  1.00  0.00     0.126 C 
HETATM   20  O5  UNL     1      -1.909  -4.678  16.458  1.00  0.00    -0.266 OA
ENDBRANCH  17  18
ENDBRANCH  10  17
BRANCH   9  21
HETATM   21  O3  UNL     1      -1.217  -6.440  18.884  1.00  0.00    -0.393 OA
ATOM     22  H3  UNL     1      -1.161  -7.389  18.884  1.00  0.00     0.210 HD
ENDBRANCH   9  21
TORSDOF 5
ENDMDL
MODEL 4
REMARK VINA RESULT: -5.604816740      1.590      2.112
REMARK  5 active torsions:
REMARK  status: ('A' for Active; 'I' for Inactive)
REMARK    1  A    between atoms: C2_2  and  O2_4 
REMARK    2  A    between atoms: O2_4  and  C3_5 
REMARK    3  A    between atoms: C11_13  and  O3_14 
REMARK    4  A    between atoms: C12_16  and  O4_17 
REMARK    5  A    between atoms: O4_17  and  C13_18 
ROOT
HETATM    1  C3  UNL     1       2.211  -6.331  17.089  1.00  0.00     0.143 C 
HETATM    2  C4  UNL     1       2.095  -5.793  18.489  1.00  0.00     0.034 C 
HETATM    3  C5  UNL     1       2.950  -4.661  18.849  1.00  0.00     0.007 C 
HETATM    4  C6  UNL     1       3.990  -4.209  17.909  1.00  0.00    -0.014 C 
HETATM    5  C7  UNL     1       5.368  -4.243  18.596  1.00  0.00     0.010 C 
HETATM    6  C8  UNL     1       4.073  -4.925  16.594  1.00  0.00     0.003 C 
HETATM    7  C9  UNL     1       5.403  -4.822  15.939  1.00  0.00     0.008 C 
HETATM    8  C10 UNL     1       5.259  -5.176  14.466  1.00  0.00     0.035 C 
HETATM    9  C11 UNL     1       4.016  -5.959  14.199  1.00  0.00     0.148 C 
HETATM   10  C12 UNL     1       3.896  -6.990  15.329  1.00  0.00     0.171 C 
HETATM   11  C15 UNL     1       3.653  -6.377  16.662  1.00  0.00     0.016 C 
HETATM   12  C16 UNL     1       4.476  -7.147  17.677  1.00  0.00     0.021 C 
ENDROOT
BRANCH   1  13
HETATM   13  O2  UNL     1       1.534  -5.401  16.256  1.00  0.00    -0.315 OA
BRANCH  13  14
HETATM   14  C2  UNL     1       0.204  -5.053  16.414  1.00  0.00     0.255 C 
HETATM   15  C1  UNL     1      -0.825  -6.068  16.143  1.00  0.00     0.126 C 
HETATM   16  O1  UNL     1      -0.106  -3.913  16.775  1.00  0.00    -0.266 OA
ENDBRANCH  13  14
ENDBRANCH   1  13
BRANCH  10  17
HETATM   17  O4  UNL     1       3.001  -8.018  15.012  1.00  0.00    -0.313 OA
BRANCH  17  18
HETATM   18  C13 UNL     1       2.210  -8.006  13.893  1.00  0.00     0.255 C 
HETATM   19  C14 UNL     1       2.273  -9.102  12.862  1.00  0.00     0.126 C 
HETATM   20  O5  UNL     1       1.413  -7.042  13.741  1.00  0.00    -0.266 OA
ENDBRANCH  17  18
ENDBRANCH  10  17
BRANCH   9  21
HETATM   21  O3  UNL     1       4.208  -6.718  13.021  1.00  0.00    -0.393 OA
ATOM     22  H3  UNL     1       4.716  -6.199  12.408  1.00  0.00     0.210 HD
ENDBRANCH   9  21
TORSDOF 5
ENDMDL
MODEL 5
REMARK VINA RESULT: -5.548682638      2.257      3.191
REMARK  5 active torsions:
REMARK  status: ('A' for Active; 'I' for Inactive)
REMARK    1  A    between atoms: C2_2  and  O2_4 
REMARK    2  A    between atoms: O2_4  and  C3_5 
REMARK    3  A    between atoms: C11_13  and  O3_14 
REMARK    4  A    between atoms: C12_16  and  O4_17 
REMARK    5  A    between atoms: O4_17  and  C13_18 
ROOT
HETATM    1  C3  UNL     1       3.181  -4.816  18.458  1.00  0.00     0.143 C 
HETATM    2  C4  UNL     1       4.653  -5.119  18.375  1.00  0.00     0.034 C 
HETATM    3  C5  UNL     1       5.215  -5.372  17.048  1.00  0.00     0.007 C 
HETATM    4  C6  UNL     1       4.314  -5.491  15.889  1.00  0.00    -0.014 C 
HETATM    5  C7  UNL     1       4.528  -6.847  15.194  1.00  0.00     0.010 C 
HETATM    6  C8  UNL     1       2.850  -5.289  16.144  1.00  0.00     0.003 C 
HETATM    7  C9  UNL     1       1.971  -5.922  15.126  1.00  0.00     0.008 C 
HETATM    8  C10 UNL     1       0.584  -5.303  15.215  1.00  0.00     0.035 C 
HETATM    9  C11 UNL     1       0.353  -4.636  16.531  1.00  0.00     0.148 C 
HETATM   10  C12 UNL     1       0.929  -5.570  17.603  1.00  0.00     0.171 C 
HETATM   11  C15 UNL     1       2.408  -5.711  17.528  1.00  0.00     0.016 C 
HETATM   12  C16 UNL     1       2.744  -7.165  17.799  1.00  0.00     0.021 C 
ENDROOT
BRANCH   1  13
HETATM   13  O2  UNL     1       3.032  -3.478  18.008  1.00  0.00    -0.315 OA
BRANCH  13  14
HETATM   14  C2  UNL     1       2.511  -2.458  18.786  1.00  0.00     0.255 C 
HETATM   15  C1  UNL     1       3.043  -2.267  20.143  1.00  0.00     0.126 C 
HETATM   16  O1  UNL     1       1.619  -1.727  18.343  1.00  0.00    -0.266 OA
ENDBRANCH  13  14
ENDBRANCH   1  13
BRANCH  10  17
HETATM   17  O4  UNL     1       0.459  -5.256  18.883  1.00  0.00    -0.313 OA
BRANCH  17  18
HETATM   18  C13 UNL     1      -0.643  -5.848  19.443  1.00  0.00     0.255 C 
HETATM   19  C14 UNL     1      -0.986  -5.675  20.900  1.00  0.00     0.126 C 
HETATM   20  O5  UNL     1      -1.378  -6.553  18.701  1.00  0.00    -0.266 OA
ENDBRANCH  17  18
ENDBRANCH  10  17
BRANCH   9  21
HETATM   21  O3  UNL     1      -1.039  -4.599  16.777  1.00  0.00    -0.393 OA
ATOM     22  H3  UNL     1      -1.255  -5.295  17.388  1.00  0.00     0.210 HD
ENDBRANCH   9  21
TORSDOF 5
ENDMDL
