MODEL 1
REMARK VINA RESULT: -8.655059295      0.000      0.000
REMARK  7 active torsions:
REMARK  status: ('A' for Active; 'I' for Inactive)
REMARK    1  A    between atoms: C2_2  and  C3_3 
REMARK    2  A    between atoms: C2_2  and  C22_28 
REMARK    3  A    between atoms: C3_3  and  C4_4 
REMARK    4  A    between atoms: C4_4  and  C5_5 
REMARK       I    between atoms: C5_5  and  N1_7 
REMARK    5  A    between atoms: N1_7  and  C6_9 
REMARK    6  A    between atoms: C10_13  and  C11_14 
REMARK       I    between atoms: C11_14  and  N2_16 
REMARK    7  A    between atoms: C16_21  and  C17_22 
ROOT
HETATM    1  C6  UNL     1       3.887  -7.754  13.686  1.00  0.00     0.093 C 
HETATM    2  C7  UNL     1       4.806  -6.760  13.029  1.00  0.00     0.010 C 
HETATM    3  C8  UNL     1       4.681  -5.480  13.874  1.00  0.00     0.013 C 
HETATM    4  C9  UNL     1       5.225  -5.970  15.184  1.00  0.00     0.010 C 
HETATM    5  C10 UNL     1       4.276  -6.785  15.985  1.00  0.00     0.089 C 
HETATM    6  C14 UNL     1       4.199  -8.019  15.123  1.00  0.00     0.023 C 
HETATM    7  C15 UNL     1       5.701  -8.374  15.179  1.00  0.00     0.020 C 
HETATM    8  C16 UNL     1       6.280  -7.010  14.791  1.00  0.00    -0.009 C 
HETATM    9  C21 UNL     1       6.279  -7.050  13.271  1.00  0.00     0.019 C 
ENDROOT
BRANCH   1  10
HETATM   10  N1  UNL     1       3.767  -8.974  12.963  1.00  0.00    -0.356 N 
HETATM   11  C5  UNL     1       2.488  -9.407  12.409  1.00  0.00     0.217 C 
HETATM   12  O1  UNL     1       1.523  -8.630  12.620  1.00  0.00    -0.274 OA
ATOM     13  H1  UNL     1       4.592  -9.558  12.828  1.00  0.00     0.162 HD
BRANCH  11  14
HETATM   14  C4  UNL     1       2.451 -10.676  11.679  1.00  0.00     0.103 C 
BRANCH  14  15
HETATM   15  C3  UNL     1       1.268 -11.077  10.920  1.00  0.00     0.024 C 
BRANCH  15  16
HETATM   16  C2  UNL     1       1.399 -11.768   9.623  1.00  0.00     0.083 C 
HETATM   17  C1  UNL     1       0.087 -12.399   9.170  1.00  0.00     0.021 C 
BRANCH  16  18
HETATM   18  C22 UNL     1       2.075 -11.131   8.510  1.00  0.00     0.176 C 
HETATM   19  O4  UNL     1       1.416 -10.651   7.538  1.00  0.00    -0.648 OA
HETATM   20  O5  UNL     1       3.463 -11.036   8.486  1.00  0.00    -0.648 OA
ENDBRANCH  16  18
ENDBRANCH  15  16
ENDBRANCH  14  15
ENDBRANCH  11  14
ENDBRANCH   1  10
BRANCH   5  21
HETATM   21  C11 UNL     1       3.041  -6.188  16.410  1.00  0.00     0.224 C 
HETATM   22  O2  UNL     1       1.992  -6.350  15.762  1.00  0.00    -0.273 OA
HETATM   23  N2  UNL     1       2.983  -5.405  17.573  1.00  0.00    -0.360 N 
HETATM   24  C12 UNL     1       4.086  -5.090  18.452  1.00  0.00     0.152 C 
HETATM   25  C13 UNL     1       1.692  -4.830  17.972  1.00  0.00     0.152 C 
ENDBRANCH   5  21
BRANCH   8  26
HETATM   26  C17 UNL     1       7.606  -6.759  15.390  1.00  0.00     0.130 C 
HETATM   27  C18 UNL     1       7.659  -5.460  16.115  1.00  0.00     0.035 C 
HETATM   28  C19 UNL     1       8.939  -4.796  15.595  1.00  0.00     0.029 C 
HETATM   29  C20 UNL     1       9.636  -5.993  14.946  1.00  0.00     0.168 C 
HETATM   30  O3  UNL     1       8.531  -6.629  14.354  1.00  0.00    -0.385 OA
ENDBRANCH   8  26
TORSDOF 7
ENDMDL
MODEL 2
REMARK VINA RESULT: -8.565293699      2.459      7.366
REMARK  7 active torsions:
REMARK  status: ('A' for Active; 'I' for Inactive)
REMARK    1  A    between atoms: C2_2  and  C3_3 
REMARK    2  A    between atoms: C2_2  and  C22_28 
REMARK    3  A    between atoms: C3_3  and  C4_4 
REMARK    4  A    between atoms: C4_4  and  C5_5 
REMARK       I    between atoms: C5_5  and  N1_7 
REMARK    5  A    between atoms: N1_7  and  C6_9 
REMARK    6  A    between atoms: C10_13  and  C11_14 
REMARK       I    between atoms: C11_14  and  N2_16 
REMARK    7  A    between atoms: C16_21  and  C17_22 
ROOT
HETATM    1  C6  UNL     1       5.303  -5.767  15.644  1.00  0.00     0.093 C 
HETATM    2  C7  UNL     1       4.516  -5.561  14.377  1.00  0.00     0.010 C 
HETATM    3  C8  UNL     1       5.559  -5.594  13.248  1.00  0.00     0.013 C 
HETATM    4  C9  UNL     1       6.053  -7.005  13.381  1.00  0.00     0.010 C 
HETATM    5  C10 UNL     1       7.013  -7.226  14.493  1.00  0.00     0.089 C 
HETATM    6  C14 UNL     1       6.094  -7.034  15.673  1.00  0.00     0.023 C 
HETATM    7  C15 UNL     1       5.106  -8.167  15.319  1.00  0.00     0.020 C 
HETATM    8  C16 UNL     1       4.828  -7.792  13.861  1.00  0.00    -0.009 C 
HETATM    9  C21 UNL     1       3.700  -6.778  13.970  1.00  0.00     0.019 C 
ENDROOT
BRANCH   1  10
HETATM   10  N1  UNL     1       4.517  -5.637  16.823  1.00  0.00    -0.356 N 
HETATM   11  C5  UNL     1       5.029  -4.956  18.007  1.00  0.00     0.217 C 
HETATM   12  O1  UNL     1       6.197  -4.503  17.901  1.00  0.00    -0.274 OA
ATOM     13  H1  UNL     1       3.575  -6.028  16.841  1.00  0.00     0.162 HD
BRANCH  11  14
HETATM   14  C4  UNL     1       4.155  -4.866  19.180  1.00  0.00     0.103 C 
BRANCH  14  15
HETATM   15  C3  UNL     1       2.815  -4.292  19.082  1.00  0.00     0.024 C 
BRANCH  15  16
HETATM   16  C2  UNL     1       1.628  -5.159  18.949  1.00  0.00     0.083 C 
HETATM   17  C1  UNL     1       0.467  -4.684  19.815  1.00  0.00     0.021 C 
BRANCH  16  18
HETATM   18  C22 UNL     1       1.159  -5.576  17.641  1.00  0.00     0.176 C 
HETATM   19  O4  UNL     1       0.284  -4.899  17.019  1.00  0.00    -0.648 OA
HETATM   20  O5  UNL     1       1.660  -6.728  17.044  1.00  0.00    -0.648 OA
ENDBRANCH  16  18
ENDBRANCH  15  16
ENDBRANCH  14  15
ENDBRANCH  11  14
ENDBRANCH   1  10
BRANCH   5  21
HETATM   21  C11 UNL     1       8.254  -6.504  14.488  1.00  0.00     0.224 C 
HETATM   22  O2  UNL     1       8.290  -5.287  14.741  1.00  0.00    -0.273 OA
HETATM   23  N2  UNL     1       9.464  -7.153  14.198  1.00  0.00    -0.360 N 
HETATM   24  C12 UNL     1       9.630  -8.551  13.869  1.00  0.00     0.152 C 
HETATM   25  C13 UNL     1      10.707  -6.373  14.222  1.00  0.00     0.152 C 
ENDBRANCH   5  21
BRANCH   8  26
HETATM   26  C17 UNL     1       4.512  -8.961  13.017  1.00  0.00     0.130 C 
HETATM   27  C18 UNL     1       4.656  -8.664  11.566  1.00  0.00     0.035 C 
HETATM   28  C19 UNL     1       3.357  -9.195  10.947  1.00  0.00     0.029 C 
HETATM   29  C20 UNL     1       2.841 -10.076  12.085  1.00  0.00     0.168 C 
HETATM   30  O3  UNL     1       3.162  -9.267  13.189  1.00  0.00    -0.385 OA
ENDBRANCH   8  26
TORSDOF 7
ENDMDL
MODEL 3
REMARK VINA RESULT: -8.456867162      2.091      6.918
REMARK  7 active torsions:
REMARK  status: ('A' for Active; 'I' for Inactive)
REMARK    1  A    between atoms: C2_2  and  C3_3 
REMARK    2  A    between atoms: C2_2  and  C22_28 
REMARK    3  A    between atoms: C3_3  and  C4_4 
REMARK    4  A    between atoms: C4_4  and  C5_5 
REMARK       I    between atoms: C5_5  and  N1_7 
REMARK    5  A    between atoms: N1_7  and  C6_9 
REMARK    6  A    between atoms: C10_13  and  C11_14 
REMARK       I    between atoms: C11_14  and  N2_16 
REMARK    7  A    between atoms: C16_21  and  C17_22 
ROOT
HETATM    1  C6  UNL     1       3.275  -6.950  15.373  1.00  0.00     0.093 C 
HETATM    2  C7  UNL     1       4.450  -7.557  16.092  1.00  0.00     0.010 C 
HETATM    3  C8  UNL     1       4.944  -8.685  15.171  1.00  0.00     0.013 C 
HETATM    4  C9  UNL     1       5.369  -7.887  13.973  1.00  0.00     0.010 C 
HETATM    5  C10 UNL     1       4.255  -7.441  13.097  1.00  0.00     0.089 C 
HETATM    6  C14 UNL     1       3.593  -6.436  14.006  1.00  0.00     0.023 C 
HETATM    7  C15 UNL     1       4.817  -5.508  14.170  1.00  0.00     0.020 C 
HETATM    8  C16 UNL     1       5.861  -6.558  14.558  1.00  0.00    -0.009 C 
HETATM    9  C21 UNL     1       5.692  -6.679  16.064  1.00  0.00     0.019 C 
ENDROOT
BRANCH   1  10
HETATM   10  N1  UNL     1       2.595  -5.961  16.137  1.00  0.00    -0.356 N 
HETATM   11  C5  UNL     1       1.171  -6.074  16.432  1.00  0.00     0.217 C 
HETATM   12  O1  UNL     1       0.607  -7.096  15.965  1.00  0.00    -0.274 OA
ATOM     13  H1  UNL     1       3.114  -5.156  16.487  1.00  0.00     0.162 HD
BRANCH  11  14
HETATM   14  C4  UNL     1       0.547  -5.012  17.225  1.00  0.00     0.103 C 
BRANCH  14  15
HETATM   15  C3  UNL     1       1.329  -3.883  17.725  1.00  0.00     0.024 C 
BRANCH  15  16
HETATM   16  C2  UNL     1       2.041  -3.967  19.014  1.00  0.00     0.083 C 
HETATM   17  C1  UNL     1       1.311  -4.850  20.020  1.00  0.00     0.021 C 
BRANCH  16  18
HETATM   18  C22 UNL     1       3.470  -4.212  19.057  1.00  0.00     0.176 C 
HETATM   19  O4  UNL     1       3.943  -5.353  18.767  1.00  0.00    -0.648 OA
HETATM   20  O5  UNL     1       4.351  -3.197  19.416  1.00  0.00    -0.648 OA
ENDBRANCH  16  18
ENDBRANCH  15  16
ENDBRANCH  14  15
ENDBRANCH  11  14
ENDBRANCH   1  10
BRANCH   5  21
HETATM   21  C11 UNL     1       3.421  -8.434  12.480  1.00  0.00     0.224 C 
HETATM   22  O2  UNL     1       2.320  -8.742  12.969  1.00  0.00    -0.273 OA
HETATM   23  N2  UNL     1       3.826  -9.086  11.305  1.00  0.00    -0.360 N 
HETATM   24  C12 UNL     1       5.068  -8.879  10.593  1.00  0.00     0.152 C 
HETATM   25  C13 UNL     1       2.930 -10.082  10.706  1.00  0.00     0.152 C 
ENDBRANCH   5  21
BRANCH   8  26
HETATM   26  C17 UNL     1       7.226  -6.196  14.128  1.00  0.00     0.130 C 
HETATM   27  C18 UNL     1       8.042  -7.391  13.778  1.00  0.00     0.035 C 
HETATM   28  C19 UNL     1       9.359  -7.177  14.532  1.00  0.00     0.029 C 
HETATM   29  C20 UNL     1       9.247  -5.692  14.882  1.00  0.00     0.168 C 
HETATM   30  O3  UNL     1       7.884  -5.620  15.215  1.00  0.00    -0.385 OA
ENDBRANCH   8  26
TORSDOF 7
ENDMDL
MODEL 4
REMARK VINA RESULT: -8.357759800      2.344      7.291
REMARK  7 active torsions:
REMARK  status: ('A' for Active; 'I' for Inactive)
REMARK    1  A    between atoms: C2_2  and  C3_3 
REMARK    2  A    between atoms: C2_2  and  C22_28 
REMARK    3  A    between atoms: C3_3  and  C4_4 
REMARK    4  A    between atoms: C4_4  and  C5_5 
REMARK       I    between atoms: C5_5  and  N1_7 
REMARK    5  A    between atoms: N1_7  and  C6_9 
REMARK    6  A    between atoms: C10_13  and  C11_14 
REMARK       I    between atoms: C11_14  and  N2_16 
REMARK    7  A    between atoms: C16_21  and  C17_22 
ROOT
HETATM    1  C6  UNL     1       5.742  -6.243  15.423  1.00  0.00     0.093 C 
HETATM    2  C7  UNL     1       6.053  -7.635  14.944  1.00  0.00     0.010 C 
HETATM    3  C8  UNL     1       4.846  -8.485  15.375  1.00  0.00     0.013 C 
HETATM    4  C9  UNL     1       3.760  -7.840  14.564  1.00  0.00     0.010 C 
HETATM    5  C10 UNL     1       3.255  -6.555  15.112  1.00  0.00     0.089 C 
HETATM    6  C14 UNL     1       4.465  -5.682  14.888  1.00  0.00     0.023 C 
HETATM    7  C15 UNL     1       4.529  -5.853  13.354  1.00  0.00     0.020 C 
HETATM    8  C16 UNL     1       4.466  -7.381  13.284  1.00  0.00    -0.009 C 
HETATM    9  C21 UNL     1       5.920  -7.798  13.438  1.00  0.00     0.019 C 
ENDROOT
BRANCH   1  10
HETATM   10  N1  UNL     1       6.814  -5.328  15.228  1.00  0.00    -0.356 N 
HETATM   11  C5  UNL     1       7.293  -4.475  16.311  1.00  0.00     0.217 C 
HETATM   12  O1  UNL     1       6.692  -4.613  17.406  1.00  0.00    -0.274 OA
ATOM     13  H1  UNL     1       7.258  -5.266  14.312  1.00  0.00     0.162 HD
BRANCH  11  14
HETATM   14  C4  UNL     1       8.401  -3.560  16.026  1.00  0.00     0.103 C 
BRANCH  14  15
HETATM   15  C3  UNL     1       9.789  -4.012  16.084  1.00  0.00     0.024 C 
BRANCH  15  16
HETATM   16  C2  UNL     1      10.353  -4.862  15.019  1.00  0.00     0.083 C 
HETATM   17  C1  UNL     1      11.762  -4.433  14.623  1.00  0.00     0.021 C 
BRANCH  16  18
HETATM   18  C22 UNL     1      10.259  -6.308  15.096  1.00  0.00     0.176 C 
HETATM   19  O4  UNL     1      10.955  -6.960  15.933  1.00  0.00    -0.648 OA
HETATM   20  O5  UNL     1       9.402  -7.006  14.253  1.00  0.00    -0.648 OA
ENDBRANCH  16  18
ENDBRANCH  15  16
ENDBRANCH  14  15
ENDBRANCH  11  14
ENDBRANCH   1  10
BRANCH   5  21
HETATM   21  C11 UNL     1       2.659  -6.547  16.418  1.00  0.00     0.224 C 
HETATM   22  O2  UNL     1       3.341  -6.327  17.435  1.00  0.00    -0.273 OA
HETATM   23  N2  UNL     1       1.287  -6.786  16.585  1.00  0.00    -0.360 N 
HETATM   24  C12 UNL     1       0.331  -7.071  15.537  1.00  0.00     0.152 C 
HETATM   25  C13 UNL     1       0.723  -6.752  17.940  1.00  0.00     0.152 C 
ENDBRANCH   5  21
BRANCH   8  26
HETATM   26  C17 UNL     1       3.823  -7.873  12.049  1.00  0.00     0.130 C 
HETATM   27  C18 UNL     1       2.540  -8.576  12.324  1.00  0.00     0.035 C 
HETATM   28  C19 UNL     1       2.652  -9.881  11.527  1.00  0.00     0.029 C 
HETATM   29  C20 UNL     1       3.818  -9.544  10.596  1.00  0.00     0.168 C 
HETATM   30  O3  UNL     1       4.650  -8.845  11.486  1.00  0.00    -0.385 OA
ENDBRANCH   8  26
TORSDOF 7
ENDMDL
MODEL 5
REMARK VINA RESULT: -8.213929354      1.548      2.077
REMARK  7 active torsions:
REMARK  status: ('A' for Active; 'I' for Inactive)
REMARK    1  A    between atoms: C2_2  and  C3_3 
REMARK    2  A    between atoms: C2_2  and  C22_28 
REMARK    3  A    between atoms: C3_3  and  C4_4 
REMARK    4  A    between atoms: C4_4  and  C5_5 
REMARK       I    between atoms: C5_5  and  N1_7 
REMARK    5  A    between atoms: N1_7  and  C6_9 
REMARK    6  A    between atoms: C10_13  and  C11_14 
REMARK       I    between atoms: C11_14  and  N2_16 
REMARK    7  A    between atoms: C16_21  and  C17_22 
ROOT
HETATM    1  C6  UNL     1       3.929  -7.758  13.521  1.00  0.00     0.093 C 
HETATM    2  C7  UNL     1       4.846  -6.720  12.932  1.00  0.00     0.010 C 
HETATM    3  C8  UNL     1       4.696  -5.490  13.843  1.00  0.00     0.013 C 
HETATM    4  C9  UNL     1       5.227  -6.044  15.133  1.00  0.00     0.010 C 
HETATM    5  C10 UNL     1       4.276  -6.912  15.875  1.00  0.00     0.089 C 
HETATM    6  C14 UNL     1       4.224  -8.098  14.946  1.00  0.00     0.023 C 
HETATM    7  C15 UNL     1       5.730  -8.439  15.003  1.00  0.00     0.020 C 
HETATM    8  C16 UNL     1       6.299  -7.051  14.699  1.00  0.00    -0.009 C 
HETATM    9  C21 UNL     1       6.319  -7.007  13.179  1.00  0.00     0.019 C 
ENDROOT
BRANCH   1  10
HETATM   10  N1  UNL     1       3.832  -8.937  12.731  1.00  0.00    -0.356 N 
HETATM   11  C5  UNL     1       2.546  -9.421  12.240  1.00  0.00     0.217 C 
HETATM   12  O1  UNL     1       1.552  -8.724  12.567  1.00  0.00    -0.274 OA
ATOM     13  H1  UNL     1       4.680  -9.456  12.503  1.00  0.00     0.162 HD
BRANCH  11  14
HETATM   14  C4  UNL     1       2.534 -10.644  11.434  1.00  0.00     0.103 C 
BRANCH  14  15
HETATM   15  C3  UNL     1       1.287 -11.179  10.891  1.00  0.00     0.024 C 
BRANCH  15  16
HETATM   16  C2  UNL     1       0.411 -12.037  11.711  1.00  0.00     0.083 C 
HETATM   17  C1  UNL     1       1.202 -13.028  12.558  1.00  0.00     0.021 C 
BRANCH  16  18
HETATM   18  C22 UNL     1      -0.682 -11.465  12.475  1.00  0.00     0.176 C 
HETATM   19  O4  UNL     1      -0.518 -11.120  13.685  1.00  0.00    -0.648 OA
HETATM   20  O5  UNL     1      -1.932 -11.286  11.893  1.00  0.00    -0.648 OA
ENDBRANCH  16  18
ENDBRANCH  15  16
ENDBRANCH  14  15
ENDBRANCH  11  14
ENDBRANCH   1  10
BRANCH   5  21
HETATM   21  C11 UNL     1       3.030  -6.352  16.314  1.00  0.00     0.224 C 
HETATM   22  O2  UNL     1       1.979  -6.543  15.677  1.00  0.00    -0.273 OA
HETATM   23  N2  UNL     1       2.960  -5.573  17.479  1.00  0.00    -0.360 N 
HETATM   24  C12 UNL     1       4.064  -5.228  18.348  1.00  0.00     0.152 C 
HETATM   25  C13 UNL     1       1.658  -5.036  17.894  1.00  0.00     0.152 C 
ENDBRANCH   5  21
BRANCH   8  26
HETATM   26  C17 UNL     1       7.613  -6.819  15.329  1.00  0.00     0.130 C 
HETATM   27  C18 UNL     1       7.693  -5.489  15.993  1.00  0.00     0.035 C 
HETATM   28  C19 UNL     1       9.013  -4.897  15.485  1.00  0.00     0.029 C 
HETATM   29  C20 UNL     1       9.684  -6.149  14.917  1.00  0.00     0.168 C 
HETATM   30  O3  UNL     1       8.576  -6.773  14.320  1.00  0.00    -0.385 OA
ENDBRANCH   8  26
TORSDOF 7
ENDMDL
