MODEL 1
REMARK VINA RESULT: -8.784919014      0.000      0.000
REMARK  6 active torsions:
REMARK  status: ('A' for Active; 'I' for Inactive)
REMARK       I    between atoms: C1_2  and  N2_4 
REMARK    1  A    between atoms: N2_4  and  C2_6 
REMARK    2  A    between atoms: C5_9  and  C6_10 
REMARK    3  A    between atoms: C6_10  and  C7_11 
REMARK    4  A    between atoms: C7_11  and  S1_12 
REMARK    5  A    between atoms: S1_12  and  N3_15 
REMARK    6  A    between atoms: C10_18  and  N4_19 
ROOT
HETATM    1  S1  UNL     1       6.820  -4.739  17.543  1.00  0.00     0.211 S 
HETATM    2  O2  UNL     1       8.000  -5.532  18.025  1.00  0.00    -0.211 OA
HETATM    3  O3  UNL     1       7.013  -3.294  17.880  1.00  0.00    -0.211 OA
ENDROOT
BRANCH   1   4
HETATM    4  C7  UNL     1       6.696  -4.922  15.777  1.00  0.00     0.158 C 
BRANCH   4   5
HETATM    5  C6  UNL     1       7.018  -6.354  15.453  1.00  0.00     0.021 C 
BRANCH   5   6
HETATM    6  C5  UNL     1       7.248  -6.527  13.984  1.00  0.00    -0.013 C 
HETATM    7  C4  UNL     1       7.473  -7.935  13.566  1.00  0.00     0.007 C 
HETATM    8  C3  UNL     1       6.251  -8.745  13.951  1.00  0.00     0.026 C 
HETATM    9  C2  UNL     1       5.000  -8.210  13.298  1.00  0.00     0.085 C 
HETATM   10  C19 UNL     1       4.811  -6.740  13.498  1.00  0.00     0.026 C 
HETATM   11  C18 UNL     1       6.046  -5.916  13.281  1.00  0.00     0.007 C 
BRANCH   9  12
HETATM   12  N2  UNL     1       4.995  -8.576  11.884  1.00  0.00    -0.341 N 
HETATM   13  C1  UNL     1       3.830  -8.944  11.203  1.00  0.00     0.329 C 
HETATM   14  N1  UNL     1       3.872  -9.291   9.838  1.00  0.00    -0.040 NA
HETATM   15  O1  UNL     1       2.737  -8.969  11.808  1.00  0.00    -0.251 OA
ATOM     16  H2  UNL     1       5.877  -8.563  11.372  1.00  0.00     0.164 HD
ENDBRANCH   9  12
ENDBRANCH   5   6
ENDBRANCH   4   5
ENDBRANCH   1   4
BRANCH   1  17
HETATM   17  N3  UNL     1       5.414  -5.370  18.327  1.00  0.00    -0.210 NA
HETATM   18  C8  UNL     1       4.663  -4.241  18.815  1.00  0.00     0.109 C 
HETATM   19  C9  UNL     1       3.206  -4.621  19.102  1.00  0.00     0.040 C 
HETATM   20  C10 UNL     1       2.518  -5.044  17.828  1.00  0.00     0.081 C 
HETATM   21  C16 UNL     1       3.447  -5.744  16.882  1.00  0.00     0.040 C 
HETATM   22  C17 UNL     1       4.687  -6.273  17.515  1.00  0.00     0.109 C 
BRANCH  20  23
HETATM   23  N4  UNL     1       1.320  -5.787  18.048  1.00  0.00    -0.408 N 
HETATM   24  C11 UNL     1       0.333  -5.140  18.848  1.00  0.00     0.117 C 
HETATM   25  C12 UNL     1      -0.921  -6.025  18.813  1.00  0.00     0.019 C 
HETATM   26  C13 UNL     1      -1.511  -5.941  17.441  1.00  0.00     0.003 C 
HETATM   27  C14 UNL     1      -0.464  -5.853  16.352  1.00  0.00     0.019 C 
HETATM   28  C15 UNL     1       0.818  -6.441  16.878  1.00  0.00     0.117 C 
ENDBRANCH  20  23
ENDBRANCH   1  17
TORSDOF 6
ENDMDL
MODEL 2
REMARK VINA RESULT: -8.190079735      3.599      8.756
REMARK  6 active torsions:
REMARK  status: ('A' for Active; 'I' for Inactive)
REMARK       I    between atoms: C1_2  and  N2_4 
REMARK    1  A    between atoms: N2_4  and  C2_6 
REMARK    2  A    between atoms: C5_9  and  C6_10 
REMARK    3  A    between atoms: C6_10  and  C7_11 
REMARK    4  A    between atoms: C7_11  and  S1_12 
REMARK    5  A    between atoms: S1_12  and  N3_15 
REMARK    6  A    between atoms: C10_18  and  N4_19 
ROOT
HETATM    1  S1  UNL     1       4.177  -6.707  15.420  1.00  0.00     0.211 S 
HETATM    2  O2  UNL     1       3.440  -8.013  15.363  1.00  0.00    -0.211 OA
HETATM    3  O3  UNL     1       3.909  -5.922  14.175  1.00  0.00    -0.211 OA
ENDROOT
BRANCH   1   4
HETATM    4  C7  UNL     1       3.600  -5.791  16.833  1.00  0.00     0.158 C 
BRANCH   4   5
HETATM    5  C6  UNL     1       2.216  -6.284  17.150  1.00  0.00     0.021 C 
BRANCH   5   6
HETATM    6  C5  UNL     1       1.229  -5.160  17.104  1.00  0.00    -0.013 C 
HETATM    7  C4  UNL     1      -0.165  -5.562  17.428  1.00  0.00     0.007 C 
HETATM    8  C3  UNL     1      -0.178  -6.145  18.826  1.00  0.00     0.026 C 
HETATM    9  C2  UNL     1       0.320  -5.152  19.848  1.00  0.00     0.085 C 
HETATM   10  C19 UNL     1       1.633  -4.538  19.485  1.00  0.00     0.026 C 
HETATM   11  C18 UNL     1       1.742  -4.092  18.057  1.00  0.00     0.007 C 
BRANCH   9  12
HETATM   12  N2  UNL     1      -0.710  -4.143  20.086  1.00  0.00    -0.341 N 
HETATM   13  C1  UNL     1      -1.755  -4.329  20.997  1.00  0.00     0.329 C 
HETATM   14  N1  UNL     1      -2.727  -3.329  21.195  1.00  0.00    -0.040 NA
HETATM   15  O1  UNL     1      -1.831  -5.395  21.646  1.00  0.00    -0.251 OA
ATOM     16  H2  UNL     1      -0.665  -3.266  19.567  1.00  0.00     0.164 HD
ENDBRANCH   9  12
ENDBRANCH   5   6
ENDBRANCH   4   5
ENDBRANCH   1   4
BRANCH   1  17
HETATM   17  N3  UNL     1       5.863  -7.068  15.568  1.00  0.00    -0.210 NA
HETATM   18  C8  UNL     1       6.410  -7.064  14.235  1.00  0.00     0.109 C 
HETATM   19  C9  UNL     1       7.935  -6.903  14.259  1.00  0.00     0.040 C 
HETATM   20  C10 UNL     1       8.309  -5.568  14.854  1.00  0.00     0.081 C 
HETATM   21  C16 UNL     1       7.355  -5.133  15.925  1.00  0.00     0.040 C 
HETATM   22  C17 UNL     1       6.527  -6.232  16.497  1.00  0.00     0.109 C 
BRANCH  20  23
HETATM   23  N4  UNL     1       9.666  -5.498  15.286  1.00  0.00    -0.408 N 
HETATM   24  C11 UNL     1      10.579  -6.338  14.584  1.00  0.00     0.117 C 
HETATM   25  C12 UNL     1      11.987  -5.982  15.083  1.00  0.00     0.019 C 
HETATM   26  C13 UNL     1      12.334  -4.623  14.564  1.00  0.00     0.003 C 
HETATM   27  C14 UNL     1      11.149  -3.684  14.529  1.00  0.00     0.019 C 
HETATM   28  C15 UNL     1      10.132  -4.166  15.528  1.00  0.00     0.117 C 
ENDBRANCH  20  23
ENDBRANCH   1  17
TORSDOF 6
ENDMDL
MODEL 3
REMARK VINA RESULT: -8.146973637      3.111      7.234
REMARK  6 active torsions:
REMARK  status: ('A' for Active; 'I' for Inactive)
REMARK       I    between atoms: C1_2  and  N2_4 
REMARK    1  A    between atoms: N2_4  and  C2_6 
REMARK    2  A    between atoms: C5_9  and  C6_10 
REMARK    3  A    between atoms: C6_10  and  C7_11 
REMARK    4  A    between atoms: C7_11  and  S1_12 
REMARK    5  A    between atoms: S1_12  and  N3_15 
REMARK    6  A    between atoms: C10_18  and  N4_19 
ROOT
HETATM    1  S1  UNL     1       2.401  -4.556  18.676  1.00  0.00     0.211 S 
HETATM    2  O2  UNL     1       1.689  -3.944  17.505  1.00  0.00    -0.211 OA
HETATM    3  O3  UNL     1       3.124  -3.491  19.438  1.00  0.00    -0.211 OA
ENDROOT
BRANCH   1   4
HETATM    4  C7  UNL     1       1.196  -5.325  19.735  1.00  0.00     0.158 C 
BRANCH   4   5
HETATM    5  C6  UNL     1      -0.129  -5.257  19.028  1.00  0.00     0.021 C 
BRANCH   5   6
HETATM    6  C5  UNL     1      -0.729  -6.621  18.891  1.00  0.00    -0.013 C 
HETATM    7  C4  UNL     1      -2.192  -6.618  18.635  1.00  0.00     0.007 C 
HETATM    8  C3  UNL     1      -2.448  -5.859  17.348  1.00  0.00     0.026 C 
HETATM    9  C2  UNL     1      -1.724  -6.483  16.180  1.00  0.00     0.085 C 
HETATM   10  C19 UNL     1      -0.271  -6.715  16.441  1.00  0.00     0.026 C 
HETATM   11  C18 UNL     1       0.036  -7.321  17.778  1.00  0.00     0.007 C 
BRANCH   9  12
HETATM   12  N2  UNL     1      -2.412  -7.708  15.780  1.00  0.00    -0.341 N 
HETATM   13  C1  UNL     1      -2.591  -8.072  14.442  1.00  0.00     0.329 C 
HETATM   14  N1  UNL     1      -3.262  -9.264  14.102  1.00  0.00    -0.040 NA
HETATM   15  O1  UNL     1      -2.154  -7.334  13.533  1.00  0.00    -0.251 OA
ATOM     16  H2  UNL     1      -2.777  -8.323  16.508  1.00  0.00     0.164 HD
ENDBRANCH   9  12
ENDBRANCH   5   6
ENDBRANCH   4   5
ENDBRANCH   1   4
BRANCH   1  17
HETATM   17  N3  UNL     1       3.511  -5.728  18.055  1.00  0.00    -0.210 NA
HETATM   18  C8  UNL     1       3.311  -5.781  16.629  1.00  0.00     0.109 C 
HETATM   19  C9  UNL     1       4.515  -6.409  15.918  1.00  0.00     0.040 C 
HETATM   20  C10 UNL     1       5.743  -5.556  16.122  1.00  0.00     0.081 C 
HETATM   21  C16 UNL     1       5.755  -4.884  17.462  1.00  0.00     0.040 C 
HETATM   22  C17 UNL     1       4.845  -5.499  18.469  1.00  0.00     0.109 C 
BRANCH  20  23
HETATM   23  N4  UNL     1       6.964  -6.243  15.858  1.00  0.00    -0.408 N 
HETATM   24  C11 UNL     1       7.290  -6.412  14.480  1.00  0.00     0.117 C 
HETATM   25  C12 UNL     1       8.703  -7.010  14.425  1.00  0.00     0.019 C 
HETATM   26  C13 UNL     1       9.671  -5.955  14.860  1.00  0.00     0.003 C 
HETATM   27  C14 UNL     1       9.129  -5.076  15.965  1.00  0.00     0.019 C 
HETATM   28  C15 UNL     1       8.053  -5.836  16.693  1.00  0.00     0.117 C 
ENDBRANCH  20  23
ENDBRANCH   1  17
TORSDOF 6
ENDMDL
MODEL 4
REMARK VINA RESULT: -8.125938474      3.413      8.646
REMARK  6 active torsions:
REMARK  status: ('A' for Active; 'I' for Inactive)
REMARK       I    between atoms: C1_2  and  N2_4 
REMARK    1  A    between atoms: N2_4  and  C2_6 
REMARK    2  A    between atoms: C5_9  and  C6_10 
REMARK    3  A    between atoms: C6_10  and  C7_11 
REMARK    4  A    between atoms: C7_11  and  S1_12 
REMARK    5  A    between atoms: S1_12  and  N3_15 
REMARK    6  A    between atoms: C10_18  and  N4_19 
ROOT
HETATM    1  S1  UNL     1       3.439  -7.239  15.144  1.00  0.00     0.211 S 
HETATM    2  O2  UNL     1       3.752  -8.029  16.381  1.00  0.00    -0.211 OA
HETATM    3  O3  UNL     1       3.294  -8.167  13.978  1.00  0.00    -0.211 OA
ENDROOT
BRANCH   1   4
HETATM    4  C7  UNL     1       1.909  -6.367  15.399  1.00  0.00     0.158 C 
BRANCH   4   5
HETATM    5  C6  UNL     1       1.743  -6.180  16.881  1.00  0.00     0.021 C 
BRANCH   5   6
HETATM    6  C5  UNL     1       0.783  -5.069  17.172  1.00  0.00    -0.013 C 
HETATM    7  C4  UNL     1      -0.445  -5.500  17.888  1.00  0.00     0.007 C 
HETATM    8  C3  UNL     1      -0.033  -6.125  19.205  1.00  0.00     0.026 C 
HETATM    9  C2  UNL     1       0.746  -5.157  20.062  1.00  0.00     0.085 C 
HETATM   10  C19 UNL     1       1.886  -4.515  19.340  1.00  0.00     0.026 C 
HETATM   11  C18 UNL     1       1.556  -4.024  17.961  1.00  0.00     0.007 C 
BRANCH   9  12
HETATM   12  N2  UNL     1      -0.168  -4.170  20.633  1.00  0.00    -0.341 N 
HETATM   13  C1  UNL     1      -0.639  -4.248  21.947  1.00  0.00     0.329 C 
HETATM   14  N1  UNL     1      -1.520  -3.274  22.457  1.00  0.00    -0.040 NA
HETATM   15  O1  UNL     1      -0.279  -5.193  22.682  1.00  0.00    -0.251 OA
ATOM     16  H2  UNL     1      -0.474  -3.392  20.049  1.00  0.00     0.164 HD
ENDBRANCH   9  12
ENDBRANCH   5   6
ENDBRANCH   4   5
ENDBRANCH   1   4
BRANCH   1  17
HETATM   17  N3  UNL     1       4.744  -6.133  14.889  1.00  0.00    -0.210 NA
HETATM   18  C8  UNL     1       5.357  -5.906  16.173  1.00  0.00     0.109 C 
HETATM   19  C9  UNL     1       6.773  -5.338  16.023  1.00  0.00     0.040 C 
HETATM   20  C10 UNL     1       7.662  -6.335  15.321  1.00  0.00     0.081 C 
HETATM   21  C16 UNL     1       6.919  -7.144  14.301  1.00  0.00     0.040 C 
HETATM   22  C17 UNL     1       5.626  -6.547  13.863  1.00  0.00     0.109 C 
BRANCH  20  23
HETATM   23  N4  UNL     1       8.850  -5.757  14.782  1.00  0.00    -0.408 N 
HETATM   24  C11 UNL     1       9.378  -4.648  15.506  1.00  0.00     0.117 C 
HETATM   25  C12 UNL     1      10.728  -4.298  14.864  1.00  0.00     0.019 C 
HETATM   26  C13 UNL     1      11.696  -5.389  15.193  1.00  0.00     0.003 C 
HETATM   27  C14 UNL     1      11.058  -6.761  15.208  1.00  0.00     0.019 C 
HETATM   28  C15 UNL     1       9.820  -6.717  14.351  1.00  0.00     0.117 C 
ENDBRANCH  20  23
ENDBRANCH   1  17
TORSDOF 6
ENDMDL
MODEL 5
REMARK VINA RESULT: -8.072147884      3.609      7.134
REMARK  6 active torsions:
REMARK  status: ('A' for Active; 'I' for Inactive)
REMARK       I    between atoms: C1_2  and  N2_4 
REMARK    1  A    between atoms: N2_4  and  C2_6 
REMARK    2  A    between atoms: C5_9  and  C6_10 
REMARK    3  A    between atoms: C6_10  and  C7_11 
REMARK    4  A    between atoms: C7_11  and  S1_12 
REMARK    5  A    between atoms: S1_12  and  N3_15 
REMARK    6  A    between atoms: C10_18  and  N4_19 
ROOT
HETATM    1  S1  UNL     1       3.374  -7.366  15.544  1.00  0.00     0.211 S 
HETATM    2  O2  UNL     1       4.260  -8.508  15.949  1.00  0.00    -0.211 OA
HETATM    3  O3  UNL     1       2.108  -7.405  16.340  1.00  0.00    -0.211 OA
ENDROOT
BRANCH   1   4
HETATM    4  C7  UNL     1       4.230  -5.840  15.870  1.00  0.00     0.158 C 
BRANCH   4   5
HETATM    5  C6  UNL     1       5.695  -6.162  15.968  1.00  0.00     0.021 C 
BRANCH   5   6
HETATM    6  C5  UNL     1       6.524  -5.032  15.440  1.00  0.00    -0.013 C 
HETATM    7  C4  UNL     1       7.475  -4.463  16.429  1.00  0.00     0.007 C 
HETATM    8  C3  UNL     1       8.412  -5.567  16.877  1.00  0.00     0.026 C 
HETATM    9  C2  UNL     1       9.173  -6.157  15.714  1.00  0.00     0.085 C 
HETATM   10  C19 UNL     1       8.292  -6.565  14.578  1.00  0.00     0.026 C 
HETATM   11  C18 UNL     1       7.242  -5.560  14.208  1.00  0.00     0.007 C 
BRANCH   9  12
HETATM   12  N2  UNL     1      10.216  -5.224  15.293  1.00  0.00    -0.341 N 
HETATM   13  C1  UNL     1      11.351  -5.630  14.584  1.00  0.00     0.329 C 
HETATM   14  N1  UNL     1      12.333  -4.696  14.198  1.00  0.00    -0.040 NA
HETATM   15  O1  UNL     1      11.501  -6.835  14.288  1.00  0.00    -0.251 OA
ATOM     16  H2  UNL     1      10.111  -4.237  15.525  1.00  0.00     0.164 HD
ENDBRANCH   9  12
ENDBRANCH   5   6
ENDBRANCH   4   5
ENDBRANCH   1   4
BRANCH   1  17
HETATM   17  N3  UNL     1       3.044  -7.538  13.855  1.00  0.00    -0.210 NA
HETATM   18  C8  UNL     1       4.191  -8.182  13.267  1.00  0.00     0.109 C 
HETATM   19  C9  UNL     1       3.846  -8.805  11.909  1.00  0.00     0.040 C 
HETATM   20  C10 UNL     1       2.815  -9.893  12.082  1.00  0.00     0.081 C 
HETATM   21  C16 UNL     1       1.852  -9.596  13.191  1.00  0.00     0.040 C 
HETATM   22  C17 UNL     1       1.801  -8.163  13.596  1.00  0.00     0.109 C 
BRANCH  20  23
HETATM   23  N4  UNL     1       2.146 -10.240  10.871  1.00  0.00    -0.408 N 
HETATM   24  C11 UNL     1       2.991 -10.482   9.748  1.00  0.00     0.117 C 
HETATM   25  C12 UNL     1       2.093 -11.001   8.617  1.00  0.00     0.019 C 
HETATM   26  C13 UNL     1       1.636 -12.378   8.981  1.00  0.00     0.003 C 
HETATM   27  C14 UNL     1       1.370 -12.540  10.461  1.00  0.00     0.019 C 
HETATM   28  C15 UNL     1       1.083 -11.182  11.043  1.00  0.00     0.117 C 
ENDBRANCH  20  23
ENDBRANCH   1  17
TORSDOF 6
ENDMDL
