MODEL 1
REMARK VINA RESULT: -6.936033916      0.000      0.000
REMARK  6 active torsions:
REMARK  status: ('A' for Active; 'I' for Inactive)
REMARK    1  A    between atoms: O1_2  and  C2_3 
REMARK       I    between atoms: N1_6  and  C5_7 
REMARK    2  A    between atoms: C5_7  and  C6_9 
REMARK    3  A    between atoms: C6_9  and  N2_10 
REMARK    4  A    between atoms: C6_9  and  C18_24 
REMARK       I    between atoms: N2_10  and  C7_12 
REMARK    5  A    between atoms: C7_12  and  C8_14 
REMARK    6  A    between atoms: C21_27  and  C22_28 
ROOT
HETATM    1  C6  UNL     1      -0.271  -6.986  17.385  1.00  0.00     0.180 C 
ENDROOT
BRANCH   1   2
HETATM    2  C5  UNL     1      -1.048  -8.241  17.513  1.00  0.00     0.243 C 
HETATM    3  N1  UNL     1      -2.024  -8.709  16.617  1.00  0.00    -0.333 N 
HETATM    4  C4  UNL     1      -2.791  -9.922  16.797  1.00  0.00     0.129 C 
HETATM    5  C21 UNL     1      -2.401  -8.096  15.372  1.00  0.00     0.217 C 
HETATM    6  C3  UNL     1      -3.486 -10.242  15.519  1.00  0.00     0.054 C 
HETATM    7  C2  UNL     1      -3.574  -8.900  14.827  1.00  0.00     0.155 C 
HETATM    8  O2  UNL     1      -0.801  -8.968  18.544  1.00  0.00    -0.271 OA
BRANCH   7   9
HETATM    9  O1  UNL     1      -3.452  -9.138  13.462  1.00  0.00    -0.388 OA
HETATM   10  C1  UNL     1      -4.481  -9.926  13.006  1.00  0.00     0.202 C 
ENDBRANCH   7   9
BRANCH   5  11
HETATM   11  C22 UNL     1      -1.331  -8.227  14.342  1.00  0.00     0.199 C 
HETATM   12  O4  UNL     1      -1.155  -7.322  13.490  1.00  0.00    -0.646 OA
HETATM   13  O5  UNL     1      -0.548  -9.353  14.350  1.00  0.00    -0.646 OA
ENDBRANCH   5  11
ENDBRANCH   1   2
BRANCH   1  14
HETATM   14  N2  UNL     1       1.113  -7.288  16.975  1.00  0.00    -0.347 N 
HETATM   15  C7  UNL     1       1.708  -6.680  15.843  1.00  0.00     0.227 C 
HETATM   16  O3  UNL     1       0.998  -5.860  15.193  1.00  0.00    -0.273 OA
ATOM     17  H2  UNL     1       1.658  -7.955  17.522  1.00  0.00     0.163 HD
BRANCH  15  18
HETATM   18  C8  UNL     1       3.068  -6.930  15.380  1.00  0.00     0.042 C 
HETATM   19  C9  UNL     1       3.036  -8.215  14.554  1.00  0.00     0.024 C 
HETATM   20  C10 UNL     1       4.384  -8.522  13.972  1.00  0.00    -0.013 C 
HETATM   21  C11 UNL     1       4.771  -7.409  13.028  1.00  0.00     0.009 C 
HETATM   22  C15 UNL     1       5.370  -8.654  15.090  1.00  0.00     0.009 C 
HETATM   23  C12 UNL     1       4.823  -6.124  13.821  1.00  0.00    -0.013 C 
HETATM   24  C13 UNL     1       5.861  -6.236  14.908  1.00  0.00     0.009 C 
HETATM   25  C17 UNL     1       3.489  -5.831  14.436  1.00  0.00     0.024 C 
HETATM   26  C14 UNL     1       5.424  -7.332  15.851  1.00  0.00    -0.013 C 
HETATM   27  C16 UNL     1       4.084  -7.021  16.487  1.00  0.00     0.024 C 
ENDBRANCH  15  18
ENDBRANCH   1  14
BRANCH   1  28
HETATM   28  C18 UNL     1      -0.172  -6.303  18.731  1.00  0.00     0.009 C 
HETATM   29  C19 UNL     1       0.919  -5.309  18.869  1.00  0.00     0.012 C 
HETATM   30  C20 UNL     1      -1.486  -5.710  19.191  1.00  0.00     0.012 C 
ENDBRANCH   1  28
TORSDOF 6
ENDMDL
MODEL 2
REMARK VINA RESULT: -6.879386045      0.247      1.543
REMARK  6 active torsions:
REMARK  status: ('A' for Active; 'I' for Inactive)
REMARK    1  A    between atoms: O1_2  and  C2_3 
REMARK       I    between atoms: N1_6  and  C5_7 
REMARK    2  A    between atoms: C5_7  and  C6_9 
REMARK    3  A    between atoms: C6_9  and  N2_10 
REMARK    4  A    between atoms: C6_9  and  C18_24 
REMARK       I    between atoms: N2_10  and  C7_12 
REMARK    5  A    between atoms: C7_12  and  C8_14 
REMARK    6  A    between atoms: C21_27  and  C22_28 
ROOT
HETATM    1  C6  UNL     1      -0.255  -7.007  17.385  1.00  0.00     0.180 C 
ENDROOT
BRANCH   1   2
HETATM    2  C5  UNL     1      -1.050  -8.235  17.617  1.00  0.00     0.243 C 
HETATM    3  N1  UNL     1      -2.090  -8.718  16.803  1.00  0.00    -0.333 N 
HETATM    4  C4  UNL     1      -2.871  -9.902  17.085  1.00  0.00     0.129 C 
HETATM    5  C21 UNL     1      -2.528  -8.152  15.557  1.00  0.00     0.217 C 
HETATM    6  C3  UNL     1      -3.649 -10.261  15.866  1.00  0.00     0.054 C 
HETATM    7  C2  UNL     1      -3.749  -8.949  15.121  1.00  0.00     0.155 C 
HETATM    8  O2  UNL     1      -0.757  -8.921  18.663  1.00  0.00    -0.271 OA
BRANCH   7   9
HETATM    9  O1  UNL     1      -3.717  -9.250  13.763  1.00  0.00    -0.388 OA
HETATM   10  C1  UNL     1      -4.758 -10.077  13.417  1.00  0.00     0.202 C 
ENDBRANCH   7   9
BRANCH   5  11
HETATM   11  C22 UNL     1      -1.526  -8.354  14.472  1.00  0.00     0.199 C 
HETATM   12  O4  UNL     1      -0.791  -9.371  14.467  1.00  0.00    -0.646 OA
HETATM   13  O5  UNL     1      -1.429  -7.406  13.484  1.00  0.00    -0.646 OA
ENDBRANCH   5  11
ENDBRANCH   1   2
BRANCH   1  14
HETATM   14  N2  UNL     1       1.098  -7.361  16.917  1.00  0.00    -0.347 N 
HETATM   15  C7  UNL     1       1.641  -6.826  15.724  1.00  0.00     0.227 C 
HETATM   16  O3  UNL     1       0.912  -6.026  15.070  1.00  0.00    -0.273 OA
ATOM     17  H2  UNL     1       1.659  -8.011  17.469  1.00  0.00     0.163 HD
BRANCH  15  18
HETATM   18  C8  UNL     1       2.967  -7.132  15.201  1.00  0.00     0.042 C 
HETATM   19  C9  UNL     1       3.446  -5.902  14.432  1.00  0.00     0.024 C 
HETATM   20  C10 UNL     1       4.840  -6.094  13.911  1.00  0.00    -0.013 C 
HETATM   21  C11 UNL     1       5.778  -6.266  15.081  1.00  0.00     0.009 C 
HETATM   22  C15 UNL     1       4.857  -7.296  13.020  1.00  0.00     0.009 C 
HETATM   23  C12 UNL     1       5.335  -7.485  15.856  1.00  0.00    -0.013 C 
HETATM   24  C13 UNL     1       5.413  -8.706  14.975  1.00  0.00     0.009 C 
HETATM   25  C17 UNL     1       3.930  -7.315  16.348  1.00  0.00     0.024 C 
HETATM   26  C14 UNL     1       4.438  -8.515  13.837  1.00  0.00    -0.013 C 
HETATM   27  C16 UNL     1       3.016  -8.365  14.338  1.00  0.00     0.024 C 
ENDBRANCH  15  18
ENDBRANCH   1  14
BRANCH   1  28
HETATM   28  C18 UNL     1      -0.068  -6.261  18.689  1.00  0.00     0.009 C 
HETATM   29  C19 UNL     1       1.059  -5.300  18.723  1.00  0.00     0.012 C 
HETATM   30  C20 UNL     1      -1.338  -5.602  19.181  1.00  0.00     0.012 C 
ENDBRANCH   1  28
TORSDOF 6
ENDMDL
MODEL 3
REMARK VINA RESULT: -6.697498881      0.235      1.512
REMARK  6 active torsions:
REMARK  status: ('A' for Active; 'I' for Inactive)
REMARK    1  A    between atoms: O1_2  and  C2_3 
REMARK       I    between atoms: N1_6  and  C5_7 
REMARK    2  A    between atoms: C5_7  and  C6_9 
REMARK    3  A    between atoms: C6_9  and  N2_10 
REMARK    4  A    between atoms: C6_9  and  C18_24 
REMARK       I    between atoms: N2_10  and  C7_12 
REMARK    5  A    between atoms: C7_12  and  C8_14 
REMARK    6  A    between atoms: C21_27  and  C22_28 
ROOT
HETATM    1  C6  UNL     1      -0.387  -7.022  17.455  1.00  0.00     0.180 C 
ENDROOT
BRANCH   1   2
HETATM    2  C5  UNL     1      -1.110  -8.304  17.625  1.00  0.00     0.243 C 
HETATM    3  N1  UNL     1      -2.100  -8.818  16.770  1.00  0.00    -0.333 N 
HETATM    4  C4  UNL     1      -2.812 -10.058  16.991  1.00  0.00     0.129 C 
HETATM    5  C21 UNL     1      -2.546  -8.235  15.534  1.00  0.00     0.217 C 
HETATM    6  C3  UNL     1      -3.540 -10.419  15.742  1.00  0.00     0.054 C 
HETATM    7  C2  UNL     1      -3.705  -9.088  15.041  1.00  0.00     0.155 C 
HETATM    8  O2  UNL     1      -0.798  -9.009  18.653  1.00  0.00    -0.271 OA
BRANCH   7   9
HETATM    9  O1  UNL     1      -3.625  -9.337  13.674  1.00  0.00    -0.388 OA
HETATM   10  C1  UNL     1      -4.757  -9.970  13.222  1.00  0.00     0.202 C 
ENDBRANCH   7   9
BRANCH   5  11
HETATM   11  C22 UNL     1      -1.510  -8.336  14.467  1.00  0.00     0.199 C 
HETATM   12  O4  UNL     1      -0.696  -9.292  14.459  1.00  0.00    -0.646 OA
HETATM   13  O5  UNL     1      -1.468  -7.363  13.499  1.00  0.00    -0.646 OA
ENDBRANCH   5  11
ENDBRANCH   1   2
BRANCH   1  14
HETATM   14  N2  UNL     1       0.987  -7.274  16.982  1.00  0.00    -0.347 N 
HETATM   15  C7  UNL     1       1.511  -6.638  15.831  1.00  0.00     0.227 C 
HETATM   16  O3  UNL     1       0.746  -5.837  15.220  1.00  0.00    -0.273 OA
ATOM     17  H2  UNL     1       1.576  -7.927  17.499  1.00  0.00     0.163 HD
BRANCH  15  18
HETATM   18  C8  UNL     1       2.856  -6.840  15.307  1.00  0.00     0.042 C 
HETATM   19  C9  UNL     1       3.793  -6.987  16.504  1.00  0.00     0.024 C 
HETATM   20  C10 UNL     1       5.199  -7.269  16.064  1.00  0.00    -0.013 C 
HETATM   21  C11 UNL     1       5.224  -8.588  15.331  1.00  0.00     0.009 C 
HETATM   22  C15 UNL     1       5.660  -6.150  15.185  1.00  0.00     0.009 C 
HETATM   23  C12 UNL     1       4.313  -8.469  14.131  1.00  0.00    -0.013 C 
HETATM   24  C13 UNL     1       4.815  -7.382  13.214  1.00  0.00     0.009 C 
HETATM   25  C17 UNL     1       2.914  -8.150  14.561  1.00  0.00     0.024 C 
HETATM   26  C14 UNL     1       4.742  -6.075  13.968  1.00  0.00    -0.013 C 
HETATM   27  C16 UNL     1       3.323  -5.747  14.383  1.00  0.00     0.024 C 
ENDBRANCH  15  18
ENDBRANCH   1  14
BRANCH   1  28
HETATM   28  C18 UNL     1      -0.251  -6.327  18.793  1.00  0.00     0.009 C 
HETATM   29  C19 UNL     1       0.855  -5.347  18.899  1.00  0.00     0.012 C 
HETATM   30  C20 UNL     1      -1.547  -5.714  19.275  1.00  0.00     0.012 C 
ENDBRANCH   1  28
TORSDOF 6
ENDMDL
MODEL 4
REMARK VINA RESULT: -6.564012602      1.942      6.803
REMARK  6 active torsions:
REMARK  status: ('A' for Active; 'I' for Inactive)
REMARK    1  A    between atoms: O1_2  and  C2_3 
REMARK       I    between atoms: N1_6  and  C5_7 
REMARK    2  A    between atoms: C5_7  and  C6_9 
REMARK    3  A    between atoms: C6_9  and  N2_10 
REMARK    4  A    between atoms: C6_9  and  C18_24 
REMARK       I    between atoms: N2_10  and  C7_12 
REMARK    5  A    between atoms: C7_12  and  C8_14 
REMARK    6  A    between atoms: C21_27  and  C22_28 
ROOT
HETATM    1  C6  UNL     1       2.326  -7.370  14.448  1.00  0.00     0.180 C 
ENDROOT
BRANCH   1   2
HETATM    2  C5  UNL     1       3.049  -7.141  15.721  1.00  0.00     0.243 C 
HETATM    3  N1  UNL     1       2.736  -6.172  16.691  1.00  0.00    -0.333 N 
HETATM    4  C4  UNL     1       3.491  -5.953  17.905  1.00  0.00     0.129 C 
HETATM    5  C21 UNL     1       1.616  -5.272  16.666  1.00  0.00     0.217 C 
HETATM    6  C3  UNL     1       2.694  -5.078  18.810  1.00  0.00     0.054 C 
HETATM    7  C2  UNL     1       1.775  -4.343  17.860  1.00  0.00     0.155 C 
HETATM    8  O2  UNL     1       4.056  -7.903  15.957  1.00  0.00    -0.271 OA
BRANCH   7   9
HETATM    9  O1  UNL     1       0.572  -4.146  18.531  1.00  0.00    -0.388 OA
HETATM   10  C1  UNL     1       0.699  -4.439  19.867  1.00  0.00     0.202 C 
ENDBRANCH   7   9
BRANCH   5  11
HETATM   11  C22 UNL     1       0.326  -5.983  16.897  1.00  0.00     0.199 C 
HETATM   12  O4  UNL     1       0.300  -7.056  17.548  1.00  0.00    -0.646 OA
HETATM   13  O5  UNL     1      -0.824  -5.438  16.385  1.00  0.00    -0.646 OA
ENDBRANCH   5  11
ENDBRANCH   1   2
BRANCH   1  14
HETATM   14  N2  UNL     1       1.188  -8.281  14.670  1.00  0.00    -0.347 N 
HETATM   15  C7  UNL     1      -0.094  -8.025  14.125  1.00  0.00     0.227 C 
HETATM   16  O3  UNL     1      -0.223  -6.973  13.435  1.00  0.00    -0.273 OA
ATOM     17  H2  UNL     1       1.328  -9.121  15.233  1.00  0.00     0.163 HD
BRANCH  15  18
HETATM   18  C8  UNL     1      -1.261  -8.879  14.303  1.00  0.00     0.042 C 
HETATM   19  C9  UNL     1      -2.435  -8.194  13.606  1.00  0.00     0.024 C 
HETATM   20  C10 UNL     1      -3.676  -9.035  13.675  1.00  0.00    -0.013 C 
HETATM   21  C11 UNL     1      -3.429 -10.328  12.937  1.00  0.00     0.009 C 
HETATM   22  C15 UNL     1      -4.007  -9.283  15.112  1.00  0.00     0.009 C 
HETATM   23  C12 UNL     1      -2.277 -11.036  13.614  1.00  0.00    -0.013 C 
HETATM   24  C13 UNL     1      -2.637 -11.342  15.046  1.00  0.00     0.009 C 
HETATM   25  C17 UNL     1      -1.045 -10.186  13.582  1.00  0.00     0.024 C 
HETATM   26  C14 UNL     1      -2.841 -10.027  15.760  1.00  0.00    -0.013 C 
HETATM   27  C16 UNL     1      -1.586  -9.180  15.743  1.00  0.00     0.024 C 
ENDBRANCH  15  18
ENDBRANCH   1  14
BRANCH   1  28
HETATM   28  C18 UNL     1       3.235  -8.065  13.459  1.00  0.00     0.009 C 
HETATM   29  C19 UNL     1       2.555  -8.817  12.379  1.00  0.00     0.012 C 
HETATM   30  C20 UNL     1       4.289  -7.147  12.878  1.00  0.00     0.012 C 
ENDBRANCH   1  28
TORSDOF 6
ENDMDL
MODEL 5
REMARK VINA RESULT: -6.415178874      0.827      1.799
REMARK  6 active torsions:
REMARK  status: ('A' for Active; 'I' for Inactive)
REMARK    1  A    between atoms: O1_2  and  C2_3 
REMARK       I    between atoms: N1_6  and  C5_7 
REMARK    2  A    between atoms: C5_7  and  C6_9 
REMARK    3  A    between atoms: C6_9  and  N2_10 
REMARK    4  A    between atoms: C6_9  and  C18_24 
REMARK       I    between atoms: N2_10  and  C7_12 
REMARK    5  A    between atoms: C7_12  and  C8_14 
REMARK    6  A    between atoms: C21_27  and  C22_28 
ROOT
HETATM    1  C6  UNL     1      -0.133  -6.633  16.831  1.00  0.00     0.180 C 
ENDROOT
BRANCH   1   2
HETATM    2  C5  UNL     1      -0.811  -7.821  17.401  1.00  0.00     0.243 C 
HETATM    3  N1  UNL     1      -1.989  -8.416  16.918  1.00  0.00    -0.333 N 
HETATM    4  C4  UNL     1      -2.644  -9.554  17.527  1.00  0.00     0.129 C 
HETATM    5  C21 UNL     1      -2.718  -8.030  15.740  1.00  0.00     0.217 C 
HETATM    6  C3  UNL     1      -3.664 -10.081  16.577  1.00  0.00     0.054 C 
HETATM    7  C2  UNL     1      -3.977  -8.885  15.706  1.00  0.00     0.155 C 
HETATM    8  O2  UNL     1      -0.265  -8.355  18.434  1.00  0.00    -0.271 OA
BRANCH   7   9
HETATM    9  O1  UNL     1      -4.241  -9.371  14.429  1.00  0.00    -0.388 OA
HETATM   10  C1  UNL     1      -5.014 -10.506  14.485  1.00  0.00     0.202 C 
ENDBRANCH   7   9
BRANCH   5  11
HETATM   11  C22 UNL     1      -1.981  -8.376  14.492  1.00  0.00     0.199 C 
HETATM   12  O4  UNL     1      -2.088  -7.655  13.470  1.00  0.00    -0.646 OA
HETATM   13  O5  UNL     1      -1.186  -9.495  14.489  1.00  0.00    -0.646 OA
ENDBRANCH   5  11
ENDBRANCH   1   2
BRANCH   1  14
HETATM   14  N2  UNL     1       1.270  -6.956  16.512  1.00  0.00    -0.347 N 
HETATM   15  C7  UNL     1       1.778  -6.867  15.193  1.00  0.00     0.227 C 
HETATM   16  O3  UNL     1       0.971  -6.496  14.292  1.00  0.00    -0.273 OA
ATOM     17  H2  UNL     1       1.893  -7.253  17.264  1.00  0.00     0.163 HD
BRANCH  15  18
HETATM   18  C8  UNL     1       3.150  -7.170  14.805  1.00  0.00     0.042 C 
HETATM   19  C9  UNL     1       3.840  -5.842  14.503  1.00  0.00     0.024 C 
HETATM   20  C10 UNL     1       5.286  -6.045  14.159  1.00  0.00    -0.013 C 
HETATM   21  C11 UNL     1       5.992  -6.638  15.355  1.00  0.00     0.009 C 
HETATM   22  C15 UNL     1       5.374  -6.952  12.972  1.00  0.00     0.009 C 
HETATM   23  C12 UNL     1       5.337  -7.962  15.671  1.00  0.00    -0.013 C 
HETATM   24  C13 UNL     1       5.481  -8.897  14.497  1.00  0.00     0.009 C 
HETATM   25  C17 UNL     1       3.884  -7.771  15.979  1.00  0.00     0.024 C 
HETATM   26  C14 UNL     1       4.734  -8.290  13.332  1.00  0.00    -0.013 C 
HETATM   27  C16 UNL     1       3.261  -8.118  13.641  1.00  0.00     0.024 C 
ENDBRANCH  15  18
ENDBRANCH   1  14
BRANCH   1  28
HETATM   28  C18 UNL     1      -0.087  -5.525  17.860  1.00  0.00     0.009 C 
HETATM   29  C19 UNL     1      -1.110  -5.597  18.929  1.00  0.00     0.012 C 
HETATM   30  C20 UNL     1       1.289  -5.333  18.460  1.00  0.00     0.012 C 
ENDBRANCH   1  28
TORSDOF 6
ENDMDL
