MODEL 1
REMARK VINA RESULT: -8.262810142      0.000      0.000
REMARK  6 active torsions:
REMARK  status: ('A' for Active; 'I' for Inactive)
REMARK    1  A    between atoms: C2_2  and  C3_3 
REMARK    2  A    between atoms: C2_2  and  C11_20 
REMARK    3  A    between atoms: C3_3  and  C4_4 
REMARK    4  A    between atoms: C4_4  and  N1_5 
REMARK       I    between atoms: N1_5  and  C5_7 
REMARK    5  A    between atoms: C5_7  and  C6_9 
REMARK       I    between atoms: C6_9  and  N2_11 
REMARK    6  A    between atoms: N2_11  and  C7_13 
ROOT
HETATM    1  N1  UNL     1       2.097  -7.556  15.309  1.00  0.00    -0.353 N 
ATOM      2  H1  UNL     1       2.365  -7.532  16.292  1.00  0.00     0.162 HD
HETATM    3  C5  UNL     1       0.845  -7.028  14.956  1.00  0.00     0.309 C 
HETATM    4  O1  UNL     1       0.434  -7.011  13.777  1.00  0.00    -0.262 OA
ENDROOT
BRANCH   1   5
HETATM    5  C4  UNL     1       3.044  -8.139  14.353  1.00  0.00     0.127 C 
BRANCH   5   6
HETATM    6  C3  UNL     1       4.156  -7.211  14.042  1.00  0.00     0.053 C 
BRANCH   6   7
HETATM    7  C2  UNL     1       5.483  -7.526  14.660  1.00  0.00    -0.079 C 
HETATM    8  C1  UNL     1       5.592  -8.729  15.190  1.00  0.00     0.015 C 
BRANCH   7   9
HETATM    9  C11 UNL     1       6.612  -6.523  14.720  1.00  0.00    -0.017 C 
HETATM   10  C12 UNL     1       6.015  -5.292  13.998  1.00  0.00     0.020 C 
HETATM   11  C13 UNL     1       7.811  -6.943  13.978  1.00  0.00     0.014 C 
HETATM   12  C14 UNL     1       9.157  -6.596  14.544  1.00  0.00     0.002 C 
HETATM   13  C15 UNL     1       9.220  -6.308  15.989  1.00  0.00     0.009 C 
HETATM   14  C16 UNL     1       8.095  -5.425  16.474  1.00  0.00    -0.043 C 
HETATM   15  C17 UNL     1       8.270  -4.017  16.083  1.00  0.00     0.015 C 
HETATM   16  C18 UNL     1       8.207  -5.466  18.012  1.00  0.00     0.015 C 
HETATM   17  C19 UNL     1       6.816  -6.113  16.150  1.00  0.00     0.001 C 
HETATM   18  C20 UNL     1       5.610  -5.396  16.712  1.00  0.00     0.012 C 
ENDBRANCH   7   9
ENDBRANCH   6   7
ENDBRANCH   5   6
ENDBRANCH   1   5
BRANCH   3  19
HETATM   19  C6  UNL     1      -0.035  -6.470  15.996  1.00  0.00     0.309 C 
HETATM   20  O2  UNL     1      -1.095  -5.889  15.651  1.00  0.00    -0.262 OA
HETATM   21  N2  UNL     1       0.269  -6.563  17.362  1.00  0.00    -0.347 N 
ATOM     22  H2  UNL     1       1.133  -7.037  17.624  1.00  0.00     0.163 HD
BRANCH  21  23
HETATM   23  C7  UNL     1      -0.545  -6.042  18.410  1.00  0.00     0.099 C 
HETATM   24  C8  UNL     1      -1.253  -7.108  19.195  1.00  0.00     0.041 C 
HETATM   25  C9  UNL     1      -2.113  -6.359  20.189  1.00  0.00     0.142 C 
HETATM   26  S1  UNL     1      -0.972  -5.080  20.726  1.00  0.00     0.146 S 
HETATM   27  O3  UNL     1      -0.441  -5.441  22.060  1.00  0.00    -0.228 OA
HETATM   28  O4  UNL     1      -1.608  -3.726  20.672  1.00  0.00    -0.228 OA
HETATM   29  C10 UNL     1       0.272  -5.248  19.436  1.00  0.00     0.165 C 
ENDBRANCH  21  23
ENDBRANCH   3  19
TORSDOF 6
ENDMDL
MODEL 2
REMARK VINA RESULT: -7.866826142      1.309      2.317
REMARK  6 active torsions:
REMARK  status: ('A' for Active; 'I' for Inactive)
REMARK    1  A    between atoms: C2_2  and  C3_3 
REMARK    2  A    between atoms: C2_2  and  C11_20 
REMARK    3  A    between atoms: C3_3  and  C4_4 
REMARK    4  A    between atoms: C4_4  and  N1_5 
REMARK       I    between atoms: N1_5  and  C5_7 
REMARK    5  A    between atoms: C5_7  and  C6_9 
REMARK       I    between atoms: C6_9  and  N2_11 
REMARK    6  A    between atoms: N2_11  and  C7_13 
ROOT
HETATM    1  N1  UNL     1       2.752  -7.355  13.808  1.00  0.00    -0.353 N 
ATOM      2  H1  UNL     1       3.047  -6.584  14.407  1.00  0.00     0.162 HD
HETATM    3  C5  UNL     1       1.462  -7.877  13.996  1.00  0.00     0.309 C 
HETATM    4  O1  UNL     1       1.015  -8.818  13.308  1.00  0.00    -0.262 OA
ENDROOT
BRANCH   1   5
HETATM    5  C4  UNL     1       3.703  -7.848  12.807  1.00  0.00     0.127 C 
BRANCH   5   6
HETATM    6  C3  UNL     1       5.087  -7.410  13.096  1.00  0.00     0.053 C 
BRANCH   6   7
HETATM    7  C2  UNL     1       5.237  -6.197  13.962  1.00  0.00    -0.079 C 
HETATM    8  C1  UNL     1       4.896  -5.053  13.402  1.00  0.00     0.015 C 
BRANCH   7   9
HETATM    9  C11 UNL     1       5.788  -6.263  15.368  1.00  0.00    -0.017 C 
HETATM   10  C12 UNL     1       6.481  -7.647  15.400  1.00  0.00     0.020 C 
HETATM   11  C13 UNL     1       4.748  -6.256  16.408  1.00  0.00     0.014 C 
HETATM   12  C14 UNL     1       5.024  -5.521  17.687  1.00  0.00     0.002 C 
HETATM   13  C15 UNL     1       6.064  -4.477  17.646  1.00  0.00     0.009 C 
HETATM   14  C16 UNL     1       7.302  -4.893  16.888  1.00  0.00    -0.043 C 
HETATM   15  C17 UNL     1       8.139  -5.839  17.644  1.00  0.00     0.015 C 
HETATM   16  C18 UNL     1       8.127  -3.596  16.753  1.00  0.00     0.015 C 
HETATM   17  C19 UNL     1       6.883  -5.244  15.505  1.00  0.00     0.001 C 
HETATM   18  C20 UNL     1       8.054  -5.544  14.598  1.00  0.00     0.012 C 
ENDBRANCH   7   9
ENDBRANCH   6   7
ENDBRANCH   5   6
ENDBRANCH   1   5
BRANCH   3  19
HETATM   19  C6  UNL     1       0.587  -7.310  15.035  1.00  0.00     0.309 C 
HETATM   20  O2  UNL     1      -0.605  -7.036  14.745  1.00  0.00    -0.262 OA
HETATM   21  N2  UNL     1       1.037  -7.066  16.340  1.00  0.00    -0.347 N 
ATOM     22  H2  UNL     1       2.007  -7.294  16.558  1.00  0.00     0.163 HD
BRANCH  21  23
HETATM   23  C7  UNL     1       0.233  -6.520  17.385  1.00  0.00     0.099 C 
HETATM   24  C8  UNL     1      -0.369  -7.568  18.276  1.00  0.00     0.041 C 
HETATM   25  C9  UNL     1      -1.236  -6.802  19.252  1.00  0.00     0.142 C 
HETATM   26  S1  UNL     1      -0.161  -5.417  19.642  1.00  0.00     0.146 S 
HETATM   27  O3  UNL     1       0.448  -5.642  20.974  1.00  0.00    -0.228 OA
HETATM   28  O4  UNL     1      -0.888  -4.114  19.521  1.00  0.00    -0.228 OA
HETATM   29  C10 UNL     1       1.037  -5.602  18.312  1.00  0.00     0.165 C 
ENDBRANCH  21  23
ENDBRANCH   3  19
TORSDOF 6
ENDMDL
MODEL 3
REMARK VINA RESULT: -7.829638688      1.201      1.201
REMARK  6 active torsions:
REMARK  status: ('A' for Active; 'I' for Inactive)
REMARK    1  A    between atoms: C2_2  and  C3_3 
REMARK    2  A    between atoms: C2_2  and  C11_20 
REMARK    3  A    between atoms: C3_3  and  C4_4 
REMARK    4  A    between atoms: C4_4  and  N1_5 
REMARK       I    between atoms: N1_5  and  C5_7 
REMARK    5  A    between atoms: C5_7  and  C6_9 
REMARK       I    between atoms: C6_9  and  N2_11 
REMARK    6  A    between atoms: N2_11  and  C7_13 
ROOT
HETATM    1  N1  UNL     1       1.794  -7.149  15.028  1.00  0.00    -0.353 N 
ATOM      2  H1  UNL     1       0.956  -6.939  14.486  1.00  0.00     0.162 HD
HETATM    3  C5  UNL     1       1.830  -6.737  16.370  1.00  0.00     0.309 C 
HETATM    4  O1  UNL     1       2.812  -6.954  17.110  1.00  0.00    -0.262 OA
ENDROOT
BRANCH   1   5
HETATM    5  C4  UNL     1       2.885  -7.862  14.356  1.00  0.00     0.127 C 
BRANCH   5   6
HETATM    6  C3  UNL     1       4.039  -6.976  14.084  1.00  0.00     0.053 C 
BRANCH   6   7
HETATM    7  C2  UNL     1       5.351  -7.384  14.679  1.00  0.00    -0.079 C 
HETATM    8  C1  UNL     1       5.371  -8.573  15.249  1.00  0.00     0.015 C 
BRANCH   7   9
HETATM    9  C11 UNL     1       6.564  -6.481  14.674  1.00  0.00    -0.017 C 
HETATM   10  C12 UNL     1       6.049  -5.220  13.940  1.00  0.00     0.020 C 
HETATM   11  C13 UNL     1       7.695  -7.021  13.903  1.00  0.00     0.014 C 
HETATM   12  C14 UNL     1       9.085  -6.779  14.415  1.00  0.00     0.002 C 
HETATM   13  C15 UNL     1       9.224  -6.463  15.848  1.00  0.00     0.009 C 
HETATM   14  C16 UNL     1       8.197  -5.475  16.347  1.00  0.00    -0.043 C 
HETATM   15  C17 UNL     1       8.478  -4.097  15.913  1.00  0.00     0.015 C 
HETATM   16  C18 UNL     1       8.361  -5.489  17.882  1.00  0.00     0.015 C 
HETATM   17  C19 UNL     1       6.853  -6.056  16.085  1.00  0.00     0.001 C 
HETATM   18  C20 UNL     1       5.734  -5.225  16.668  1.00  0.00     0.012 C 
ENDBRANCH   7   9
ENDBRANCH   6   7
ENDBRANCH   5   6
ENDBRANCH   1   5
BRANCH   3  19
HETATM   19  C6  UNL     1       0.680  -6.022  16.948  1.00  0.00     0.309 C 
HETATM   20  O2  UNL     1       0.055  -5.197  16.234  1.00  0.00    -0.262 OA
HETATM   21  N2  UNL     1       0.257  -6.229  18.268  1.00  0.00    -0.347 N 
ATOM     22  H2  UNL     1       0.776  -6.901  18.833  1.00  0.00     0.163 HD
BRANCH  21  23
HETATM   23  C7  UNL     1      -0.849  -5.564  18.877  1.00  0.00     0.099 C 
HETATM   24  C8  UNL     1      -2.109  -6.381  18.863  1.00  0.00     0.041 C 
HETATM   25  C9  UNL     1      -3.165  -5.483  19.471  1.00  0.00     0.142 C 
HETATM   26  S1  UNL     1      -2.252  -4.772  20.845  1.00  0.00     0.146 S 
HETATM   27  O3  UNL     1      -2.669  -5.443  22.097  1.00  0.00    -0.228 OA
HETATM   28  O4  UNL     1      -2.395  -3.282  20.879  1.00  0.00    -0.228 OA
HETATM   29  C10 UNL     1      -0.585  -5.238  20.351  1.00  0.00     0.165 C 
ENDBRANCH  21  23
ENDBRANCH   3  19
TORSDOF 6
ENDMDL
MODEL 4
REMARK VINA RESULT: -7.820122244      1.431      1.614
REMARK  6 active torsions:
REMARK  status: ('A' for Active; 'I' for Inactive)
REMARK    1  A    between atoms: C2_2  and  C3_3 
REMARK    2  A    between atoms: C2_2  and  C11_20 
REMARK    3  A    between atoms: C3_3  and  C4_4 
REMARK    4  A    between atoms: C4_4  and  N1_5 
REMARK       I    between atoms: N1_5  and  C5_7 
REMARK    5  A    between atoms: C5_7  and  C6_9 
REMARK       I    between atoms: C6_9  and  N2_11 
REMARK    6  A    between atoms: N2_11  and  C7_13 
ROOT
HETATM    1  N1  UNL     1       2.293  -6.663  16.730  1.00  0.00    -0.353 N 
ATOM      2  H1  UNL     1       2.845  -6.575  17.583  1.00  0.00     0.162 HD
HETATM    3  C5  UNL     1       1.082  -5.957  16.655  1.00  0.00     0.309 C 
HETATM    4  O1  UNL     1       0.343  -6.002  15.650  1.00  0.00    -0.262 OA
ENDROOT
BRANCH   1   5
HETATM    5  C4  UNL     1       2.815  -7.520  15.660  1.00  0.00     0.127 C 
BRANCH   5   6
HETATM    6  C3  UNL     1       3.844  -6.828  14.852  1.00  0.00     0.053 C 
BRANCH   6   7
HETATM    7  C2  UNL     1       5.255  -7.301  15.018  1.00  0.00    -0.079 C 
HETATM    8  C1  UNL     1       5.398  -8.589  15.261  1.00  0.00     0.015 C 
BRANCH   7   9
HETATM    9  C11 UNL     1       6.441  -6.365  14.961  1.00  0.00    -0.017 C 
HETATM   10  C12 UNL     1       5.842  -5.093  14.313  1.00  0.00     0.020 C 
HETATM   11  C13 UNL     1       7.527  -6.844  14.092  1.00  0.00     0.014 C 
HETATM   12  C14 UNL     1       8.943  -6.580  14.512  1.00  0.00     0.002 C 
HETATM   13  C15 UNL     1       9.178  -6.312  15.942  1.00  0.00     0.009 C 
HETATM   14  C16 UNL     1       8.164  -5.372  16.550  1.00  0.00    -0.043 C 
HETATM   15  C17 UNL     1       8.377  -3.972  16.149  1.00  0.00     0.015 C 
HETATM   16  C18 UNL     1       8.439  -5.436  18.067  1.00  0.00     0.015 C 
HETATM   17  C19 UNL     1       6.820  -5.982  16.363  1.00  0.00     0.001 C 
HETATM   18  C20 UNL     1       5.725  -5.204  17.055  1.00  0.00     0.012 C 
ENDBRANCH   7   9
ENDBRANCH   6   7
ENDBRANCH   5   6
ENDBRANCH   1   5
BRANCH   3  19
HETATM   19  C6  UNL     1       0.647  -5.127  17.791  1.00  0.00     0.309 C 
HETATM   20  O2  UNL     1       1.047  -3.938  17.864  1.00  0.00    -0.262 OA
HETATM   21  N2  UNL     1      -0.200  -5.618  18.794  1.00  0.00    -0.347 N 
ATOM     22  H2  UNL     1      -0.515  -6.585  18.719  1.00  0.00     0.163 HD
BRANCH  21  23
HETATM   23  C7  UNL     1      -0.653  -4.859  19.914  1.00  0.00     0.099 C 
HETATM   24  C8  UNL     1      -2.130  -4.985  20.154  1.00  0.00     0.041 C 
HETATM   25  C9  UNL     1      -2.419  -4.057  21.315  1.00  0.00     0.142 C 
HETATM   26  S1  UNL     1      -1.028  -4.420  22.391  1.00  0.00     0.146 S 
HETATM   27  O3  UNL     1      -1.489  -5.295  23.493  1.00  0.00    -0.228 OA
HETATM   28  O4  UNL     1      -0.357  -3.164  22.855  1.00  0.00    -0.228 OA
HETATM   29  C10 UNL     1       0.017  -5.302  21.220  1.00  0.00     0.165 C 
ENDBRANCH  21  23
ENDBRANCH   3  19
TORSDOF 6
ENDMDL
MODEL 5
REMARK VINA RESULT: -7.748301503      1.220      1.582
REMARK  6 active torsions:
REMARK  status: ('A' for Active; 'I' for Inactive)
REMARK    1  A    between atoms: C2_2  and  C3_3 
REMARK    2  A    between atoms: C2_2  and  C11_20 
REMARK    3  A    between atoms: C3_3  and  C4_4 
REMARK    4  A    between atoms: C4_4  and  N1_5 
REMARK       I    between atoms: N1_5  and  C5_7 
REMARK    5  A    between atoms: C5_7  and  C6_9 
REMARK       I    between atoms: C6_9  and  N2_11 
REMARK    6  A    between atoms: N2_11  and  C7_13 
ROOT
HETATM    1  N1  UNL     1       2.939  -7.768  15.524  1.00  0.00    -0.353 N 
ATOM      2  H1  UNL     1       3.448  -8.124  16.334  1.00  0.00     0.162 HD
HETATM    3  C5  UNL     1       1.898  -6.855  15.753  1.00  0.00     0.309 C 
HETATM    4  O1  UNL     1       1.223  -6.363  14.824  1.00  0.00    -0.262 OA
ENDROOT
BRANCH   1   5
HETATM    5  C4  UNL     1       3.343  -8.242  14.197  1.00  0.00     0.127 C 
BRANCH   5   6
HETATM    6  C3  UNL     1       4.524  -7.511  13.685  1.00  0.00     0.053 C 
BRANCH   6   7
HETATM    7  C2  UNL     1       5.828  -7.784  14.368  1.00  0.00    -0.079 C 
HETATM    8  C1  UNL     1       5.943  -8.978  14.916  1.00  0.00     0.015 C 
BRANCH   7   9
HETATM    9  C11 UNL     1       6.927  -6.751  14.469  1.00  0.00    -0.017 C 
HETATM   10  C12 UNL     1       6.380  -5.584  13.611  1.00  0.00     0.020 C 
HETATM   11  C13 UNL     1       8.201  -7.187  13.876  1.00  0.00     0.014 C 
HETATM   12  C14 UNL     1       9.478  -6.770  14.544  1.00  0.00     0.002 C 
HETATM   13  C15 UNL     1       9.394  -6.387  15.966  1.00  0.00     0.009 C 
HETATM   14  C16 UNL     1       8.210  -5.504  16.279  1.00  0.00    -0.043 C 
HETATM   15  C17 UNL     1       8.396  -4.120  15.813  1.00  0.00     0.015 C 
HETATM   16  C18 UNL     1       8.172  -5.441  17.821  1.00  0.00     0.015 C 
HETATM   17  C19 UNL     1       6.982  -6.243  15.881  1.00  0.00     0.001 C 
HETATM   18  C20 UNL     1       5.714  -5.522  16.275  1.00  0.00     0.012 C 
ENDBRANCH   7   9
ENDBRANCH   6   7
ENDBRANCH   5   6
ENDBRANCH   1   5
BRANCH   3  19
HETATM   19  C6  UNL     1       1.569  -6.447  17.128  1.00  0.00     0.309 C 
HETATM   20  O2  UNL     1       2.454  -5.887  17.825  1.00  0.00    -0.262 OA
HETATM   21  N2  UNL     1       0.303  -6.660  17.690  1.00  0.00    -0.347 N 
ATOM     22  H2  UNL     1      -0.402  -7.116  17.111  1.00  0.00     0.163 HD
BRANCH  21  23
HETATM   23  C7  UNL     1      -0.069  -6.286  19.015  1.00  0.00     0.099 C 
HETATM   24  C8  UNL     1      -0.099  -4.799  19.222  1.00  0.00     0.041 C 
HETATM   25  C9  UNL     1      -0.430  -4.613  20.687  1.00  0.00     0.142 C 
HETATM   26  S1  UNL     1      -1.718  -5.846  20.901  1.00  0.00     0.146 S 
HETATM   27  O3  UNL     1      -3.033  -5.166  20.927  1.00  0.00    -0.228 OA
HETATM   28  O4  UNL     1      -1.455  -6.704  22.099  1.00  0.00    -0.228 OA
HETATM   29  C10 UNL     1      -1.472  -6.782  19.383  1.00  0.00     0.165 C 
ENDBRANCH  21  23
ENDBRANCH   3  19
TORSDOF 6
ENDMDL
