MODEL 1
REMARK VINA RESULT: -7.530720185      0.000      0.000
REMARK  7 active torsions:
REMARK  status: ('A' for Active; 'I' for Inactive)
REMARK    1  A    between atoms: C2_2  and  C4_4 
REMARK    2  A    between atoms: C4_4  and  C5_5 
REMARK    3  A    between atoms: C5_5  and  C6_6 
REMARK       I    between atoms: C6_6  and  N1_8 
REMARK    4  A    between atoms: C8_10  and  O2_11 
REMARK    5  A    between atoms: C9_13  and  N2_14 
REMARK    6  A    between atoms: N2_14  and  S1_16 
REMARK    7  A    between atoms: S1_16  and  C10_19 
ROOT
HETATM    1  C6  UNL     1       5.837  -5.690  14.804  1.00  0.00     0.228 C 
HETATM    2  O1  UNL     1       5.420  -4.601  14.243  1.00  0.00    -0.273 OA
HETATM    3  N1  UNL     1       5.007  -6.799  14.587  1.00  0.00    -0.347 N 
HETATM    4  C7  UNL     1       5.155  -8.134  15.049  1.00  0.00     0.159 C 
HETATM    5  C8  UNL     1       4.235  -9.006  14.205  1.00  0.00     0.161 C 
HETATM    6  C9  UNL     1       3.098  -8.066  13.870  1.00  0.00     0.141 C 
HETATM    7  C14 UNL     1       3.773  -6.715  13.782  1.00  0.00     0.154 C 
ENDROOT
BRANCH   1   8
HETATM    8  C5  UNL     1       7.087  -5.558  15.554  1.00  0.00     0.041 C 
HETATM    9  C15 UNL     1       7.720  -4.213  15.196  1.00  0.00     0.020 C 
HETATM   10  C16 UNL     1       8.826  -3.774  16.066  1.00  0.00     0.005 C 
HETATM   11  C17 UNL     1       8.532  -3.863  17.541  1.00  0.00    -0.019 C 
HETATM   12  C18 UNL     1       7.606  -2.716  17.909  1.00  0.00     0.010 C 
HETATM   13  C19 UNL     1       7.875  -5.135  17.933  1.00  0.00     0.005 C 
HETATM   14  C20 UNL     1       6.685  -5.377  17.037  1.00  0.00     0.020 C 
BRANCH   8  15
HETATM   15  C4  UNL     1       8.027  -6.688  15.543  1.00  0.00     0.023 C 
BRANCH  15  16
HETATM   16  C2  UNL     1       8.882  -6.976  14.385  1.00  0.00    -0.021 C 
HETATM   17  C1  UNL     1      10.375  -6.872  14.612  1.00  0.00     0.009 C 
HETATM   18  C3  UNL     1       8.528  -8.173  13.549  1.00  0.00     0.009 C 
ENDBRANCH  15  16
ENDBRANCH   8  15
ENDBRANCH   1   8
BRANCH   5  19
HETATM   19  O2  UNL     1       4.824  -9.408  13.011  1.00  0.00    -0.392 OA
ATOM     20  H2  UNL     1       4.206  -9.437  12.290  1.00  0.00     0.210 HD
ENDBRANCH   5  19
BRANCH   6  21
HETATM   21  N2  UNL     1       2.127  -8.156  14.878  1.00  0.00    -0.310 N 
ATOM     22  H2  UNL     1       2.332  -8.694  15.719  1.00  0.00     0.172 HD
BRANCH  21  23
HETATM   23  S1  UNL     1       0.645  -7.404  14.734  1.00  0.00     0.231 S 
HETATM   24  O3  UNL     1      -0.482  -8.423  14.985  1.00  0.00    -0.206 OA
HETATM   25  O4  UNL     1       0.470  -6.981  13.265  1.00  0.00    -0.206 OA
BRANCH  23  26
HETATM   26  C10 UNL     1       0.304  -5.998  15.692  1.00  0.00     0.129 C 
HETATM   27  C11 UNL     1      -0.917  -5.888  16.516  1.00  0.00     0.022 C 
HETATM   28  C12 UNL     1      -0.016  -5.858  17.758  1.00  0.00     0.003 C 
HETATM   29  C13 UNL     1       1.206  -5.745  16.870  1.00  0.00     0.022 C 
ENDBRANCH  23  26
ENDBRANCH  21  23
ENDBRANCH   6  21
TORSDOF 7
ENDMDL
MODEL 2
REMARK VINA RESULT: -7.325198921      1.335      1.680
REMARK  7 active torsions:
REMARK  status: ('A' for Active; 'I' for Inactive)
REMARK    1  A    between atoms: C2_2  and  C4_4 
REMARK    2  A    between atoms: C4_4  and  C5_5 
REMARK    3  A    between atoms: C5_5  and  C6_6 
REMARK       I    between atoms: C6_6  and  N1_8 
REMARK    4  A    between atoms: C8_10  and  O2_11 
REMARK    5  A    between atoms: C9_13  and  N2_14 
REMARK    6  A    between atoms: N2_14  and  S1_16 
REMARK    7  A    between atoms: S1_16  and  C10_19 
ROOT
HETATM    1  C6  UNL     1       5.860  -5.674  14.771  1.00  0.00     0.228 C 
HETATM    2  O1  UNL     1       5.473  -4.597  14.166  1.00  0.00    -0.273 OA
HETATM    3  N1  UNL     1       5.015  -6.775  14.574  1.00  0.00    -0.347 N 
HETATM    4  C7  UNL     1       5.130  -8.096  15.083  1.00  0.00     0.159 C 
HETATM    5  C8  UNL     1       4.212  -8.980  14.250  1.00  0.00     0.161 C 
HETATM    6  C9  UNL     1       3.098  -8.033  13.860  1.00  0.00     0.141 C 
HETATM    7  C14 UNL     1       3.798  -6.698  13.741  1.00  0.00     0.154 C 
ENDROOT
BRANCH   1   8
HETATM    8  C5  UNL     1       7.096  -5.538  15.542  1.00  0.00     0.041 C 
HETATM    9  C15 UNL     1       7.729  -4.190  15.196  1.00  0.00     0.020 C 
HETATM   10  C16 UNL     1       8.819  -3.747  16.085  1.00  0.00     0.005 C 
HETATM   11  C17 UNL     1       8.501  -3.839  17.555  1.00  0.00    -0.019 C 
HETATM   12  C18 UNL     1       7.564  -2.697  17.909  1.00  0.00     0.010 C 
HETATM   13  C19 UNL     1       7.843  -5.115  17.934  1.00  0.00     0.005 C 
HETATM   14  C20 UNL     1       6.669  -5.361  17.018  1.00  0.00     0.020 C 
BRANCH   8  15
HETATM   15  C4  UNL     1       8.041  -6.664  15.545  1.00  0.00     0.023 C 
BRANCH  15  16
HETATM   16  C2  UNL     1       8.885  -6.972  14.384  1.00  0.00    -0.021 C 
HETATM   17  C1  UNL     1      10.380  -6.876  14.597  1.00  0.00     0.009 C 
HETATM   18  C3  UNL     1       8.515  -8.177  13.566  1.00  0.00     0.009 C 
ENDBRANCH  15  16
ENDBRANCH   8  15
ENDBRANCH   1   8
BRANCH   5  19
HETATM   19  O2  UNL     1       4.817  -9.432  13.082  1.00  0.00    -0.392 OA
ATOM     20  H2  UNL     1       4.262 -10.024  12.587  1.00  0.00     0.210 HD
ENDBRANCH   5  19
BRANCH   6  21
HETATM   21  N2  UNL     1       2.106  -8.073  14.851  1.00  0.00    -0.310 N 
ATOM     22  H2  UNL     1       2.311  -8.522  15.743  1.00  0.00     0.172 HD
BRANCH  21  23
HETATM   23  S1  UNL     1       0.598  -7.404  14.605  1.00  0.00     0.231 S 
HETATM   24  O3  UNL     1       0.408  -7.084  13.111  1.00  0.00    -0.206 OA
HETATM   25  O4  UNL     1       0.567  -6.035  15.305  1.00  0.00    -0.206 OA
BRANCH  23  26
HETATM   26  C10 UNL     1      -0.813  -8.260  15.141  1.00  0.00     0.129 C 
HETATM   27  C11 UNL     1      -2.107  -7.581  15.356  1.00  0.00     0.022 C 
HETATM   28  C12 UNL     1      -2.685  -8.427  14.213  1.00  0.00     0.003 C 
HETATM   29  C13 UNL     1      -1.413  -9.251  14.179  1.00  0.00     0.022 C 
ENDBRANCH  23  26
ENDBRANCH  21  23
ENDBRANCH   6  21
TORSDOF 7
ENDMDL
MODEL 3
REMARK VINA RESULT: -7.253865288      1.237      1.435
REMARK  7 active torsions:
REMARK  status: ('A' for Active; 'I' for Inactive)
REMARK    1  A    between atoms: C2_2  and  C4_4 
REMARK    2  A    between atoms: C4_4  and  C5_5 
REMARK    3  A    between atoms: C5_5  and  C6_6 
REMARK       I    between atoms: C6_6  and  N1_8 
REMARK    4  A    between atoms: C8_10  and  O2_11 
REMARK    5  A    between atoms: C9_13  and  N2_14 
REMARK    6  A    between atoms: N2_14  and  S1_16 
REMARK    7  A    between atoms: S1_16  and  C10_19 
ROOT
HETATM    1  C6  UNL     1       6.470  -5.641  14.572  1.00  0.00     0.228 C 
HETATM    2  O1  UNL     1       6.682  -5.189  13.378  1.00  0.00    -0.273 OA
HETATM    3  N1  UNL     1       5.226  -6.266  14.734  1.00  0.00    -0.347 N 
HETATM    4  C7  UNL     1       4.668  -6.865  15.895  1.00  0.00     0.159 C 
HETATM    5  C8  UNL     1       3.511  -7.741  15.435  1.00  0.00     0.161 C 
HETATM    6  C9  UNL     1       3.006  -7.013  14.209  1.00  0.00     0.141 C 
HETATM    7  C14 UNL     1       4.257  -6.394  13.628  1.00  0.00     0.154 C 
ENDROOT
BRANCH   1   8
HETATM    8  C5  UNL     1       7.562  -5.414  15.520  1.00  0.00     0.041 C 
HETATM    9  C15 UNL     1       8.137  -4.020  15.264  1.00  0.00     0.020 C 
HETATM   10  C16 UNL     1       9.042  -3.499  16.303  1.00  0.00     0.005 C 
HETATM   11  C17 UNL     1       8.513  -3.620  17.709  1.00  0.00    -0.019 C 
HETATM   12  C18 UNL     1       7.450  -2.553  17.908  1.00  0.00     0.010 C 
HETATM   13  C19 UNL     1       7.903  -4.944  17.995  1.00  0.00     0.005 C 
HETATM   14  C20 UNL     1       6.903  -5.275  16.913  1.00  0.00     0.020 C 
BRANCH   8  15
HETATM   15  C4  UNL     1       8.578  -6.465  15.676  1.00  0.00     0.023 C 
BRANCH  15  16
HETATM   16  C2  UNL     1       9.588  -6.726  14.644  1.00  0.00    -0.021 C 
HETATM   17  C1  UNL     1      11.025  -6.445  15.026  1.00  0.00     0.009 C 
HETATM   18  C3  UNL     1       9.460  -8.004  13.863  1.00  0.00     0.009 C 
ENDBRANCH  15  16
ENDBRANCH   8  15
ENDBRANCH   1   8
BRANCH   5  19
HETATM   19  O2  UNL     1       3.922  -9.009  15.039  1.00  0.00    -0.392 OA
ATOM     20  H2  UNL     1       3.567  -9.263  14.196  1.00  0.00     0.210 HD
ENDBRANCH   5  19
BRANCH   6  21
HETATM   21  N2  UNL     1       2.037  -6.080  14.607  1.00  0.00    -0.310 N 
ATOM     22  H2  UNL     1       2.080  -5.130  14.238  1.00  0.00     0.172 HD
BRANCH  21  23
HETATM   23  S1  UNL     1       0.815  -6.486  15.667  1.00  0.00     0.231 S 
HETATM   24  O3  UNL     1       0.194  -7.832  15.255  1.00  0.00    -0.206 OA
HETATM   25  O4  UNL     1      -0.320  -5.463  15.496  1.00  0.00    -0.206 OA
BRANCH  23  26
HETATM   26  C10 UNL     1       1.152  -6.563  17.368  1.00  0.00     0.129 C 
HETATM   27  C11 UNL     1       1.935  -5.520  18.061  1.00  0.00     0.022 C 
HETATM   28  C12 UNL     1       0.675  -5.181  18.869  1.00  0.00     0.003 C 
HETATM   29  C13 UNL     1      -0.020  -6.401  18.300  1.00  0.00     0.022 C 
ENDBRANCH  23  26
ENDBRANCH  21  23
ENDBRANCH   6  21
TORSDOF 7
ENDMDL
MODEL 4
REMARK VINA RESULT: -7.235641151      2.809      6.935
REMARK  7 active torsions:
REMARK  status: ('A' for Active; 'I' for Inactive)
REMARK    1  A    between atoms: C2_2  and  C4_4 
REMARK    2  A    between atoms: C4_4  and  C5_5 
REMARK    3  A    between atoms: C5_5  and  C6_6 
REMARK       I    between atoms: C6_6  and  N1_8 
REMARK    4  A    between atoms: C8_10  and  O2_11 
REMARK    5  A    between atoms: C9_13  and  N2_14 
REMARK    6  A    between atoms: N2_14  and  S1_16 
REMARK    7  A    between atoms: S1_16  and  C10_19 
ROOT
HETATM    1  C6  UNL     1       3.606  -6.745  16.176  1.00  0.00     0.228 C 
HETATM    2  O1  UNL     1       4.047  -7.400  17.202  1.00  0.00    -0.273 OA
HETATM    3  N1  UNL     1       4.585  -6.466  15.213  1.00  0.00    -0.347 N 
HETATM    4  C7  UNL     1       4.458  -5.772  13.980  1.00  0.00     0.159 C 
HETATM    5  C8  UNL     1       5.688  -6.107  13.148  1.00  0.00     0.161 C 
HETATM    6  C9  UNL     1       6.756  -6.318  14.198  1.00  0.00     0.141 C 
HETATM    7  C14 UNL     1       5.990  -6.894  15.368  1.00  0.00     0.154 C 
ENDROOT
BRANCH   1   8
HETATM    8  C5  UNL     1       2.180  -6.420  16.218  1.00  0.00     0.041 C 
HETATM    9  C15 UNL     1       1.517  -7.311  17.269  1.00  0.00     0.020 C 
HETATM   10  C16 UNL     1       0.147  -6.930  17.661  1.00  0.00     0.005 C 
HETATM   11  C17 UNL     1      -0.021  -5.471  17.997  1.00  0.00    -0.019 C 
HETATM   12  C18 UNL     1       0.585  -5.229  19.369  1.00  0.00     0.010 C 
HETATM   13  C19 UNL     1       0.644  -4.564  17.028  1.00  0.00     0.005 C 
HETATM   14  C20 UNL     1       2.075  -5.006  16.834  1.00  0.00     0.020 C 
BRANCH   8  15
HETATM   15  C4  UNL     1       1.447  -6.343  14.945  1.00  0.00     0.023 C 
BRANCH  15  16
HETATM   16  C2  UNL     1       0.910  -7.539  14.285  1.00  0.00    -0.021 C 
HETATM   17  C1  UNL     1      -0.568  -7.520  13.962  1.00  0.00     0.009 C 
HETATM   18  C3  UNL     1       1.719  -8.126  13.162  1.00  0.00     0.009 C 
ENDBRANCH  15  16
ENDBRANCH   8  15
ENDBRANCH   1   8
BRANCH   5  19
HETATM   19  O2  UNL     1       5.548  -7.293  12.436  1.00  0.00    -0.392 OA
ATOM     20  H2  UNL     1       6.096  -7.323  11.661  1.00  0.00     0.210 HD
ENDBRANCH   5  19
BRANCH   6  21
HETATM   21  N2  UNL     1       7.373  -5.087  14.468  1.00  0.00    -0.310 N 
ATOM     22  H2  UNL     1       7.039  -4.249  13.992  1.00  0.00     0.172 HD
BRANCH  21  23
HETATM   23  S1  UNL     1       8.638  -4.962  15.548  1.00  0.00     0.231 S 
HETATM   24  O3  UNL     1       9.730  -4.046  14.966  1.00  0.00    -0.206 OA
HETATM   25  O4  UNL     1       9.304  -6.343  15.659  1.00  0.00    -0.206 OA
BRANCH  23  26
HETATM   26  C10 UNL     1       8.325  -4.436  17.172  1.00  0.00     0.129 C 
HETATM   27  C11 UNL     1       8.505  -3.032  17.590  1.00  0.00     0.022 C 
HETATM   28  C12 UNL     1       6.994  -2.966  17.848  1.00  0.00     0.003 C 
HETATM   29  C13 UNL     1       6.891  -4.462  17.630  1.00  0.00     0.022 C 
ENDBRANCH  23  26
ENDBRANCH  21  23
ENDBRANCH   6  21
TORSDOF 7
ENDMDL
MODEL 5
REMARK VINA RESULT: -7.104193832      2.488      4.723
REMARK  7 active torsions:
REMARK  status: ('A' for Active; 'I' for Inactive)
REMARK    1  A    between atoms: C2_2  and  C4_4 
REMARK    2  A    between atoms: C4_4  and  C5_5 
REMARK    3  A    between atoms: C5_5  and  C6_6 
REMARK       I    between atoms: C6_6  and  N1_8 
REMARK    4  A    between atoms: C8_10  and  O2_11 
REMARK    5  A    between atoms: C9_13  and  N2_14 
REMARK    6  A    between atoms: N2_14  and  S1_16 
REMARK    7  A    between atoms: S1_16  and  C10_19 
ROOT
HETATM    1  C6  UNL     1       3.867  -6.240  16.619  1.00  0.00     0.228 C 
HETATM    2  O1  UNL     1       4.370  -5.757  17.709  1.00  0.00    -0.273 OA
HETATM    3  N1  UNL     1       2.482  -6.448  16.672  1.00  0.00    -0.347 N 
HETATM    4  C7  UNL     1       1.613  -6.960  15.672  1.00  0.00     0.159 C 
HETATM    5  C8  UNL     1       0.193  -6.595  16.081  1.00  0.00     0.161 C 
HETATM    6  C9  UNL     1       0.269  -6.594  17.592  1.00  0.00     0.141 C 
HETATM    7  C14 UNL     1       1.682  -6.133  17.872  1.00  0.00     0.154 C 
ENDROOT
BRANCH   1   8
HETATM    8  C5  UNL     1       4.833  -6.476  15.545  1.00  0.00     0.041 C 
HETATM    9  C15 UNL     1       5.165  -7.969  15.520  1.00  0.00     0.020 C 
HETATM   10  C16 UNL     1       5.889  -8.445  14.328  1.00  0.00     0.005 C 
HETATM   11  C17 UNL     1       5.296  -7.996  13.018  1.00  0.00    -0.019 C 
HETATM   12  C18 UNL     1       4.047  -8.822  12.756  1.00  0.00     0.010 C 
HETATM   13  C19 UNL     1       4.915  -6.561  13.006  1.00  0.00     0.005 C 
HETATM   14  C20 UNL     1       4.067  -6.261  14.218  1.00  0.00     0.020 C 
BRANCH   8  15
HETATM   15  C4  UNL     1       6.008  -5.597  15.460  1.00  0.00     0.023 C 
BRANCH  15  16
HETATM   16  C2  UNL     1       7.323  -6.008  15.968  1.00  0.00    -0.021 C 
HETATM   17  C1  UNL     1       8.443  -6.072  14.952  1.00  0.00     0.009 C 
HETATM   18  C3  UNL     1       7.781  -5.401  17.264  1.00  0.00     0.009 C 
ENDBRANCH  15  16
ENDBRANCH   8  15
ENDBRANCH   1   8
BRANCH   5  19
HETATM   19  O2  UNL     1      -0.171  -5.317  15.671  1.00  0.00    -0.392 OA
ATOM     20  H2  UNL     1       0.253  -4.634  16.178  1.00  0.00     0.210 HD
ENDBRANCH   5  19
BRANCH   6  21
HETATM   21  N2  UNL     1      -0.015  -7.886  18.058  1.00  0.00    -0.310 N 
ATOM     22  H2  UNL     1       0.718  -8.595  18.035  1.00  0.00     0.172 HD
BRANCH  21  23
HETATM   23  S1  UNL     1      -1.521  -8.291  18.648  1.00  0.00     0.231 S 
HETATM   24  O3  UNL     1      -1.482  -9.710  19.244  1.00  0.00    -0.206 OA
HETATM   25  O4  UNL     1      -2.485  -8.396  17.454  1.00  0.00    -0.206 OA
BRANCH  23  26
HETATM   26  C10 UNL     1      -2.291  -7.256  19.809  1.00  0.00     0.129 C 
HETATM   27  C11 UNL     1      -1.518  -6.468  20.791  1.00  0.00     0.022 C 
HETATM   28  C12 UNL     1      -2.041  -5.197  20.108  1.00  0.00     0.003 C 
HETATM   29  C13 UNL     1      -2.988  -6.034  19.272  1.00  0.00     0.022 C 
ENDBRANCH  23  26
ENDBRANCH  21  23
ENDBRANCH   6  21
TORSDOF 7
ENDMDL
