MODEL 1
REMARK VINA RESULT: -6.486389672      0.000      0.000
REMARK  3 active torsions:
REMARK  status: ('A' for Active; 'I' for Inactive)
REMARK    1  A    between atoms: N1_2  and  C2_5 
REMARK    2  A    between atoms: C4_8  and  C5_9 
REMARK    3  A    between atoms: C6_10  and  C7_11 
ROOT
HETATM    1  C2  UNL     1       4.589 138.312 352.144  1.00  0.00     0.209 A 
HETATM    2  C3  UNL     1       4.804 138.325 350.674  1.00  0.00     0.099 A 
HETATM    3 BR1  UNL     1       3.258 138.645 349.553  1.00  0.00    -0.088 Br
HETATM    4  C4  UNL     1       5.342 139.432 351.518  1.00  0.00     0.056 A 
ENDROOT
BRANCH   4   5
HETATM    5  C5  UNL     1       4.754 140.765 351.317  1.00  0.00    -0.022 C 
HETATM    6  C6  UNL     1       5.196 141.889 351.850  1.00  0.00    -0.026 C 
BRANCH   6   7
HETATM    7  C7  UNL     1       4.566 143.202 351.613  1.00  0.00     0.008 C 
HETATM    8  C8  UNL     1       5.038 143.876 350.349  1.00  0.00     0.008 C 
HETATM    9  C9  UNL     1       4.066 145.039 350.258  1.00  0.00     0.001 C 
HETATM   10  C10 UNL     1       2.792 144.553 350.920  1.00  0.00     0.001 C 
HETATM   11  C11 UNL     1       3.082 143.134 351.397  1.00  0.00     0.008 C 
ENDBRANCH   6   7
ENDBRANCH   4   5
BRANCH   1  12
HETATM   12  N1  UNL     1       5.236 137.271 352.905  1.00  0.00    -0.073 N 
HETATM   13  C1  UNL     1       4.844 135.978 352.356  1.00  0.00     0.267 C 
ATOM     14  H12 UNL     1       5.048 137.344 353.904  1.00  0.00     0.277 HD
ATOM     15  H11 UNL     1       6.249 137.388 352.943  1.00  0.00     0.277 HD
ENDBRANCH   1  12
TORSDOF 3
ENDMDL
MODEL 2
REMARK VINA RESULT: -5.791443950      2.254      6.240
REMARK  3 active torsions:
REMARK  status: ('A' for Active; 'I' for Inactive)
REMARK    1  A    between atoms: N1_2  and  C2_5 
REMARK    2  A    between atoms: C4_8  and  C5_9 
REMARK    3  A    between atoms: C6_10  and  C7_11 
ROOT
HETATM    1  C2  UNL     1       3.928 141.708 351.275  1.00  0.00     0.209 A 
HETATM    2  C3  UNL     1       3.908 141.316 349.842  1.00  0.00     0.099 A 
HETATM    3 BR1  UNL     1       5.601 140.850 349.026  1.00  0.00    -0.088 Br
HETATM    4  C4  UNL     1       3.315 140.414 350.872  1.00  0.00     0.056 A 
ENDROOT
BRANCH   4   5
HETATM    5  C5  UNL     1       3.984 139.122 351.085  1.00  0.00    -0.022 C 
HETATM    6  C6  UNL     1       4.470 138.687 352.234  1.00  0.00    -0.026 C 
BRANCH   6   7
HETATM    7  C7  UNL     1       5.134 137.379 352.391  1.00  0.00     0.008 C 
HETATM    8  C8  UNL     1       4.226 136.307 352.938  1.00  0.00     0.008 C 
HETATM    9  C9  UNL     1       5.090 135.071 352.756  1.00  0.00     0.001 C 
HETATM   10  C10 UNL     1       5.963 135.364 351.553  1.00  0.00     0.001 C 
HETATM   11  C11 UNL     1       5.594 136.771 351.098  1.00  0.00     0.008 C 
ENDBRANCH   6   7
ENDBRANCH   4   5
BRANCH   1  12
HETATM   12  N1  UNL     1       3.139 142.851 351.666  1.00  0.00    -0.073 N 
HETATM   13  C1  UNL     1       3.185 143.840 350.595  1.00  0.00     0.267 C 
ATOM     14  H12 UNL     1       3.429 143.235 352.565  1.00  0.00     0.277 HD
ATOM     15  H11 UNL     1       2.185 142.598 351.922  1.00  0.00     0.277 HD
ENDBRANCH   1  12
TORSDOF 3
ENDMDL
MODEL 3
REMARK VINA RESULT: -5.715854216      2.484      5.957
REMARK  3 active torsions:
REMARK  status: ('A' for Active; 'I' for Inactive)
REMARK    1  A    between atoms: N1_2  and  C2_5 
REMARK    2  A    between atoms: C4_8  and  C5_9 
REMARK    3  A    between atoms: C6_10  and  C7_11 
ROOT
HETATM    1  C2  UNL     1       5.103 143.049 351.312  1.00  0.00     0.209 A 
HETATM    2  C3  UNL     1       4.752 142.684 349.915  1.00  0.00     0.099 A 
HETATM    3 BR1  UNL     1       6.081 141.721 348.889  1.00  0.00    -0.088 Br
HETATM    4  C4  UNL     1       4.072 142.007 351.058  1.00  0.00     0.056 A 
ENDROOT
BRANCH   4   5
HETATM    5  C5  UNL     1       4.339 140.572 351.232  1.00  0.00    -0.022 C 
HETATM    6  C6  UNL     1       5.139 140.042 352.140  1.00  0.00    -0.026 C 
BRANCH   6   7
HETATM    7  C7  UNL     1       5.371 138.591 352.269  1.00  0.00     0.008 C 
HETATM    8  C8  UNL     1       4.324 137.886 353.094  1.00  0.00     0.008 C 
HETATM    9  C9  UNL     1       4.685 136.432 352.843  1.00  0.00     0.001 C 
HETATM   10  C10 UNL     1       5.301 136.402 351.459  1.00  0.00     0.001 C 
HETATM   11  C11 UNL     1       5.301 137.845 350.968  1.00  0.00     0.008 C 
ENDBRANCH   6   7
ENDBRANCH   4   5
BRANCH   1  12
HETATM   12  N1  UNL     1       4.768 144.379 351.760  1.00  0.00    -0.073 N 
HETATM   13  C1  UNL     1       3.681 144.890 350.933  1.00  0.00     0.267 C 
ATOM     14  H12 UNL     1       5.576 145.002 351.773  1.00  0.00     0.277 HD
ATOM     15  H11 UNL     1       4.549 144.412 352.756  1.00  0.00     0.277 HD
ENDBRANCH   1  12
TORSDOF 3
ENDMDL
MODEL 4
REMARK VINA RESULT: -5.551901330      2.728      6.227
REMARK  3 active torsions:
REMARK  status: ('A' for Active; 'I' for Inactive)
REMARK    1  A    between atoms: N1_2  and  C2_5 
REMARK    2  A    between atoms: C4_8  and  C5_9 
REMARK    3  A    between atoms: C6_10  and  C7_11 
ROOT
HETATM    1  C2  UNL     1       3.363 142.801 350.801  1.00  0.00     0.209 A 
HETATM    2  C3  UNL     1       4.823 142.589 350.979  1.00  0.00     0.099 A 
HETATM    3 BR1  UNL     1       5.452 142.206 352.769  1.00  0.00    -0.088 Br
HETATM    4  C4  UNL     1       4.003 141.575 350.254  1.00  0.00     0.056 A 
ENDROOT
BRANCH   4   5
HETATM    5  C5  UNL     1       3.863 140.257 350.892  1.00  0.00    -0.022 C 
HETATM    6  C6  UNL     1       4.562 139.178 350.592  1.00  0.00    -0.026 C 
BRANCH   6   7
HETATM    7  C7  UNL     1       4.380 137.879 351.267  1.00  0.00     0.008 C 
HETATM    8  C8  UNL     1       5.506 136.908 351.016  1.00  0.00     0.008 C 
HETATM    9  C9  UNL     1       5.167 135.805 352.003  1.00  0.00     0.001 C 
HETATM   10  C10 UNL     1       4.447 136.494 353.146  1.00  0.00     0.001 C 
HETATM   11  C11 UNL     1       4.370 137.968 352.765  1.00  0.00     0.008 C 
ENDBRANCH   6   7
ENDBRANCH   4   5
BRANCH   1  12
HETATM   12  N1  UNL     1       2.943 143.897 349.963  1.00  0.00    -0.073 N 
HETATM   13  C1  UNL     1       3.739 145.072 350.296  1.00  0.00     0.267 C 
ATOM     14  H12 UNL     1       1.940 144.074 350.025  1.00  0.00     0.277 HD
ATOM     15  H11 UNL     1       2.984 143.667 348.970  1.00  0.00     0.277 HD
ENDBRANCH   1  12
TORSDOF 3
ENDMDL
MODEL 5
REMARK VINA RESULT: -5.443862759      2.471      6.209
REMARK  3 active torsions:
REMARK  status: ('A' for Active; 'I' for Inactive)
REMARK    1  A    between atoms: N1_2  and  C2_5 
REMARK    2  A    between atoms: C4_8  and  C5_9 
REMARK    3  A    between atoms: C6_10  and  C7_11 
ROOT
HETATM    1  C2  UNL     1       4.796 141.950 350.153  1.00  0.00     0.209 A 
HETATM    2  C3  UNL     1       3.475 141.298 350.343  1.00  0.00     0.099 A 
HETATM    3 BR1  UNL     1       3.024 139.841 349.149  1.00  0.00    -0.088 Br
HETATM    4  C4  UNL     1       4.552 141.111 351.358  1.00  0.00     0.056 A 
ENDROOT
BRANCH   4   5
HETATM    5  C5  UNL     1       5.101 139.754 351.500  1.00  0.00    -0.022 C 
HETATM    6  C6  UNL     1       4.640 138.819 352.310  1.00  0.00    -0.026 C 
BRANCH   6   7
HETATM    7  C7  UNL     1       5.230 137.470 352.413  1.00  0.00     0.008 C 
HETATM    8  C8  UNL     1       4.289 136.445 352.992  1.00  0.00     0.008 C 
HETATM    9  C9  UNL     1       5.065 135.163 352.746  1.00  0.00     0.001 C 
HETATM   10  C10 UNL     1       5.889 135.424 351.501  1.00  0.00     0.001 C 
HETATM   11  C11 UNL     1       5.582 136.859 351.087  1.00  0.00     0.008 C 
ENDBRANCH   6   7
ENDBRANCH   4   5
BRANCH   1  12
HETATM   12  N1  UNL     1       4.845 143.391 350.209  1.00  0.00    -0.073 N 
HETATM   13  C1  UNL     1       6.008 143.848 349.457  1.00  0.00     0.267 C 
ATOM     14  H12 UNL     1       4.834 143.745 351.165  1.00  0.00     0.277 HD
ATOM     15  H11 UNL     1       3.979 143.824 349.888  1.00  0.00     0.277 HD
ENDBRANCH   1  12
TORSDOF 3
ENDMDL
