MODEL 1
REMARK VINA RESULT: -6.851428861      0.000      0.000
REMARK  4 active torsions:
REMARK  status: ('A' for Active; 'I' for Inactive)
REMARK    1  A    between atoms: C4_4  and  C5_5 
REMARK    2  A    between atoms: C5_5  and  N1_6 
REMARK    3  A    between atoms: C5_5  and  C11_13 
REMARK    4  A    between atoms: N1_6  and  C6_8 
ROOT
HETATM    1  C1  UNL     1       4.858 135.484 352.481  1.00  0.00     0.017 C 
HETATM    2  C2  UNL     1       5.020 136.514 351.867  1.00  0.00    -0.090 C 
HETATM    3  C3  UNL     1       5.218 137.707 351.132  1.00  0.00     0.062 C 
HETATM    4  C4  UNL     1       4.625 138.816 351.483  1.00  0.00     0.012 C 
ENDROOT
BRANCH   4   5
HETATM    5  C5  UNL     1       4.766 140.104 350.786  1.00  0.00     0.140 C 
BRANCH   5   6
HETATM    6  N1  UNL     1       3.896 141.137 351.269  1.00  0.00    -0.405 N 
ATOM      7  H1  UNL     1       2.998 140.913 351.700  1.00  0.00     0.154 HD
BRANCH   6   8
HETATM    8  C6  UNL     1       4.325 142.471 351.127  1.00  0.00     0.077 C 
HETATM    9  C7  UNL     1       4.525 143.277 352.362  1.00  0.00     0.024 C 
HETATM   10  C8  UNL     1       4.534 144.690 351.738  1.00  0.00     0.002 C 
HETATM   11  C9  UNL     1       3.256 144.639 350.937  1.00  0.00     0.002 C 
HETATM   12  C10 UNL     1       3.227 143.231 350.381  1.00  0.00     0.024 C 
ENDBRANCH   6   8
ENDBRANCH   5   6
BRANCH   5  13
HETATM   13  C11 UNL     1       4.580 139.999 349.318  1.00  0.00     0.005 C 
HETATM   14  C12 UNL     1       5.467 140.385 348.427  1.00  0.00     0.029 C 
HETATM   15 BR1  UNL     1       2.946 139.258 348.688  1.00  0.00    -0.054 Br
ENDBRANCH   5  13
ENDBRANCH   4   5
TORSDOF 4
ENDMDL
MODEL 2
REMARK VINA RESULT: -6.467669429      1.858      3.576
REMARK  4 active torsions:
REMARK  status: ('A' for Active; 'I' for Inactive)
REMARK    1  A    between atoms: C4_4  and  C5_5 
REMARK    2  A    between atoms: C5_5  and  N1_6 
REMARK    3  A    between atoms: C5_5  and  C11_13 
REMARK    4  A    between atoms: N1_6  and  C6_8 
ROOT
HETATM    1  C1  UNL     1       5.949 140.557 346.084  1.00  0.00     0.017 C 
HETATM    2  C2  UNL     1       5.910 140.660 347.288  1.00  0.00    -0.090 C 
HETATM    3  C3  UNL     1       5.884 140.790 348.697  1.00  0.00     0.062 C 
HETATM    4  C4  UNL     1       4.773 140.634 349.364  1.00  0.00     0.012 C 
ENDROOT
BRANCH   4   5
HETATM    5  C5  UNL     1       4.643 140.748 350.826  1.00  0.00     0.140 C 
BRANCH   5   6
HETATM    6  N1  UNL     1       5.340 141.865 351.396  1.00  0.00    -0.405 N 
ATOM      7  H1  UNL     1       6.308 141.779 351.710  1.00  0.00     0.154 HD
BRANCH   6   8
HETATM    8  C6  UNL     1       4.641 143.083 351.508  1.00  0.00     0.077 C 
HETATM    9  C7  UNL     1       3.188 143.087 351.189  1.00  0.00     0.024 C 
HETATM   10  C8  UNL     1       2.977 144.606 351.008  1.00  0.00     0.002 C 
HETATM   11  C9  UNL     1       4.079 144.916 350.025  1.00  0.00     0.002 C 
HETATM   12  C10 UNL     1       5.233 144.049 350.481  1.00  0.00     0.024 C 
ENDBRANCH   6   8
ENDBRANCH   5   6
BRANCH   5  13
HETATM   13  C11 UNL     1       5.068 139.525 351.548  1.00  0.00     0.005 C 
HETATM   14  C12 UNL     1       5.952 139.507 352.523  1.00  0.00     0.029 C 
HETATM   15 BR1  UNL     1       4.283 137.874 351.025  1.00  0.00    -0.054 Br
ENDBRANCH   5  13
ENDBRANCH   4   5
TORSDOF 4
ENDMDL
MODEL 3
REMARK VINA RESULT: -6.376555907      1.880      3.472
REMARK  4 active torsions:
REMARK  status: ('A' for Active; 'I' for Inactive)
REMARK    1  A    between atoms: C4_4  and  C5_5 
REMARK    2  A    between atoms: C5_5  and  N1_6 
REMARK    3  A    between atoms: C5_5  and  C11_13 
REMARK    4  A    between atoms: N1_6  and  C6_8 
ROOT
HETATM    1  C1  UNL     1       5.972 140.518 346.169  1.00  0.00     0.017 C 
HETATM    2  C2  UNL     1       5.827 140.518 347.370  1.00  0.00    -0.090 C 
HETATM    3  C3  UNL     1       5.677 140.527 348.778  1.00  0.00     0.062 C 
HETATM    4  C4  UNL     1       4.509 140.339 349.328  1.00  0.00     0.012 C 
ENDROOT
BRANCH   4   5
HETATM    5  C5  UNL     1       4.251 140.331 350.777  1.00  0.00     0.140 C 
BRANCH   5   6
HETATM    6  N1  UNL     1       4.353 141.618 351.404  1.00  0.00    -0.405 N 
ATOM      7  H1  UNL     1       4.570 141.705 352.397  1.00  0.00     0.154 HD
BRANCH   6   8
HETATM    8  C6  UNL     1       4.143 142.754 350.599  1.00  0.00     0.077 C 
HETATM    9  C7  UNL     1       5.253 143.738 350.475  1.00  0.00     0.024 C 
HETATM   10  C8  UNL     1       4.457 144.943 349.927  1.00  0.00     0.002 C 
HETATM   11  C9  UNL     1       3.345 145.017 350.945  1.00  0.00     0.002 C 
HETATM   12  C10 UNL     1       3.016 143.568 351.236  1.00  0.00     0.024 C 
ENDBRANCH   6   8
ENDBRANCH   5   6
BRANCH   5  13
HETATM   13  C11 UNL     1       5.122 139.389 351.521  1.00  0.00     0.005 C 
HETATM   14  C12 UNL     1       6.051 139.755 352.378  1.00  0.00     0.029 C 
HETATM   15 BR1  UNL     1       4.879 137.529 351.208  1.00  0.00    -0.054 Br
ENDBRANCH   5  13
ENDBRANCH   4   5
TORSDOF 4
ENDMDL
MODEL 4
REMARK VINA RESULT: -6.178083571      1.157      1.711
REMARK  4 active torsions:
REMARK  status: ('A' for Active; 'I' for Inactive)
REMARK    1  A    between atoms: C4_4  and  C5_5 
REMARK    2  A    between atoms: C5_5  and  N1_6 
REMARK    3  A    between atoms: C5_5  and  C11_13 
REMARK    4  A    between atoms: N1_6  and  C6_8 
ROOT
HETATM    1  C1  UNL     1       5.587 135.151 352.578  1.00  0.00     0.017 C 
HETATM    2  C2  UNL     1       5.225 136.127 351.963  1.00  0.00    -0.090 C 
HETATM    3  C3  UNL     1       4.784 137.258 351.234  1.00  0.00     0.062 C 
HETATM    4  C4  UNL     1       5.219 138.453 351.525  1.00  0.00     0.012 C 
ENDROOT
BRANCH   4   5
HETATM    5  C5  UNL     1       4.821 139.687 350.829  1.00  0.00     0.140 C 
BRANCH   5   6
HETATM    6  N1  UNL     1       5.159 140.895 351.526  1.00  0.00    -0.405 N 
ATOM      7  H1  UNL     1       5.785 140.883 352.332  1.00  0.00     0.154 HD
BRANCH   6   8
HETATM    8  C6  UNL     1       4.595 142.098 351.058  1.00  0.00     0.077 C 
HETATM    9  C7  UNL     1       5.382 142.908 350.089  1.00  0.00     0.024 C 
HETATM   10  C8  UNL     1       4.630 144.251 350.220  1.00  0.00     0.002 C 
HETATM   11  C9  UNL     1       4.657 144.430 351.719  1.00  0.00     0.002 C 
HETATM   12  C10 UNL     1       4.440 143.032 352.259  1.00  0.00     0.024 C 
ENDBRANCH   6   8
ENDBRANCH   5   6
BRANCH   5  13
HETATM   13  C11 UNL     1       3.375 139.736 350.504  1.00  0.00     0.005 C 
HETATM   14  C12 UNL     1       2.430 140.044 351.366  1.00  0.00     0.029 C 
HETATM   15 BR1  UNL     1       2.858 139.321 348.722  1.00  0.00    -0.054 Br
ENDBRANCH   5  13
ENDBRANCH   4   5
TORSDOF 4
ENDMDL
MODEL 5
REMARK VINA RESULT: -6.155859033      1.342      5.774
REMARK  4 active torsions:
REMARK  status: ('A' for Active; 'I' for Inactive)
REMARK    1  A    between atoms: C4_4  and  C5_5 
REMARK    2  A    between atoms: C5_5  and  N1_6 
REMARK    3  A    between atoms: C5_5  and  C11_13 
REMARK    4  A    between atoms: N1_6  and  C6_8 
ROOT
HETATM    1  C1  UNL     1       3.727 145.168 351.343  1.00  0.00     0.017 C 
HETATM    2  C2  UNL     1       3.555 144.009 351.042  1.00  0.00    -0.090 C 
HETATM    3  C3  UNL     1       3.342 142.660 350.670  1.00  0.00     0.062 C 
HETATM    4  C4  UNL     1       4.021 141.696 351.229  1.00  0.00     0.012 C 
ENDROOT
BRANCH   4   5
HETATM    5  C5  UNL     1       3.874 140.267 350.913  1.00  0.00     0.140 C 
BRANCH   5   6
HETATM    6  N1  UNL     1       4.794 139.409 351.604  1.00  0.00    -0.405 N 
ATOM      7  H1  UNL     1       5.694 139.757 351.935  1.00  0.00     0.154 HD
BRANCH   6   8
HETATM    8  C6  UNL     1       4.408 138.070 351.809  1.00  0.00     0.077 C 
HETATM    9  C7  UNL     1       4.454 137.533 353.196  1.00  0.00     0.024 C 
HETATM   10  C8  UNL     1       4.406 136.022 352.880  1.00  0.00     0.002 C 
HETATM   11  C9  UNL     1       5.529 135.921 351.877  1.00  0.00     0.002 C 
HETATM   12  C10 UNL     1       5.401 137.184 351.053  1.00  0.00     0.024 C 
ENDBRANCH   6   8
ENDBRANCH   5   6
BRANCH   5  13
HETATM   13  C11 UNL     1       3.979 139.975 349.463  1.00  0.00     0.005 C 
HETATM   14  C12 UNL     1       3.043 139.379 348.755  1.00  0.00     0.029 C 
HETATM   15 BR1  UNL     1       5.576 140.496 348.571  1.00  0.00    -0.054 Br
ENDBRANCH   5  13
ENDBRANCH   4   5
TORSDOF 4
ENDMDL
