MODEL 1
REMARK VINA RESULT: -7.496922815      0.000      0.000
REMARK  4 active torsions:
REMARK  status: ('A' for Active; 'I' for Inactive)
REMARK       I    between atoms: C1_2  and  N1_3 
REMARK       I    between atoms: C1_2  and  N2_14 
REMARK    1  A    between atoms: N1_3  and  C2_5 
REMARK    2  A    between atoms: C2_5  and  C3_6 
REMARK    3  A    between atoms: C3_6  and  C4_7 
REMARK    4  A    between atoms: C4_7  and  C5_8 
ROOT
HETATM    1  O1  UNL     1       7.098 133.514 351.949  1.00  0.00    -0.247 OA
HETATM    2  C1  UNL     1       5.928 133.040 352.032  1.00  0.00     0.322 C 
HETATM    3  N1  UNL     1       4.826 133.921 352.409  1.00  0.00    -0.319 N 
ATOM      4  H1  UNL     1       3.866 133.584 352.489  1.00  0.00     0.170 HD
HETATM    5  N2  UNL     1       5.739 131.682 351.756  1.00  0.00    -0.331 N 
HETATM    6  C11 UNL     1       4.499 130.964 351.792  1.00  0.00     0.130 C 
HETATM    7  C12 UNL     1       4.574 130.190 350.466  1.00  0.00     0.058 C 
HETATM    8  C13 UNL     1       6.055 129.941 350.294  1.00  0.00     0.189 C 
HETATM    9  F1  UNL     1       6.370 128.607 350.342  1.00  0.00    -0.248 F 
HETATM   10  C14 UNL     1       6.744 130.732 351.384  1.00  0.00     0.164 C 
ENDROOT
BRANCH   3  11
HETATM   11  C2  UNL     1       5.170 135.263 352.655  1.00  0.00     0.092 C 
BRANCH  11  12
HETATM   12  C3  UNL     1       4.835 136.345 351.783  1.00  0.00     0.013 C 
BRANCH  12  13
HETATM   13  C4  UNL     1       5.234 137.517 351.454  1.00  0.00    -0.021 C 
BRANCH  13  14
HETATM   14  C5  UNL     1       4.513 138.782 351.503  1.00  0.00     0.008 C 
HETATM   15  C6  UNL     1       5.616 139.852 351.789  1.00  0.00     0.008 C 
HETATM   16  C7  UNL     1       4.974 141.180 351.465  1.00  0.00     0.001 C 
HETATM   17  C8  UNL     1       5.090 141.361 349.964  1.00  0.00     0.000 C 
HETATM   18  C9  UNL     1       4.864 140.006 349.325  1.00  0.00     0.001 C 
HETATM   19  C10 UNL     1       3.921 139.173 350.157  1.00  0.00     0.008 C 
ENDBRANCH  13  14
ENDBRANCH  12  13
ENDBRANCH  11  12
ENDBRANCH   3  11
TORSDOF 4
ENDMDL
MODEL 2
REMARK VINA RESULT: -7.050451752      1.618      2.100
REMARK  4 active torsions:
REMARK  status: ('A' for Active; 'I' for Inactive)
REMARK       I    between atoms: C1_2  and  N1_3 
REMARK       I    between atoms: C1_2  and  N2_14 
REMARK    1  A    between atoms: N1_3  and  C2_5 
REMARK    2  A    between atoms: C2_5  and  C3_6 
REMARK    3  A    between atoms: C3_6  and  C4_7 
REMARK    4  A    between atoms: C4_7  and  C5_8 
ROOT
HETATM    1  O1  UNL     1       5.091 132.207 351.478  1.00  0.00    -0.247 OA
HETATM    2  C1  UNL     1       6.068 132.546 352.208  1.00  0.00     0.322 C 
HETATM    3  N1  UNL     1       6.146 133.916 352.706  1.00  0.00    -0.319 N 
ATOM      4  H1  UNL     1       6.914 134.235 353.297  1.00  0.00     0.170 HD
HETATM    5  N2  UNL     1       7.038 131.585 352.508  1.00  0.00    -0.331 N 
HETATM    6  C11 UNL     1       8.209 131.770 353.315  1.00  0.00     0.130 C 
HETATM    7  C12 UNL     1       8.142 130.524 354.213  1.00  0.00     0.058 C 
HETATM    8  C13 UNL     1       7.500 129.487 353.320  1.00  0.00     0.189 C 
HETATM    9  F1  UNL     1       8.345 128.444 353.040  1.00  0.00    -0.248 F 
HETATM   10  C14 UNL     1       7.063 130.221 352.071  1.00  0.00     0.164 C 
ENDROOT
BRANCH   3  11
HETATM   11  C2  UNL     1       5.096 134.769 352.321  1.00  0.00     0.092 C 
BRANCH  11  12
HETATM   12  C3  UNL     1       5.188 136.196 352.315  1.00  0.00     0.013 C 
BRANCH  12  13
HETATM   13  C4  UNL     1       5.157 137.191 351.509  1.00  0.00    -0.021 C 
BRANCH  13  14
HETATM   14  C5  UNL     1       4.493 138.479 351.661  1.00  0.00     0.008 C 
HETATM   15  C6  UNL     1       5.659 139.517 351.731  1.00  0.00     0.008 C 
HETATM   16  C7  UNL     1       5.010 140.860 351.501  1.00  0.00     0.001 C 
HETATM   17  C8  UNL     1       4.866 141.020 350.000  1.00  0.00     0.000 C 
HETATM   18  C9  UNL     1       4.492 139.665 349.434  1.00  0.00     0.001 C 
HETATM   19  C10 UNL     1       3.685 138.872 350.433  1.00  0.00     0.008 C 
ENDBRANCH  13  14
ENDBRANCH  12  13
ENDBRANCH  11  12
ENDBRANCH   3  11
TORSDOF 4
ENDMDL
MODEL 3
REMARK VINA RESULT: -6.934601037      1.647      2.390
REMARK  4 active torsions:
REMARK  status: ('A' for Active; 'I' for Inactive)
REMARK       I    between atoms: C1_2  and  N1_3 
REMARK       I    between atoms: C1_2  and  N2_14 
REMARK    1  A    between atoms: N1_3  and  C2_5 
REMARK    2  A    between atoms: C2_5  and  C3_6 
REMARK    3  A    between atoms: C3_6  and  C4_7 
REMARK    4  A    between atoms: C4_7  and  C5_8 
ROOT
HETATM    1  O1  UNL     1       4.843 132.603 351.741  1.00  0.00    -0.247 OA
HETATM    2  C1  UNL     1       5.932 132.863 352.331  1.00  0.00     0.322 C 
HETATM    3  N1  UNL     1       6.193 134.228 352.780  1.00  0.00    -0.319 N 
ATOM      4  H1  UNL     1       7.056 134.485 353.259  1.00  0.00     0.170 HD
HETATM    5  N2  UNL     1       6.846 131.824 352.529  1.00  0.00    -0.331 N 
HETATM    6  C11 UNL     1       8.123 131.915 353.174  1.00  0.00     0.130 C 
HETATM    7  C12 UNL     1       8.066 130.693 354.104  1.00  0.00     0.058 C 
HETATM    8  C13 UNL     1       7.226 129.705 353.328  1.00  0.00     0.189 C 
HETATM    9  F1  UNL     1       7.933 128.587 352.969  1.00  0.00    -0.248 F 
HETATM   10  C14 UNL     1       6.695 130.457 352.127  1.00  0.00     0.164 C 
ENDROOT
BRANCH   3  11
HETATM   11  C2  UNL     1       5.180 135.166 352.511  1.00  0.00     0.092 C 
BRANCH  11  12
HETATM   12  C3  UNL     1       5.356 136.315 351.678  1.00  0.00     0.013 C 
BRANCH  12  13
HETATM   13  C4  UNL     1       5.134 137.576 351.663  1.00  0.00    -0.021 C 
BRANCH  13  14
HETATM   14  C5  UNL     1       5.027 138.479 350.526  1.00  0.00     0.008 C 
HETATM   15  C6  UNL     1       3.491 138.616 350.274  1.00  0.00     0.008 C 
HETATM   16  C7  UNL     1       3.341 139.820 349.376  1.00  0.00     0.001 C 
HETATM   17  C8  UNL     1       3.372 141.039 350.277  1.00  0.00     0.000 C 
HETATM   18  C9  UNL     1       4.395 140.775 351.363  1.00  0.00     0.001 C 
HETATM   19  C10 UNL     1       5.503 139.889 350.848  1.00  0.00     0.008 C 
ENDBRANCH  13  14
ENDBRANCH  12  13
ENDBRANCH  11  12
ENDBRANCH   3  11
TORSDOF 4
ENDMDL
MODEL 4
REMARK VINA RESULT: -6.222378043      1.747      2.368
REMARK  4 active torsions:
REMARK  status: ('A' for Active; 'I' for Inactive)
REMARK       I    between atoms: C1_2  and  N1_3 
REMARK       I    between atoms: C1_2  and  N2_14 
REMARK    1  A    between atoms: N1_3  and  C2_5 
REMARK    2  A    between atoms: C2_5  and  C3_6 
REMARK    3  A    between atoms: C3_6  and  C4_7 
REMARK    4  A    between atoms: C4_7  and  C5_8 
ROOT
HETATM    1  O1  UNL     1       4.034 134.624 352.146  1.00  0.00    -0.247 OA
HETATM    2  C1  UNL     1       5.267 134.734 352.413  1.00  0.00     0.322 C 
HETATM    3  N1  UNL     1       5.782 136.014 352.890  1.00  0.00    -0.319 N 
ATOM      4  H1  UNL     1       6.767 136.151 353.117  1.00  0.00     0.170 HD
HETATM    5  N2  UNL     1       6.088 133.616 352.238  1.00  0.00    -0.331 N 
HETATM    6  C11 UNL     1       7.498 133.540 352.487  1.00  0.00     0.130 C 
HETATM    7  C12 UNL     1       7.581 132.224 353.277  1.00  0.00     0.058 C 
HETATM    8  C13 UNL     1       6.459 131.396 352.693  1.00  0.00     0.189 C 
HETATM    9  F1  UNL     1       6.917 130.281 352.041  1.00  0.00    -0.248 F 
HETATM   10  C14 UNL     1       5.690 132.321 351.774  1.00  0.00     0.164 C 
ENDROOT
BRANCH   3  11
HETATM   11  C2  UNL     1       4.836 137.048 353.016  1.00  0.00     0.092 C 
BRANCH  11  12
HETATM   12  C3  UNL     1       4.618 138.056 352.027  1.00  0.00     0.013 C 
BRANCH  12  13
HETATM   13  C4  UNL     1       4.134 138.207 350.850  1.00  0.00    -0.021 C 
BRANCH  13  14
HETATM   14  C5  UNL     1       3.651 139.419 350.202  1.00  0.00     0.008 C 
HETATM   15  C6  UNL     1       3.813 140.536 351.282  1.00  0.00     0.008 C 
HETATM   16  C7  UNL     1       3.691 141.838 350.529  1.00  0.00     0.001 C 
HETATM   17  C8  UNL     1       5.055 142.122 349.932  1.00  0.00     0.000 C 
HETATM   18  C9  UNL     1       5.633 140.799 349.471  1.00  0.00     0.001 C 
HETATM   19  C10 UNL     1       4.535 139.857 349.043  1.00  0.00     0.008 C 
ENDBRANCH  13  14
ENDBRANCH  12  13
ENDBRANCH  11  12
ENDBRANCH   3  11
TORSDOF 4
ENDMDL
MODEL 5
REMARK VINA RESULT: -6.176822747      3.106      4.812
REMARK  4 active torsions:
REMARK  status: ('A' for Active; 'I' for Inactive)
REMARK       I    between atoms: C1_2  and  N1_3 
REMARK       I    between atoms: C1_2  and  N2_14 
REMARK    1  A    between atoms: N1_3  and  C2_5 
REMARK    2  A    between atoms: C2_5  and  C3_6 
REMARK    3  A    between atoms: C3_6  and  C4_7 
REMARK    4  A    between atoms: C4_7  and  C5_8 
ROOT
HETATM    1  O1  UNL     1       4.132 137.892 353.215  1.00  0.00    -0.247 OA
HETATM    2  C1  UNL     1       5.054 137.606 352.396  1.00  0.00     0.322 C 
HETATM    3  N1  UNL     1       5.947 138.662 351.929  1.00  0.00    -0.319 N 
ATOM      4  H1  UNL     1       6.703 138.480 351.269  1.00  0.00     0.170 HD
HETATM    5  N2  UNL     1       5.177 136.280 351.970  1.00  0.00    -0.331 N 
HETATM    6  C11 UNL     1       6.150 135.759 351.055  1.00  0.00     0.130 C 
HETATM    7  C12 UNL     1       6.614 134.503 351.810  1.00  0.00     0.058 C 
HETATM    8  C13 UNL     1       5.373 134.068 352.556  1.00  0.00     0.189 C 
HETATM    9  F1  UNL     1       4.907 132.851 352.130  1.00  0.00    -0.248 F 
HETATM   10  C14 UNL     1       4.357 135.172 352.359  1.00  0.00     0.164 C 
ENDROOT
BRANCH   3  11
HETATM   11  C2  UNL     1       5.701 139.947 352.446  1.00  0.00     0.092 C 
BRANCH  11  12
HETATM   12  C3  UNL     1       4.957 140.955 351.757  1.00  0.00     0.013 C 
BRANCH  12  13
HETATM   13  C4  UNL     1       4.596 142.179 351.874  1.00  0.00    -0.021 C 
BRANCH  13  14
HETATM   14  C5  UNL     1       5.293 143.388 351.458  1.00  0.00     0.008 C 
HETATM   15  C6  UNL     1       5.435 143.248 349.908  1.00  0.00     0.008 C 
HETATM   16  C7  UNL     1       5.794 144.629 349.415  1.00  0.00     0.001 C 
HETATM   17  C8  UNL     1       4.493 145.398 349.296  1.00  0.00     0.000 C 
HETATM   18  C9  UNL     1       3.619 144.995 350.466  1.00  0.00     0.001 C 
HETATM   19  C10 UNL     1       4.462 144.647 351.668  1.00  0.00     0.008 C 
ENDBRANCH  13  14
ENDBRANCH  12  13
ENDBRANCH  11  12
ENDBRANCH   3  11
TORSDOF 4
ENDMDL
