MODEL 1
REMARK VINA RESULT: -8.211960604      0.000      0.000
REMARK  3 active torsions:
REMARK  status: ('A' for Active; 'I' for Inactive)
REMARK       I    between atoms: C1_2  and  N1_3 
REMARK    1  A    between atoms: C1_2  and  C13_17 
REMARK    2  A    between atoms: N1_3  and  C2_5 
REMARK    3  A    between atoms: C2_5  and  C3_6 
ROOT
HETATM    1  C3  UNL     1       4.856 139.589 351.497  1.00  0.00    -0.021 C 
HETATM    2  C4  UNL     1       3.350 139.546 351.352  1.00  0.00     0.016 C 
HETATM    3  C5  UNL     1       2.962 140.306 350.120  1.00  0.00    -0.010 C 
HETATM    4  C6  UNL     1       3.669 139.842 348.877  1.00  0.00     0.009 C 
HETATM    5  C7  UNL     1       5.166 139.907 349.077  1.00  0.00    -0.010 C 
HETATM    6  C8  UNL     1       5.599 141.309 349.336  1.00  0.00     0.048 C 
HETATM    7  C9  UNL     1       4.849 141.846 350.540  1.00  0.00     0.105 C 
HETATM    8  F1  UNL     1       5.143 143.188 350.713  1.00  0.00    -0.243 F 
HETATM    9  C10 UNL     1       3.347 141.759 350.341  1.00  0.00     0.048 C 
HETATM   10  C11 UNL     1       5.247 141.028 351.740  1.00  0.00     0.054 C 
HETATM   11  C12 UNL     1       5.556 139.064 350.270  1.00  0.00     0.016 C 
ENDROOT
BRANCH   1  12
HETATM   12  C2  UNL     1       5.322 138.749 352.664  1.00  0.00     0.132 C 
BRANCH  12  13
HETATM   13  N1  UNL     1       5.577 137.387 352.254  1.00  0.00    -0.360 N 
HETATM   14  C1  UNL     1       4.900 136.275 352.795  1.00  0.00     0.221 C 
HETATM   15  O1  UNL     1       4.033 136.469 353.675  1.00  0.00    -0.273 OA
ATOM     16  H1  UNL     1       6.284 137.221 351.537  1.00  0.00     0.162 HD
BRANCH  14  17
HETATM   17  C13 UNL     1       5.223 134.914 352.318  1.00  0.00     0.078 A 
HETATM   18  C14 UNL     1       6.502 134.293 352.966  1.00  0.00     0.015 A 
HETATM   19  C15 UNL     1       6.453 134.666 351.523  1.00  0.00     0.015 A 
ENDBRANCH  14  17
ENDBRANCH  12  13
ENDBRANCH   1  12
TORSDOF 3
ENDMDL
MODEL 2
REMARK VINA RESULT: -8.011307036      1.022      1.946
REMARK  3 active torsions:
REMARK  status: ('A' for Active; 'I' for Inactive)
REMARK       I    between atoms: C1_2  and  N1_3 
REMARK    1  A    between atoms: C1_2  and  C13_17 
REMARK    2  A    between atoms: N1_3  and  C2_5 
REMARK    3  A    between atoms: C2_5  and  C3_6 
ROOT
HETATM    1  C3  UNL     1       4.990 139.799 351.584  1.00  0.00    -0.021 C 
HETATM    2  C4  UNL     1       5.233 141.256 351.916  1.00  0.00     0.016 C 
HETATM    3  C5  UNL     1       4.683 142.102 350.808  1.00  0.00    -0.010 C 
HETATM    4  C6  UNL     1       3.240 141.820 350.494  1.00  0.00     0.009 C 
HETATM    5  C7  UNL     1       3.056 140.355 350.168  1.00  0.00    -0.010 C 
HETATM    6  C8  UNL     1       3.853 139.983 348.966  1.00  0.00     0.048 C 
HETATM    7  C9  UNL     1       5.310 140.324 349.210  1.00  0.00     0.105 C 
HETATM    8  F1  UNL     1       6.041 140.105 348.055  1.00  0.00    -0.243 F 
HETATM    9  C10 UNL     1       5.485 141.791 349.557  1.00  0.00     0.048 C 
HETATM   10  C11 UNL     1       5.803 139.474 350.352  1.00  0.00     0.054 C 
HETATM   11  C12 UNL     1       3.532 139.513 351.330  1.00  0.00     0.016 C 
ENDROOT
BRANCH   1  12
HETATM   12  C2  UNL     1       5.427 138.895 352.713  1.00  0.00     0.132 C 
BRANCH  12  13
HETATM   13  N1  UNL     1       5.602 137.536 352.253  1.00  0.00    -0.360 N 
HETATM   14  C1  UNL     1       4.908 136.436 352.799  1.00  0.00     0.221 C 
HETATM   15  O1  UNL     1       4.098 136.639 353.729  1.00  0.00    -0.273 OA
ATOM     16  H1  UNL     1       6.261 137.363 351.494  1.00  0.00     0.162 HD
BRANCH  14  17
HETATM   17  C13 UNL     1       5.148 135.079 352.267  1.00  0.00     0.078 A 
HETATM   18  C14 UNL     1       6.368 134.344 352.909  1.00  0.00     0.015 A 
HETATM   19  C15 UNL     1       6.374 134.781 351.484  1.00  0.00     0.015 A 
ENDBRANCH  14  17
ENDBRANCH  12  13
ENDBRANCH   1  12
TORSDOF 3
ENDMDL
MODEL 3
REMARK VINA RESULT: -7.877425152      1.170      2.176
REMARK  3 active torsions:
REMARK  status: ('A' for Active; 'I' for Inactive)
REMARK       I    between atoms: C1_2  and  N1_3 
REMARK    1  A    between atoms: C1_2  and  C13_17 
REMARK    2  A    between atoms: N1_3  and  C2_5 
REMARK    3  A    between atoms: C2_5  and  C3_6 
ROOT
HETATM    1  C3  UNL     1       4.950 139.623 351.349  1.00  0.00    -0.021 C 
HETATM    2  C4  UNL     1       5.841 139.293 350.171  1.00  0.00     0.016 C 
HETATM    3  C5  UNL     1       5.506 140.215 349.038  1.00  0.00    -0.010 C 
HETATM    4  C6  UNL     1       5.566 141.671 349.408  1.00  0.00     0.009 C 
HETATM    5  C7  UNL     1       4.658 141.944 350.586  1.00  0.00    -0.010 C 
HETATM    6  C8  UNL     1       3.243 141.633 350.239  1.00  0.00     0.048 C 
HETATM    7  C9  UNL     1       3.150 140.189 349.784  1.00  0.00     0.105 C 
HETATM    8  F1  UNL     1       1.867 139.923 349.335  1.00  0.00    -0.243 F 
HETATM    9  C10 UNL     1       4.078 139.916 348.615  1.00  0.00     0.048 C 
HETATM   10  C11 UNL     1       3.528 139.308 350.945  1.00  0.00     0.054 C 
HETATM   11  C12 UNL     1       5.062 141.071 351.752  1.00  0.00     0.016 C 
ENDROOT
BRANCH   1  12
HETATM   12  C2  UNL     1       5.310 138.799 352.563  1.00  0.00     0.132 C 
BRANCH  12  13
HETATM   13  N1  UNL     1       5.550 137.420 352.203  1.00  0.00    -0.360 N 
HETATM   14  C1  UNL     1       4.876 136.334 352.799  1.00  0.00     0.221 C 
HETATM   15  O1  UNL     1       4.027 136.567 353.686  1.00  0.00    -0.273 OA
ATOM     16  H1  UNL     1       6.242 137.222 351.480  1.00  0.00     0.162 HD
BRANCH  14  17
HETATM   17  C13 UNL     1       5.183 134.954 352.369  1.00  0.00     0.078 A 
HETATM   18  C14 UNL     1       6.491 134.364 352.988  1.00  0.00     0.015 A 
HETATM   19  C15 UNL     1       6.378 134.672 351.534  1.00  0.00     0.015 A 
ENDBRANCH  14  17
ENDBRANCH  12  13
ENDBRANCH   1  12
TORSDOF 3
ENDMDL
MODEL 4
REMARK VINA RESULT: -7.128112599      2.009      3.095
REMARK  3 active torsions:
REMARK  status: ('A' for Active; 'I' for Inactive)
REMARK       I    between atoms: C1_2  and  N1_3 
REMARK    1  A    between atoms: C1_2  and  C13_17 
REMARK    2  A    between atoms: N1_3  and  C2_5 
REMARK    3  A    between atoms: C2_5  and  C3_6 
ROOT
HETATM    1  C3  UNL     1       4.797 141.746 350.240  1.00  0.00    -0.021 C 
HETATM    2  C4  UNL     1       3.310 141.902 350.006  1.00  0.00     0.016 C 
HETATM    3  C5  UNL     1       2.881 143.248 350.505  1.00  0.00    -0.010 C 
HETATM    4  C6  UNL     1       3.673 144.387 349.926  1.00  0.00     0.009 C 
HETATM    5  C7  UNL     1       5.147 144.181 350.191  1.00  0.00    -0.010 C 
HETATM    6  C8  UNL     1       5.416 144.153 351.656  1.00  0.00     0.048 C 
HETATM    7  C9  UNL     1       4.575 143.065 352.295  1.00  0.00     0.105 C 
HETATM    8  F1  UNL     1       4.716 143.113 353.672  1.00  0.00    -0.243 F 
HETATM    9  C10 UNL     1       3.098 143.266 352.008  1.00  0.00     0.048 C 
HETATM   10  C11 UNL     1       5.022 141.741 351.735  1.00  0.00     0.054 C 
HETATM   11  C12 UNL     1       5.588 142.860 349.604  1.00  0.00     0.016 C 
ENDROOT
BRANCH   1  12
HETATM   12  C2  UNL     1       5.315 140.450 349.661  1.00  0.00     0.132 C 
BRANCH  12  13
HETATM   13  N1  UNL     1       5.571 139.481 350.701  1.00  0.00    -0.360 N 
HETATM   14  C1  UNL     1       4.708 138.402 350.987  1.00  0.00     0.221 C 
HETATM   15  O1  UNL     1       3.666 138.271 350.309  1.00  0.00    -0.273 OA
ATOM     16  H1  UNL     1       6.420 139.582 351.259  1.00  0.00     0.162 HD
BRANCH  14  17
HETATM   17  C13 UNL     1       5.048 137.457 352.070  1.00  0.00     0.078 A 
HETATM   18  C14 UNL     1       5.633 136.095 351.574  1.00  0.00     0.015 A 
HETATM   19  C15 UNL     1       4.296 136.186 352.227  1.00  0.00     0.015 A 
ENDBRANCH  14  17
ENDBRANCH  12  13
ENDBRANCH   1  12
TORSDOF 3
ENDMDL
MODEL 5
REMARK VINA RESULT: -7.033396165      1.792      3.042
REMARK  3 active torsions:
REMARK  status: ('A' for Active; 'I' for Inactive)
REMARK       I    between atoms: C1_2  and  N1_3 
REMARK    1  A    between atoms: C1_2  and  C13_17 
REMARK    2  A    between atoms: N1_3  and  C2_5 
REMARK    3  A    between atoms: C2_5  and  C3_6 
ROOT
HETATM    1  C3  UNL     1       4.878 141.442 350.263  1.00  0.00    -0.021 C 
HETATM    2  C4  UNL     1       5.303 141.577 351.710  1.00  0.00     0.016 C 
HETATM    3  C5  UNL     1       4.825 142.898 352.232  1.00  0.00    -0.010 C 
HETATM    4  C6  UNL     1       3.350 143.123 352.046  1.00  0.00     0.009 C 
HETATM    5  C7  UNL     1       2.983 142.978 350.586  1.00  0.00    -0.010 C 
HETATM    6  C8  UNL     1       3.694 143.997 349.764  1.00  0.00     0.048 C 
HETATM    7  C9  UNL     1       5.189 143.858 349.983  1.00  0.00     0.105 C 
HETATM    8  F1  UNL     1       5.854 144.881 349.329  1.00  0.00    -0.243 F 
HETATM    9  C10 UNL     1       5.547 143.983 351.452  1.00  0.00     0.048 C 
HETATM   10  C11 UNL     1       5.610 142.504 349.475  1.00  0.00     0.054 C 
HETATM   11  C12 UNL     1       3.390 141.607 350.094  1.00  0.00     0.016 C 
ENDROOT
BRANCH   1  12
HETATM   12  C2  UNL     1       5.237 140.083 349.707  1.00  0.00     0.132 C 
BRANCH  12  13
HETATM   13  N1  UNL     1       5.507 139.142 350.769  1.00  0.00    -0.360 N 
HETATM   14  C1  UNL     1       4.655 138.063 351.086  1.00  0.00     0.221 C 
HETATM   15  O1  UNL     1       3.610 137.908 350.419  1.00  0.00    -0.273 OA
ATOM     16  H1  UNL     1       6.358 139.263 351.318  1.00  0.00     0.162 HD
BRANCH  14  17
HETATM   17  C13 UNL     1       5.010 137.147 352.190  1.00  0.00     0.078 A 
HETATM   18  C14 UNL     1       5.669 135.808 351.727  1.00  0.00     0.015 A 
HETATM   19  C15 UNL     1       4.312 135.845 352.344  1.00  0.00     0.015 A 
ENDBRANCH  14  17
ENDBRANCH  12  13
ENDBRANCH   1  12
TORSDOF 3
ENDMDL
