MODEL 1
REMARK VINA RESULT: -8.102736167      0.000      0.000
REMARK  3 active torsions:
REMARK  status: ('A' for Active; 'I' for Inactive)
REMARK       I    between atoms: C1_2  and  N1_3 
REMARK    1  A    between atoms: C1_2  and  C13_16 
REMARK    2  A    between atoms: N1_3  and  C2_5 
REMARK    3  A    between atoms: C2_5  and  C3_6 
ROOT
HETATM    1  C3  UNL     1       4.814 139.539 351.503  1.00  0.00    -0.007 C 
HETATM    2  C4  UNL     1       5.422 139.037 350.161  1.00  0.00     0.019 C 
HETATM    3  C5  UNL     1       5.157 140.021 349.090  1.00  0.00    -0.013 C 
HETATM    4  C6  UNL     1       3.639 140.050 348.873  1.00  0.00     0.009 C 
HETATM    5  C7  UNL     1       2.995 140.484 350.145  1.00  0.00    -0.013 C 
HETATM    6  C8  UNL     1       3.434 141.869 350.481  1.00  0.00     0.009 C 
HETATM    7  C9  UNL     1       4.923 141.848 350.669  1.00  0.00    -0.013 C 
HETATM    8  C10 UNL     1       5.604 141.421 349.399  1.00  0.00     0.009 C 
HETATM    9  C11 UNL     1       5.301 140.954 351.791  1.00  0.00     0.019 C 
HETATM   10  C12 UNL     1       3.356 139.587 351.340  1.00  0.00     0.019 C 
ENDROOT
BRANCH   1  11
HETATM   11  C2  UNL     1       5.435 138.652 352.512  1.00  0.00     0.073 C 
BRANCH  11  12
HETATM   12  N1  UNL     1       5.623 137.284 352.312  1.00  0.00    -0.340 N 
HETATM   13  C1  UNL     1       4.909 136.226 352.863  1.00  0.00     0.228 C 
HETATM   14  O1  UNL     1       3.939 136.422 353.640  1.00  0.00    -0.273 OA
ATOM     15  H1  UNL     1       6.381 137.028 351.680  1.00  0.00     0.167 HD
BRANCH  13  16
HETATM   16  C13 UNL     1       5.249 134.783 352.570  1.00  0.00     0.115 A 
HETATM   17  C14 UNL     1       6.639 134.337 353.011  1.00  0.00     0.055 A 
HETATM   18  C15 UNL     1       6.242 134.455 351.533  1.00  0.00     0.184 A 
HETATM   19  F1  UNL     1       6.861 135.399 350.781  1.00  0.00    -0.248 F 
ENDBRANCH  13  16
ENDBRANCH  11  12
ENDBRANCH   1  11
TORSDOF 3
ENDMDL
MODEL 2
REMARK VINA RESULT: -8.045883404      0.433      1.753
REMARK  3 active torsions:
REMARK  status: ('A' for Active; 'I' for Inactive)
REMARK       I    between atoms: C1_2  and  N1_3 
REMARK    1  A    between atoms: C1_2  and  C13_16 
REMARK    2  A    between atoms: N1_3  and  C2_5 
REMARK    3  A    between atoms: C2_5  and  C3_6 
ROOT
HETATM    1  C3  UNL     1       4.967 139.483 351.496  1.00  0.00    -0.007 C 
HETATM    2  C4  UNL     1       5.497 140.870 351.963  1.00  0.00     0.019 C 
HETATM    3  C5  UNL     1       4.791 141.948 351.240  1.00  0.00    -0.013 C 
HETATM    4  C6  UNL     1       5.183 141.829 349.763  1.00  0.00     0.009 C 
HETATM    5  C7  UNL     1       4.737 140.497 349.267  1.00  0.00    -0.013 C 
HETATM    6  C8  UNL     1       3.252 140.403 349.353  1.00  0.00     0.009 C 
HETATM    7  C9  UNL     1       2.863 140.543 350.796  1.00  0.00    -0.013 C 
HETATM    8  C10 UNL     1       3.292 141.882 351.325  1.00  0.00     0.009 C 
HETATM    9  C11 UNL     1       3.447 139.448 351.610  1.00  0.00     0.019 C 
HETATM   10  C12 UNL     1       5.317 139.327 350.079  1.00  0.00     0.019 C 
ENDROOT
BRANCH   1  11
HETATM   11  C2  UNL     1       5.500 138.552 352.515  1.00  0.00     0.073 C 
BRANCH  11  12
HETATM   12  N1  UNL     1       5.672 137.187 352.285  1.00  0.00    -0.340 N 
HETATM   13  C1  UNL     1       4.952 136.124 352.821  1.00  0.00     0.228 C 
HETATM   14  O1  UNL     1       3.992 136.314 353.611  1.00  0.00    -0.273 OA
ATOM     15  H1  UNL     1       6.422 136.936 351.641  1.00  0.00     0.167 HD
BRANCH  13  16
HETATM   16  C13 UNL     1       5.274 134.685 352.494  1.00  0.00     0.115 A 
HETATM   17  C14 UNL     1       6.643 134.200 352.960  1.00  0.00     0.055 A 
HETATM   18  C15 UNL     1       6.290 134.369 351.476  1.00  0.00     0.184 A 
HETATM   19  F1  UNL     1       6.947 135.322 350.769  1.00  0.00    -0.248 F 
ENDBRANCH  13  16
ENDBRANCH  11  12
ENDBRANCH   1  11
TORSDOF 3
ENDMDL
MODEL 3
REMARK VINA RESULT: -8.025024226      0.171      1.712
REMARK  3 active torsions:
REMARK  status: ('A' for Active; 'I' for Inactive)
REMARK       I    between atoms: C1_2  and  N1_3 
REMARK    1  A    between atoms: C1_2  and  C13_16 
REMARK    2  A    between atoms: N1_3  and  C2_5 
REMARK    3  A    between atoms: C2_5  and  C3_6 
ROOT
HETATM    1  C3  UNL     1       5.005 139.619 351.555  1.00  0.00    -0.007 C 
HETATM    2  C4  UNL     1       3.456 139.525 351.428  1.00  0.00     0.019 C 
HETATM    3  C5  UNL     1       3.010 140.210 350.197  1.00  0.00    -0.013 C 
HETATM    4  C6  UNL     1       3.323 141.700 350.374  1.00  0.00     0.009 C 
HETATM    5  C7  UNL     1       4.796 141.850 350.543  1.00  0.00    -0.013 C 
HETATM    6  C8  UNL     1       5.491 141.381 349.311  1.00  0.00     0.009 C 
HETATM    7  C9  UNL     1       5.166 139.928 349.121  1.00  0.00    -0.013 C 
HETATM    8  C10 UNL     1       3.686 139.744 348.940  1.00  0.00     0.009 C 
HETATM    9  C11 UNL     1       5.656 139.124 350.268  1.00  0.00     0.019 C 
HETATM   10  C12 UNL     1       5.353 141.035 351.721  1.00  0.00     0.019 C 
ENDROOT
BRANCH   1  11
HETATM   11  C2  UNL     1       5.322 138.631 352.610  1.00  0.00     0.073 C 
BRANCH  11  12
HETATM   12  N1  UNL     1       5.530 137.277 352.348  1.00  0.00    -0.340 N 
HETATM   13  C1  UNL     1       4.860 136.181 352.884  1.00  0.00     0.228 C 
HETATM   14  O1  UNL     1       3.919 136.326 353.705  1.00  0.00    -0.273 OA
ATOM     15  H1  UNL     1       6.268 137.062 351.677  1.00  0.00     0.167 HD
BRANCH  13  16
HETATM   16  C13 UNL     1       5.218 134.760 352.520  1.00  0.00     0.115 A 
HETATM   17  C14 UNL     1       6.609 134.306 352.949  1.00  0.00     0.055 A 
HETATM   18  C15 UNL     1       6.222 134.495 351.476  1.00  0.00     0.184 A 
HETATM   19  F1  UNL     1       6.837 135.483 350.778  1.00  0.00    -0.248 F 
ENDBRANCH  13  16
ENDBRANCH  11  12
ENDBRANCH   1  11
TORSDOF 3
ENDMDL
MODEL 4
REMARK VINA RESULT: -7.418635607      2.591      3.714
REMARK  3 active torsions:
REMARK  status: ('A' for Active; 'I' for Inactive)
REMARK       I    between atoms: C1_2  and  N1_3 
REMARK    1  A    between atoms: C1_2  and  C13_16 
REMARK    2  A    between atoms: N1_3  and  C2_5 
REMARK    3  A    between atoms: C2_5  and  C3_6 
ROOT
HETATM    1  C3  UNL     1       3.769 142.516 350.503  1.00  0.00    -0.007 C 
HETATM    2  C4  UNL     1       5.099 142.582 349.697  1.00  0.00     0.019 C 
HETATM    3  C5  UNL     1       5.757 143.887 349.919  1.00  0.00    -0.013 C 
HETATM    4  C6  UNL     1       4.847 144.959 349.309  1.00  0.00     0.009 C 
HETATM    5  C7  UNL     1       3.536 144.915 350.015  1.00  0.00    -0.013 C 
HETATM    6  C8  UNL     1       3.732 145.249 351.455  1.00  0.00     0.009 C 
HETATM    7  C9  UNL     1       4.644 144.215 352.049  1.00  0.00    -0.013 C 
HETATM    8  C10 UNL     1       5.979 144.239 351.362  1.00  0.00     0.009 C 
HETATM    9  C11 UNL     1       4.036 142.864 351.963  1.00  0.00     0.019 C 
HETATM   10  C12 UNL     1       2.865 143.533 349.954  1.00  0.00     0.019 C 
ENDROOT
BRANCH   1  11
HETATM   11  C2  UNL     1       3.413 141.081 350.457  1.00  0.00     0.073 C 
BRANCH  11  12
HETATM   12  N1  UNL     1       4.248 140.073 350.939  1.00  0.00    -0.340 N 
HETATM   13  C1  UNL     1       4.182 138.706 350.692  1.00  0.00     0.228 C 
HETATM   14  O1  UNL     1       3.304 138.217 349.935  1.00  0.00    -0.273 OA
ATOM     15  H1  UNL     1       5.004 140.377 351.553  1.00  0.00     0.167 HD
BRANCH  13  16
HETATM   16  C13 UNL     1       5.150 137.725 351.311  1.00  0.00     0.115 A 
HETATM   17  C14 UNL     1       4.575 136.348 351.622  1.00  0.00     0.055 A 
HETATM   18  C15 UNL     1       4.999 137.331 352.722  1.00  0.00     0.184 A 
HETATM   19  F1  UNL     1       4.034 137.838 353.530  1.00  0.00    -0.248 F 
ENDBRANCH  13  16
ENDBRANCH  11  12
ENDBRANCH   1  11
TORSDOF 3
ENDMDL
MODEL 5
REMARK VINA RESULT: -7.232000987      2.562      3.952
REMARK  3 active torsions:
REMARK  status: ('A' for Active; 'I' for Inactive)
REMARK       I    between atoms: C1_2  and  N1_3 
REMARK    1  A    between atoms: C1_2  and  C13_16 
REMARK    2  A    between atoms: N1_3  and  C2_5 
REMARK    3  A    between atoms: C2_5  and  C3_6 
ROOT
HETATM    1  C3  UNL     1       4.129 142.403 350.654  1.00  0.00    -0.007 C 
HETATM    2  C4  UNL     1       4.574 142.835 352.082  1.00  0.00     0.019 C 
HETATM    3  C5  UNL     1       4.871 144.283 352.100  1.00  0.00    -0.013 C 
HETATM    4  C6  UNL     1       6.093 144.501 351.200  1.00  0.00     0.009 C 
HETATM    5  C7  UNL     1       5.741 144.063 349.821  1.00  0.00    -0.013 C 
HETATM    6  C8  UNL     1       4.631 144.909 349.295  1.00  0.00     0.009 C 
HETATM    7  C9  UNL     1       3.440 144.716 350.189  1.00  0.00    -0.013 C 
HETATM    8  C10 UNL     1       3.761 145.157 351.589  1.00  0.00     0.009 C 
HETATM    9  C11 UNL     1       2.994 143.301 350.175  1.00  0.00     0.019 C 
HETATM   10  C12 UNL     1       5.272 142.600 349.754  1.00  0.00     0.019 C 
ENDROOT
BRANCH   1  11
HETATM   11  C2  UNL     1       3.557 141.055 350.867  1.00  0.00     0.073 C 
BRANCH  11  12
HETATM   12  N1  UNL     1       4.317 139.960 351.276  1.00  0.00    -0.340 N 
HETATM   13  C1  UNL     1       4.216 138.636 350.862  1.00  0.00     0.228 C 
HETATM   14  O1  UNL     1       3.374 138.281 349.997  1.00  0.00    -0.273 OA
ATOM     15  H1  UNL     1       5.041 140.155 351.968  1.00  0.00     0.167 HD
BRANCH  13  16
HETATM   16  C13 UNL     1       5.102 137.546 351.418  1.00  0.00     0.115 A 
HETATM   17  C14 UNL     1       4.409 136.212 351.678  1.00  0.00     0.055 A 
HETATM   18  C15 UNL     1       4.937 137.102 352.813  1.00  0.00     0.184 A 
HETATM   19  F1  UNL     1       4.034 137.655 353.660  1.00  0.00    -0.248 F 
ENDBRANCH  13  16
ENDBRANCH  11  12
ENDBRANCH   1  11
TORSDOF 3
ENDMDL
