MODEL 1
REMARK VINA RESULT: -6.352025026      0.000      0.000
REMARK  11 active torsions:
REMARK  status: ('A' for Active; 'I' for Inactive)
REMARK    1  A    between atoms: C1_2  and  C2_4 
REMARK    2  A    between atoms: C3_5  and  N2_6 
REMARK    3  A    between atoms: C3_5  and  C8_15 
REMARK    4  A    between atoms: C4_8  and  C5_10 
REMARK    5  A    between atoms: C5_10  and  C6_11 
REMARK    6  A    between atoms: C6_11  and  C7_12 
REMARK    7  A    between atoms: C7_12  and  O2_13 
REMARK    8  A    between atoms: C8_15  and  O3_16 
REMARK    9  A    between atoms: C8_15  and  C9_18 
REMARK   10  A    between atoms: C9_18  and  O4_19 
REMARK   11  A    between atoms: O4_19  and  N4_20 
ROOT
HETATM    1  C2  UNL     1     -15.866 -24.050  23.202  1.00  0.00     0.098 C 
HETATM    2  C3  UNL     1     -15.295 -25.146  23.562  1.00  0.00     0.046 C 
ENDROOT
BRANCH   2   3
HETATM    3  N2  UNL     1     -13.874 -25.274  23.317  1.00  0.00    -0.349 N 
HETATM    4  C4  UNL     1     -13.352 -25.113  22.172  1.00  0.00     0.093 C 
HETATM    5  N3  UNL     1     -14.165 -24.791  21.052  1.00  0.00    -0.088 NA
ATOM      6  H2  UNL     1     -13.264 -25.505  24.102  1.00  0.00     0.166 HD
BRANCH   4   7
HETATM    7  C5  UNL     1     -11.892 -25.263  22.010  1.00  0.00     0.075 C 
BRANCH   7   8
HETATM    8  C6  UNL     1     -11.330 -24.347  20.950  1.00  0.00     0.033 C 
BRANCH   8   9
HETATM    9  C7  UNL     1     -10.532 -23.260  21.656  1.00  0.00     0.164 C 
BRANCH   9  10
HETATM   10  O2  UNL     1      -9.244 -23.161  21.117  1.00  0.00    -0.401 OA
ATOM     11  H2  UNL     1      -8.635 -22.818  21.761  1.00  0.00     0.209 HD
ENDBRANCH   9  10
ENDBRANCH   8   9
ENDBRANCH   7   8
ENDBRANCH   4   7
ENDBRANCH   2   3
BRANCH   2  12
HETATM   12  C8  UNL     1     -15.926 -26.285  24.193  1.00  0.00     0.194 C 
BRANCH  12  13
HETATM   13  O3  UNL     1     -16.087 -27.287  23.182  1.00  0.00    -0.387 OA
ATOM     14  H3  UNL     1     -16.648 -27.961  23.547  1.00  0.00     0.210 HD
ENDBRANCH  12  13
BRANCH  12  15
HETATM   15  C9  UNL     1     -15.003 -26.967  25.208  1.00  0.00     0.238 C 
BRANCH  15  16
HETATM   16  O4  UNL     1     -14.804 -26.149  26.316  1.00  0.00    -0.284 OA
BRANCH  16  17
HETATM   17  N4  UNL     1     -15.939 -26.086  27.037  1.00  0.00    -0.311 N 
ATOM     18  H42 UNL     1     -16.841 -25.784  26.669  1.00  0.00     0.184 HD
ATOM     19  H41 UNL     1     -15.751 -26.384  27.995  1.00  0.00     0.184 HD
ENDBRANCH  16  17
ENDBRANCH  15  16
ENDBRANCH  12  15
ENDBRANCH   2  12
BRANCH   1  20
HETATM   20  C1  UNL     1     -17.246 -23.648  23.317  1.00  0.00     0.256 C 
HETATM   21  N1  UNL     1     -18.308 -24.327  22.613  1.00  0.00    -0.058 NA
HETATM   22  O1  UNL     1     -17.615 -22.696  24.023  1.00  0.00    -0.272 OA
ENDBRANCH   1  20
TORSDOF 11
ENDMDL
MODEL 2
REMARK VINA RESULT: -6.170106369      1.006      1.022
REMARK  11 active torsions:
REMARK  status: ('A' for Active; 'I' for Inactive)
REMARK    1  A    between atoms: C1_2  and  C2_4 
REMARK    2  A    between atoms: C3_5  and  N2_6 
REMARK    3  A    between atoms: C3_5  and  C8_15 
REMARK    4  A    between atoms: C4_8  and  C5_10 
REMARK    5  A    between atoms: C5_10  and  C6_11 
REMARK    6  A    between atoms: C6_11  and  C7_12 
REMARK    7  A    between atoms: C7_12  and  O2_13 
REMARK    8  A    between atoms: C8_15  and  O3_16 
REMARK    9  A    between atoms: C8_15  and  C9_18 
REMARK   10  A    between atoms: C9_18  and  O4_19 
REMARK   11  A    between atoms: O4_19  and  N4_20 
ROOT
HETATM    1  C2  UNL     1     -16.224 -23.987  22.962  1.00  0.00     0.098 C 
HETATM    2  C3  UNL     1     -15.436 -24.962  23.251  1.00  0.00     0.046 C 
ENDROOT
BRANCH   2   3
HETATM    3  N2  UNL     1     -14.083 -24.907  22.739  1.00  0.00    -0.349 N 
HETATM    4  C4  UNL     1     -13.814 -24.872  21.500  1.00  0.00     0.093 C 
HETATM    5  N3  UNL     1     -14.860 -24.886  20.538  1.00  0.00    -0.088 NA
ATOM      6  H2  UNL     1     -13.311 -24.896  23.406  1.00  0.00     0.166 HD
BRANCH   4   7
HETATM    7  C5  UNL     1     -12.405 -24.818  21.063  1.00  0.00     0.075 C 
BRANCH   7   8
HETATM    8  C6  UNL     1     -11.470 -24.402  22.173  1.00  0.00     0.033 C 
BRANCH   8   9
HETATM    9  C7  UNL     1     -10.676 -23.201  21.681  1.00  0.00     0.164 C 
BRANCH   9  10
HETATM   10  O2  UNL     1      -9.551 -23.612  20.958  1.00  0.00    -0.401 OA
ATOM     11  H2  UNL     1      -9.031 -22.863  20.690  1.00  0.00     0.209 HD
ENDBRANCH   9  10
ENDBRANCH   8   9
ENDBRANCH   7   8
ENDBRANCH   4   7
ENDBRANCH   2   3
BRANCH   2  12
HETATM   12  C8  UNL     1     -15.757 -26.129  24.045  1.00  0.00     0.194 C 
BRANCH  12  13
HETATM   13  O3  UNL     1     -16.075 -27.183  23.129  1.00  0.00    -0.387 OA
ATOM     14  H3  UNL     1     -16.957 -27.471  23.334  1.00  0.00     0.210 HD
ENDBRANCH  12  13
BRANCH  12  15
HETATM   15  C9  UNL     1     -14.533 -26.677  24.786  1.00  0.00     0.238 C 
BRANCH  15  16
HETATM   16  O4  UNL     1     -14.248 -25.899  25.904  1.00  0.00    -0.284 OA
BRANCH  16  17
HETATM   17  N4  UNL     1     -15.130 -26.177  26.882  1.00  0.00    -0.311 N 
ATOM     18  H42 UNL     1     -15.593 -27.078  27.003  1.00  0.00     0.184 HD
ATOM     19  H41 UNL     1     -15.255 -25.355  27.472  1.00  0.00     0.184 HD
ENDBRANCH  16  17
ENDBRANCH  15  16
ENDBRANCH  12  15
ENDBRANCH   2  12
BRANCH   1  20
HETATM   20  C1  UNL     1     -17.603 -23.775  23.327  1.00  0.00     0.256 C 
HETATM   21  N1  UNL     1     -17.983 -23.137  24.565  1.00  0.00    -0.058 NA
HETATM   22  O1  UNL     1     -18.553 -24.123  22.608  1.00  0.00    -0.272 OA
ENDBRANCH   1  20
TORSDOF 11
ENDMDL
MODEL 3
REMARK VINA RESULT: -6.054267368      2.768      4.599
REMARK  11 active torsions:
REMARK  status: ('A' for Active; 'I' for Inactive)
REMARK    1  A    between atoms: C1_2  and  C2_4 
REMARK    2  A    between atoms: C3_5  and  N2_6 
REMARK    3  A    between atoms: C3_5  and  C8_15 
REMARK    4  A    between atoms: C4_8  and  C5_10 
REMARK    5  A    between atoms: C5_10  and  C6_11 
REMARK    6  A    between atoms: C6_11  and  C7_12 
REMARK    7  A    between atoms: C7_12  and  O2_13 
REMARK    8  A    between atoms: C8_15  and  O3_16 
REMARK    9  A    between atoms: C8_15  and  C9_18 
REMARK   10  A    between atoms: C9_18  and  O4_19 
REMARK   11  A    between atoms: O4_19  and  N4_20 
ROOT
HETATM    1  C2  UNL     1     -15.634 -26.804  23.771  1.00  0.00     0.098 C 
HETATM    2  C3  UNL     1     -15.898 -25.644  23.281  1.00  0.00     0.046 C 
ENDROOT
BRANCH   2   3
HETATM    3  N2  UNL     1     -16.117 -25.552  21.854  1.00  0.00    -0.349 N 
HETATM    4  C4  UNL     1     -15.209 -25.209  21.036  1.00  0.00     0.093 C 
HETATM    5  N3  UNL     1     -13.905 -24.893  21.502  1.00  0.00    -0.088 NA
ATOM      6  H2  UNL     1     -17.044 -25.772  21.488  1.00  0.00     0.166 HD
BRANCH   4   7
HETATM    7  C5  UNL     1     -15.518 -25.139  19.593  1.00  0.00     0.075 C 
BRANCH   7   8
HETATM    8  C6  UNL     1     -16.191 -26.392  19.085  1.00  0.00     0.033 C 
BRANCH   8   9
HETATM    9  C7  UNL     1     -16.027 -26.422  17.572  1.00  0.00     0.164 C 
BRANCH   9  10
HETATM   10  O2  UNL     1     -14.936 -25.640  17.176  1.00  0.00    -0.401 OA
ATOM     11  H2  UNL     1     -14.512 -26.016  16.412  1.00  0.00     0.209 HD
ENDBRANCH   9  10
ENDBRANCH   8   9
ENDBRANCH   7   8
ENDBRANCH   4   7
ENDBRANCH   2   3
BRANCH   2  12
HETATM   12  C8  UNL     1     -16.000 -24.398  24.011  1.00  0.00     0.194 C 
BRANCH  12  13
HETATM   13  O3  UNL     1     -14.778 -23.684  23.794  1.00  0.00    -0.387 OA
ATOM     14  H3  UNL     1     -14.279 -23.738  24.600  1.00  0.00     0.210 HD
ENDBRANCH  12  13
BRANCH  12  15
HETATM   15  C9  UNL     1     -17.055 -23.462  23.410  1.00  0.00     0.238 C 
BRANCH  15  16
HETATM   16  O4  UNL     1     -18.324 -24.022  23.518  1.00  0.00    -0.284 OA
BRANCH  16  17
HETATM   17  N4  UNL     1     -18.802 -24.291  22.288  1.00  0.00    -0.311 N 
ATOM     18  H42 UNL     1     -18.761 -25.207  21.842  1.00  0.00     0.184 HD
ATOM     19  H41 UNL     1     -19.204 -23.445  21.886  1.00  0.00     0.184 HD
ENDBRANCH  16  17
ENDBRANCH  15  16
ENDBRANCH  12  15
ENDBRANCH   2  12
BRANCH   1  20
HETATM   20  C1  UNL     1     -15.373 -27.192  25.135  1.00  0.00     0.256 C 
HETATM   21  N1  UNL     1     -16.430 -27.353  26.106  1.00  0.00    -0.058 NA
HETATM   22  O1  UNL     1     -14.232 -27.414  25.569  1.00  0.00    -0.272 OA
ENDBRANCH   1  20
TORSDOF 11
ENDMDL
MODEL 4
REMARK VINA RESULT: -5.618495552      2.171      3.691
REMARK  11 active torsions:
REMARK  status: ('A' for Active; 'I' for Inactive)
REMARK    1  A    between atoms: C1_2  and  C2_4 
REMARK    2  A    between atoms: C3_5  and  N2_6 
REMARK    3  A    between atoms: C3_5  and  C8_15 
REMARK    4  A    between atoms: C4_8  and  C5_10 
REMARK    5  A    between atoms: C5_10  and  C6_11 
REMARK    6  A    between atoms: C6_11  and  C7_12 
REMARK    7  A    between atoms: C7_12  and  O2_13 
REMARK    8  A    between atoms: C8_15  and  O3_16 
REMARK    9  A    between atoms: C8_15  and  C9_18 
REMARK   10  A    between atoms: C9_18  and  O4_19 
REMARK   11  A    between atoms: O4_19  and  N4_20 
ROOT
HETATM    1  C2  UNL     1     -15.214 -24.307  23.040  1.00  0.00     0.098 C 
HETATM    2  C3  UNL     1     -14.899 -24.898  21.942  1.00  0.00     0.046 C 
ENDROOT
BRANCH   2   3
HETATM    3  N2  UNL     1     -13.514 -24.845  21.523  1.00  0.00    -0.349 N 
HETATM    4  C4  UNL     1     -12.562 -25.303  22.225  1.00  0.00     0.093 C 
HETATM    5  N3  UNL     1     -12.824 -25.905  23.485  1.00  0.00    -0.088 NA
ATOM      6  H2  UNL     1     -13.294 -24.419  20.623  1.00  0.00     0.166 HD
BRANCH   4   7
HETATM    7  C5  UNL     1     -11.176 -25.208  21.723  1.00  0.00     0.075 C 
BRANCH   7   8
HETATM    8  C6  UNL     1     -10.977 -24.034  20.794  1.00  0.00     0.033 C 
BRANCH   8   9
HETATM    9  C7  UNL     1     -10.168 -22.986  21.543  1.00  0.00     0.164 C 
BRANCH   9  10
HETATM   10  O2  UNL     1      -8.834 -22.993  21.120  1.00  0.00    -0.401 OA
ATOM     11  H2  UNL     1      -8.454 -23.858  21.220  1.00  0.00     0.209 HD
ENDBRANCH   9  10
ENDBRANCH   8   9
ENDBRANCH   7   8
ENDBRANCH   4   7
ENDBRANCH   2   3
BRANCH   2  12
HETATM   12  C8  UNL     1     -15.790 -25.621  21.061  1.00  0.00     0.194 C 
BRANCH  12  13
HETATM   13  O3  UNL     1     -17.127 -25.283  21.449  1.00  0.00    -0.387 OA
ATOM     14  H3  UNL     1     -17.489 -26.043  21.888  1.00  0.00     0.210 HD
ENDBRANCH  12  13
BRANCH  12  15
HETATM   15  C9  UNL     1     -15.714 -25.112  19.617  1.00  0.00     0.238 C 
BRANCH  15  16
HETATM   16  O4  UNL     1     -15.880 -26.162  18.719  1.00  0.00    -0.284 OA
BRANCH  16  17
HETATM   17  N4  UNL     1     -15.396 -25.804  17.515  1.00  0.00    -0.311 N 
ATOM     18  H42 UNL     1     -15.793 -25.069  16.929  1.00  0.00     0.184 HD
ATOM     19  H41 UNL     1     -14.583 -26.378  17.290  1.00  0.00     0.184 HD
ENDBRANCH  16  17
ENDBRANCH  15  16
ENDBRANCH  12  15
ENDBRANCH   2  12
BRANCH   1  20
HETATM   20  C1  UNL     1     -16.494 -24.195  23.694  1.00  0.00     0.256 C 
HETATM   21  N1  UNL     1     -17.388 -23.086  23.454  1.00  0.00    -0.058 NA
HETATM   22  O1  UNL     1     -16.916 -25.037  24.502  1.00  0.00    -0.272 OA
ENDBRANCH   1  20
TORSDOF 11
ENDMDL
MODEL 5
REMARK VINA RESULT: -5.610606443      1.579      3.442
REMARK  11 active torsions:
REMARK  status: ('A' for Active; 'I' for Inactive)
REMARK    1  A    between atoms: C1_2  and  C2_4 
REMARK    2  A    between atoms: C3_5  and  N2_6 
REMARK    3  A    between atoms: C3_5  and  C8_15 
REMARK    4  A    between atoms: C4_8  and  C5_10 
REMARK    5  A    between atoms: C5_10  and  C6_11 
REMARK    6  A    between atoms: C6_11  and  C7_12 
REMARK    7  A    between atoms: C7_12  and  O2_13 
REMARK    8  A    between atoms: C8_15  and  O3_16 
REMARK    9  A    between atoms: C8_15  and  C9_18 
REMARK   10  A    between atoms: C9_18  and  O4_19 
REMARK   11  A    between atoms: O4_19  and  N4_20 
ROOT
HETATM    1  C2  UNL     1     -15.022 -26.274  24.658  1.00  0.00     0.098 C 
HETATM    2  C3  UNL     1     -15.303 -25.614  23.591  1.00  0.00     0.046 C 
ENDROOT
BRANCH   2   3
HETATM    3  N2  UNL     1     -14.264 -25.476  22.593  1.00  0.00    -0.349 N 
HETATM    4  C4  UNL     1     -13.483 -24.477  22.541  1.00  0.00     0.093 C 
HETATM    5  N3  UNL     1     -13.602 -23.424  23.487  1.00  0.00    -0.088 NA
ATOM      6  H2  UNL     1     -14.154 -26.216  21.899  1.00  0.00     0.166 HD
BRANCH   4   7
HETATM    7  C5  UNL     1     -12.450 -24.415  21.488  1.00  0.00     0.075 C 
BRANCH   7   8
HETATM    8  C6  UNL     1     -11.133 -23.882  22.001  1.00  0.00     0.033 C 
BRANCH   8   9
HETATM    9  C7  UNL     1     -10.147 -23.898  20.842  1.00  0.00     0.164 C 
BRANCH   9  10
HETATM   10  O2  UNL     1      -9.067 -23.046  21.099  1.00  0.00    -0.401 OA
ATOM     11  H2  UNL     1      -8.581 -23.337  21.861  1.00  0.00     0.209 HD
ENDBRANCH   9  10
ENDBRANCH   8   9
ENDBRANCH   7   8
ENDBRANCH   4   7
ENDBRANCH   2   3
BRANCH   2  12
HETATM   12  C8  UNL     1     -16.565 -24.980  23.271  1.00  0.00     0.194 C 
BRANCH  12  13
HETATM   13  O3  UNL     1     -16.481 -23.626  23.730  1.00  0.00    -0.387 OA
ATOM     14  H3  UNL     1     -15.584 -23.344  23.597  1.00  0.00     0.210 HD
ENDBRANCH  12  13
BRANCH  12  15
HETATM   15  C9  UNL     1     -16.762 -24.817  21.760  1.00  0.00     0.238 C 
BRANCH  15  16
HETATM   16  O4  UNL     1     -16.556 -26.028  21.106  1.00  0.00    -0.284 OA
BRANCH  16  17
HETATM   17  N4  UNL     1     -16.070 -25.796  19.872  1.00  0.00    -0.311 N 
ATOM     18  H42 UNL     1     -16.353 -26.306  19.036  1.00  0.00     0.184 HD
ATOM     19  H41 UNL     1     -15.386 -25.040  19.912  1.00  0.00     0.184 HD
ENDBRANCH  16  17
ENDBRANCH  15  16
ENDBRANCH  12  15
ENDBRANCH   2  12
BRANCH   1  20
HETATM   20  C1  UNL     1     -15.846 -26.569  25.805  1.00  0.00     0.256 C 
HETATM   21  N1  UNL     1     -16.816 -27.639  25.803  1.00  0.00    -0.058 NA
HETATM   22  O1  UNL     1     -15.780 -25.929  26.866  1.00  0.00    -0.272 OA
ENDBRANCH   1  20
TORSDOF 11
ENDMDL
