MODEL 1
REMARK VINA RESULT: -5.352881994      0.000      0.000
REMARK  10 active torsions:
REMARK  status: ('A' for Active; 'I' for Inactive)
REMARK    1  A    between atoms: C2_2  and  C3_3 
REMARK    2  A    between atoms: C2_2  and  O1_8 
REMARK    3  A    between atoms: C2_2  and  C9_19 
REMARK    4  A    between atoms: C3_3  and  N1_4 
REMARK    5  A    between atoms: O1_8  and  C4_9 
REMARK    6  A    between atoms: C4_9  and  C5_10 
REMARK    7  A    between atoms: C5_10  and  O2_11 
REMARK    8  A    between atoms: O2_11  and  C6_12 
REMARK    9  A    between atoms: C6_12  and  C7_13 
REMARK   10  A    between atoms: C7_13  and  N2_14 
REMARK       I    between atoms: N2_14  and  C8_16 
ROOT
HETATM    1  O1  UNL     1     -15.786 -25.193  24.449  1.00  0.00    -0.367 OA
ENDROOT
BRANCH   1   2
HETATM    2  C2  UNL     1     -15.624 -26.409  24.943  1.00  0.00     0.158 C 
HETATM    3  C1  UNL     1     -14.253 -27.048  24.794  1.00  0.00     0.058 C 
BRANCH   2   4
HETATM    4  C3  UNL     1     -16.567 -27.340  24.145  1.00  0.00     0.276 C 
BRANCH   4   5
HETATM    5  N1  UNL     1     -15.976 -28.626  23.939  1.00  0.00    -0.076 N 
ATOM      6  H13 UNL     1     -15.863 -28.831  22.947  1.00  0.00     0.274 HD
ATOM      7  H12 UNL     1     -14.993 -28.635  24.214  1.00  0.00     0.274 HD
ATOM      8  H11 UNL     1     -16.504 -29.357  24.415  1.00  0.00     0.274 HD
ENDBRANCH   4   5
ENDBRANCH   2   4
BRANCH   2   9
HETATM    9  C9  UNL     1     -16.025 -26.626  26.359  1.00  0.00     0.267 C 
HETATM   10  N4  UNL     1     -16.955 -27.671  26.615  1.00  0.00    -0.059 NA
HETATM   11  O4  UNL     1     -15.623 -25.987  27.310  1.00  0.00    -0.273 OA
ENDBRANCH   2   9
ENDBRANCH   1   2
BRANCH   1  12
HETATM   12  C4  UNL     1     -16.885 -24.686  23.912  1.00  0.00     0.195 C 
BRANCH  12  13
HETATM   13  C5  UNL     1     -16.790 -23.910  22.632  1.00  0.00     0.193 C 
BRANCH  13  14
HETATM   14  O2  UNL     1     -17.149 -24.833  21.594  1.00  0.00    -0.387 OA
BRANCH  14  15
HETATM   15  C6  UNL     1     -16.045 -25.432  21.076  1.00  0.00     0.187 C 
BRANCH  15  16
HETATM   16  C7  UNL     1     -14.759 -24.710  21.008  1.00  0.00     0.150 C 
BRANCH  16  17
HETATM   17  N2  UNL     1     -13.738 -25.053  21.921  1.00  0.00    -0.343 N 
HETATM   18  C8  UNL     1     -12.397 -24.724  21.942  1.00  0.00     0.328 C 
HETATM   19  N3  UNL     1     -11.608 -25.256  23.057  1.00  0.00    -0.040 NA
HETATM   20  O3  UNL     1     -11.784 -24.030  21.124  1.00  0.00    -0.251 OA
ATOM     21  H2  UNL     1     -14.042 -25.643  22.695  1.00  0.00     0.163 HD
ENDBRANCH  16  17
ENDBRANCH  15  16
ENDBRANCH  14  15
ENDBRANCH  13  14
ENDBRANCH  12  13
ENDBRANCH   1  12
TORSDOF 10
ENDMDL
MODEL 2
REMARK VINA RESULT: -5.319322210      1.292      1.445
REMARK  10 active torsions:
REMARK  status: ('A' for Active; 'I' for Inactive)
REMARK    1  A    between atoms: C2_2  and  C3_3 
REMARK    2  A    between atoms: C2_2  and  O1_8 
REMARK    3  A    between atoms: C2_2  and  C9_19 
REMARK    4  A    between atoms: C3_3  and  N1_4 
REMARK    5  A    between atoms: O1_8  and  C4_9 
REMARK    6  A    between atoms: C4_9  and  C5_10 
REMARK    7  A    between atoms: C5_10  and  O2_11 
REMARK    8  A    between atoms: O2_11  and  C6_12 
REMARK    9  A    between atoms: C6_12  and  C7_13 
REMARK   10  A    between atoms: C7_13  and  N2_14 
REMARK       I    between atoms: N2_14  and  C8_16 
ROOT
HETATM    1  O1  UNL     1     -15.973 -25.285  24.580  1.00  0.00    -0.367 OA
ENDROOT
BRANCH   1   2
HETATM    2  C2  UNL     1     -15.657 -26.478  25.054  1.00  0.00     0.158 C 
HETATM    3  C1  UNL     1     -14.237 -26.969  24.826  1.00  0.00     0.058 C 
BRANCH   2   4
HETATM    4  C3  UNL     1     -16.539 -27.502  24.299  1.00  0.00     0.276 C 
BRANCH   4   5
HETATM    5  N1  UNL     1     -15.810 -28.696  24.001  1.00  0.00    -0.076 N 
ATOM      6  H13 UNL     1     -16.109 -29.106  23.117  1.00  0.00     0.274 HD
ATOM      7  H12 UNL     1     -14.840 -28.492  23.759  1.00  0.00     0.274 HD
ATOM      8  H11 UNL     1     -15.871 -29.368  24.766  1.00  0.00     0.274 HD
ENDBRANCH   4   5
ENDBRANCH   2   4
BRANCH   2   9
HETATM    9  C9  UNL     1     -15.955 -26.741  26.488  1.00  0.00     0.267 C 
HETATM   10  N4  UNL     1     -16.988 -27.677  26.773  1.00  0.00    -0.059 NA
HETATM   11  O4  UNL     1     -15.391 -26.224  27.430  1.00  0.00    -0.273 OA
ENDBRANCH   2   9
ENDBRANCH   1   2
BRANCH   1  12
HETATM   12  C4  UNL     1     -16.801 -25.013  23.583  1.00  0.00     0.195 C 
BRANCH  12  13
HETATM   13  C5  UNL     1     -16.273 -24.336  22.351  1.00  0.00     0.193 C 
BRANCH  13  14
HETATM   14  O2  UNL     1     -15.443 -25.311  21.703  1.00  0.00    -0.387 OA
BRANCH  14  15
HETATM   15  C6  UNL     1     -14.327 -24.729  21.191  1.00  0.00     0.187 C 
BRANCH  15  16
HETATM   16  C7  UNL     1     -13.073 -24.689  21.969  1.00  0.00     0.150 C 
BRANCH  16  17
HETATM   17  N2  UNL     1     -11.844 -24.637  21.275  1.00  0.00    -0.343 N 
HETATM   18  C8  UNL     1     -10.869 -23.661  21.238  1.00  0.00     0.328 C 
HETATM   19  N3  UNL     1      -9.697 -23.935  20.402  1.00  0.00    -0.040 NA
HETATM   20  O3  UNL     1     -10.871 -22.577  21.831  1.00  0.00    -0.251 OA
ATOM     21  H2  UNL     1     -11.644 -25.459  20.705  1.00  0.00     0.163 HD
ENDBRANCH  16  17
ENDBRANCH  15  16
ENDBRANCH  14  15
ENDBRANCH  13  14
ENDBRANCH  12  13
ENDBRANCH   1  12
TORSDOF 10
ENDMDL
MODEL 3
REMARK VINA RESULT: -5.215413876      1.752      2.293
REMARK  10 active torsions:
REMARK  status: ('A' for Active; 'I' for Inactive)
REMARK    1  A    between atoms: C2_2  and  C3_3 
REMARK    2  A    between atoms: C2_2  and  O1_8 
REMARK    3  A    between atoms: C2_2  and  C9_19 
REMARK    4  A    between atoms: C3_3  and  N1_4 
REMARK    5  A    between atoms: O1_8  and  C4_9 
REMARK    6  A    between atoms: C4_9  and  C5_10 
REMARK    7  A    between atoms: C5_10  and  O2_11 
REMARK    8  A    between atoms: O2_11  and  C6_12 
REMARK    9  A    between atoms: C6_12  and  C7_13 
REMARK   10  A    between atoms: C7_13  and  N2_14 
REMARK       I    between atoms: N2_14  and  C8_16 
ROOT
HETATM    1  O1  UNL     1     -16.952 -26.454  24.526  1.00  0.00    -0.367 OA
ENDROOT
BRANCH   1   2
HETATM    2  C2  UNL     1     -16.413 -27.353  25.333  1.00  0.00     0.158 C 
HETATM    3  C1  UNL     1     -17.047 -27.536  26.702  1.00  0.00     0.058 C 
BRANCH   2   4
HETATM    4  C3  UNL     1     -14.977 -26.864  25.642  1.00  0.00     0.276 C 
BRANCH   4   5
HETATM    5  N1  UNL     1     -14.896 -26.281  26.946  1.00  0.00    -0.076 N 
ATOM      6  H13 UNL     1     -15.108 -26.962  27.674  1.00  0.00     0.274 HD
ATOM      7  H12 UNL     1     -13.931 -26.071  27.203  1.00  0.00     0.274 HD
ATOM      8  H11 UNL     1     -15.491 -25.456  27.021  1.00  0.00     0.274 HD
ENDBRANCH   4   5
ENDBRANCH   2   4
BRANCH   2   9
HETATM    9  C9  UNL     1     -16.212 -28.722  24.788  1.00  0.00     0.267 C 
HETATM   10  N4  UNL     1     -16.540 -29.812  25.641  1.00  0.00    -0.059 NA
HETATM   11  O4  UNL     1     -15.795 -28.984  23.678  1.00  0.00    -0.273 OA
ENDBRANCH   2   9
ENDBRANCH   1   2
BRANCH   1  12
HETATM   12  C4  UNL     1     -16.418 -25.308  24.132  1.00  0.00     0.195 C 
BRANCH  12  13
HETATM   13  C5  UNL     1     -17.228 -24.370  23.287  1.00  0.00     0.193 C 
BRANCH  13  14
HETATM   14  O2  UNL     1     -16.382 -24.020  22.182  1.00  0.00    -0.387 OA
BRANCH  14  15
HETATM   15  C6  UNL     1     -15.191 -24.667  22.262  1.00  0.00     0.187 C 
BRANCH  15  16
HETATM   16  C7  UNL     1     -14.381 -24.908  21.052  1.00  0.00     0.150 C 
BRANCH  16  17
HETATM   17  N2  UNL     1     -13.057 -24.419  21.011  1.00  0.00    -0.343 N 
HETATM   18  C8  UNL     1     -11.961 -24.712  21.799  1.00  0.00     0.328 C 
HETATM   19  N3  UNL     1     -10.715 -24.012  21.475  1.00  0.00    -0.040 NA
HETATM   20  O3  UNL     1     -11.912 -25.499  22.749  1.00  0.00    -0.251 OA
ATOM     21  H2  UNL     1     -12.880 -23.733  20.277  1.00  0.00     0.163 HD
ENDBRANCH  16  17
ENDBRANCH  15  16
ENDBRANCH  14  15
ENDBRANCH  13  14
ENDBRANCH  12  13
ENDBRANCH   1  12
TORSDOF 10
ENDMDL
MODEL 4
REMARK VINA RESULT: -5.204888333      2.514      3.510
REMARK  10 active torsions:
REMARK  status: ('A' for Active; 'I' for Inactive)
REMARK    1  A    between atoms: C2_2  and  C3_3 
REMARK    2  A    between atoms: C2_2  and  O1_8 
REMARK    3  A    between atoms: C2_2  and  C9_19 
REMARK    4  A    between atoms: C3_3  and  N1_4 
REMARK    5  A    between atoms: O1_8  and  C4_9 
REMARK    6  A    between atoms: C4_9  and  C5_10 
REMARK    7  A    between atoms: C5_10  and  O2_11 
REMARK    8  A    between atoms: O2_11  and  C6_12 
REMARK    9  A    between atoms: C6_12  and  C7_13 
REMARK   10  A    between atoms: C7_13  and  N2_14 
REMARK       I    between atoms: N2_14  and  C8_16 
ROOT
HETATM    1  O1  UNL     1     -16.664 -25.545  24.753  1.00  0.00    -0.367 OA
ENDROOT
BRANCH   1   2
HETATM    2  C2  UNL     1     -15.827 -26.569  24.766  1.00  0.00     0.158 C 
HETATM    3  C1  UNL     1     -16.247 -27.827  24.023  1.00  0.00     0.058 C 
BRANCH   2   4
HETATM    4  C3  UNL     1     -15.706 -27.021  26.241  1.00  0.00     0.276 C 
BRANCH   4   5
HETATM    5  N1  UNL     1     -15.751 -25.904  27.133  1.00  0.00    -0.076 N 
ATOM      6  H13 UNL     1     -15.138 -25.151  26.821  1.00  0.00     0.274 HD
ATOM      7  H12 UNL     1     -16.644 -25.413  27.073  1.00  0.00     0.274 HD
ATOM      8  H11 UNL     1     -15.542 -26.185  28.090  1.00  0.00     0.274 HD
ENDBRANCH   4   5
ENDBRANCH   2   4
BRANCH   2   9
HETATM    9  C9  UNL     1     -14.421 -26.303  24.359  1.00  0.00     0.267 C 
HETATM   10  N4  UNL     1     -13.401 -27.002  25.061  1.00  0.00    -0.059 NA
HETATM   11  O4  UNL     1     -14.076 -25.541  23.479  1.00  0.00    -0.273 OA
ENDBRANCH   2   9
ENDBRANCH   1   2
BRANCH   1  12
HETATM   12  C4  UNL     1     -17.325 -25.064  23.711  1.00  0.00     0.195 C 
BRANCH  12  13
HETATM   13  C5  UNL     1     -17.119 -23.634  23.305  1.00  0.00     0.193 C 
BRANCH  13  14
HETATM   14  O2  UNL     1     -16.354 -23.685  22.092  1.00  0.00    -0.387 OA
BRANCH  14  15
HETATM   15  C6  UNL     1     -16.504 -24.887  21.477  1.00  0.00     0.187 C 
BRANCH  15  16
HETATM   16  C7  UNL     1     -15.654 -25.257  20.328  1.00  0.00     0.150 C 
BRANCH  16  17
HETATM   17  N2  UNL     1     -16.167 -26.152  19.363  1.00  0.00    -0.343 N 
HETATM   18  C8  UNL     1     -15.946 -26.237  18.003  1.00  0.00     0.328 C 
HETATM   19  N3  UNL     1     -16.650 -27.306  17.289  1.00  0.00    -0.040 NA
HETATM   20  O3  UNL     1     -15.221 -25.511  17.316  1.00  0.00    -0.251 OA
ATOM     21  H2  UNL     1     -16.810 -26.852  19.733  1.00  0.00     0.163 HD
ENDBRANCH  16  17
ENDBRANCH  15  16
ENDBRANCH  14  15
ENDBRANCH  13  14
ENDBRANCH  12  13
ENDBRANCH   1  12
TORSDOF 10
ENDMDL
MODEL 5
REMARK VINA RESULT: -5.087810685      1.554      1.865
REMARK  10 active torsions:
REMARK  status: ('A' for Active; 'I' for Inactive)
REMARK    1  A    between atoms: C2_2  and  C3_3 
REMARK    2  A    between atoms: C2_2  and  O1_8 
REMARK    3  A    between atoms: C2_2  and  C9_19 
REMARK    4  A    between atoms: C3_3  and  N1_4 
REMARK    5  A    between atoms: O1_8  and  C4_9 
REMARK    6  A    between atoms: C4_9  and  C5_10 
REMARK    7  A    between atoms: C5_10  and  O2_11 
REMARK    8  A    between atoms: O2_11  and  C6_12 
REMARK    9  A    between atoms: C6_12  and  C7_13 
REMARK   10  A    between atoms: C7_13  and  N2_14 
REMARK       I    between atoms: N2_14  and  C8_16 
ROOT
HETATM    1  O1  UNL     1     -16.694 -25.434  25.031  1.00  0.00    -0.367 OA
ENDROOT
BRANCH   1   2
HETATM    2  C2  UNL     1     -15.934 -26.458  25.381  1.00  0.00     0.158 C 
HETATM    3  C1  UNL     1     -15.337 -26.443  26.778  1.00  0.00     0.058 C 
BRANCH   2   4
HETATM    4  C3  UNL     1     -14.704 -26.437  24.442  1.00  0.00     0.276 C 
BRANCH   4   5
HETATM    5  N1  UNL     1     -13.548 -26.977  25.088  1.00  0.00    -0.076 N 
ATOM      6  H13 UNL     1     -13.378 -26.528  25.988  1.00  0.00     0.274 HD
ATOM      7  H12 UNL     1     -13.712 -27.929  25.415  1.00  0.00     0.274 HD
ATOM      8  H11 UNL     1     -12.728 -26.925  24.484  1.00  0.00     0.274 HD
ENDBRANCH   4   5
ENDBRANCH   2   4
BRANCH   2   9
HETATM    9  C9  UNL     1     -16.502 -27.820  25.193  1.00  0.00     0.267 C 
HETATM   10  N4  UNL     1     -15.952 -28.611  24.146  1.00  0.00    -0.059 NA
HETATM   11  O4  UNL     1     -17.390 -28.310  25.859  1.00  0.00    -0.273 OA
ENDBRANCH   2   9
ENDBRANCH   1   2
BRANCH   1  12
HETATM   12  C4  UNL     1     -17.144 -25.147  23.819  1.00  0.00     0.195 C 
BRANCH  12  13
HETATM   13  C5  UNL     1     -17.055 -23.736  23.315  1.00  0.00     0.193 C 
BRANCH  13  14
HETATM   14  O2  UNL     1     -15.868 -23.689  22.511  1.00  0.00    -0.387 OA
BRANCH  14  15
HETATM   15  C6  UNL     1     -15.902 -24.641  21.543  1.00  0.00     0.187 C 
BRANCH  15  16
HETATM   16  C7  UNL     1     -14.653 -25.162  20.953  1.00  0.00     0.150 C 
BRANCH  16  17
HETATM   17  N2  UNL     1     -13.472 -24.398  21.078  1.00  0.00    -0.343 N 
HETATM   18  C8  UNL     1     -12.338 -24.606  21.838  1.00  0.00     0.328 C 
HETATM   19  N3  UNL     1     -11.280 -23.599  21.727  1.00  0.00    -0.040 NA
HETATM   20  O3  UNL     1     -12.114 -25.549  22.604  1.00  0.00    -0.251 OA
ATOM     21  H2  UNL     1     -13.454 -23.549  20.513  1.00  0.00     0.163 HD
ENDBRANCH  16  17
ENDBRANCH  15  16
ENDBRANCH  14  15
ENDBRANCH  13  14
ENDBRANCH  12  13
ENDBRANCH   1  12
TORSDOF 10
ENDMDL
