MODEL 1
REMARK VINA RESULT: -5.927712023      0.000      0.000
REMARK  11 active torsions:
REMARK  status: ('A' for Active; 'I' for Inactive)
REMARK    1  A    between atoms: O1_2  and  C2_3 
REMARK    2  A    between atoms: C2_3  and  C3_4 
REMARK    3  A    between atoms: C3_4  and  N1_5 
REMARK    4  A    between atoms: N1_5  and  C4_8 
REMARK    5  A    between atoms: C4_8  and  C5_9 
REMARK       I    between atoms: C5_9  and  N2_11 
REMARK    6  A    between atoms: N2_11  and  C6_13 
REMARK    7  A    between atoms: C6_13  and  C7_14 
REMARK    8  A    between atoms: C7_14  and  O3_15 
REMARK    9  A    between atoms: C7_14  and  C8_17 
REMARK   10  A    between atoms: C7_14  and  C9_22 
REMARK   11  A    between atoms: C8_17  and  N3_18 
ROOT
HETATM    1  C5  UNL     1     -15.566 -24.963  22.928  1.00  0.00     0.243 C 
HETATM    2  O2  UNL     1     -15.161 -24.038  23.653  1.00  0.00    -0.272 OA
HETATM    3  N2  UNL     1     -15.681 -26.300  23.306  1.00  0.00    -0.356 N 
ATOM      4  H2  UNL     1     -16.038 -26.941  22.597  1.00  0.00     0.162 HD
ENDROOT
BRANCH   3   5
HETATM    5  C6  UNL     1     -15.357 -26.874  24.565  1.00  0.00     0.172 C 
BRANCH   5   6
HETATM    6  C7  UNL     1     -16.429 -27.619  25.293  1.00  0.00     0.175 C 
BRANCH   6   7
HETATM    7  O3  UNL     1     -17.673 -27.162  24.958  1.00  0.00    -0.377 OA
ATOM      8  H3  UNL     1     -18.357 -27.700  25.340  1.00  0.00     0.211 HD
ENDBRANCH   6   7
BRANCH   6   9
HETATM    9  C8  UNL     1     -16.240 -27.347  26.782  1.00  0.00     0.278 C 
BRANCH   9  10
HETATM   10  N3  UNL     1     -15.547 -26.132  27.067  1.00  0.00    -0.076 N 
ATOM     11  H33 UNL     1     -15.244 -25.682  26.204  1.00  0.00     0.274 HD
ATOM     12  H32 UNL     1     -16.195 -25.424  27.413  1.00  0.00     0.274 HD
ATOM     13  H31 UNL     1     -14.762 -26.242  27.708  1.00  0.00     0.274 HD
ENDBRANCH   9  10
ENDBRANCH   6   9
BRANCH   6  14
HETATM   14  C9  UNL     1     -16.253 -29.062  24.995  1.00  0.00     0.269 C 
HETATM   15  N4  UNL     1     -15.780 -29.449  23.729  1.00  0.00    -0.059 NA
HETATM   16  O4  UNL     1     -16.527 -29.899  25.871  1.00  0.00    -0.273 OA
ENDBRANCH   6  14
ENDBRANCH   5   6
ENDBRANCH   3   5
BRANCH   1  17
HETATM   17  C4  UNL     1     -15.957 -24.571  21.527  1.00  0.00     0.334 C 
BRANCH  17  18
HETATM   18  N1  UNL     1     -16.883 -25.548  21.009  1.00  0.00    -0.065 N 
ATOM     19  H12 UNL     1     -17.788 -25.146  20.763  1.00  0.00     0.277 HD
ATOM     20  H11 UNL     1     -17.214 -26.198  21.722  1.00  0.00     0.277 HD
BRANCH  18  21
HETATM   21  C3  UNL     1     -16.242 -26.217  19.891  1.00  0.00     0.259 C 
BRANCH  21  22
HETATM   22  C2  UNL     1     -15.496 -25.174  19.057  1.00  0.00     0.194 C 
BRANCH  22  23
HETATM   23  O1  UNL     1     -15.522 -25.591  17.746  1.00  0.00    -0.394 OA
HETATM   24  C1  UNL     1     -16.227 -26.761  17.564  1.00  0.00     0.201 C 
ENDBRANCH  22  23
ENDBRANCH  21  22
ENDBRANCH  18  21
ENDBRANCH  17  18
ENDBRANCH   1  17
TORSDOF 11
ENDMDL
MODEL 2
REMARK VINA RESULT: -5.739797553      1.356      1.497
REMARK  11 active torsions:
REMARK  status: ('A' for Active; 'I' for Inactive)
REMARK    1  A    between atoms: O1_2  and  C2_3 
REMARK    2  A    between atoms: C2_3  and  C3_4 
REMARK    3  A    between atoms: C3_4  and  N1_5 
REMARK    4  A    between atoms: N1_5  and  C4_8 
REMARK    5  A    between atoms: C4_8  and  C5_9 
REMARK       I    between atoms: C5_9  and  N2_11 
REMARK    6  A    between atoms: N2_11  and  C6_13 
REMARK    7  A    between atoms: C6_13  and  C7_14 
REMARK    8  A    between atoms: C7_14  and  O3_15 
REMARK    9  A    between atoms: C7_14  and  C8_17 
REMARK   10  A    between atoms: C7_14  and  C9_22 
REMARK   11  A    between atoms: C8_17  and  N3_18 
ROOT
HETATM    1  C5  UNL     1     -16.983 -24.716  23.388  1.00  0.00     0.243 C 
HETATM    2  O2  UNL     1     -18.012 -24.108  23.730  1.00  0.00    -0.272 OA
HETATM    3  N2  UNL     1     -16.605 -25.985  23.827  1.00  0.00    -0.356 N 
ATOM      4  H2  UNL     1     -15.733 -26.353  23.446  1.00  0.00     0.162 HD
ENDROOT
BRANCH   3   5
HETATM    5  C6  UNL     1     -17.294 -26.824  24.742  1.00  0.00     0.172 C 
BRANCH   5   6
HETATM    6  C7  UNL     1     -16.482 -27.632  25.701  1.00  0.00     0.175 C 
BRANCH   6   7
HETATM    7  O3  UNL     1     -17.036 -27.634  26.951  1.00  0.00    -0.377 OA
ATOM      8  H3  UNL     1     -17.465 -28.461  27.141  1.00  0.00     0.211 HD
ENDBRANCH   6   7
BRANCH   6   9
HETATM    9  C8  UNL     1     -15.118 -26.959  25.820  1.00  0.00     0.278 C 
BRANCH   9  10
HETATM   10  N3  UNL     1     -14.981 -26.122  26.968  1.00  0.00    -0.076 N 
ATOM     11  H33 UNL     1     -15.896 -25.909  27.367  1.00  0.00     0.274 HD
ATOM     12  H32 UNL     1     -14.571 -26.641  27.743  1.00  0.00     0.274 HD
ATOM     13  H31 UNL     1     -14.458 -25.263  26.795  1.00  0.00     0.274 HD
ENDBRANCH   9  10
ENDBRANCH   6   9
BRANCH   6  14
HETATM   14  C9  UNL     1     -16.348 -28.997  25.136  1.00  0.00     0.269 C 
HETATM   15  N4  UNL     1     -15.952 -29.149  23.795  1.00  0.00    -0.059 NA
HETATM   16  O4  UNL     1     -16.588 -29.979  25.858  1.00  0.00    -0.273 OA
ENDBRANCH   6  14
ENDBRANCH   5   6
ENDBRANCH   3   5
BRANCH   1  17
HETATM   17  C4  UNL     1     -16.090 -23.990  22.415  1.00  0.00     0.334 C 
BRANCH  17  18
HETATM   18  N1  UNL     1     -15.160 -24.933  21.842  1.00  0.00    -0.065 N 
ATOM     19  H12 UNL     1     -15.194 -25.847  22.293  1.00  0.00     0.277 HD
ATOM     20  H11 UNL     1     -14.188 -24.712  22.058  1.00  0.00     0.277 HD
BRANCH  18  21
HETATM   21  C3  UNL     1     -15.419 -24.998  20.415  1.00  0.00     0.259 C 
BRANCH  21  22
HETATM   22  C2  UNL     1     -16.382 -26.156  20.143  1.00  0.00     0.194 C 
BRANCH  22  23
HETATM   23  O1  UNL     1     -16.103 -26.646  18.888  1.00  0.00    -0.394 OA
HETATM   24  C1  UNL     1     -15.579 -25.695  18.039  1.00  0.00     0.201 C 
ENDBRANCH  22  23
ENDBRANCH  21  22
ENDBRANCH  18  21
ENDBRANCH  17  18
ENDBRANCH   1  17
TORSDOF 11
ENDMDL
MODEL 3
REMARK VINA RESULT: -5.709726198      1.166      1.258
REMARK  11 active torsions:
REMARK  status: ('A' for Active; 'I' for Inactive)
REMARK    1  A    between atoms: O1_2  and  C2_3 
REMARK    2  A    between atoms: C2_3  and  C3_4 
REMARK    3  A    between atoms: C3_4  and  N1_5 
REMARK    4  A    between atoms: N1_5  and  C4_8 
REMARK    5  A    between atoms: C4_8  and  C5_9 
REMARK       I    between atoms: C5_9  and  N2_11 
REMARK    6  A    between atoms: N2_11  and  C6_13 
REMARK    7  A    between atoms: C6_13  and  C7_14 
REMARK    8  A    between atoms: C7_14  and  O3_15 
REMARK    9  A    between atoms: C7_14  and  C8_17 
REMARK   10  A    between atoms: C7_14  and  C9_22 
REMARK   11  A    between atoms: C8_17  and  N3_18 
ROOT
HETATM    1  C5  UNL     1     -16.096 -24.943  23.339  1.00  0.00     0.243 C 
HETATM    2  O2  UNL     1     -16.756 -24.347  24.208  1.00  0.00    -0.272 OA
HETATM    3  N2  UNL     1     -15.348 -26.103  23.541  1.00  0.00    -0.356 N 
ATOM      4  H2  UNL     1     -14.867 -26.478  22.724  1.00  0.00     0.162 HD
ENDROOT
BRANCH   3   5
HETATM    5  C6  UNL     1     -15.179 -26.822  24.755  1.00  0.00     0.172 C 
BRANCH   5   6
HETATM    6  C7  UNL     1     -16.347 -27.588  25.285  1.00  0.00     0.175 C 
BRANCH   6   7
HETATM    7  O3  UNL     1     -17.530 -27.069  24.842  1.00  0.00    -0.377 OA
ATOM      8  H3  UNL     1     -18.114 -26.864  25.563  1.00  0.00     0.211 HD
ENDBRANCH   6   7
BRANCH   6   9
HETATM    9  C8  UNL     1     -16.336 -27.439  26.803  1.00  0.00     0.278 C 
BRANCH   9  10
HETATM   10  N3  UNL     1     -15.602 -26.308  27.271  1.00  0.00    -0.076 N 
ATOM     11  H33 UNL     1     -15.913 -26.042  28.205  1.00  0.00     0.274 HD
ATOM     12  H32 UNL     1     -14.638 -26.567  27.476  1.00  0.00     0.274 HD
ATOM     13  H31 UNL     1     -15.631 -25.505  26.642  1.00  0.00     0.274 HD
ENDBRANCH   9  10
ENDBRANCH   6   9
BRANCH   6  14
HETATM   14  C9  UNL     1     -16.166 -29.009  24.894  1.00  0.00     0.269 C 
HETATM   15  N4  UNL     1     -16.509 -30.021  25.808  1.00  0.00    -0.059 NA
HETATM   16  O4  UNL     1     -15.715 -29.275  23.767  1.00  0.00    -0.273 OA
ENDBRANCH   6  14
ENDBRANCH   5   6
ENDBRANCH   3   5
BRANCH   1  17
HETATM   17  C4  UNL     1     -16.129 -24.334  21.962  1.00  0.00     0.334 C 
BRANCH  17  18
HETATM   18  N1  UNL     1     -15.005 -24.828  21.204  1.00  0.00    -0.065 N 
ATOM     19  H12 UNL     1     -14.592 -25.668  21.611  1.00  0.00     0.277 HD
ATOM     20  H11 UNL     1     -14.184 -24.226  21.276  1.00  0.00     0.277 HD
BRANCH  18  21
HETATM   21  C3  UNL     1     -15.445 -25.021  19.835  1.00  0.00     0.259 C 
BRANCH  21  22
HETATM   22  C2  UNL     1     -16.344 -26.258  19.777  1.00  0.00     0.194 C 
BRANCH  22  23
HETATM   23  O1  UNL     1     -16.218 -26.808  18.522  1.00  0.00    -0.394 OA
HETATM   24  C1  UNL     1     -15.619 -25.960  17.616  1.00  0.00     0.201 C 
ENDBRANCH  22  23
ENDBRANCH  21  22
ENDBRANCH  18  21
ENDBRANCH  17  18
ENDBRANCH   1  17
TORSDOF 11
ENDMDL
MODEL 4
REMARK VINA RESULT: -5.677396090      3.173      5.823
REMARK  11 active torsions:
REMARK  status: ('A' for Active; 'I' for Inactive)
REMARK    1  A    between atoms: O1_2  and  C2_3 
REMARK    2  A    between atoms: C2_3  and  C3_4 
REMARK    3  A    between atoms: C3_4  and  N1_5 
REMARK    4  A    between atoms: N1_5  and  C4_8 
REMARK    5  A    between atoms: C4_8  and  C5_9 
REMARK       I    between atoms: C5_9  and  N2_11 
REMARK    6  A    between atoms: N2_11  and  C6_13 
REMARK    7  A    between atoms: C6_13  and  C7_14 
REMARK    8  A    between atoms: C7_14  and  O3_15 
REMARK    9  A    between atoms: C7_14  and  C8_17 
REMARK   10  A    between atoms: C7_14  and  C9_22 
REMARK   11  A    between atoms: C8_17  and  N3_18 
ROOT
HETATM    1  C5  UNL     1     -15.222 -24.637  22.954  1.00  0.00     0.243 C 
HETATM    2  O2  UNL     1     -15.019 -23.582  23.580  1.00  0.00    -0.272 OA
HETATM    3  N2  UNL     1     -14.510 -25.066  21.834  1.00  0.00    -0.356 N 
ATOM      4  H2  UNL     1     -14.793 -25.962  21.436  1.00  0.00     0.162 HD
ENDROOT
BRANCH   3   5
HETATM    5  C6  UNL     1     -13.436 -24.401  21.184  1.00  0.00     0.172 C 
BRANCH   5   6
HETATM    6  C7  UNL     1     -12.142 -24.274  21.919  1.00  0.00     0.175 C 
BRANCH   6   7
HETATM    7  O3  UNL     1     -12.237 -23.386  22.954  1.00  0.00    -0.377 OA
ATOM      8  H3  UNL     1     -12.775 -23.728  23.659  1.00  0.00     0.211 HD
ENDBRANCH   6   7
BRANCH   6   9
HETATM    9  C8  UNL     1     -11.117 -23.709  20.940  1.00  0.00     0.278 C 
BRANCH   9  10
HETATM   10  N3  UNL     1      -9.889 -23.312  21.549  1.00  0.00    -0.076 N 
ATOM     11  H33 UNL     1     -10.063 -22.881  22.457  1.00  0.00     0.274 HD
ATOM     12  H32 UNL     1      -9.356 -24.129  21.845  1.00  0.00     0.274 HD
ATOM     13  H31 UNL     1      -9.315 -22.702  20.968  1.00  0.00     0.274 HD
ENDBRANCH   9  10
ENDBRANCH   6   9
BRANCH   6  14
HETATM   14  C9  UNL     1     -11.746 -25.632  22.368  1.00  0.00     0.269 C 
HETATM   15  N4  UNL     1     -10.941 -26.425  21.531  1.00  0.00    -0.059 NA
HETATM   16  O4  UNL     1     -12.134 -26.041  23.476  1.00  0.00    -0.273 OA
ENDBRANCH   6  14
ENDBRANCH   5   6
ENDBRANCH   3   5
BRANCH   1  17
HETATM   17  C4  UNL     1     -16.341 -25.500  23.476  1.00  0.00     0.334 C 
BRANCH  17  18
HETATM   18  N1  UNL     1     -16.340 -25.444  24.918  1.00  0.00    -0.065 N 
ATOM     19  H12 UNL     1     -17.273 -25.543  25.319  1.00  0.00     0.277 HD
ATOM     20  H11 UNL     1     -16.137 -24.511  25.278  1.00  0.00     0.277 HD
BRANCH  18  21
HETATM   21  C3  UNL     1     -15.410 -26.449  25.399  1.00  0.00     0.259 C 
BRANCH  21  22
HETATM   22  C2  UNL     1     -16.120 -27.804  25.427  1.00  0.00     0.194 C 
BRANCH  22  23
HETATM   23  O1  UNL     1     -15.623 -28.558  24.388  1.00  0.00    -0.394 OA
HETATM   24  C1  UNL     1     -16.510 -29.512  23.939  1.00  0.00     0.201 C 
ENDBRANCH  22  23
ENDBRANCH  21  22
ENDBRANCH  18  21
ENDBRANCH  17  18
ENDBRANCH   1  17
TORSDOF 11
ENDMDL
MODEL 5
REMARK VINA RESULT: -5.517007934      2.483      3.009
REMARK  11 active torsions:
REMARK  status: ('A' for Active; 'I' for Inactive)
REMARK    1  A    between atoms: O1_2  and  C2_3 
REMARK    2  A    between atoms: C2_3  and  C3_4 
REMARK    3  A    between atoms: C3_4  and  N1_5 
REMARK    4  A    between atoms: N1_5  and  C4_8 
REMARK    5  A    between atoms: C4_8  and  C5_9 
REMARK       I    between atoms: C5_9  and  N2_11 
REMARK    6  A    between atoms: N2_11  and  C6_13 
REMARK    7  A    between atoms: C6_13  and  C7_14 
REMARK    8  A    between atoms: C7_14  and  O3_15 
REMARK    9  A    between atoms: C7_14  and  C8_17 
REMARK   10  A    between atoms: C7_14  and  C9_22 
REMARK   11  A    between atoms: C8_17  and  N3_18 
ROOT
HETATM    1  C5  UNL     1     -15.283 -24.847  22.982  1.00  0.00     0.243 C 
HETATM    2  O2  UNL     1     -15.358 -23.857  23.731  1.00  0.00    -0.272 OA
HETATM    3  N2  UNL     1     -15.196 -26.175  23.398  1.00  0.00    -0.356 N 
ATOM      4  H2  UNL     1     -15.150 -26.877  22.659  1.00  0.00     0.162 HD
ENDROOT
BRANCH   3   5
HETATM    5  C6  UNL     1     -15.163 -26.664  24.731  1.00  0.00     0.172 C 
BRANCH   5   6
HETATM    6  C7  UNL     1     -16.354 -27.414  25.233  1.00  0.00     0.175 C 
BRANCH   6   7
HETATM    7  O3  UNL     1     -17.520 -26.879  24.760  1.00  0.00    -0.377 OA
ATOM      8  H3  UNL     1     -18.276 -27.376  25.051  1.00  0.00     0.211 HD
ENDBRANCH   6   7
BRANCH   6   9
HETATM    9  C8  UNL     1     -16.379 -27.265  26.751  1.00  0.00     0.278 C 
BRANCH   9  10
HETATM   10  N3  UNL     1     -15.581 -26.189  27.242  1.00  0.00    -0.076 N 
ATOM     11  H33 UNL     1     -15.184 -26.424  28.152  1.00  0.00     0.274 HD
ATOM     12  H32 UNL     1     -14.724 -26.101  26.697  1.00  0.00     0.274 HD
ATOM     13  H31 UNL     1     -16.070 -25.295  27.286  1.00  0.00     0.274 HD
ENDBRANCH   9  10
ENDBRANCH   6   9
BRANCH   6  14
HETATM   14  C9  UNL     1     -16.183 -28.836  24.846  1.00  0.00     0.269 C 
HETATM   15  N4  UNL     1     -16.551 -29.844  25.756  1.00  0.00    -0.059 NA
HETATM   16  O4  UNL     1     -15.718 -29.109  23.727  1.00  0.00    -0.273 OA
ENDBRANCH   6  14
ENDBRANCH   5   6
ENDBRANCH   3   5
BRANCH   1  17
HETATM   17  C4  UNL     1     -15.291 -24.548  21.505  1.00  0.00     0.334 C 
BRANCH  17  18
HETATM   18  N1  UNL     1     -14.043 -24.993  20.933  1.00  0.00    -0.065 N 
ATOM     19  H12 UNL     1     -13.977 -24.804  19.932  1.00  0.00     0.277 HD
ATOM     20  H11 UNL     1     -13.970 -26.009  20.883  1.00  0.00     0.277 HD
BRANCH  18  21
HETATM   21  C3  UNL     1     -12.966 -24.387  21.693  1.00  0.00     0.259 C 
BRANCH  21  22
HETATM   22  C2  UNL     1     -11.680 -25.177  21.442  1.00  0.00     0.194 C 
BRANCH  22  23
HETATM   23  O1  UNL     1     -10.785 -24.334  20.824  1.00  0.00    -0.394 OA
HETATM   24  C1  UNL     1     -10.412 -23.269  21.614  1.00  0.00     0.201 C 
ENDBRANCH  22  23
ENDBRANCH  21  22
ENDBRANCH  18  21
ENDBRANCH  17  18
ENDBRANCH   1  17
TORSDOF 11
ENDMDL
