MODEL 1
REMARK VINA RESULT: -5.628409664      0.000      0.000
REMARK  3 active torsions:
REMARK  status: ('A' for Active; 'I' for Inactive)
REMARK    1  A    between atoms: C1_2  and  C2_3 
REMARK    2  A    between atoms: C2_3  and  C3_4 
REMARK    3  A    between atoms: C3_4  and  C4_5 
ROOT
HETATM    1  C4  UNL     1      16.732 153.143 379.939  1.00  0.00    -0.013 A 
HETATM    2  C5  UNL     1      17.916 153.046 379.252  1.00  0.00     0.100 A 
HETATM    3  N1  UNL     1      18.376 154.277 378.950  1.00  0.00    -0.368 N 
ATOM      4  H1  UNL     1      19.235 154.485 378.442  1.00  0.00     0.165 HD
HETATM    5  C6  UNL     1      17.511 155.181 379.432  1.00  0.00     0.016 A 
HETATM    6  C7  UNL     1      16.494 154.521 380.042  1.00  0.00    -0.024 A 
HETATM    7  C8  UNL     1      15.525 155.524 380.590  1.00  0.00     0.042 C 
HETATM    8  C9  UNL     1      15.797 156.730 379.746  1.00  0.00     0.011 C 
HETATM    9  C10 UNL     1      17.290 156.666 379.547  1.00  0.00     0.058 C 
ENDROOT
BRANCH   1  10
HETATM   10  C3  UNL     1      15.835 152.182 380.534  1.00  0.00     0.014 C 
BRANCH  10  11
HETATM   11  C2  UNL     1      15.787 152.001 381.969  1.00  0.00     0.008 C 
BRANCH  11  12
HETATM   12  C1  UNL     1      16.517 151.292 382.778  1.00  0.00     0.056 C 
HETATM   13 BR1  UNL     1      18.286 151.946 383.221  1.00  0.00    -0.064 Br
ENDBRANCH  11  12
ENDBRANCH  10  11
ENDBRANCH   1  10
TORSDOF 3
ENDMDL
MODEL 2
REMARK VINA RESULT: -5.427621334      2.569      4.600
REMARK  3 active torsions:
REMARK  status: ('A' for Active; 'I' for Inactive)
REMARK    1  A    between atoms: C1_2  and  C2_3 
REMARK    2  A    between atoms: C2_3  and  C3_4 
REMARK    3  A    between atoms: C3_4  and  C4_5 
ROOT
HETATM    1  C4  UNL     1      16.031 152.778 380.610  1.00  0.00    -0.013 A 
HETATM    2  C5  UNL     1      15.170 151.717 380.747  1.00  0.00     0.100 A 
HETATM    3  N1  UNL     1      15.518 150.977 381.819  1.00  0.00    -0.368 N 
ATOM      4  H1  UNL     1      15.044 150.133 382.141  1.00  0.00     0.165 HD
HETATM    5  C6  UNL     1      16.593 151.539 382.390  1.00  0.00     0.016 A 
HETATM    6  C7  UNL     1      16.933 152.641 381.675  1.00  0.00    -0.024 A 
HETATM    7  C8  UNL     1      18.130 153.280 382.310  1.00  0.00     0.042 C 
HETATM    8  C9  UNL     1      18.741 152.141 383.064  1.00  0.00     0.011 C 
HETATM    9  C10 UNL     1      17.535 151.382 383.553  1.00  0.00     0.058 C 
ENDROOT
BRANCH   1  10
HETATM   10  C3  UNL     1      16.116 153.889 379.694  1.00  0.00     0.014 C 
BRANCH  10  11
HETATM   11  C2  UNL     1      15.654 155.205 380.080  1.00  0.00     0.008 C 
BRANCH  11  12
HETATM   12  C1  UNL     1      16.159 156.389 379.898  1.00  0.00     0.056 C 
HETATM   13 BR1  UNL     1      18.083 156.545 379.736  1.00  0.00    -0.064 Br
ENDBRANCH  11  12
ENDBRANCH  10  11
ENDBRANCH   1  10
TORSDOF 3
ENDMDL
MODEL 3
REMARK VINA RESULT: -5.405761401      2.414      4.630
REMARK  3 active torsions:
REMARK  status: ('A' for Active; 'I' for Inactive)
REMARK    1  A    between atoms: C1_2  and  C2_3 
REMARK    2  A    between atoms: C2_3  and  C3_4 
REMARK    3  A    between atoms: C3_4  and  C4_5 
ROOT
HETATM    1  C4  UNL     1      17.097 153.290 379.961  1.00  0.00    -0.013 A 
HETATM    2  C5  UNL     1      15.980 152.764 379.360  1.00  0.00     0.100 A 
HETATM    3  N1  UNL     1      15.335 151.950 380.218  1.00  0.00    -0.368 N 
ATOM      4  H1  UNL     1      14.479 151.432 380.020  1.00  0.00     0.165 HD
HETATM    5  C6  UNL     1      16.011 151.934 381.375  1.00  0.00     0.016 A 
HETATM    6  C7  UNL     1      17.094 152.743 381.252  1.00  0.00    -0.024 A 
HETATM    7  C8  UNL     1      17.853 152.737 382.544  1.00  0.00     0.042 C 
HETATM    8  C9  UNL     1      17.423 151.445 383.165  1.00  0.00     0.011 C 
HETATM    9  C10 UNL     1      15.974 151.350 382.762  1.00  0.00     0.058 C 
ENDROOT
BRANCH   1  10
HETATM   10  C3  UNL     1      18.113 154.226 379.547  1.00  0.00     0.014 C 
BRANCH  10  11
HETATM   11  C2  UNL     1      17.754 155.509 378.980  1.00  0.00     0.008 C 
BRANCH  11  12
HETATM   12  C1  UNL     1      17.206 156.565 379.503  1.00  0.00     0.056 C 
HETATM   13 BR1  UNL     1      15.299 156.530 379.844  1.00  0.00    -0.064 Br
ENDBRANCH  11  12
ENDBRANCH  10  11
ENDBRANCH   1  10
TORSDOF 3
ENDMDL
MODEL 4
REMARK VINA RESULT: -5.392656926      1.399      2.652
REMARK  3 active torsions:
REMARK  status: ('A' for Active; 'I' for Inactive)
REMARK    1  A    between atoms: C1_2  and  C2_3 
REMARK    2  A    between atoms: C2_3  and  C3_4 
REMARK    3  A    between atoms: C3_4  and  C4_5 
ROOT
HETATM    1  C4  UNL     1      16.323 155.072 379.887  1.00  0.00    -0.013 A 
HETATM    2  C5  UNL     1      16.292 156.388 379.498  1.00  0.00     0.100 A 
HETATM    3  N1  UNL     1      17.378 156.674 378.751  1.00  0.00    -0.368 N 
ATOM      4  H1  UNL     1      17.597 157.581 378.339  1.00  0.00     0.165 HD
HETATM    5  C6  UNL     1      18.120 155.563 378.642  1.00  0.00     0.016 A 
HETATM    6  C7  UNL     1      17.504 154.565 379.326  1.00  0.00    -0.024 A 
HETATM    7  C8  UNL     1      18.324 153.317 379.205  1.00  0.00     0.042 C 
HETATM    8  C9  UNL     1      19.686 153.854 378.894  1.00  0.00     0.011 C 
HETATM    9  C10 UNL     1      19.382 155.038 378.012  1.00  0.00     0.058 C 
ENDROOT
BRANCH   1  10
HETATM   10  C3  UNL     1      15.430 154.227 380.642  1.00  0.00     0.014 C 
BRANCH  10  11
HETATM   11  C2  UNL     1      15.910 153.468 381.777  1.00  0.00     0.008 C 
BRANCH  11  12
HETATM   12  C1  UNL     1      16.039 152.189 381.972  1.00  0.00     0.056 C 
HETATM   13 BR1  UNL     1      17.465 151.583 383.135  1.00  0.00    -0.064 Br
ENDBRANCH  11  12
ENDBRANCH  10  11
ENDBRANCH   1  10
TORSDOF 3
ENDMDL
MODEL 5
REMARK VINA RESULT: -5.337861474      1.600      1.925
REMARK  3 active torsions:
REMARK  status: ('A' for Active; 'I' for Inactive)
REMARK    1  A    between atoms: C1_2  and  C2_3 
REMARK    2  A    between atoms: C2_3  and  C3_4 
REMARK    3  A    between atoms: C3_4  and  C4_5 
ROOT
HETATM    1  C4  UNL     1      18.034 154.409 379.546  1.00  0.00    -0.013 A 
HETATM    2  C5  UNL     1      18.747 155.166 378.649  1.00  0.00     0.100 A 
HETATM    3  N1  UNL     1      18.104 156.327 378.412  1.00  0.00    -0.368 N 
ATOM      4  H1  UNL     1      18.420 157.066 377.784  1.00  0.00     0.165 HD
HETATM    5  C6  UNL     1      16.981 156.345 379.143  1.00  0.00     0.016 A 
HETATM    6  C7  UNL     1      16.907 155.187 379.847  1.00  0.00    -0.024 A 
HETATM    7  C8  UNL     1      15.656 155.200 380.672  1.00  0.00     0.042 C 
HETATM    8  C9  UNL     1      14.795 156.179 379.937  1.00  0.00     0.011 C 
HETATM    9  C10 UNL     1      15.790 157.208 379.466  1.00  0.00     0.058 C 
ENDROOT
BRANCH   1  10
HETATM   10  C3  UNL     1      18.253 153.131 380.178  1.00  0.00     0.014 C 
BRANCH  10  11
HETATM   11  C2  UNL     1      18.510 153.041 381.600  1.00  0.00     0.008 C 
BRANCH  11  12
HETATM   12  C1  UNL     1      17.900 152.401 382.552  1.00  0.00     0.056 C 
HETATM   13 BR1  UNL     1      16.109 151.745 382.209  1.00  0.00    -0.064 Br
ENDBRANCH  11  12
ENDBRANCH  10  11
ENDBRANCH   1  10
TORSDOF 3
ENDMDL
