MODEL 1
REMARK VINA RESULT: -5.743742249      0.000      0.000
REMARK  2 active torsions:
REMARK  status: ('A' for Active; 'I' for Inactive)
REMARK    1  A    between atoms: C1_2  and  C2_3 
REMARK    2  A    between atoms: C2_3  and  C3_4 
ROOT
HETATM    1  C3  UNL     1      15.740 155.125 380.929  1.00  0.00     0.027 A 
HETATM    2  C4  UNL     1      15.155 155.899 379.840  1.00  0.00     0.067 A 
HETATM    3  C5  UNL     1      16.524 156.322 379.504  1.00  0.00     0.017 A 
HETATM    4  N1  UNL     1      17.554 156.952 378.849  1.00  0.00    -0.362 N 
ATOM      5  H1  UNL     1      17.455 157.566 378.040  1.00  0.00     0.165 HD
HETATM    6  C6  UNL     1      18.727 156.626 379.452  1.00  0.00     0.016 A 
HETATM    7  C7  UNL     1      18.442 155.799 380.477  1.00  0.00    -0.027 A 
HETATM    8  C8  UNL     1      17.044 155.615 380.499  1.00  0.00    -0.023 A 
HETATM    9  C9  UNL     1      19.849 155.663 380.871  1.00  0.00     0.047 A 
HETATM   10  C10 UNL     1      20.162 156.576 379.739  1.00  0.00     0.062 A 
ENDROOT
BRANCH   1  11
HETATM   11  C2  UNL     1      15.622 153.612 380.840  1.00  0.00     0.020 C 
BRANCH  11  12
HETATM   12  C1  UNL     1      16.595 152.965 381.802  1.00  0.00     0.086 C 
HETATM   13 BR1  UNL     1      15.846 151.325 382.479  1.00  0.00    -0.096 Br
ENDBRANCH  11  12
ENDBRANCH   1  11
TORSDOF 2
ENDMDL
MODEL 2
REMARK VINA RESULT: -5.741740910      1.386      1.386
REMARK  2 active torsions:
REMARK  status: ('A' for Active; 'I' for Inactive)
REMARK    1  A    between atoms: C1_2  and  C2_3 
REMARK    2  A    between atoms: C2_3  and  C3_4 
ROOT
HETATM    1  C3  UNL     1      16.190 154.926 380.817  1.00  0.00     0.027 A 
HETATM    2  C4  UNL     1      15.659 156.145 380.217  1.00  0.00     0.067 A 
HETATM    3  C5  UNL     1      16.818 156.115 379.310  1.00  0.00     0.017 A 
HETATM    4  N1  UNL     1      17.679 156.487 378.306  1.00  0.00    -0.362 N 
ATOM      5  H1  UNL     1      17.570 157.303 377.705  1.00  0.00     0.165 HD
HETATM    6  C6  UNL     1      18.698 155.590 378.243  1.00  0.00     0.016 A 
HETATM    7  C7  UNL     1      18.485 154.662 379.196  1.00  0.00    -0.027 A 
HETATM    8  C8  UNL     1      17.292 155.006 379.865  1.00  0.00    -0.023 A 
HETATM    9  C9  UNL     1      19.698 153.910 378.856  1.00  0.00     0.047 A 
HETATM   10  C10 UNL     1      19.931 154.935 377.803  1.00  0.00     0.062 A 
ENDROOT
BRANCH   1  11
HETATM   11  C2  UNL     1      15.363 153.661 380.653  1.00  0.00     0.020 C 
BRANCH  11  12
HETATM   12  C1  UNL     1      16.264 152.447 380.727  1.00  0.00     0.086 C 
HETATM   13 BR1  UNL     1      15.959 151.511 382.382  1.00  0.00    -0.096 Br
ENDBRANCH  11  12
ENDBRANCH   1  11
TORSDOF 2
ENDMDL
MODEL 3
REMARK VINA RESULT: -5.659014496      3.422      4.853
REMARK  2 active torsions:
REMARK  status: ('A' for Active; 'I' for Inactive)
REMARK    1  A    between atoms: C1_2  and  C2_3 
REMARK    2  A    between atoms: C2_3  and  C3_4 
ROOT
HETATM    1  C3  UNL     1      16.304 153.429 380.078  1.00  0.00     0.027 A 
HETATM    2  C4  UNL     1      15.224 152.456 379.963  1.00  0.00     0.067 A 
HETATM    3  C5  UNL     1      15.770 151.818 381.171  1.00  0.00     0.017 A 
HETATM    4  N1  UNL     1      15.905 150.931 382.212  1.00  0.00    -0.362 N 
ATOM      5  H1  UNL     1      15.293 150.136 382.396  1.00  0.00     0.165 HD
HETATM    6  C6  UNL     1      16.985 151.284 382.957  1.00  0.00     0.016 A 
HETATM    7  C7  UNL     1      17.528 152.382 382.394  1.00  0.00    -0.027 A 
HETATM    8  C8  UNL     1      16.750 152.709 381.264  1.00  0.00    -0.023 A 
HETATM    9  C9  UNL     1      18.597 152.471 383.395  1.00  0.00     0.047 A 
HETATM   10  C10 UNL     1      17.996 151.259 384.015  1.00  0.00     0.062 A 
ENDROOT
BRANCH   1  11
HETATM   11  C2  UNL     1      15.908 154.866 380.377  1.00  0.00     0.020 C 
BRANCH  11  12
HETATM   12  C1  UNL     1      16.210 155.741 379.179  1.00  0.00     0.086 C 
HETATM   13 BR1  UNL     1      18.100 155.710 378.812  1.00  0.00    -0.096 Br
ENDBRANCH  11  12
ENDBRANCH   1  11
TORSDOF 2
ENDMDL
MODEL 4
REMARK VINA RESULT: -5.385501483      1.773      2.938
REMARK  2 active torsions:
REMARK  status: ('A' for Active; 'I' for Inactive)
REMARK    1  A    between atoms: C1_2  and  C2_3 
REMARK    2  A    between atoms: C2_3  and  C3_4 
ROOT
HETATM    1  C3  UNL     1      16.427 152.784 379.488  1.00  0.00     0.027 A 
HETATM    2  C4  UNL     1      17.867 152.978 379.613  1.00  0.00     0.067 A 
HETATM    3  C5  UNL     1      17.590 154.421 379.699  1.00  0.00     0.017 A 
HETATM    4  N1  UNL     1      17.813 155.772 379.815  1.00  0.00    -0.362 N 
ATOM      5  H1  UNL     1      18.726 156.215 379.919  1.00  0.00     0.165 HD
HETATM    6  C6  UNL     1      16.621 156.422 379.770  1.00  0.00     0.016 A 
HETATM    7  C7  UNL     1      15.655 155.494 379.627  1.00  0.00    -0.027 A 
HETATM    8  C8  UNL     1      16.281 154.231 379.582  1.00  0.00    -0.023 A 
HETATM    9  C9  UNL     1      14.579 156.491 379.616  1.00  0.00     0.047 A 
HETATM   10  C10 UNL     1      15.647 157.515 379.775  1.00  0.00     0.062 A 
ENDROOT
BRANCH   1  11
HETATM   11  C2  UNL     1      15.730 152.048 380.621  1.00  0.00     0.020 C 
BRANCH  11  12
HETATM   12  C1  UNL     1      16.101 152.679 381.946  1.00  0.00     0.086 C 
HETATM   13 BR1  UNL     1      17.074 151.411 383.020  1.00  0.00    -0.096 Br
ENDBRANCH  11  12
ENDBRANCH   1  11
TORSDOF 2
ENDMDL
MODEL 5
REMARK VINA RESULT: -5.380170543      3.493      4.834
REMARK  2 active torsions:
REMARK  status: ('A' for Active; 'I' for Inactive)
REMARK    1  A    between atoms: C1_2  and  C2_3 
REMARK    2  A    between atoms: C2_3  and  C3_4 
ROOT
HETATM    1  C3  UNL     1      16.199 152.639 381.492  1.00  0.00     0.027 A 
HETATM    2  C4  UNL     1      15.605 151.579 382.299  1.00  0.00     0.067 A 
HETATM    3  C5  UNL     1      16.923 151.426 382.935  1.00  0.00     0.017 A 
HETATM    4  N1  UNL     1      17.905 150.943 383.766  1.00  0.00    -0.362 N 
ATOM      5  H1  UNL     1      17.788 150.195 384.449  1.00  0.00     0.165 HD
HETATM    6  C6  UNL     1      19.057 151.624 383.531  1.00  0.00     0.016 A 
HETATM    7  C7  UNL     1      18.807 152.527 382.563  1.00  0.00    -0.027 A 
HETATM    8  C8  UNL     1      17.452 152.391 382.194  1.00  0.00    -0.023 A 
HETATM    9  C9  UNL     1      20.180 153.043 382.569  1.00  0.00     0.047 A 
HETATM   10  C10 UNL     1      20.455 152.045 383.639  1.00  0.00     0.062 A 
ENDROOT
BRANCH   1  11
HETATM   11  C2  UNL     1      15.672 154.048 381.710  1.00  0.00     0.020 C 
BRANCH  11  12
HETATM   12  C1  UNL     1      16.529 155.038 380.950  1.00  0.00     0.086 C 
HETATM   13 BR1  UNL     1      15.411 156.159 379.854  1.00  0.00    -0.096 Br
ENDBRANCH  11  12
ENDBRANCH   1  11
TORSDOF 2
ENDMDL
