MODEL 1
REMARK VINA RESULT: -5.273506999      0.000      0.000
REMARK  2 active torsions:
REMARK  status: ('A' for Active; 'I' for Inactive)
REMARK    1  A    between atoms: C2_2  and  C3_3 
REMARK    2  A    between atoms: C2_2  and  N1_6 
REMARK       I    between atoms: N1_6  and  C6_8 
REMARK       I    between atoms: C6_8  and  N3_12 
ROOT
HETATM    1  N1  UNL     1      18.896 156.320 379.156  1.00  0.00    -0.215 N 
HETATM    2  C5  UNL     1      19.610 155.732 378.054  1.00  0.00     0.169 C 
HETATM    3  C6  UNL     1      17.477 156.087 379.229  1.00  0.00     0.672 C 
HETATM    4  N2  UNL     1      16.766 156.892 378.624  1.00  0.00    -0.235 N 
ATOM      5  H21 UNL     1      15.762 156.727 378.677  1.00  0.00     0.174 HD
ATOM      6  H22 UNL     1      17.127 157.676 378.080  1.00  0.00     0.174 HD
HETATM    7  N3  UNL     1      16.968 154.981 379.998  1.00  0.00    -0.214 N 
HETATM    8  C7  UNL     1      16.709 155.120 381.421  1.00  0.00     0.141 C 
HETATM    9  C8  UNL     1      15.683 154.038 381.722  1.00  0.00     0.022 C 
HETATM   10  C9  UNL     1      16.177 152.931 380.834  1.00  0.00     0.027 C 
HETATM   11  C10 UNL     1      16.653 153.641 379.584  1.00  0.00     0.098 C 
HETATM   12  C11 UNL     1      17.908 152.880 379.143  1.00  0.00     0.033 C 
ENDROOT
BRANCH   1  13
HETATM   13  C2  UNL     1      19.565 157.092 380.144  1.00  0.00     0.121 C 
HETATM   14  C1  UNL     1      20.130 158.384 379.560  1.00  0.00     0.037 C 
BRANCH  13  15
HETATM   15  C3  UNL     1      20.630 156.402 380.896  1.00  0.00     0.010 C 
HETATM   16  C4  UNL     1      20.412 155.315 381.616  1.00  0.00     0.082 C 
HETATM   17 CL1  UNL     1      21.727 154.567 382.469  1.00  0.00    -0.097 Cl
ENDBRANCH  13  15
ENDBRANCH   1  13
TORSDOF 2
ENDMDL
MODEL 2
REMARK VINA RESULT: -5.265192638      1.891      4.467
REMARK  2 active torsions:
REMARK  status: ('A' for Active; 'I' for Inactive)
REMARK    1  A    between atoms: C2_2  and  C3_3 
REMARK    2  A    between atoms: C2_2  and  N1_6 
REMARK       I    between atoms: N1_6  and  C6_8 
REMARK       I    between atoms: C6_8  and  N3_12 
ROOT
HETATM    1  N1  UNL     1      16.691 153.315 381.165  1.00  0.00    -0.215 N 
HETATM    2  C5  UNL     1      15.738 154.238 381.721  1.00  0.00     0.169 C 
HETATM    3  C6  UNL     1      16.895 153.347 379.740  1.00  0.00     0.672 C 
HETATM    4  N2  UNL     1      16.143 152.633 379.072  1.00  0.00    -0.235 N 
ATOM      5  H21 UNL     1      16.287 152.656 378.063  1.00  0.00     0.174 HD
ATOM      6  H22 UNL     1      15.400 152.057 379.468  1.00  0.00     0.174 HD
HETATM    7  N3  UNL     1      17.944 154.159 379.180  1.00  0.00    -0.214 N 
HETATM    8  C7  UNL     1      19.297 153.644 379.054  1.00  0.00     0.141 C 
HETATM    9  C8  UNL     1      19.914 154.484 377.947  1.00  0.00     0.022 C 
HETATM   10  C9  UNL     1      19.311 155.828 378.247  1.00  0.00     0.027 C 
HETATM   11  C10 UNL     1      17.899 155.510 378.693  1.00  0.00     0.098 C 
HETATM   12  C11 UNL     1      17.601 156.504 379.821  1.00  0.00     0.033 C 
ENDROOT
BRANCH   1  13
HETATM   13  C2  UNL     1      17.416 152.412 381.989  1.00  0.00     0.121 C 
HETATM   14  C1  UNL     1      16.485 151.452 382.724  1.00  0.00     0.037 C 
BRANCH  13  15
HETATM   15  C3  UNL     1      18.339 153.021 382.965  1.00  0.00     0.010 C 
HETATM   16  C4  UNL     1      19.350 153.796 382.610  1.00  0.00     0.082 C 
HETATM   17 CL1  UNL     1      20.387 154.473 383.827  1.00  0.00    -0.097 Cl
ENDBRANCH  13  15
ENDBRANCH   1  13
TORSDOF 2
ENDMDL
MODEL 3
REMARK VINA RESULT: -5.251712991      2.708      3.684
REMARK  2 active torsions:
REMARK  status: ('A' for Active; 'I' for Inactive)
REMARK    1  A    between atoms: C2_2  and  C3_3 
REMARK    2  A    between atoms: C2_2  and  N1_6 
REMARK       I    between atoms: N1_6  and  C6_8 
REMARK       I    between atoms: C6_8  and  N3_12 
ROOT
HETATM    1  N1  UNL     1      18.832 154.921 380.000  1.00  0.00    -0.215 N 
HETATM    2  C5  UNL     1      19.887 155.138 380.953  1.00  0.00     0.169 C 
HETATM    3  C6  UNL     1      18.465 153.558 379.712  1.00  0.00     0.672 C 
HETATM    4  N2  UNL     1      19.098 153.010 378.807  1.00  0.00    -0.235 N 
ATOM      5  H21 UNL     1      18.839 152.045 378.603  1.00  0.00     0.174 HD
ATOM      6  H22 UNL     1      19.853 153.456 378.285  1.00  0.00     0.174 HD
HETATM    7  N3  UNL     1      17.400 152.928 380.447  1.00  0.00    -0.214 N 
HETATM    8  C7  UNL     1      16.018 153.067 380.021  1.00  0.00     0.141 C 
HETATM    9  C8  UNL     1      15.318 151.858 380.622  1.00  0.00     0.022 C 
HETATM   10  C9  UNL     1      16.017 151.762 381.949  1.00  0.00     0.027 C 
HETATM   11  C10 UNL     1      17.455 152.127 381.639  1.00  0.00     0.098 C 
HETATM   12  C11 UNL     1      17.930 152.944 382.844  1.00  0.00     0.033 C 
ENDROOT
BRANCH   1  13
HETATM   13  C2  UNL     1      18.164 156.008 379.374  1.00  0.00     0.121 C 
HETATM   14  C1  UNL     1      18.925 157.317 379.561  1.00  0.00     0.037 C 
BRANCH  13  15
HETATM   15  C3  UNL     1      16.756 156.215 379.761  1.00  0.00     0.010 C 
HETATM   16  C4  UNL     1      15.766 156.233 378.885  1.00  0.00     0.082 C 
HETATM   17 CL1  UNL     1      14.136 156.483 379.430  1.00  0.00    -0.097 Cl
ENDBRANCH  13  15
ENDBRANCH   1  13
TORSDOF 2
ENDMDL
MODEL 4
REMARK VINA RESULT: -5.121790537      2.768      4.555
REMARK  2 active torsions:
REMARK  status: ('A' for Active; 'I' for Inactive)
REMARK    1  A    between atoms: C2_2  and  C3_3 
REMARK    2  A    between atoms: C2_2  and  N1_6 
REMARK       I    between atoms: N1_6  and  C6_8 
REMARK       I    between atoms: C6_8  and  N3_12 
ROOT
HETATM    1  N1  UNL     1      17.382 152.826 381.309  1.00  0.00    -0.215 N 
HETATM    2  C5  UNL     1      16.083 152.209 381.270  1.00  0.00     0.169 C 
HETATM    3  C6  UNL     1      17.829 153.513 380.126  1.00  0.00     0.672 C 
HETATM    4  N2  UNL     1      18.424 152.824 379.295  1.00  0.00    -0.235 N 
ATOM      5  H21 UNL     1      18.740 153.311 378.456  1.00  0.00     0.174 HD
ATOM      6  H22 UNL     1      18.590 151.822 379.396  1.00  0.00     0.174 HD
HETATM    7  N3  UNL     1      17.595 154.927 379.982  1.00  0.00    -0.214 N 
HETATM    8  C7  UNL     1      18.530 155.896 380.527  1.00  0.00     0.141 C 
HETATM    9  C8  UNL     1      18.289 157.151 379.704  1.00  0.00     0.022 C 
HETATM   10  C9  UNL     1      16.797 157.092 379.535  1.00  0.00     0.027 C 
HETATM   11  C10 UNL     1      16.501 155.617 379.355  1.00  0.00     0.098 C 
HETATM   12  C11 UNL     1      15.184 155.379 380.101  1.00  0.00     0.033 C 
ENDROOT
BRANCH   1  13
HETATM   13  C2  UNL     1      18.192 152.772 382.476  1.00  0.00     0.121 C 
HETATM   14  C1  UNL     1      19.677 152.857 382.133  1.00  0.00     0.037 C 
BRANCH  13  15
HETATM   15  C3  UNL     1      17.974 151.616 383.366  1.00  0.00     0.010 C 
HETATM   16  C4  UNL     1      18.868 151.213 384.252  1.00  0.00     0.082 C 
HETATM   17 CL1  UNL     1      18.526 149.841 385.260  1.00  0.00    -0.097 Cl
ENDBRANCH  13  15
ENDBRANCH   1  13
TORSDOF 2
ENDMDL
MODEL 5
REMARK VINA RESULT: -5.116040998      1.973      2.452
REMARK  2 active torsions:
REMARK  status: ('A' for Active; 'I' for Inactive)
REMARK    1  A    between atoms: C2_2  and  C3_3 
REMARK    2  A    between atoms: C2_2  and  N1_6 
REMARK       I    between atoms: N1_6  and  C6_8 
REMARK       I    between atoms: C6_8  and  N3_12 
ROOT
HETATM    1  N1  UNL     1      19.996 156.708 379.325  1.00  0.00    -0.215 N 
HETATM    2  C5  UNL     1      20.948 155.678 379.643  1.00  0.00     0.169 C 
HETATM    3  C6  UNL     1      18.831 156.327 378.569  1.00  0.00     0.672 C 
HETATM    4  N2  UNL     1      18.950 156.363 377.342  1.00  0.00    -0.235 N 
ATOM      5  H21 UNL     1      18.125 156.093 376.807  1.00  0.00     0.174 HD
ATOM      6  H22 UNL     1      19.810 156.623 376.858  1.00  0.00     0.174 HD
HETATM    7  N3  UNL     1      17.618 155.961 379.251  1.00  0.00    -0.214 N 
HETATM    8  C7  UNL     1      16.653 156.972 379.649  1.00  0.00     0.141 C 
HETATM    9  C8  UNL     1      15.341 156.211 379.764  1.00  0.00     0.022 C 
HETATM   10  C9  UNL     1      15.822 154.912 380.348  1.00  0.00     0.027 C 
HETATM   11  C10 UNL     1      17.150 154.665 379.661  1.00  0.00     0.098 C 
HETATM   12  C11 UNL     1      18.052 154.058 380.740  1.00  0.00     0.033 C 
ENDROOT
BRANCH   1  13
HETATM   13  C2  UNL     1      20.188 158.051 379.751  1.00  0.00     0.121 C 
HETATM   14  C1  UNL     1      20.916 158.876 378.693  1.00  0.00     0.037 C 
BRANCH  13  15
HETATM   15  C3  UNL     1      20.867 158.230 381.047  1.00  0.00     0.010 C 
HETATM   16  C4  UNL     1      21.444 159.365 381.404  1.00  0.00     0.082 C 
HETATM   17 CL1  UNL     1      22.221 159.488 382.952  1.00  0.00    -0.097 Cl
ENDBRANCH  13  15
ENDBRANCH   1  13
TORSDOF 2
ENDMDL
