MODEL 1
REMARK VINA RESULT: -5.682178941      0.000      0.000
REMARK  5 active torsions:
REMARK  status: ('A' for Active; 'I' for Inactive)
REMARK    1  A    between atoms: C1_2  and  C2_3 
REMARK    2  A    between atoms: C3_4  and  C4_5 
REMARK    3  A    between atoms: C7_10  and  C8_11 
REMARK    4  A    between atoms: C9_12  and  C10_13 
REMARK    5  A    between atoms: C10_13  and  C11_14 
ROOT
HETATM    1  C4  UNL     1      -6.723 166.216 399.653  1.00  0.00     0.045 A 
HETATM    2  C5  UNL     1      -7.877 166.958 399.782  1.00  0.00     0.040 A 
HETATM    3  C6  UNL     1      -8.212 167.540 398.578  1.00  0.00     0.090 A 
HETATM    4  N1  UNL     1      -7.268 167.164 397.691  1.00  0.00    -0.365 N 
ATOM      5  H1  UNL     1      -7.241 167.438 396.708  1.00  0.00     0.165 HD
HETATM    6  C7  UNL     1      -6.353 166.362 398.310  1.00  0.00     0.050 A 
ENDROOT
BRANCH   6   7
HETATM    7  C8  UNL     1      -5.183 165.746 397.718  1.00  0.00     0.027 C 
HETATM    8  C9  UNL     1      -3.983 166.073 398.145  1.00  0.00    -0.024 C 
BRANCH   8   9
HETATM    9  C10 UNL     1      -2.740 165.472 397.571  1.00  0.00     0.031 C 
BRANCH   9  10
HETATM   10  C11 UNL     1      -1.563 166.381 397.859  1.00  0.00    -0.011 A 
HETATM   11  C12 UNL     1      -1.480 166.938 399.263  1.00  0.00     0.005 A 
HETATM   12  C13 UNL     1      -0.473 165.884 398.720  1.00  0.00     0.005 A 
ENDBRANCH   9  10
ENDBRANCH   8   9
ENDBRANCH   6   7
BRANCH   1  13
HETATM   13  C3  UNL     1      -6.023 165.449 400.645  1.00  0.00    -0.064 C 
HETATM   14  C2  UNL     1      -5.426 164.792 401.466  1.00  0.00    -0.090 C 
BRANCH  14  15
HETATM   15  C1  UNL     1      -4.683 164.006 402.467  1.00  0.00     0.179 C 
HETATM   16 BR1  UNL     1      -4.074 165.140 403.917  1.00  0.00    -0.083 Br
ENDBRANCH  14  15
ENDBRANCH   1  13
TORSDOF 5
ENDMDL
MODEL 2
REMARK VINA RESULT: -5.522641726      5.973      9.602
REMARK  5 active torsions:
REMARK  status: ('A' for Active; 'I' for Inactive)
REMARK    1  A    between atoms: C1_2  and  C2_3 
REMARK    2  A    between atoms: C3_4  and  C4_5 
REMARK    3  A    between atoms: C7_10  and  C8_11 
REMARK    4  A    between atoms: C9_12  and  C10_13 
REMARK    5  A    between atoms: C10_13  and  C11_14 
ROOT
HETATM    1  C4  UNL     1       5.073 164.053 398.744  1.00  0.00     0.045 A 
HETATM    2  C5  UNL     1       5.688 163.027 398.060  1.00  0.00     0.040 A 
HETATM    3  C6  UNL     1       5.032 162.780 396.872  1.00  0.00     0.090 A 
HETATM    4  N1  UNL     1       4.004 163.651 396.809  1.00  0.00    -0.365 N 
ATOM      5  H1  UNL     1       3.332 163.714 396.045  1.00  0.00     0.165 HD
HETATM    6  C7  UNL     1       4.002 164.436 397.927  1.00  0.00     0.050 A 
ENDROOT
BRANCH   6   7
HETATM    7  C8  UNL     1       3.069 165.495 398.253  1.00  0.00     0.027 C 
HETATM    8  C9  UNL     1       1.836 165.445 397.798  1.00  0.00    -0.024 C 
BRANCH   8   9
HETATM    9  C10 UNL     1       0.830 166.508 398.101  1.00  0.00     0.031 C 
BRANCH   9  10
HETATM   10  C11 UNL     1      -0.427 165.868 398.655  1.00  0.00    -0.011 A 
HETATM   11  C12 UNL     1      -1.487 166.816 399.169  1.00  0.00     0.005 A 
HETATM   12  C13 UNL     1      -1.678 165.966 397.880  1.00  0.00     0.005 A 
ENDBRANCH   9  10
ENDBRANCH   8   9
ENDBRANCH   6   7
BRANCH   1  13
HETATM   13  C3  UNL     1       5.419 164.632 400.012  1.00  0.00    -0.064 C 
HETATM   14  C2  UNL     1       5.711 165.101 401.087  1.00  0.00    -0.090 C 
BRANCH  14  15
HETATM   15  C1  UNL     1       6.088 165.674 402.392  1.00  0.00     0.179 C 
HETATM   16 BR1  UNL     1       5.260 164.685 403.840  1.00  0.00    -0.083 Br
ENDBRANCH  14  15
ENDBRANCH   1  13
TORSDOF 5
ENDMDL
MODEL 3
REMARK VINA RESULT: -5.430883573      1.785      4.554
REMARK  5 active torsions:
REMARK  status: ('A' for Active; 'I' for Inactive)
REMARK    1  A    between atoms: C1_2  and  C2_3 
REMARK    2  A    between atoms: C3_4  and  C4_5 
REMARK    3  A    between atoms: C7_10  and  C8_11 
REMARK    4  A    between atoms: C9_12  and  C10_13 
REMARK    5  A    between atoms: C10_13  and  C11_14 
ROOT
HETATM    1  C4  UNL     1      -2.617 165.806 399.165  1.00  0.00     0.045 A 
HETATM    2  C5  UNL     1      -1.252 165.984 399.112  1.00  0.00     0.040 A 
HETATM    3  C6  UNL     1      -0.845 166.200 397.811  1.00  0.00     0.090 A 
HETATM    4  N1  UNL     1      -1.956 166.157 397.047  1.00  0.00    -0.365 N 
ATOM      5  H1  UNL     1      -1.979 166.281 396.035  1.00  0.00     0.165 HD
HETATM    6  C7  UNL     1      -3.045 165.921 397.837  1.00  0.00     0.050 A 
ENDROOT
BRANCH   6   7
HETATM    7  C8  UNL     1      -4.426 165.802 397.414  1.00  0.00     0.027 C 
HETATM    8  C9  UNL     1      -5.293 166.737 397.734  1.00  0.00    -0.024 C 
BRANCH   8   9
HETATM    9  C10 UNL     1      -6.729 166.667 397.326  1.00  0.00     0.031 C 
BRANCH   9  10
HETATM   10  C11 UNL     1      -7.599 167.174 398.459  1.00  0.00    -0.011 A 
HETATM   11  C12 UNL     1      -7.450 166.459 399.784  1.00  0.00     0.005 A 
HETATM   12  C13 UNL     1      -6.967 167.922 399.562  1.00  0.00     0.005 A 
ENDBRANCH   9  10
ENDBRANCH   8   9
ENDBRANCH   6   7
BRANCH   1  13
HETATM   13  C3  UNL     1      -3.454 165.557 400.306  1.00  0.00    -0.064 C 
HETATM   14  C2  UNL     1      -4.173 165.341 401.253  1.00  0.00    -0.090 C 
BRANCH  14  15
HETATM   15  C1  UNL     1      -5.040 165.059 402.411  1.00  0.00     0.179 C 
HETATM   16 BR1  UNL     1      -4.027 165.132 404.062  1.00  0.00    -0.083 Br
ENDBRANCH  14  15
ENDBRANCH   1  13
TORSDOF 5
ENDMDL
MODEL 4
REMARK VINA RESULT: -5.411439206      1.960      4.737
REMARK  5 active torsions:
REMARK  status: ('A' for Active; 'I' for Inactive)
REMARK    1  A    between atoms: C1_2  and  C2_3 
REMARK    2  A    between atoms: C3_4  and  C4_5 
REMARK    3  A    between atoms: C7_10  and  C8_11 
REMARK    4  A    between atoms: C9_12  and  C10_13 
REMARK    5  A    between atoms: C10_13  and  C11_14 
ROOT
HETATM    1  C4  UNL     1      -2.844 166.268 399.255  1.00  0.00     0.045 A 
HETATM    2  C5  UNL     1      -1.736 165.742 398.626  1.00  0.00     0.040 A 
HETATM    3  C6  UNL     1      -1.290 166.598 397.642  1.00  0.00     0.090 A 
HETATM    4  N1  UNL     1      -2.117 167.664 397.651  1.00  0.00    -0.365 N 
ATOM      5  H1  UNL     1      -2.044 168.471 397.032  1.00  0.00     0.165 HD
HETATM    6  C7  UNL     1      -3.068 167.494 398.617  1.00  0.00     0.050 A 
ENDROOT
BRANCH   6   7
HETATM    7  C8  UNL     1      -4.144 168.403 398.957  1.00  0.00     0.027 C 
HETATM    8  C9  UNL     1      -5.376 168.126 398.589  1.00  0.00    -0.024 C 
BRANCH   8   9
HETATM    9  C10 UNL     1      -6.526 169.026 398.910  1.00  0.00     0.031 C 
BRANCH   9  10
HETATM   10  C11 UNL     1      -7.738 168.186 399.259  1.00  0.00    -0.011 A 
HETATM   11  C12 UNL     1      -8.047 167.041 398.321  1.00  0.00     0.005 A 
HETATM   12  C13 UNL     1      -7.535 166.819 399.773  1.00  0.00     0.005 A 
ENDBRANCH   9  10
ENDBRANCH   8   9
ENDBRANCH   6   7
BRANCH   1  13
HETATM   13  C3  UNL     1      -3.623 165.717 400.328  1.00  0.00    -0.064 C 
HETATM   14  C2  UNL     1      -4.266 165.241 401.235  1.00  0.00    -0.090 C 
BRANCH  14  15
HETATM   15  C1  UNL     1      -5.041 164.674 402.353  1.00  0.00     0.179 C 
HETATM   16 BR1  UNL     1      -4.179 165.053 404.048  1.00  0.00    -0.083 Br
ENDBRANCH  14  15
ENDBRANCH   1  13
TORSDOF 5
ENDMDL
MODEL 5
REMARK VINA RESULT: -5.358547730      2.586      5.226
REMARK  5 active torsions:
REMARK  status: ('A' for Active; 'I' for Inactive)
REMARK    1  A    between atoms: C1_2  and  C2_3 
REMARK    2  A    between atoms: C3_4  and  C4_5 
REMARK    3  A    between atoms: C7_10  and  C8_11 
REMARK    4  A    between atoms: C9_12  and  C10_13 
REMARK    5  A    between atoms: C10_13  and  C11_14 
ROOT
HETATM    1  C4  UNL     1      -4.083 165.417 400.710  1.00  0.00     0.045 A 
HETATM    2  C5  UNL     1      -3.803 164.836 401.928  1.00  0.00     0.040 A 
HETATM    3  C6  UNL     1      -4.971 164.535 402.597  1.00  0.00     0.090 A 
HETATM    4  N1  UNL     1      -5.985 164.928 401.800  1.00  0.00    -0.365 N 
ATOM      5  H1  UNL     1      -6.977 164.838 402.022  1.00  0.00     0.165 HD
HETATM    6  C7  UNL     1      -5.481 165.465 400.650  1.00  0.00     0.050 A 
ENDROOT
BRANCH   6   7
HETATM    7  C8  UNL     1      -6.229 166.007 399.533  1.00  0.00     0.027 C 
HETATM    8  C9  UNL     1      -7.338 166.678 399.751  1.00  0.00    -0.024 C 
BRANCH   8   9
HETATM    9  C10 UNL     1      -8.151 167.258 398.639  1.00  0.00     0.031 C 
BRANCH   9  10
HETATM   10  C11 UNL     1      -7.938 168.757 398.590  1.00  0.00    -0.011 A 
HETATM   11  C12 UNL     1      -7.402 169.395 399.852  1.00  0.00     0.005 A 
HETATM   12  C13 UNL     1      -6.559 169.280 398.549  1.00  0.00     0.005 A 
ENDBRANCH   9  10
ENDBRANCH   8   9
ENDBRANCH   6   7
BRANCH   1  13
HETATM   13  C3  UNL     1      -3.175 165.884 399.699  1.00  0.00    -0.064 C 
HETATM   14  C2  UNL     1      -2.403 166.259 398.848  1.00  0.00    -0.090 C 
BRANCH  14  15
HETATM   15  C1  UNL     1      -1.476 166.712 397.796  1.00  0.00     0.179 C 
HETATM   16 BR1  UNL     1       0.349 166.226 398.234  1.00  0.00    -0.083 Br
ENDBRANCH  14  15
ENDBRANCH   1  13
TORSDOF 5
ENDMDL
