MODEL 1
REMARK VINA RESULT: -6.017804812      0.000      0.000
REMARK  2 active torsions:
REMARK  status: ('A' for Active; 'I' for Inactive)
REMARK       I    between atoms: C1_2  and  N1_3 
REMARK    1  A    between atoms: C1_2  and  C3_7 
REMARK    2  A    between atoms: N1_3  and  C2_5 
ROOT
HETATM    1  C3  UNL     1      69.605 140.171 351.166  1.00  0.00     0.078 C 
HETATM    2  C4  UNL     1      69.464 140.305 349.674  1.00  0.00     0.014 C 
HETATM    3  C5  UNL     1      69.289 141.785 349.384  1.00  0.00     0.001 C 
HETATM    4  C6  UNL     1      70.610 142.462 349.667  1.00  0.00     0.000 C 
HETATM    5  C7  UNL     1      70.975 142.267 351.118  1.00  0.00     0.001 C 
HETATM    6  C8  UNL     1      70.945 140.820 351.534  1.00  0.00     0.014 C 
ENDROOT
BRANCH   1   7
HETATM    7  C1  UNL     1      69.583 138.787 351.638  1.00  0.00     0.222 C 
HETATM    8  O1  UNL     1      69.070 138.549 352.758  1.00  0.00    -0.273 OA
HETATM    9  N1  UNL     1      70.117 137.714 350.879  1.00  0.00    -0.351 N 
ATOM     10  H1  UNL     1      70.533 137.913 349.969  1.00  0.00     0.163 HD
BRANCH   9  11
HETATM   11  C2  UNL     1      70.091 136.366 351.346  1.00  0.00     0.208 C 
HETATM   12 BR1  UNL     1      71.821 135.734 351.919  1.00  0.00    -0.075 Br
ENDBRANCH   9  11
ENDBRANCH   1   7
TORSDOF 2
ENDMDL
MODEL 2
REMARK VINA RESULT: -5.857621931      4.637      5.889
REMARK  2 active torsions:
REMARK  status: ('A' for Active; 'I' for Inactive)
REMARK       I    between atoms: C1_2  and  N1_3 
REMARK    1  A    between atoms: C1_2  and  C3_7 
REMARK    2  A    between atoms: N1_3  and  C2_5 
ROOT
HETATM    1  C3  UNL     1      69.826 141.916 350.495  1.00  0.00     0.078 C 
HETATM    2  C4  UNL     1      70.906 141.162 351.224  1.00  0.00     0.014 C 
HETATM    3  C5  UNL     1      70.276 139.876 351.726  1.00  0.00     0.001 C 
HETATM    4  C6  UNL     1      70.000 139.005 350.523  1.00  0.00     0.000 C 
HETATM    5  C7  UNL     1      69.041 139.714 349.598  1.00  0.00     0.001 C 
HETATM    6  C8  UNL     1      69.503 141.101 349.238  1.00  0.00     0.014 C 
ENDROOT
BRANCH   1   7
HETATM    7  C1  UNL     1      70.210 143.276 350.116  1.00  0.00     0.222 C 
HETATM    8  O1  UNL     1      70.675 143.464 348.966  1.00  0.00    -0.273 OA
HETATM    9  N1  UNL     1      70.074 144.380 350.997  1.00  0.00    -0.351 N 
ATOM     10  H1  UNL     1      69.695 144.221 351.931  1.00  0.00     0.163 HD
BRANCH   9  11
HETATM   11  C2  UNL     1      70.450 145.703 350.619  1.00  0.00     0.208 C 
HETATM   12 BR1  UNL     1      68.967 146.752 349.969  1.00  0.00    -0.075 Br
ENDBRANCH   9  11
ENDBRANCH   1   7
TORSDOF 2
ENDMDL
MODEL 3
REMARK VINA RESULT: -5.765724762      4.755      5.867
REMARK  2 active torsions:
REMARK  status: ('A' for Active; 'I' for Inactive)
REMARK       I    between atoms: C1_2  and  N1_3 
REMARK    1  A    between atoms: C1_2  and  C3_7 
REMARK    2  A    between atoms: N1_3  and  C2_5 
ROOT
HETATM    1  C3  UNL     1      70.290 142.266 349.811  1.00  0.00     0.078 C 
HETATM    2  C4  UNL     1      69.104 141.348 349.687  1.00  0.00     0.014 C 
HETATM    3  C5  UNL     1      69.620 139.939 349.916  1.00  0.00     0.001 C 
HETATM    4  C6  UNL     1      69.995 139.823 351.374  1.00  0.00     0.000 C 
HETATM    5  C7  UNL     1      71.081 140.820 351.696  1.00  0.00     0.001 C 
HETATM    6  C8  UNL     1      70.721 142.222 351.281  1.00  0.00     0.014 C 
ENDROOT
BRANCH   1   7
HETATM    7  C1  UNL     1      70.009 143.648 349.422  1.00  0.00     0.222 C 
HETATM    8  O1  UNL     1      70.946 144.337 348.952  1.00  0.00    -0.273 OA
HETATM    9  N1  UNL     1      68.722 144.230 349.556  1.00  0.00    -0.351 N 
ATOM     10  H1  UNL     1      67.963 143.666 349.939  1.00  0.00     0.163 HD
BRANCH   9  11
HETATM   11  C2  UNL     1      68.455 145.579 349.174  1.00  0.00     0.208 C 
HETATM   12 BR1  UNL     1      69.117 146.868 350.447  1.00  0.00    -0.075 Br
ENDBRANCH   9  11
ENDBRANCH   1   7
TORSDOF 2
ENDMDL
MODEL 4
REMARK VINA RESULT: -5.743271719      0.971      1.760
REMARK  2 active torsions:
REMARK  status: ('A' for Active; 'I' for Inactive)
REMARK       I    between atoms: C1_2  and  N1_3 
REMARK    1  A    between atoms: C1_2  and  C3_7 
REMARK    2  A    between atoms: N1_3  and  C2_5 
ROOT
HETATM    1  C3  UNL     1      70.371 139.788 350.352  1.00  0.00     0.078 C 
HETATM    2  C4  UNL     1      70.658 140.632 351.564  1.00  0.00     0.014 C 
HETATM    3  C5  UNL     1      71.216 141.949 351.055  1.00  0.00     0.001 C 
HETATM    4  C6  UNL     1      70.087 142.689 350.378  1.00  0.00     0.000 C 
HETATM    5  C7  UNL     1      69.572 141.872 349.218  1.00  0.00     0.001 C 
HETATM    6  C8  UNL     1      69.210 140.466 349.616  1.00  0.00     0.014 C 
ENDROOT
BRANCH   1   7
HETATM    7  C1  UNL     1      70.013 138.405 350.669  1.00  0.00     0.222 C 
HETATM    8  O1  UNL     1      68.797 138.095 350.686  1.00  0.00    -0.273 OA
HETATM    9  N1  UNL     1      70.985 137.412 350.954  1.00  0.00    -0.351 N 
ATOM     10  H1  UNL     1      71.972 137.670 350.938  1.00  0.00     0.163 HD
BRANCH   9  11
HETATM   11  C2  UNL     1      70.627 136.065 351.261  1.00  0.00     0.208 C 
HETATM   12 BR1  UNL     1      72.104 135.031 351.948  1.00  0.00    -0.075 Br
ENDBRANCH   9  11
ENDBRANCH   1   7
TORSDOF 2
ENDMDL
MODEL 5
REMARK VINA RESULT: -5.697798910      4.533      5.797
REMARK  2 active torsions:
REMARK  status: ('A' for Active; 'I' for Inactive)
REMARK       I    between atoms: C1_2  and  N1_3 
REMARK    1  A    between atoms: C1_2  and  C3_7 
REMARK    2  A    between atoms: N1_3  and  C2_5 
ROOT
HETATM    1  C3  UNL     1      69.879 142.018 350.821  1.00  0.00     0.078 C 
HETATM    2  C4  UNL     1      70.918 141.114 351.428  1.00  0.00     0.014 C 
HETATM    3  C5  UNL     1      70.257 139.762 351.625  1.00  0.00     0.001 C 
HETATM    4  C6  UNL     1      70.035 139.161 350.258  1.00  0.00     0.000 C 
HETATM    5  C7  UNL     1      69.127 140.059 349.454  1.00  0.00     0.001 C 
HETATM    6  C8  UNL     1      69.612 141.483 349.409  1.00  0.00     0.014 C 
ENDROOT
BRANCH   1   7
HETATM    7  C1  UNL     1      70.288 143.420 350.747  1.00  0.00     0.222 C 
HETATM    8  O1  UNL     1      70.820 143.939 351.758  1.00  0.00    -0.273 OA
HETATM    9  N1  UNL     1      70.103 144.207 349.580  1.00  0.00    -0.351 N 
ATOM     10  H1  UNL     1      69.670 143.780 348.762  1.00  0.00     0.163 HD
BRANCH   9  11
HETATM   11  C2  UNL     1      70.505 145.575 349.516  1.00  0.00     0.208 C 
HETATM   12 BR1  UNL     1      69.136 146.791 350.121  1.00  0.00    -0.075 Br
ENDBRANCH   9  11
ENDBRANCH   1   7
TORSDOF 2
ENDMDL
