MODEL 1
REMARK VINA RESULT: -7.450172983      0.000      0.000
REMARK  2 active torsions:
REMARK  status: ('A' for Active; 'I' for Inactive)
REMARK    1  A    between atoms: N2_7  and  C5_8 
REMARK    2  A    between atoms: C5_8  and  C7_10 
ROOT
HETATM    1  C5  UNL     1      70.181 142.359 349.028  1.00  0.00     0.090 C 
HETATM    2  C6  UNL     1      71.433 142.606 348.227  1.00  0.00     0.033 C 
ENDROOT
BRANCH   1   3
HETATM    3  N2  UNL     1      70.359 141.463 350.114  1.00  0.00    -0.341 N 
HETATM    4  C2  UNL     1      69.709 140.271 350.283  1.00  0.00     0.024 A 
HETATM    5  C1  UNL     1      68.699 139.640 349.418  1.00  0.00     0.070 C 
HETATM    6  C3  UNL     1      70.199 139.756 351.462  1.00  0.00     0.113 A 
HETATM    7  N1  UNL     1      71.102 140.572 352.004  1.00  0.00    -0.360 N 
HETATM    8  C4  UNL     1      71.183 141.628 351.147  1.00  0.00     0.183 A 
ATOM      9  H1  UNL     1      71.620 140.436 352.872  1.00  0.00     0.166 HD
ENDBRANCH   1   3
BRANCH   1  10
HETATM   10  C7  UNL     1      69.610 143.716 349.378  1.00  0.00     0.009 C 
HETATM   11  C8  UNL     1      70.637 144.727 349.788  1.00  0.00     0.012 C 
HETATM   12  C9  UNL     1      70.024 146.106 349.517  1.00  0.00     0.079 C 
HETATM   13  C10 UNL     1      68.630 146.111 350.044  1.00  0.00     0.243 C 
HETATM   14  F1  UNL     1      68.425 147.302 350.714  1.00  0.00    -0.206 F 
HETATM   15  F2  UNL     1      67.721 146.068 349.013  1.00  0.00    -0.206 F 
HETATM   16  C11 UNL     1      68.331 144.997 351.008  1.00  0.00     0.079 C 
HETATM   17  C12 UNL     1      68.372 143.684 350.211  1.00  0.00     0.012 C 
ENDBRANCH   1  10
TORSDOF 2
ENDMDL
MODEL 2
REMARK VINA RESULT: -7.436060880      0.780      1.594
REMARK  2 active torsions:
REMARK  status: ('A' for Active; 'I' for Inactive)
REMARK    1  A    between atoms: N2_7  and  C5_8 
REMARK    2  A    between atoms: C5_8  and  C7_10 
ROOT
HETATM    1  C5  UNL     1      70.191 142.578 349.220  1.00  0.00     0.090 C 
HETATM    2  C6  UNL     1      71.360 142.711 348.279  1.00  0.00     0.033 C 
ENDROOT
BRANCH   1   3
HETATM    3  N2  UNL     1      70.369 141.591 350.224  1.00  0.00    -0.341 N 
HETATM    4  C2  UNL     1      69.719 140.390 350.290  1.00  0.00     0.024 A 
HETATM    5  C1  UNL     1      68.710 139.836 349.373  1.00  0.00     0.070 C 
HETATM    6  C3  UNL     1      70.209 139.774 351.420  1.00  0.00     0.113 A 
HETATM    7  N1  UNL     1      71.111 140.541 352.031  1.00  0.00    -0.360 N 
HETATM    8  C4  UNL     1      71.193 141.666 351.268  1.00  0.00     0.183 A 
ATOM      9  H1  UNL     1      71.629 140.330 352.884  1.00  0.00     0.166 HD
ENDBRANCH   1   3
BRANCH   1  10
HETATM   10  C7  UNL     1      69.865 143.971 349.713  1.00  0.00     0.009 C 
HETATM   11  C8  UNL     1      68.451 144.396 349.458  1.00  0.00     0.012 C 
HETATM   12  C9  UNL     1      68.127 145.481 350.492  1.00  0.00     0.079 C 
HETATM   13  C10 UNL     1      69.266 146.443 350.535  1.00  0.00     0.243 C 
HETATM   14  F1  UNL     1      68.749 147.723 350.564  1.00  0.00    -0.206 F 
HETATM   15  F2  UNL     1      69.997 146.278 351.688  1.00  0.00    -0.206 F 
HETATM   16  C11 UNL     1      70.190 146.358 349.352  1.00  0.00     0.079 C 
HETATM   17  C12 UNL     1      70.907 145.001 349.432  1.00  0.00     0.012 C 
ENDBRANCH   1  10
TORSDOF 2
ENDMDL
MODEL 3
REMARK VINA RESULT: -6.591763563      3.149      5.360
REMARK  2 active torsions:
REMARK  status: ('A' for Active; 'I' for Inactive)
REMARK    1  A    between atoms: N2_7  and  C5_8 
REMARK    2  A    between atoms: C5_8  and  C7_10 
ROOT
HETATM    1  C5  UNL     1      69.979 144.306 351.008  1.00  0.00     0.090 C 
HETATM    2  C6  UNL     1      70.994 144.230 352.118  1.00  0.00     0.033 C 
ENDROOT
BRANCH   1   3
HETATM    3  N2  UNL     1      70.265 145.296 350.032  1.00  0.00    -0.341 N 
HETATM    4  C2  UNL     1      69.406 146.270 349.605  1.00  0.00     0.024 A 
HETATM    5  C1  UNL     1      68.020 146.529 350.030  1.00  0.00     0.070 C 
HETATM    6  C3  UNL     1      70.110 146.989 348.666  1.00  0.00     0.113 A 
HETATM    7  N1  UNL     1      71.339 146.498 348.510  1.00  0.00    -0.360 N 
HETATM    8  C4  UNL     1      71.411 145.444 349.370  1.00  0.00     0.183 A 
ATOM      9  H1  UNL     1      72.068 146.838 347.882  1.00  0.00     0.166 HD
ENDBRANCH   1   3
BRANCH   1  10
HETATM   10  C7  UNL     1      69.794 142.898 350.486  1.00  0.00     0.009 C 
HETATM   11  C8  UNL     1      68.379 142.558 350.126  1.00  0.00     0.012 C 
HETATM   12  C9  UNL     1      68.450 141.418 349.103  1.00  0.00     0.079 C 
HETATM   13  C10 UNL     1      69.425 140.404 349.598  1.00  0.00     0.243 C 
HETATM   14  F1  UNL     1      68.878 139.150 349.407  1.00  0.00    -0.206 F 
HETATM   15  F2  UNL     1      70.589 140.451 348.867  1.00  0.00    -0.206 F 
HETATM   16  C11 UNL     1      69.758 140.531 351.059  1.00  0.00     0.079 C 
HETATM   17  C12 UNL     1      70.538 141.843 351.235  1.00  0.00     0.012 C 
ENDBRANCH   1  10
TORSDOF 2
ENDMDL
MODEL 4
REMARK VINA RESULT: -6.435338349      3.140      5.403
REMARK  2 active torsions:
REMARK  status: ('A' for Active; 'I' for Inactive)
REMARK    1  A    between atoms: N2_7  and  C5_8 
REMARK    2  A    between atoms: C5_8  and  C7_10 
ROOT
HETATM    1  C5  UNL     1      69.795 144.312 351.211  1.00  0.00     0.090 C 
HETATM    2  C6  UNL     1      70.578 144.466 352.489  1.00  0.00     0.033 C 
ENDROOT
BRANCH   1   3
HETATM    3  N2  UNL     1      70.124 145.265 350.213  1.00  0.00    -0.341 N 
HETATM    4  C2  UNL     1      69.271 146.188 349.675  1.00  0.00     0.024 A 
HETATM    5  C1  UNL     1      67.849 146.418 349.979  1.00  0.00     0.070 C 
HETATM    6  C3  UNL     1      70.024 146.887 348.759  1.00  0.00     0.113 A 
HETATM    7  N1  UNL     1      71.277 146.433 348.721  1.00  0.00    -0.360 N 
HETATM    8  C4  UNL     1      71.314 145.423 349.635  1.00  0.00     0.183 A 
ATOM      9  H1  UNL     1      72.041 146.769 348.136  1.00  0.00     0.166 HD
ENDBRANCH   1   3
BRANCH   1  10
HETATM   10  C7  UNL     1      69.908 142.860 350.800  1.00  0.00     0.009 C 
HETATM   11  C8  UNL     1      71.121 142.162 351.338  1.00  0.00     0.012 C 
HETATM   12  C9  UNL     1      70.790 140.666 351.361  1.00  0.00     0.079 C 
HETATM   13  C10 UNL     1      70.160 140.304 350.059  1.00  0.00     0.243 C 
HETATM   14  F1  UNL     1      70.715 139.115 349.626  1.00  0.00    -0.206 F 
HETATM   15  F2  UNL     1      68.811 140.086 350.215  1.00  0.00    -0.206 F 
HETATM   16  C11 UNL     1      70.370 141.320 348.970  1.00  0.00     0.079 C 
HETATM   17  C12 UNL     1      69.589 142.581 349.369  1.00  0.00     0.012 C 
ENDBRANCH   1  10
TORSDOF 2
ENDMDL
MODEL 5
REMARK VINA RESULT: -6.399928440      1.069      2.194
REMARK  2 active torsions:
REMARK  status: ('A' for Active; 'I' for Inactive)
REMARK    1  A    between atoms: N2_7  and  C5_8 
REMARK    2  A    between atoms: C5_8  and  C7_10 
ROOT
HETATM    1  C5  UNL     1      70.064 142.441 348.918  1.00  0.00     0.090 C 
HETATM    2  C6  UNL     1      71.388 142.562 348.209  1.00  0.00     0.033 C 
ENDROOT
BRANCH   1   3
HETATM    3  N2  UNL     1      69.962 141.302 349.758  1.00  0.00    -0.341 N 
HETATM    4  C2  UNL     1      70.587 141.137 350.963  1.00  0.00     0.024 A 
HETATM    5  C1  UNL     1      71.491 142.060 351.667  1.00  0.00     0.070 C 
HETATM    6  C3  UNL     1      70.194 139.895 351.408  1.00  0.00     0.113 A 
HETATM    7  N1  UNL     1      69.372 139.311 350.537  1.00  0.00    -0.360 N 
HETATM    8  C4  UNL     1      69.243 140.206 349.518  1.00  0.00     0.183 A 
ATOM      9  H1  UNL     1      68.933 138.394 350.616  1.00  0.00     0.166 HD
ENDBRANCH   1   3
BRANCH   1  10
HETATM   10  C7  UNL     1      69.797 143.776 349.579  1.00  0.00     0.009 C 
HETATM   11  C8  UNL     1      68.382 144.252 349.451  1.00  0.00     0.012 C 
HETATM   12  C9  UNL     1      68.139 145.220 350.615  1.00  0.00     0.079 C 
HETATM   13  C10 UNL     1      69.301 146.150 350.701  1.00  0.00     0.243 C 
HETATM   14  F1  UNL     1      68.817 147.429 350.900  1.00  0.00    -0.206 F 
HETATM   15  F2  UNL     1      70.089 145.845 351.787  1.00  0.00    -0.206 F 
HETATM   16  C11 UNL     1      70.159 146.182 349.467  1.00  0.00     0.079 C 
HETATM   17  C12 UNL     1      70.847 144.813 349.356  1.00  0.00     0.012 C 
ENDBRANCH   1  10
TORSDOF 2
ENDMDL
