MODEL 1
REMARK VINA RESULT: -4.917862850      0.000      0.000
REMARK  3 active torsions:
REMARK  status: ('A' for Active; 'I' for Inactive)
REMARK    1  A    between atoms: C2_2  and  N1_3 
REMARK    2  A    between atoms: C2_2  and  C3_7 
REMARK    3  A    between atoms: C7_12  and  C8_13 
ROOT
HETATM    1  C3  UNL     1      69.253 142.184 350.690  1.00  0.00     0.047 C 
HETATM    2  C4  UNL     1      68.376 142.472 349.464  1.00  0.00     0.035 C 
HETATM    3  C5  UNL     1      68.830 141.391 348.502  1.00  0.00     0.106 C 
HETATM    4 CL1  UNL     1      67.372 140.735 347.703  1.00  0.00    -0.121 Cl
HETATM    5  C6  UNL     1      69.379 140.341 349.387  1.00  0.00    -0.003 C 
HETATM    6  C7  UNL     1      69.620 140.770 350.614  1.00  0.00    -0.066 C 
ENDROOT
BRANCH   1   7
HETATM    7  C2  UNL     1      70.420 143.131 350.606  1.00  0.00     0.187 C 
HETATM    8  C1  UNL     1      69.976 144.420 349.950  1.00  0.00     0.040 C 
BRANCH   7   9
HETATM    9  N1  UNL     1      71.046 143.411 351.851  1.00  0.00    -0.075 N 
ATOM     10  H13 UNL     1      71.941 143.886 351.731  1.00  0.00     0.274 HD
ATOM     11  H12 UNL     1      70.558 144.140 352.369  1.00  0.00     0.274 HD
ATOM     12  H11 UNL     1      71.139 142.552 352.394  1.00  0.00     0.274 HD
ENDBRANCH   7   9
ENDBRANCH   1   7
BRANCH   6  13
HETATM   13  C8  UNL     1      70.172 139.996 351.780  1.00  0.00     0.119 C 
HETATM   14 BR1  UNL     1      69.803 138.099 351.559  1.00  0.00    -0.092 Br
ENDBRANCH   6  13
TORSDOF 3
ENDMDL
MODEL 2
REMARK VINA RESULT: -4.840932528      2.528      3.485
REMARK  3 active torsions:
REMARK  status: ('A' for Active; 'I' for Inactive)
REMARK    1  A    between atoms: C2_2  and  N1_3 
REMARK    2  A    between atoms: C2_2  and  C3_7 
REMARK    3  A    between atoms: C7_12  and  C8_13 
ROOT
HETATM    1  C3  UNL     1      70.353 141.602 349.918  1.00  0.00     0.047 C 
HETATM    2  C4  UNL     1      69.641 140.511 349.107  1.00  0.00     0.035 C 
HETATM    3  C5  UNL     1      68.204 140.995 349.138  1.00  0.00     0.106 C 
HETATM    4 CL1  UNL     1      67.522 140.759 347.502  1.00  0.00    -0.121 Cl
HETATM    5  C6  UNL     1      68.329 142.450 349.376  1.00  0.00    -0.003 C 
HETATM    6  C7  UNL     1      69.527 142.803 349.812  1.00  0.00    -0.066 C 
ENDROOT
BRANCH   1   7
HETATM    7  C2  UNL     1      70.489 141.066 351.318  1.00  0.00     0.187 C 
HETATM    8  C1  UNL     1      70.157 139.590 351.327  1.00  0.00     0.040 C 
BRANCH   7   9
HETATM    9  N1  UNL     1      71.763 141.280 351.912  1.00  0.00    -0.075 N 
ATOM     10  H13 UNL     1      72.230 140.403 352.142  1.00  0.00     0.274 HD
ATOM     11  H12 UNL     1      72.443 141.639 351.242  1.00  0.00     0.274 HD
ATOM     12  H11 UNL     1      71.670 141.888 352.726  1.00  0.00     0.274 HD
ENDBRANCH   7   9
ENDBRANCH   1   7
BRANCH   6  13
HETATM   13  C8  UNL     1      70.022 144.181 350.157  1.00  0.00     0.119 C 
HETATM   14 BR1  UNL     1      68.642 145.501 349.788  1.00  0.00    -0.092 Br
ENDBRANCH   6  13
TORSDOF 3
ENDMDL
MODEL 3
REMARK VINA RESULT: -4.392321195      3.521      4.273
REMARK  3 active torsions:
REMARK  status: ('A' for Active; 'I' for Inactive)
REMARK    1  A    between atoms: C2_2  and  N1_3 
REMARK    2  A    between atoms: C2_2  and  C3_7 
REMARK    3  A    between atoms: C7_12  and  C8_13 
ROOT
HETATM    1  C3  UNL     1      70.426 143.709 349.458  1.00  0.00     0.047 C 
HETATM    2  C4  UNL     1      70.612 142.187 349.445  1.00  0.00     0.035 C 
HETATM    3  C5  UNL     1      71.155 141.933 350.838  1.00  0.00     0.106 C 
HETATM    4 CL1  UNL     1      70.346 140.470 351.473  1.00  0.00    -0.121 Cl
HETATM    5  C6  UNL     1      70.678 143.095 351.618  1.00  0.00    -0.003 C 
HETATM    6  C7  UNL     1      70.265 144.096 350.859  1.00  0.00    -0.066 C 
ENDROOT
BRANCH   1   7
HETATM    7  C2  UNL     1      71.645 144.289 348.792  1.00  0.00     0.187 C 
HETATM    8  C1  UNL     1      71.998 143.458 347.578  1.00  0.00     0.040 C 
BRANCH   7   9
HETATM    9  N1  UNL     1      71.525 145.657 348.424  1.00  0.00    -0.075 N 
ATOM     10  H13 UNL     1      72.255 145.944 347.773  1.00  0.00     0.274 HD
ATOM     11  H12 UNL     1      70.717 145.823 347.825  1.00  0.00     0.274 HD
ATOM     12  H11 UNL     1      71.507 146.241 349.261  1.00  0.00     0.274 HD
ENDBRANCH   7   9
ENDBRANCH   1   7
BRANCH   6  13
HETATM   13  C8  UNL     1      69.715 145.428 351.291  1.00  0.00     0.119 C 
HETATM   14 BR1  UNL     1      68.304 145.995 350.080  1.00  0.00    -0.092 Br
ENDBRANCH   6  13
TORSDOF 3
ENDMDL
MODEL 4
REMARK VINA RESULT: -4.227400724      2.874      3.404
REMARK  3 active torsions:
REMARK  status: ('A' for Active; 'I' for Inactive)
REMARK    1  A    between atoms: C2_2  and  N1_3 
REMARK    2  A    between atoms: C2_2  and  C3_7 
REMARK    3  A    between atoms: C7_12  and  C8_13 
ROOT
HETATM    1  C3  UNL     1      69.561 140.499 349.382  1.00  0.00     0.047 C 
HETATM    2  C4  UNL     1      70.504 141.677 349.661  1.00  0.00     0.035 C 
HETATM    3  C5  UNL     1      70.541 141.688 351.177  1.00  0.00     0.106 C 
HETATM    4 CL1  UNL     1      72.236 141.971 351.672  1.00  0.00    -0.121 Cl
HETATM    5  C6  UNL     1      70.182 140.301 351.547  1.00  0.00    -0.003 C 
HETATM    6  C7  UNL     1      69.634 139.624 350.552  1.00  0.00    -0.066 C 
ENDROOT
BRANCH   1   7
HETATM    7  C2  UNL     1      68.201 141.096 349.139  1.00  0.00     0.187 C 
HETATM    8  C1  UNL     1      68.282 142.601 349.262  1.00  0.00     0.040 C 
BRANCH   7   9
HETATM    9  N1  UNL     1      67.614 140.742 347.894  1.00  0.00    -0.075 N 
ATOM     10  H13 UNL     1      67.913 141.360 347.140  1.00  0.00     0.274 HD
ATOM     11  H12 UNL     1      67.990 139.868 347.528  1.00  0.00     0.274 HD
ATOM     12  H11 UNL     1      66.598 140.713 347.985  1.00  0.00     0.274 HD
ENDBRANCH   7   9
ENDBRANCH   1   7
BRANCH   6  13
HETATM   13  C8  UNL     1      69.148 138.201 350.551  1.00  0.00     0.119 C 
HETATM   14 BR1  UNL     1      70.502 137.030 351.309  1.00  0.00    -0.092 Br
ENDBRANCH   6  13
TORSDOF 3
ENDMDL
MODEL 5
REMARK VINA RESULT: -4.081745566      3.010      3.872
REMARK  3 active torsions:
REMARK  status: ('A' for Active; 'I' for Inactive)
REMARK    1  A    between atoms: C2_2  and  N1_3 
REMARK    2  A    between atoms: C2_2  and  C3_7 
REMARK    3  A    between atoms: C7_12  and  C8_13 
ROOT
HETATM    1  C3  UNL     1      69.846 143.450 351.001  1.00  0.00     0.047 C 
HETATM    2  C4  UNL     1      70.302 144.914 351.059  1.00  0.00     0.035 C 
HETATM    3  C5  UNL     1      69.792 145.447 349.734  1.00  0.00     0.106 C 
HETATM    4 CL1  UNL     1      69.095 147.065 350.037  1.00  0.00    -0.121 Cl
HETATM    5  C6  UNL     1      68.684 144.528 349.390  1.00  0.00    -0.003 C 
HETATM    6  C7  UNL     1      68.702 143.408 350.092  1.00  0.00    -0.066 C 
ENDROOT
BRANCH   1   7
HETATM    7  C2  UNL     1      71.037 142.656 350.535  1.00  0.00     0.187 C 
HETATM    8  C1  UNL     1      71.066 141.324 351.252  1.00  0.00     0.040 C 
BRANCH   7   9
HETATM    9  N1  UNL     1      71.099 142.453 349.130  1.00  0.00    -0.075 N 
ATOM     10  H13 UNL     1      72.050 142.262 348.812  1.00  0.00     0.274 HD
ATOM     11  H12 UNL     1      70.670 141.571 348.851  1.00  0.00     0.274 HD
ATOM     12  H11 UNL     1      70.686 143.250 348.644  1.00  0.00     0.274 HD
ENDBRANCH   7   9
ENDBRANCH   1   7
BRANCH   6  13
HETATM   13  C8  UNL     1      67.745 142.250 350.021  1.00  0.00     0.119 C 
HETATM   14 BR1  UNL     1      68.131 141.156 348.460  1.00  0.00    -0.092 Br
ENDBRANCH   6  13
TORSDOF 3
ENDMDL
