MODEL 1
REMARK VINA RESULT: -6.313718063      0.000      0.000
REMARK  2 active torsions:
REMARK  status: ('A' for Active; 'I' for Inactive)
REMARK    1  A    between atoms: C2_2  and  C3_3 
REMARK       I    between atoms: C3_3  and  N1_5 
REMARK    2  A    between atoms: N1_5  and  C4_7 
ROOT
HETATM    1  C4  UNL     1      69.070 144.289 349.429  1.00  0.00     0.120 C 
HETATM    2  C5  UNL     1      68.444 144.699 350.745  1.00  0.00     0.042 C 
HETATM    3  C6  UNL     1      67.909 146.111 350.568  1.00  0.00     0.019 C 
HETATM    4  C7  UNL     1      69.198 146.884 350.298  1.00  0.00     0.035 C 
HETATM    5  C8  UNL     1      69.553 146.714 348.828  1.00  0.00     0.040 C 
HETATM    6  C9  UNL     1      70.128 145.367 349.229  1.00  0.00     0.099 C 
HETATM    7 CL1  UNL     1      71.563 144.866 348.368  1.00  0.00    -0.113 Cl
HETATM    8  C10 UNL     1      70.342 145.954 350.609  1.00  0.00     0.153 C 
HETATM    9  F1  UNL     1      71.525 146.452 350.924  1.00  0.00    -0.235 F 
HETATM   10  C11 UNL     1      69.675 144.991 351.515  1.00  0.00    -0.042 C 
HETATM   11  C12 UNL     1      70.086 144.548 352.661  1.00  0.00     0.018 C 
ENDROOT
BRANCH   1  12
HETATM   12  N1  UNL     1      69.799 143.043 349.669  1.00  0.00    -0.350 N 
HETATM   13  C3  UNL     1      69.208 141.784 349.411  1.00  0.00     0.240 C 
HETATM   14  O1  UNL     1      68.035 141.765 348.967  1.00  0.00    -0.269 OA
ATOM     15  H1  UNL     1      70.753 143.084 350.030  1.00  0.00     0.163 HD
BRANCH  13  16
HETATM   16  C2  UNL     1      69.942 140.555 349.655  1.00  0.00     0.064 C 
HETATM   17  C1  UNL     1      70.404 140.308 350.870  1.00  0.00     0.017 C 
ENDBRANCH  13  16
ENDBRANCH   1  12
TORSDOF 2
ENDMDL
MODEL 2
REMARK VINA RESULT: -5.124025408      2.614      4.739
REMARK  2 active torsions:
REMARK  status: ('A' for Active; 'I' for Inactive)
REMARK    1  A    between atoms: C2_2  and  C3_3 
REMARK       I    between atoms: C3_3  and  N1_5 
REMARK    2  A    between atoms: N1_5  and  C4_7 
ROOT
HETATM    1  C4  UNL     1      69.471 143.370 349.086  1.00  0.00     0.120 C 
HETATM    2  C5  UNL     1      70.781 142.608 349.057  1.00  0.00     0.042 C 
HETATM    3  C6  UNL     1      70.531 141.314 348.299  1.00  0.00     0.019 C 
HETATM    4  C7  UNL     1      69.508 140.633 349.205  1.00  0.00     0.035 C 
HETATM    5  C8  UNL     1      68.136 141.213 348.891  1.00  0.00     0.040 C 
HETATM    6  C9  UNL     1      68.541 142.380 349.775  1.00  0.00     0.099 C 
HETATM    7 CL1  UNL     1      67.264 143.085 350.734  1.00  0.00    -0.113 Cl
HETATM    8  C10 UNL     1      69.467 141.418 350.490  1.00  0.00     0.153 C 
HETATM    9  F1  UNL     1      69.058 140.833 351.603  1.00  0.00    -0.235 F 
HETATM   10  C11 UNL     1      70.786 142.089 350.444  1.00  0.00    -0.042 C 
HETATM   11  C12 UNL     1      71.676 142.178 351.381  1.00  0.00     0.018 C 
ENDROOT
BRANCH   1  12
HETATM   12  N1  UNL     1      69.644 144.483 350.020  1.00  0.00    -0.350 N 
HETATM   13  C3  UNL     1      68.999 145.725 349.810  1.00  0.00     0.240 C 
HETATM   14  O1  UNL     1      68.272 145.846 348.796  1.00  0.00    -0.269 OA
ATOM     15  H1  UNL     1      70.240 144.361 350.839  1.00  0.00     0.163 HD
BRANCH  13  16
HETATM   16  C2  UNL     1      69.179 146.822 350.744  1.00  0.00     0.064 C 
HETATM   17  C1  UNL     1      70.249 146.840 351.523  1.00  0.00     0.017 C 
ENDBRANCH  13  16
ENDBRANCH   1  12
TORSDOF 2
ENDMDL
MODEL 3
REMARK VINA RESULT: -5.060679425      1.591      2.004
REMARK  2 active torsions:
REMARK  status: ('A' for Active; 'I' for Inactive)
REMARK    1  A    between atoms: C2_2  and  C3_3 
REMARK       I    between atoms: C3_3  and  N1_5 
REMARK    2  A    between atoms: N1_5  and  C4_7 
ROOT
HETATM    1  C4  UNL     1      69.872 143.956 349.445  1.00  0.00     0.120 C 
HETATM    2  C5  UNL     1      68.654 144.846 349.307  1.00  0.00     0.042 C 
HETATM    3  C6  UNL     1      69.154 146.277 349.189  1.00  0.00     0.019 C 
HETATM    4  C7  UNL     1      69.833 146.466 350.544  1.00  0.00     0.035 C 
HETATM    5  C8  UNL     1      71.225 145.854 350.465  1.00  0.00     0.040 C 
HETATM    6  C9  UNL     1      70.539 144.519 350.693  1.00  0.00     0.099 C 
HETATM    7 CL1  UNL     1      71.423 143.366 351.662  1.00  0.00    -0.113 Cl
HETATM    8  C10 UNL     1      69.442 145.289 351.399  1.00  0.00     0.153 C 
HETATM    9  F1  UNL     1      69.472 145.397 352.717  1.00  0.00    -0.235 F 
HETATM   10  C11 UNL     1      68.203 144.853 350.717  1.00  0.00    -0.042 C 
HETATM   11  C12 UNL     1      67.054 144.565 351.242  1.00  0.00     0.018 C 
ENDROOT
BRANCH   1  12
HETATM   12  N1  UNL     1      69.390 142.623 349.807  1.00  0.00    -0.350 N 
HETATM   13  C3  UNL     1      69.879 141.463 349.158  1.00  0.00     0.240 C 
HETATM   14  O1  UNL     1      70.741 141.612 348.259  1.00  0.00    -0.269 OA
ATOM     15  H1  UNL     1      68.689 142.527 350.541  1.00  0.00     0.163 HD
BRANCH  13  16
HETATM   16  C2  UNL     1      69.392 140.146 349.526  1.00  0.00     0.064 C 
HETATM   17  C1  UNL     1      70.080 139.421 350.393  1.00  0.00     0.017 C 
ENDBRANCH  13  16
ENDBRANCH   1  12
TORSDOF 2
ENDMDL
MODEL 4
REMARK VINA RESULT: -4.937963716      2.224      4.759
REMARK  2 active torsions:
REMARK  status: ('A' for Active; 'I' for Inactive)
REMARK    1  A    between atoms: C2_2  and  C3_3 
REMARK       I    between atoms: C3_3  and  N1_5 
REMARK    2  A    between atoms: N1_5  and  C4_7 
ROOT
HETATM    1  C4  UNL     1      68.878 142.861 350.057  1.00  0.00     0.120 C 
HETATM    2  C5  UNL     1      69.139 141.980 348.852  1.00  0.00     0.042 C 
HETATM    3  C6  UNL     1      69.054 140.537 349.325  1.00  0.00     0.019 C 
HETATM    4  C7  UNL     1      70.213 140.482 350.318  1.00  0.00     0.035 C 
HETATM    5  C8  UNL     1      69.730 141.061 351.641  1.00  0.00     0.040 C 
HETATM    6  C9  UNL     1      69.976 142.424 351.016  1.00  0.00     0.099 C 
HETATM    7 CL1  UNL     1      70.570 143.659 352.099  1.00  0.00    -0.113 Cl
HETATM    8  C10 UNL     1      71.008 141.749 350.136  1.00  0.00     0.153 C 
HETATM    9  F1  UNL     1      72.282 141.780 350.491  1.00  0.00    -0.235 F 
HETATM   10  C11 UNL     1      70.609 142.129 348.762  1.00  0.00    -0.042 C 
HETATM   11  C12 UNL     1      71.368 142.488 347.774  1.00  0.00     0.018 C 
ENDROOT
BRANCH   1  12
HETATM   12  N1  UNL     1      69.203 144.232 349.663  1.00  0.00    -0.350 N 
HETATM   13  C3  UNL     1      68.474 145.335 350.170  1.00  0.00     0.240 C 
HETATM   14  O1  UNL     1      67.537 145.102 350.969  1.00  0.00    -0.269 OA
ATOM     15  H1  UNL     1      69.971 144.396 349.012  1.00  0.00     0.163 HD
BRANCH  13  16
HETATM   16  C2  UNL     1      68.807 146.691 349.770  1.00  0.00     0.064 C 
HETATM   17  C1  UNL     1      69.878 146.900 349.021  1.00  0.00     0.017 C 
ENDBRANCH  13  16
ENDBRANCH   1  12
TORSDOF 2
ENDMDL
MODEL 5
REMARK VINA RESULT: -4.862030025      2.398      3.411
REMARK  2 active torsions:
REMARK  status: ('A' for Active; 'I' for Inactive)
REMARK    1  A    between atoms: C2_2  and  C3_3 
REMARK       I    between atoms: C3_3  and  N1_5 
REMARK    2  A    between atoms: N1_5  and  C4_7 
ROOT
HETATM    1  C4  UNL     1      70.974 142.369 350.740  1.00  0.00     0.120 C 
HETATM    2  C5  UNL     1      70.495 142.143 349.320  1.00  0.00     0.042 C 
HETATM    3  C6  UNL     1      71.077 143.259 348.467  1.00  0.00     0.019 C 
HETATM    4  C7  UNL     1      70.416 144.485 349.091  1.00  0.00     0.035 C 
HETATM    5  C8  UNL     1      71.208 144.870 350.333  1.00  0.00     0.040 C 
HETATM    6  C9  UNL     1      70.441 143.764 351.038  1.00  0.00     0.099 C 
HETATM    7 CL1  UNL     1      70.025 144.072 352.706  1.00  0.00    -0.113 Cl
HETATM    8  C10 UNL     1      69.342 143.980 350.019  1.00  0.00     0.153 C 
HETATM    9  F1  UNL     1      68.320 144.762 350.326  1.00  0.00    -0.235 F 
HETATM   10  C11 UNL     1      69.104 142.632 349.458  1.00  0.00    -0.042 C 
HETATM   11  C12 UNL     1      67.973 142.066 349.175  1.00  0.00     0.018 C 
ENDROOT
BRANCH   1  12
HETATM   12  N1  UNL     1      70.220 141.454 351.597  1.00  0.00    -0.350 N 
HETATM   13  C3  UNL     1      70.208 140.060 351.352  1.00  0.00     0.240 C 
HETATM   14  O1  UNL     1      70.863 139.629 350.374  1.00  0.00    -0.269 OA
ATOM     15  H1  UNL     1      69.695 141.828 352.387  1.00  0.00     0.163 HD
BRANCH  13  16
HETATM   16  C2  UNL     1      69.455 139.162 352.211  1.00  0.00     0.064 C 
HETATM   17  C1  UNL     1      69.080 137.982 351.744  1.00  0.00     0.017 C 
ENDBRANCH  13  16
ENDBRANCH   1  12
TORSDOF 2
ENDMDL
