MODEL 1
REMARK VINA RESULT: -6.000057573      0.000      0.000
REMARK  3 active torsions:
REMARK  status: ('A' for Active; 'I' for Inactive)
REMARK    1  A    between atoms: C2_2  and  N1_3 
REMARK    2  A    between atoms: N1_3  and  C3_4 
REMARK    3  A    between atoms: C11_14  and  O1_16 
ROOT
HETATM    1  N1  UNL     1      69.429 142.338 349.955  1.00  0.00    -0.031 N 
HETATM    2  C9  UNL     1      70.127 142.029 348.707  1.00  0.00     0.246 C 
HETATM    3  C10 UNL     1      71.035 141.038 349.371  1.00  0.00     0.096 C 
HETATM    4  C11 UNL     1      70.134 141.328 350.579  1.00  0.00     0.226 C 
HETATM    5  C12 UNL     1      71.010 141.520 351.765  1.00  0.00     0.079 C 
ENDROOT
BRANCH   1   6
HETATM    6  C2  UNL     1      68.026 141.980 349.728  1.00  0.00     0.237 C 
HETATM    7  C1  UNL     1      67.651 141.419 348.441  1.00  0.00     0.035 C 
ENDBRANCH   1   6
BRANCH   1   8
HETATM    8  C3  UNL     1      69.567 143.742 350.313  1.00  0.00     0.199 C 
HETATM    9  C4  UNL     1      70.790 144.383 349.789  1.00  0.00     0.034 C 
HETATM   10  C5  UNL     1      70.640 145.784 349.232  1.00  0.00     0.008 C 
HETATM   11  C6  UNL     1      69.814 146.530 350.267  1.00  0.00     0.079 C 
HETATM   12  C7  UNL     1      68.426 145.982 350.019  1.00  0.00     0.245 C 
HETATM   13  F1  UNL     1      68.119 146.331 348.694  1.00  0.00    -0.206 F 
HETATM   14  F2  UNL     1      67.562 146.755 350.795  1.00  0.00    -0.206 F 
HETATM   15  C8  UNL     1      68.295 144.522 350.249  1.00  0.00     0.112 C 
ENDBRANCH   1   8
BRANCH   4  16
HETATM   16  O1  UNL     1      69.365 140.152 350.793  1.00  0.00    -0.365 OA
ATOM     17  H1  UNL     1      69.877 139.353 350.742  1.00  0.00     0.212 HD
ENDBRANCH   4  16
TORSDOF 3
ENDMDL
MODEL 2
REMARK VINA RESULT: -5.911384454      1.479      2.022
REMARK  3 active torsions:
REMARK  status: ('A' for Active; 'I' for Inactive)
REMARK    1  A    between atoms: C2_2  and  N1_3 
REMARK    2  A    between atoms: N1_3  and  C3_4 
REMARK    3  A    between atoms: C11_14  and  O1_16 
ROOT
HETATM    1  N1  UNL     1      69.411 142.589 349.650  1.00  0.00    -0.031 N 
HETATM    2  C9  UNL     1      70.274 141.936 348.665  1.00  0.00     0.246 C 
HETATM    3  C10 UNL     1      71.223 141.439 349.714  1.00  0.00     0.096 C 
HETATM    4  C11 UNL     1      70.167 142.027 350.659  1.00  0.00     0.226 C 
HETATM    5  C12 UNL     1      70.878 142.801 351.711  1.00  0.00     0.079 C 
ENDROOT
BRANCH   1   6
HETATM    6  C2  UNL     1      68.098 141.952 349.517  1.00  0.00     0.237 C 
HETATM    7  C1  UNL     1      67.843 141.122 348.352  1.00  0.00     0.035 C 
ENDBRANCH   1   6
BRANCH   1   8
HETATM    8  C3  UNL     1      69.330 144.024 349.423  1.00  0.00     0.199 C 
HETATM    9  C4  UNL     1      68.496 144.747 350.404  1.00  0.00     0.034 C 
HETATM   10  C5  UNL     1      69.028 146.073 350.908  1.00  0.00     0.008 C 
HETATM   11  C6  UNL     1      69.486 146.810 349.659  1.00  0.00     0.079 C 
HETATM   12  C7  UNL     1      70.779 146.098 349.327  1.00  0.00     0.245 C 
HETATM   13  F1  UNL     1      71.612 146.302 350.439  1.00  0.00    -0.206 F 
HETATM   14  F2  UNL     1      71.373 146.836 348.304  1.00  0.00    -0.206 F 
HETATM   15  C8  UNL     1      70.620 144.657 349.014  1.00  0.00     0.112 C 
ENDBRANCH   1   8
BRANCH   4  16
HETATM   16  O1  UNL     1      69.535 140.920 351.287  1.00  0.00    -0.365 OA
ATOM     17  H1  UNL     1      69.696 140.874 352.223  1.00  0.00     0.212 HD
ENDBRANCH   4  16
TORSDOF 3
ENDMDL
MODEL 3
REMARK VINA RESULT: -5.690068398      2.849      4.689
REMARK  3 active torsions:
REMARK  status: ('A' for Active; 'I' for Inactive)
REMARK    1  A    between atoms: C2_2  and  N1_3 
REMARK    2  A    between atoms: N1_3  and  C3_4 
REMARK    3  A    between atoms: C11_14  and  O1_16 
ROOT
HETATM    1  N1  UNL     1      69.872 145.485 349.661  1.00  0.00    -0.031 N 
HETATM    2  C9  UNL     1      68.630 146.123 349.224  1.00  0.00     0.246 C 
HETATM    3  C10 UNL     1      68.190 146.404 350.629  1.00  0.00     0.096 C 
HETATM    4  C11 UNL     1      69.586 145.856 350.960  1.00  0.00     0.226 C 
HETATM    5  C12 UNL     1      69.446 144.909 352.097  1.00  0.00     0.079 C 
ENDROOT
BRANCH   1   6
HETATM    6  C2  UNL     1      70.957 146.280 349.080  1.00  0.00     0.237 C 
HETATM    7  C1  UNL     1      70.620 147.327 348.130  1.00  0.00     0.035 C 
ENDBRANCH   1   6
BRANCH   1   8
HETATM    8  C3  UNL     1      69.942 144.097 349.230  1.00  0.00     0.199 C 
HETATM    9  C4  UNL     1      71.151 143.381 349.685  1.00  0.00     0.034 C 
HETATM   10  C5  UNL     1      70.959 141.961 350.176  1.00  0.00     0.008 C 
HETATM   11  C6  UNL     1      70.074 141.302 349.130  1.00  0.00     0.079 C 
HETATM   12  C7  UNL     1      68.717 141.892 349.446  1.00  0.00     0.245 C 
HETATM   13  F1  UNL     1      68.432 141.489 350.760  1.00  0.00    -0.206 F 
HETATM   14  F2  UNL     1      67.801 141.195 348.658  1.00  0.00    -0.206 F 
HETATM   15  C8  UNL     1      68.641 143.366 349.293  1.00  0.00     0.112 C 
ENDBRANCH   1   8
BRANCH   4  16
HETATM   16  O1  UNL     1      70.351 146.966 351.411  1.00  0.00    -0.365 OA
ATOM     17  H1  UNL     1      70.283 147.116 352.346  1.00  0.00     0.212 HD
ENDBRANCH   4  16
TORSDOF 3
ENDMDL
MODEL 4
REMARK VINA RESULT: -5.392311474      3.016      4.766
REMARK  3 active torsions:
REMARK  status: ('A' for Active; 'I' for Inactive)
REMARK    1  A    between atoms: C2_2  and  N1_3 
REMARK    2  A    between atoms: N1_3  and  C3_4 
REMARK    3  A    between atoms: C11_14  and  O1_16 
ROOT
HETATM    1  N1  UNL     1      69.631 145.020 349.933  1.00  0.00    -0.031 N 
HETATM    2  C9  UNL     1      69.662 145.499 351.315  1.00  0.00     0.246 C 
HETATM    3  C10 UNL     1      70.609 146.613 350.988  1.00  0.00     0.096 C 
HETATM    4  C11 UNL     1      70.378 146.117 349.554  1.00  0.00     0.226 C 
HETATM    5  C12 UNL     1      71.701 146.046 348.879  1.00  0.00     0.079 C 
ENDROOT
BRANCH   1   6
HETATM    6  C2  UNL     1      68.234 145.123 349.504  1.00  0.00     0.237 C 
HETATM    7  C1  UNL     1      67.272 145.731 350.408  1.00  0.00     0.035 C 
ENDBRANCH   1   6
BRANCH   1   8
HETATM    8  C3  UNL     1      70.119 143.653 349.828  1.00  0.00     0.199 C 
HETATM    9  C4  UNL     1      71.085 143.272 350.878  1.00  0.00     0.034 C 
HETATM   10  C5  UNL     1      70.928 141.893 351.482  1.00  0.00     0.008 C 
HETATM   11  C6  UNL     1      70.742 140.964 350.293  1.00  0.00     0.079 C 
HETATM   12  C7  UNL     1      69.315 141.254 349.885  1.00  0.00     0.245 C 
HETATM   13  F1  UNL     1      68.531 140.908 350.998  1.00  0.00    -0.206 F 
HETATM   14  F2  UNL     1      68.990 140.302 348.918  1.00  0.00    -0.206 F 
HETATM   15  C8  UNL     1      69.074 142.653 349.455  1.00  0.00     0.112 C 
ENDBRANCH   1   8
BRANCH   4  16
HETATM   16  O1  UNL     1      69.614 147.124 348.905  1.00  0.00    -0.365 OA
ATOM     17  H1  UNL     1      70.019 147.453 348.111  1.00  0.00     0.212 HD
ENDBRANCH   4  16
TORSDOF 3
ENDMDL
MODEL 5
REMARK VINA RESULT: -5.313813464      3.144      4.804
REMARK  3 active torsions:
REMARK  status: ('A' for Active; 'I' for Inactive)
REMARK    1  A    between atoms: C2_2  and  N1_3 
REMARK    2  A    between atoms: N1_3  and  C3_4 
REMARK    3  A    between atoms: C11_14  and  O1_16 
ROOT
HETATM    1  N1  UNL     1      69.486 145.412 350.063  1.00  0.00    -0.031 N 
HETATM    2  C9  UNL     1      69.916 146.189 351.226  1.00  0.00     0.246 C 
HETATM    3  C10 UNL     1      71.193 146.613 350.565  1.00  0.00     0.096 C 
HETATM    4  C11 UNL     1      70.569 145.898 349.359  1.00  0.00     0.226 C 
HETATM    5  C12 UNL     1      71.622 145.050 348.739  1.00  0.00     0.079 C 
ENDROOT
BRANCH   1   6
HETATM    6  C2  UNL     1      68.223 146.012 349.625  1.00  0.00     0.237 C 
HETATM    7  C1  UNL     1      67.220 146.331 350.627  1.00  0.00     0.035 C 
ENDBRANCH   1   6
BRANCH   1   8
HETATM    8  C3  UNL     1      69.319 144.004 350.391  1.00  0.00     0.199 C 
HETATM    9  C4  UNL     1      68.703 143.200 349.317  1.00  0.00     0.034 C 
HETATM   10  C5  UNL     1      69.298 141.830 349.063  1.00  0.00     0.008 C 
HETATM   11  C6  UNL     1      69.448 141.208 350.442  1.00  0.00     0.079 C 
HETATM   12  C7  UNL     1      70.654 141.939 350.990  1.00  0.00     0.245 C 
HETATM   13  F1  UNL     1      71.707 141.628 350.114  1.00  0.00    -0.206 F 
HETATM   14  F2  UNL     1      70.987 141.294 352.181  1.00  0.00    -0.206 F 
HETATM   15  C8  UNL     1      70.469 143.404 351.132  1.00  0.00     0.112 C 
ENDBRANCH   1   8
BRANCH   4  16
HETATM   16  O1  UNL     1      70.227 146.915 348.428  1.00  0.00    -0.365 OA
ATOM     17  H1  UNL     1      70.365 146.660 347.523  1.00  0.00     0.212 HD
ENDBRANCH   4  16
TORSDOF 3
ENDMDL
