MODEL 1
REMARK VINA RESULT: -5.833804236      0.000      0.000
REMARK  5 active torsions:
REMARK  status: ('A' for Active; 'I' for Inactive)
REMARK    1  A    between atoms: N3_6  and  N4_8 
REMARK    2  A    between atoms: N4_8  and  C4_10 
REMARK    3  A    between atoms: C8_14  and  N5_15 
REMARK    4  A    between atoms: N5_15  and  N6_17 
REMARK    5  A    between atoms: N6_17  and  N7_18 
ROOT
HETATM    1  N1  UNL     1      -9.078  10.638 -17.241  1.00  0.00    -0.189 NA
HETATM    2  C1  UNL     1      -9.851  11.242 -16.591  1.00  0.00     0.130 C 
HETATM    3  C2  UNL     1     -10.804  11.955 -15.799  1.00  0.00     0.209 C 
HETATM    4  C3  UNL     1     -11.054  11.617 -14.428  1.00  0.00     0.130 C 
HETATM    5  N2  UNL     1     -11.256  11.341 -13.303  1.00  0.00    -0.189 NA
HETATM    6  N3  UNL     1     -11.457  12.922 -16.319  1.00  0.00    -0.282 N 
ATOM      7  H3  UNL     1     -12.139  13.436 -15.761  1.00  0.00     0.188 HD
ENDROOT
BRANCH   6   8
HETATM    8  N4  UNL     1     -11.237  13.274 -17.650  1.00  0.00    -0.299 N 
ATOM      9  H4  UNL     1     -11.066  12.539 -18.336  1.00  0.00     0.187 HD
BRANCH   8  10
HETATM   10  C4  UNL     1     -11.243  14.638 -18.077  1.00  0.00     0.050 A 
HETATM   11  C5  UNL     1     -10.718  15.608 -17.279  1.00  0.00     0.031 A 
HETATM   12  C6  UNL     1     -10.723  16.930 -17.683  1.00  0.00     0.005 A 
HETATM   13  C7  UNL     1     -11.268  17.281 -18.911  1.00  0.00     0.032 A 
HETATM   14  C8  UNL     1     -11.802  16.311 -19.728  1.00  0.00     0.065 A 
HETATM   15  C9  UNL     1     -11.785  15.007 -19.307  1.00  0.00     0.062 A 
BRANCH  14  16
HETATM   16  N5  UNL     1     -12.363  16.644 -20.991  1.00  0.00    -0.217 N 
ATOM     17  H5  UNL     1     -12.139  16.061 -21.797  1.00  0.00     0.203 HD
BRANCH  16  18
HETATM   18  N6  UNL     1     -13.110  17.609 -21.148  1.00  0.00    -0.243 NA
BRANCH  18  19
HETATM   19  N7  UNL     1     -14.065  18.384 -21.039  1.00  0.00    -0.260 N 
ATOM     20  H72 UNL     1     -13.563  19.080 -20.488  1.00  0.00     0.193 HD
ATOM     21  H71 UNL     1     -14.994  18.794 -21.123  1.00  0.00     0.193 HD
ENDBRANCH  18  19
ENDBRANCH  16  18
ENDBRANCH  14  16
ENDBRANCH   8  10
ENDBRANCH   6   8
TORSDOF 5
ENDMDL
MODEL 2
REMARK VINA RESULT: -5.774089928      0.941      1.020
REMARK  5 active torsions:
REMARK  status: ('A' for Active; 'I' for Inactive)
REMARK    1  A    between atoms: N3_6  and  N4_8 
REMARK    2  A    between atoms: N4_8  and  C4_10 
REMARK    3  A    between atoms: C8_14  and  N5_15 
REMARK    4  A    between atoms: N5_15  and  N6_17 
REMARK    5  A    between atoms: N6_17  and  N7_18 
ROOT
HETATM    1  N1  UNL     1      -9.087  10.633 -17.234  1.00  0.00    -0.189 NA
HETATM    2  C1  UNL     1      -9.769  11.366 -16.616  1.00  0.00     0.130 C 
HETATM    3  C2  UNL     1     -10.618  12.240 -15.868  1.00  0.00     0.209 C 
HETATM    4  C3  UNL     1     -11.215  11.839 -14.629  1.00  0.00     0.130 C 
HETATM    5  N2  UNL     1     -11.703  11.510 -13.610  1.00  0.00    -0.189 NA
HETATM    6  N3  UNL     1     -10.856  13.416 -16.309  1.00  0.00    -0.282 N 
ATOM      7  H3  UNL     1     -11.461  14.046 -15.782  1.00  0.00     0.188 HD
ENDROOT
BRANCH   6   8
HETATM    8  N4  UNL     1     -10.290  13.835 -17.512  1.00  0.00    -0.299 N 
ATOM      9  H4  UNL     1      -9.513  13.304 -17.907  1.00  0.00     0.187 HD
BRANCH   8  10
HETATM   10  C4  UNL     1     -10.768  14.989 -18.206  1.00  0.00     0.050 A 
HETATM   11  C5  UNL     1     -10.602  16.229 -17.668  1.00  0.00     0.031 A 
HETATM   12  C6  UNL     1     -11.066  17.350 -18.331  1.00  0.00     0.005 A 
HETATM   13  C7  UNL     1     -11.707  17.221 -19.555  1.00  0.00     0.032 A 
HETATM   14  C8  UNL     1     -11.882  15.973 -20.111  1.00  0.00     0.065 A 
HETATM   15  C9  UNL     1     -11.414  14.877 -19.436  1.00  0.00     0.062 A 
BRANCH  14  16
HETATM   16  N5  UNL     1     -12.534  15.815 -21.363  1.00  0.00    -0.217 N 
ATOM     17  H5  UNL     1     -12.993  14.927 -21.569  1.00  0.00     0.203 HD
BRANCH  16  18
HETATM   18  N6  UNL     1     -12.566  16.707 -22.210  1.00  0.00    -0.243 NA
BRANCH  18  19
HETATM   19  N7  UNL     1     -12.586  17.294 -23.296  1.00  0.00    -0.260 N 
ATOM     20  H72 UNL     1     -12.134  16.545 -23.820  1.00  0.00     0.193 HD
ATOM     21  H71 UNL     1     -12.743  18.003 -24.011  1.00  0.00     0.193 HD
ENDBRANCH  18  19
ENDBRANCH  16  18
ENDBRANCH  14  16
ENDBRANCH   8  10
ENDBRANCH   6   8
TORSDOF 5
ENDMDL
MODEL 3
REMARK VINA RESULT: -5.739085905      1.514      2.292
REMARK  5 active torsions:
REMARK  status: ('A' for Active; 'I' for Inactive)
REMARK    1  A    between atoms: N3_6  and  N4_8 
REMARK    2  A    between atoms: N4_8  and  C4_10 
REMARK    3  A    between atoms: C8_14  and  N5_15 
REMARK    4  A    between atoms: N5_15  and  N6_17 
REMARK    5  A    between atoms: N6_17  and  N7_18 
ROOT
HETATM    1  N1  UNL     1     -12.817  12.108 -15.750  1.00  0.00    -0.189 NA
HETATM    2  C1  UNL     1     -11.746  12.177 -16.235  1.00  0.00     0.130 C 
HETATM    3  C2  UNL     1     -10.436  12.250 -16.802  1.00  0.00     0.209 C 
HETATM    4  C3  UNL     1      -9.674  11.073 -17.102  1.00  0.00     0.130 C 
HETATM    5  N2  UNL     1      -9.051  10.108 -17.352  1.00  0.00    -0.189 NA
HETATM    6  N3  UNL     1      -9.920  13.392 -17.051  1.00  0.00    -0.282 N 
ATOM      7  H3  UNL     1      -8.986  13.453 -17.455  1.00  0.00     0.188 HD
ENDROOT
BRANCH   6   8
HETATM    8  N4  UNL     1     -10.636  14.555 -16.768  1.00  0.00    -0.299 N 
ATOM      9  H4  UNL     1     -10.876  14.767 -15.800  1.00  0.00     0.187 HD
BRANCH   8  10
HETATM   10  C4  UNL     1     -11.043  15.456 -17.800  1.00  0.00     0.050 A 
HETATM   11  C5  UNL     1     -11.053  16.798 -17.573  1.00  0.00     0.031 A 
HETATM   12  C6  UNL     1     -11.450  17.676 -18.565  1.00  0.00     0.005 A 
HETATM   13  C7  UNL     1     -11.844  17.194 -19.805  1.00  0.00     0.032 A 
HETATM   14  C8  UNL     1     -11.839  15.839 -20.049  1.00  0.00     0.065 A 
HETATM   15  C9  UNL     1     -11.441  14.988 -19.051  1.00  0.00     0.062 A 
BRANCH  14  16
HETATM   16  N5  UNL     1     -12.236  15.321 -21.312  1.00  0.00    -0.217 N 
ATOM     17  H5  UNL     1     -12.210  14.312 -21.458  1.00  0.00     0.203 HD
BRANCH  16  18
HETATM   18  N6  UNL     1     -12.611  16.042 -22.235  1.00  0.00    -0.243 NA
BRANCH  18  19
HETATM   19  N7  UNL     1     -12.655  16.635 -23.317  1.00  0.00    -0.260 N 
ATOM     20  H72 UNL     1     -12.391  15.828 -23.882  1.00  0.00     0.193 HD
ATOM     21  H71 UNL     1     -12.775  17.367 -24.016  1.00  0.00     0.193 HD
ENDBRANCH  18  19
ENDBRANCH  16  18
ENDBRANCH  14  16
ENDBRANCH   8  10
ENDBRANCH   6   8
TORSDOF 5
ENDMDL
MODEL 4
REMARK VINA RESULT: -5.671049748      1.653      2.735
REMARK  5 active torsions:
REMARK  status: ('A' for Active; 'I' for Inactive)
REMARK    1  A    between atoms: N3_6  and  N4_8 
REMARK    2  A    between atoms: N4_8  and  C4_10 
REMARK    3  A    between atoms: C8_14  and  N5_15 
REMARK    4  A    between atoms: N5_15  and  N6_17 
REMARK    5  A    between atoms: N6_17  and  N7_18 
ROOT
HETATM    1  N1  UNL     1     -12.802  12.130 -15.768  1.00  0.00    -0.189 NA
HETATM    2  C1  UNL     1     -11.732  12.199 -16.253  1.00  0.00     0.130 C 
HETATM    3  C2  UNL     1     -10.423  12.271 -16.822  1.00  0.00     0.209 C 
HETATM    4  C3  UNL     1      -9.651  11.095 -17.099  1.00  0.00     0.130 C 
HETATM    5  N2  UNL     1      -9.020  10.130 -17.328  1.00  0.00    -0.189 NA
HETATM    6  N3  UNL     1      -9.917  13.413 -17.094  1.00  0.00    -0.282 N 
ATOM      7  H3  UNL     1      -8.983  13.474 -17.500  1.00  0.00     0.188 HD
ENDROOT
BRANCH   6   8
HETATM    8  N4  UNL     1     -10.643  14.575 -16.836  1.00  0.00    -0.299 N 
ATOM      9  H4  UNL     1     -10.889  14.802 -15.873  1.00  0.00     0.187 HD
BRANCH   8  10
HETATM   10  C4  UNL     1     -11.051  15.454 -17.885  1.00  0.00     0.050 A 
HETATM   11  C5  UNL     1     -11.065  16.801 -17.684  1.00  0.00     0.031 A 
HETATM   12  C6  UNL     1     -11.463  17.659 -18.693  1.00  0.00     0.005 A 
HETATM   13  C7  UNL     1     -11.855  17.152 -19.924  1.00  0.00     0.032 A 
HETATM   14  C8  UNL     1     -11.846  15.792 -20.142  1.00  0.00     0.065 A 
HETATM   15  C9  UNL     1     -11.447  14.962 -19.127  1.00  0.00     0.062 A 
BRANCH  14  16
HETATM   16  N5  UNL     1     -12.241  15.249 -21.394  1.00  0.00    -0.217 N 
ATOM     17  H5  UNL     1     -13.042  15.658 -21.876  1.00  0.00     0.203 HD
BRANCH  16  18
HETATM   18  N6  UNL     1     -11.655  14.305 -21.920  1.00  0.00    -0.243 NA
BRANCH  18  19
HETATM   19  N7  UNL     1     -10.802  13.635 -22.510  1.00  0.00    -0.260 N 
ATOM     20  H72 UNL     1     -10.545  14.366 -23.174  1.00  0.00     0.193 HD
ATOM     21  H71 UNL     1     -10.190  12.865 -22.780  1.00  0.00     0.193 HD
ENDBRANCH  18  19
ENDBRANCH  16  18
ENDBRANCH  14  16
ENDBRANCH   8  10
ENDBRANCH   6   8
TORSDOF 5
ENDMDL
MODEL 5
REMARK VINA RESULT: -5.622480849      2.335      3.679
REMARK  5 active torsions:
REMARK  status: ('A' for Active; 'I' for Inactive)
REMARK    1  A    between atoms: N3_6  and  N4_8 
REMARK    2  A    between atoms: N4_8  and  C4_10 
REMARK    3  A    between atoms: C8_14  and  N5_15 
REMARK    4  A    between atoms: N5_15  and  N6_17 
REMARK    5  A    between atoms: N6_17  and  N7_18 
ROOT
HETATM    1  N1  UNL     1     -12.096   9.926 -12.118  1.00  0.00    -0.189 NA
HETATM    2  C1  UNL     1     -11.492   9.941 -13.129  1.00  0.00     0.130 C 
HETATM    3  C2  UNL     1     -10.739   9.949 -14.344  1.00  0.00     0.209 C 
HETATM    4  C3  UNL     1     -10.202   8.747 -14.911  1.00  0.00     0.130 C 
HETATM    5  N2  UNL     1      -9.765   7.760 -15.377  1.00  0.00    -0.189 NA
HETATM    6  N3  UNL     1     -10.531  11.056 -14.948  1.00  0.00    -0.282 N 
ATOM      7  H3  UNL     1      -9.995  11.071 -15.815  1.00  0.00     0.188 HD
ENDROOT
BRANCH   6   8
HETATM    8  N4  UNL     1     -11.040  12.242 -14.420  1.00  0.00    -0.299 N 
ATOM      9  H4  UNL     1     -10.994  12.397 -13.413  1.00  0.00     0.187 HD
BRANCH   8  10
HETATM   10  C4  UNL     1     -11.624  13.245 -15.253  1.00  0.00     0.050 A 
HETATM   11  C5  UNL     1     -12.970  13.452 -15.235  1.00  0.00     0.031 A 
HETATM   12  C6  UNL     1     -13.543  14.418 -16.041  1.00  0.00     0.005 A 
HETATM   13  C7  UNL     1     -12.749  15.187 -16.880  1.00  0.00     0.032 A 
HETATM   14  C8  UNL     1     -11.387  14.989 -16.909  1.00  0.00     0.065 A 
HETATM   15  C9  UNL     1     -10.841  14.027 -16.101  1.00  0.00     0.062 A 
BRANCH  14  16
HETATM   16  N5  UNL     1     -10.552  15.765 -17.757  1.00  0.00    -0.217 N 
ATOM     17  H5  UNL     1      -9.561  15.531 -17.819  1.00  0.00     0.203 HD
BRANCH  16  18
HETATM   18  N6  UNL     1     -10.977  16.709 -18.421  1.00  0.00    -0.243 NA
BRANCH  18  19
HETATM   19  N7  UNL     1     -11.387  17.388 -19.367  1.00  0.00    -0.260 N 
ATOM     20  H72 UNL     1     -10.513  17.893 -19.512  1.00  0.00     0.193 HD
ATOM     21  H71 UNL     1     -11.993  17.779 -20.089  1.00  0.00     0.193 HD
ENDBRANCH  18  19
ENDBRANCH  16  18
ENDBRANCH  14  16
ENDBRANCH   8  10
ENDBRANCH   6   8
TORSDOF 5
ENDMDL
