MODEL 1
REMARK VINA RESULT: -5.642033817      0.000      0.000
REMARK  3 active torsions:
REMARK  status: ('A' for Active; 'I' for Inactive)
REMARK    1  A    between atoms: C4_6  and  C5_7 
REMARK    2  A    between atoms: N3_8  and  N4_10 
REMARK    3  A    between atoms: N4_10  and  C6_12 
ROOT
HETATM    1  N1  UNL     1      -9.775  11.471 -16.176  1.00  0.00    -0.191 NA
HETATM    2  C1  UNL     1     -10.516  11.454 -15.262  1.00  0.00     0.111 C 
HETATM    3  C2  UNL     1     -11.394  11.403 -14.139  1.00  0.00     0.126 C 
HETATM    4  C3  UNL     1     -11.340  10.255 -13.222  1.00  0.00     0.111 C 
HETATM    5  N2  UNL     1     -11.305   9.366 -12.485  1.00  0.00    -0.191 NA
HETATM    6  C4  UNL     1     -12.252  12.354 -13.893  1.00  0.00     0.052 C 
ENDROOT
BRANCH   6   7
HETATM    7  C5  UNL     1     -12.435  13.550 -14.688  1.00  0.00     0.109 C 
HETATM    8  N3  UNL     1     -13.455  13.691 -15.440  1.00  0.00    -0.311 N 
ATOM      9  H3  UNL     1     -14.142  12.938 -15.465  1.00  0.00     0.186 HD
BRANCH   8  10
HETATM   10  N4  UNL     1     -13.685  14.812 -16.226  1.00  0.00    -0.294 N 
ATOM     11  H4  UNL     1     -14.558  15.332 -16.141  1.00  0.00     0.187 HD
BRANCH  10  12
HETATM   12  C6  UNL     1     -12.688  15.227 -17.151  1.00  0.00     0.088 A 
HETATM   13  C7  UNL     1     -12.258  16.491 -17.459  1.00  0.00     0.039 A 
HETATM   14  C8  UNL     1     -11.289  16.618 -18.372  1.00  0.00     0.010 A 
HETATM   15  C9  UNL     1     -10.790  15.475 -18.937  1.00  0.00     0.052 A 
HETATM   16  S1  UNL     1     -11.694  14.250 -18.177  1.00  0.00    -0.083 SA
ENDBRANCH  10  12
ENDBRANCH   8  10
ENDBRANCH   6   7
TORSDOF 3
ENDMDL
MODEL 2
REMARK VINA RESULT: -5.460879957      2.501      6.394
REMARK  3 active torsions:
REMARK  status: ('A' for Active; 'I' for Inactive)
REMARK    1  A    between atoms: C4_6  and  C5_7 
REMARK    2  A    between atoms: N3_8  and  N4_10 
REMARK    3  A    between atoms: N4_10  and  C6_12 
ROOT
HETATM    1  N1  UNL     1     -13.642  14.938 -16.527  1.00  0.00    -0.191 NA
HETATM    2  C1  UNL     1     -12.513  15.057 -16.834  1.00  0.00     0.111 C 
HETATM    3  C2  UNL     1     -11.146  15.238 -17.202  1.00  0.00     0.126 C 
HETATM    4  C3  UNL     1     -10.638  16.589 -17.481  1.00  0.00     0.111 C 
HETATM    5  N2  UNL     1     -10.219  17.645 -17.693  1.00  0.00    -0.191 NA
HETATM    6  C4  UNL     1     -10.320  14.232 -17.298  1.00  0.00     0.052 C 
ENDROOT
BRANCH   6   7
HETATM    7  C5  UNL     1     -10.652  12.843 -17.058  1.00  0.00     0.109 C 
HETATM    8  N3  UNL     1      -9.928  12.115 -16.303  1.00  0.00    -0.311 N 
ATOM      9  H3  UNL     1      -9.108  12.538 -15.869  1.00  0.00     0.186 HD
BRANCH   8  10
HETATM   10  N4  UNL     1     -10.194  10.779 -16.036  1.00  0.00    -0.294 N 
ATOM     11  H4  UNL     1     -10.059  10.072 -16.759  1.00  0.00     0.187 HD
BRANCH  10  12
HETATM   12  C6  UNL     1     -10.655  10.408 -14.744  1.00  0.00     0.088 A 
HETATM   13  C7  UNL     1     -11.072  11.200 -13.707  1.00  0.00     0.039 A 
HETATM   14  C8  UNL     1     -11.469  10.600 -12.580  1.00  0.00     0.010 A 
HETATM   15  C9  UNL     1     -11.435   9.231 -12.538  1.00  0.00     0.052 A 
HETATM   16  S1  UNL     1     -10.843   8.820 -14.080  1.00  0.00    -0.083 SA
ENDBRANCH  10  12
ENDBRANCH   8  10
ENDBRANCH   6   7
TORSDOF 3
ENDMDL
MODEL 3
REMARK VINA RESULT: -5.447972787      0.912      1.084
REMARK  3 active torsions:
REMARK  status: ('A' for Active; 'I' for Inactive)
REMARK    1  A    between atoms: C4_6  and  C5_7 
REMARK    2  A    between atoms: N3_8  and  N4_10 
REMARK    3  A    between atoms: N4_10  and  C6_12 
ROOT
HETATM    1  N1  UNL     1      -9.888  11.465 -16.040  1.00  0.00    -0.191 NA
HETATM    2  C1  UNL     1     -10.639  11.478 -15.134  1.00  0.00     0.111 C 
HETATM    3  C2  UNL     1     -11.530  11.464 -14.020  1.00  0.00     0.126 C 
HETATM    4  C3  UNL     1     -11.511  10.330 -13.085  1.00  0.00     0.111 C 
HETATM    5  N2  UNL     1     -11.503   9.452 -12.333  1.00  0.00    -0.191 NA
HETATM    6  C4  UNL     1     -12.371  12.437 -13.799  1.00  0.00     0.052 C 
ENDROOT
BRANCH   6   7
HETATM    7  C5  UNL     1     -12.519  13.624 -14.616  1.00  0.00     0.109 C 
HETATM    8  N3  UNL     1     -13.410  13.690 -15.526  1.00  0.00    -0.311 N 
ATOM      9  H3  UNL     1     -14.018  12.882 -15.663  1.00  0.00     0.186 HD
BRANCH   8  10
HETATM   10  N4  UNL     1     -13.599  14.797 -16.340  1.00  0.00    -0.294 N 
ATOM     11  H4  UNL     1     -14.525  15.217 -16.433  1.00  0.00     0.187 HD
BRANCH  10  12
HETATM   12  C6  UNL     1     -12.490  15.339 -17.043  1.00  0.00     0.088 A 
HETATM   13  C7  UNL     1     -11.324  14.733 -17.433  1.00  0.00     0.039 A 
HETATM   14  C8  UNL     1     -10.427  15.468 -18.097  1.00  0.00     0.010 A 
HETATM   15  C9  UNL     1     -10.733  16.780 -18.345  1.00  0.00     0.052 A 
HETATM   16  S1  UNL     1     -12.271  16.951 -17.639  1.00  0.00    -0.083 SA
ENDBRANCH  10  12
ENDBRANCH   8  10
ENDBRANCH   6   7
TORSDOF 3
ENDMDL
MODEL 4
REMARK VINA RESULT: -5.338782310      1.398      2.698
REMARK  3 active torsions:
REMARK  status: ('A' for Active; 'I' for Inactive)
REMARK    1  A    between atoms: C4_6  and  C5_7 
REMARK    2  A    between atoms: N3_8  and  N4_10 
REMARK    3  A    between atoms: N4_10  and  C6_12 
ROOT
HETATM    1  N1  UNL     1     -13.172  13.884 -14.752  1.00  0.00    -0.191 NA
HETATM    2  C1  UNL     1     -12.409  12.989 -14.703  1.00  0.00     0.111 C 
HETATM    3  C2  UNL     1     -11.501  11.892 -14.610  1.00  0.00     0.126 C 
HETATM    4  C3  UNL     1     -11.433  11.104 -13.371  1.00  0.00     0.111 C 
HETATM    5  N2  UNL     1     -11.373  10.466 -12.409  1.00  0.00    -0.191 NA
HETATM    6  C4  UNL     1     -10.721  11.559 -15.601  1.00  0.00     0.052 C 
ENDROOT
BRANCH   6   7
HETATM    7  C5  UNL     1     -10.661  12.223 -16.887  1.00  0.00     0.109 C 
HETATM    8  N3  UNL     1      -9.739  13.062 -17.152  1.00  0.00    -0.311 N 
ATOM      9  H3  UNL     1      -9.041  13.253 -16.433  1.00  0.00     0.186 HD
BRANCH   8  10
HETATM   10  N4  UNL     1      -9.630  13.731 -18.363  1.00  0.00    -0.294 N 
ATOM     11  H4  UNL     1      -9.028  13.367 -19.101  1.00  0.00     0.187 HD
BRANCH  10  12
HETATM   12  C6  UNL     1     -10.367  14.930 -18.562  1.00  0.00     0.088 A 
HETATM   13  C7  UNL     1     -10.294  16.120 -17.887  1.00  0.00     0.039 A 
HETATM   14  C8  UNL     1     -11.102  17.112 -18.276  1.00  0.00     0.010 A 
HETATM   15  C9  UNL     1     -11.948  16.872 -19.326  1.00  0.00     0.052 A 
HETATM   16  S1  UNL     1     -11.592  15.261 -19.740  1.00  0.00    -0.083 SA
ENDBRANCH  10  12
ENDBRANCH   8  10
ENDBRANCH   6   7
TORSDOF 3
ENDMDL
MODEL 5
REMARK VINA RESULT: -5.285393068      2.830      6.491
REMARK  3 active torsions:
REMARK  status: ('A' for Active; 'I' for Inactive)
REMARK    1  A    between atoms: C4_6  and  C5_7 
REMARK    2  A    between atoms: N3_8  and  N4_10 
REMARK    3  A    between atoms: N4_10  and  C6_12 
ROOT
HETATM    1  N1  UNL     1     -12.119  13.015 -20.056  1.00  0.00    -0.191 NA
HETATM    2  C1  UNL     1     -11.533  13.813 -19.419  1.00  0.00     0.111 C 
HETATM    3  C2  UNL     1     -10.846  14.806 -18.659  1.00  0.00     0.126 C 
HETATM    4  C3  UNL     1     -11.106  16.230 -18.916  1.00  0.00     0.111 C 
HETATM    5  N2  UNL     1     -11.305  17.354 -19.097  1.00  0.00    -0.191 NA
HETATM    6  C4  UNL     1      -9.986  14.490 -17.731  1.00  0.00     0.052 C 
ENDROOT
BRANCH   6   7
HETATM    7  C5  UNL     1      -9.615  13.143 -17.350  1.00  0.00     0.109 C 
HETATM    8  N3  UNL     1     -10.293  12.492 -16.489  1.00  0.00    -0.311 N 
ATOM      9  H3  UNL     1     -11.108  12.946 -16.076  1.00  0.00     0.186 HD
BRANCH   8  10
HETATM   10  N4  UNL     1      -9.987  11.201 -16.082  1.00  0.00    -0.294 N 
ATOM     11  H4  UNL     1      -9.401  10.602 -16.663  1.00  0.00     0.187 HD
BRANCH  10  12
HETATM   12  C6  UNL     1     -10.500  10.724 -14.845  1.00  0.00     0.088 A 
HETATM   13  C7  UNL     1     -10.968  11.427 -13.766  1.00  0.00     0.039 A 
HETATM   14  C8  UNL     1     -11.407  10.735 -12.710  1.00  0.00     0.010 A 
HETATM   15  C9  UNL     1     -11.363   9.368 -12.778  1.00  0.00     0.052 A 
HETATM   16  S1  UNL     1     -10.702   9.086 -14.321  1.00  0.00    -0.083 SA
ENDBRANCH  10  12
ENDBRANCH   8  10
ENDBRANCH   6   7
TORSDOF 3
ENDMDL
