MODEL 1
REMARK VINA RESULT: -4.894850042      0.000      0.000
REMARK  3 active torsions:
REMARK  status: ('A' for Active; 'I' for Inactive)
REMARK    1  A    between atoms: C3_4  and  N1_5 
REMARK    2  A    between atoms: N1_5  and  O1_7 
REMARK    3  A    between atoms: O1_7  and  N2_8 
ROOT
HETATM    1  N1  UNL     1     -11.384  12.516 -15.842  1.00  0.00    -0.240 N 
ATOM      2  H1  UNL     1     -11.108  13.460 -15.570  1.00  0.00     0.197 HD
ENDROOT
BRANCH   1   3
HETATM    3  C3  UNL     1     -11.279  11.471 -14.884  1.00  0.00     0.096 A 
HETATM    4  S1  UNL     1     -10.728   9.870 -15.104  1.00  0.00    -0.083 SA
HETATM    5  C2  UNL     1     -10.916   9.290 -13.509  1.00  0.00     0.052 A 
HETATM    6  C1  UNL     1     -11.409  10.379 -12.850  1.00  0.00     0.010 A 
HETATM    7  C8  UNL     1     -11.597  11.501 -13.551  1.00  0.00     0.039 A 
ENDBRANCH   1   3
BRANCH   1   8
HETATM    8  O1  UNL     1     -11.830  12.307 -17.092  1.00  0.00    -0.182 OA
BRANCH   8   9
HETATM    9  N2  UNL     1     -12.222  13.447 -17.697  1.00  0.00    -0.170 NA
HETATM   10  C4  UNL     1     -12.372  14.458 -16.707  1.00  0.00     0.133 C 
HETATM   11  C5  UNL     1     -12.446  15.863 -17.267  1.00  0.00     0.090 C 
HETATM   12  S2  UNL     1     -10.756  16.211 -17.902  1.00  0.00    -0.167 SA
HETATM   13  C6  UNL     1     -10.173  14.567 -18.482  1.00  0.00     0.090 C 
HETATM   14  C7  UNL     1     -11.426  13.787 -18.822  1.00  0.00     0.133 C 
ENDBRANCH   8   9
ENDBRANCH   1   8
TORSDOF 3
ENDMDL
MODEL 2
REMARK VINA RESULT: -4.792227932      2.671      6.273
REMARK  3 active torsions:
REMARK  status: ('A' for Active; 'I' for Inactive)
REMARK    1  A    between atoms: C3_4  and  N1_5 
REMARK    2  A    between atoms: N1_5  and  O1_7 
REMARK    3  A    between atoms: O1_7  and  N2_8 
ROOT
HETATM    1  N1  UNL     1     -11.632  14.540 -18.930  1.00  0.00    -0.240 N 
ATOM      2  H1  UNL     1     -10.651  14.260 -18.929  1.00  0.00     0.197 HD
ENDROOT
BRANCH   1   3
HETATM    3  C3  UNL     1     -12.054  15.549 -19.839  1.00  0.00     0.096 A 
HETATM    4  S1  UNL     1     -12.711  15.370 -21.405  1.00  0.00    -0.083 SA
HETATM    5  C2  UNL     1     -12.940  17.015 -21.800  1.00  0.00     0.052 A 
HETATM    6  C1  UNL     1     -12.491  17.657 -20.681  1.00  0.00     0.010 A 
HETATM    7  C8  UNL     1     -12.036  16.909 -19.673  1.00  0.00     0.039 A 
ENDBRANCH   1   3
BRANCH   1   8
HETATM    8  O1  UNL     1     -12.477  13.943 -18.073  1.00  0.00    -0.182 OA
BRANCH   8   9
HETATM    9  N2  UNL     1     -12.158  14.181 -16.784  1.00  0.00    -0.170 NA
HETATM   10  C4  UNL     1     -13.222  13.720 -15.961  1.00  0.00     0.133 C 
HETATM   11  C5  UNL     1     -12.855  13.584 -14.498  1.00  0.00     0.090 C 
HETATM   12  S2  UNL     1     -11.690  12.163 -14.431  1.00  0.00    -0.167 SA
HETATM   13  C6  UNL     1     -10.794  12.273 -16.032  1.00  0.00     0.090 C 
HETATM   14  C7  UNL     1     -10.858  13.731 -16.436  1.00  0.00     0.133 C 
ENDBRANCH   8   9
ENDBRANCH   1   8
TORSDOF 3
ENDMDL
MODEL 3
REMARK VINA RESULT: -4.715633946      2.564      6.228
REMARK  3 active torsions:
REMARK  status: ('A' for Active; 'I' for Inactive)
REMARK    1  A    between atoms: C3_4  and  N1_5 
REMARK    2  A    between atoms: N1_5  and  O1_7 
REMARK    3  A    between atoms: O1_7  and  N2_8 
ROOT
HETATM    1  N1  UNL     1     -10.646  15.680 -17.978  1.00  0.00    -0.240 N 
ATOM      2  H1  UNL     1      -9.627  15.682 -18.030  1.00  0.00     0.197 HD
ENDROOT
BRANCH   1   3
HETATM    3  C3  UNL     1     -11.389  16.105 -19.113  1.00  0.00     0.096 A 
HETATM    4  S1  UNL     1     -12.011  15.166 -20.396  1.00  0.00    -0.083 SA
HETATM    5  C2  UNL     1     -12.750  16.403 -21.313  1.00  0.00     0.052 A 
HETATM    6  C1  UNL     1     -12.482  17.522 -20.577  1.00  0.00     0.010 A 
HETATM    7  C8  UNL     1     -11.785  17.373 -19.447  1.00  0.00     0.039 A 
ENDBRANCH   1   3
BRANCH   1   8
HETATM    8  O1  UNL     1     -11.235  15.276 -16.840  1.00  0.00    -0.182 OA
BRANCH   8   9
HETATM    9  N2  UNL     1     -11.790  14.052 -16.952  1.00  0.00    -0.170 NA
HETATM   10  C4  UNL     1     -10.772  13.074 -16.767  1.00  0.00     0.133 C 
HETATM   11  C5  UNL     1     -11.299  11.680 -16.501  1.00  0.00     0.090 C 
HETATM   12  S2  UNL     1     -12.043  11.766 -14.821  1.00  0.00    -0.167 SA
HETATM   13  C6  UNL     1     -12.693  13.483 -14.732  1.00  0.00     0.090 C 
HETATM   14  C7  UNL     1     -12.960  13.893 -16.165  1.00  0.00     0.133 C 
ENDBRANCH   8   9
ENDBRANCH   1   8
TORSDOF 3
ENDMDL
MODEL 4
REMARK VINA RESULT: -4.700977860      1.650      5.828
REMARK  3 active torsions:
REMARK  status: ('A' for Active; 'I' for Inactive)
REMARK    1  A    between atoms: C3_4  and  N1_5 
REMARK    2  A    between atoms: N1_5  and  O1_7 
REMARK    3  A    between atoms: O1_7  and  N2_8 
ROOT
HETATM    1  N1  UNL     1     -11.573  13.549 -17.732  1.00  0.00    -0.240 N 
ATOM      2  H1  UNL     1     -12.376  13.020 -18.074  1.00  0.00     0.197 HD
ENDROOT
BRANCH   1   3
HETATM    3  C3  UNL     1     -11.444  14.915 -18.105  1.00  0.00     0.096 A 
HETATM    4  S1  UNL     1     -11.841  15.659 -19.589  1.00  0.00    -0.083 SA
HETATM    5  C2  UNL     1     -11.396  17.266 -19.222  1.00  0.00     0.052 A 
HETATM    6  C1  UNL     1     -10.947  17.167 -17.936  1.00  0.00     0.010 A 
HETATM    7  C8  UNL     1     -10.970  15.962 -17.359  1.00  0.00     0.039 A 
ENDBRANCH   1   3
BRANCH   1   8
HETATM    8  O1  UNL     1     -10.676  12.928 -16.947  1.00  0.00    -0.182 OA
BRANCH   8   9
HETATM    9  N2  UNL     1     -11.174  11.809 -16.380  1.00  0.00    -0.170 NA
HETATM   10  C4  UNL     1     -10.118  11.133 -15.708  1.00  0.00     0.133 C 
HETATM   11  C5  UNL     1     -10.587  10.076 -14.730  1.00  0.00     0.090 C 
HETATM   12  S2  UNL     1     -11.365  11.015 -13.354  1.00  0.00    -0.167 SA
HETATM   13  C6  UNL     1     -12.092  12.478 -14.195  1.00  0.00     0.090 C 
HETATM   14  C7  UNL     1     -12.350  12.042 -15.621  1.00  0.00     0.133 C 
ENDBRANCH   8   9
ENDBRANCH   1   8
TORSDOF 3
ENDMDL
MODEL 5
REMARK VINA RESULT: -4.677500451      1.466      5.815
REMARK  3 active torsions:
REMARK  status: ('A' for Active; 'I' for Inactive)
REMARK    1  A    between atoms: C3_4  and  N1_5 
REMARK    2  A    between atoms: N1_5  and  O1_7 
REMARK    3  A    between atoms: O1_7  and  N2_8 
ROOT
HETATM    1  N1  UNL     1     -10.677  13.527 -16.700  1.00  0.00    -0.240 N 
ATOM      2  H1  UNL     1      -9.734  13.193 -16.904  1.00  0.00     0.197 HD
ENDROOT
BRANCH   1   3
HETATM    3  C3  UNL     1     -11.066  14.810 -17.174  1.00  0.00     0.096 A 
HETATM    4  S1  UNL     1     -12.608  15.542 -17.134  1.00  0.00    -0.083 SA
HETATM    5  C2  UNL     1     -12.228  17.031 -17.878  1.00  0.00     0.052 A 
HETATM    6  C1  UNL     1     -10.892  16.906 -18.136  1.00  0.00     0.010 A 
HETATM    7  C8  UNL     1     -10.292  15.767 -17.775  1.00  0.00     0.039 A 
ENDBRANCH   1   3
BRANCH   1   8
HETATM    8  O1  UNL     1     -11.504  12.738 -15.994  1.00  0.00    -0.182 OA
BRANCH   8   9
HETATM    9  N2  UNL     1     -10.883  12.135 -14.959  1.00  0.00    -0.170 NA
HETATM   10  C4  UNL     1     -11.852  11.841 -13.959  1.00  0.00     0.133 C 
HETATM   11  C5  UNL     1     -11.380  10.849 -12.917  1.00  0.00     0.090 C 
HETATM   12  S2  UNL     1     -11.262   9.244 -13.807  1.00  0.00    -0.167 SA
HETATM   13  C6  UNL     1     -10.768   9.737 -15.507  1.00  0.00     0.090 C 
HETATM   14  C7  UNL     1     -10.048  11.059 -15.356  1.00  0.00     0.133 C 
ENDBRANCH   8   9
ENDBRANCH   1   8
TORSDOF 3
ENDMDL
