MODEL 1
REMARK VINA RESULT: -5.896309445      0.000      0.000
REMARK  4 active torsions:
REMARK  status: ('A' for Active; 'I' for Inactive)
REMARK    1  A    between atoms: O1_2  and  C2_3 
REMARK    2  A    between atoms: C2_3  and  C3_5 
REMARK    3  A    between atoms: N2_8  and  N3_10 
REMARK    4  A    between atoms: N3_10  and  C5_12 
ROOT
HETATM    1  C3  UNL     1     -10.995  12.326 -16.063  1.00  0.00     0.204 C 
HETATM    2  C4  UNL     1      -9.868  11.656 -16.670  1.00  0.00     0.125 C 
HETATM    3  N1  UNL     1      -8.962  11.126 -17.142  1.00  0.00    -0.190 NA
HETATM    4  N2  UNL     1     -11.139  13.601 -16.265  1.00  0.00    -0.285 N 
ATOM      5  H2  UNL     1     -11.934  14.072 -15.832  1.00  0.00     0.188 HD
ENDROOT
BRANCH   1   6
HETATM    6  C2  UNL     1     -11.948  11.628 -15.249  1.00  0.00     0.322 C 
HETATM    7  O2  UNL     1     -12.816  10.859 -15.758  1.00  0.00    -0.257 OA
BRANCH   6   8
HETATM    8  O1  UNL     1     -11.934  11.784 -13.884  1.00  0.00    -0.321 OA
HETATM    9  C1  UNL     1     -11.402  10.838 -12.986  1.00  0.00     0.213 C 
ENDBRANCH   6   8
ENDBRANCH   1   6
BRANCH   4  10
HETATM   10  N3  UNL     1     -10.278  14.347 -17.029  1.00  0.00    -0.300 N 
ATOM     11  H3  UNL     1      -9.273  14.208 -16.938  1.00  0.00     0.187 HD
BRANCH  10  12
HETATM   12  C5  UNL     1     -10.772  15.304 -17.940  1.00  0.00     0.048 A 
HETATM   13  C6  UNL     1     -10.656  16.671 -17.728  1.00  0.00     0.031 A 
HETATM   14  C7  UNL     1     -11.151  17.606 -18.608  1.00  0.00     0.002 A 
HETATM   15  C8  UNL     1     -11.793  17.198 -19.754  1.00  0.00     0.000 A 
HETATM   16  C9  UNL     1     -11.933  15.851 -20.007  1.00  0.00     0.002 A 
HETATM   17  C10 UNL     1     -11.427  14.935 -19.110  1.00  0.00     0.031 A 
ENDBRANCH  10  12
ENDBRANCH   4  10
TORSDOF 4
ENDMDL
MODEL 2
REMARK VINA RESULT: -5.867854861      0.035      1.221
REMARK  4 active torsions:
REMARK  status: ('A' for Active; 'I' for Inactive)
REMARK    1  A    between atoms: O1_2  and  C2_3 
REMARK    2  A    between atoms: C2_3  and  C3_5 
REMARK    3  A    between atoms: N2_8  and  N3_10 
REMARK    4  A    between atoms: N3_10  and  C5_12 
ROOT
HETATM    1  C3  UNL     1     -11.016  12.313 -16.053  1.00  0.00     0.204 C 
HETATM    2  C4  UNL     1      -9.896  11.645 -16.675  1.00  0.00     0.125 C 
HETATM    3  N1  UNL     1      -8.996  11.117 -17.159  1.00  0.00    -0.190 NA
HETATM    4  N2  UNL     1     -11.160  13.590 -16.246  1.00  0.00    -0.285 N 
ATOM      5  H2  UNL     1     -11.950  14.060 -15.802  1.00  0.00     0.188 HD
ENDROOT
BRANCH   1   6
HETATM    6  C2  UNL     1     -11.962  11.612 -15.234  1.00  0.00     0.322 C 
HETATM    7  O2  UNL     1     -12.823  10.831 -15.737  1.00  0.00    -0.257 OA
BRANCH   6   8
HETATM    8  O1  UNL     1     -11.949  11.777 -13.870  1.00  0.00    -0.321 OA
HETATM    9  C1  UNL     1     -11.381  10.856 -12.967  1.00  0.00     0.213 C 
ENDBRANCH   6   8
ENDBRANCH   1   6
BRANCH   4  10
HETATM   10  N3  UNL     1     -10.306  14.339 -17.014  1.00  0.00    -0.300 N 
ATOM     11  H3  UNL     1      -9.299  14.201 -16.930  1.00  0.00     0.187 HD
BRANCH  10  12
HETATM   12  C5  UNL     1     -10.808  15.298 -17.919  1.00  0.00     0.048 A 
HETATM   13  C6  UNL     1     -11.458  14.950 -19.096  1.00  0.00     0.031 A 
HETATM   14  C7  UNL     1     -11.934  15.884 -19.987  1.00  0.00     0.002 A 
HETATM   15  C8  UNL     1     -11.773  17.225 -19.728  1.00  0.00     0.000 A 
HETATM   16  C9  UNL     1     -11.133  17.618 -18.573  1.00  0.00     0.002 A 
HETATM   17  C10 UNL     1     -10.667  16.663 -17.696  1.00  0.00     0.031 A 
ENDBRANCH  10  12
ENDBRANCH   4  10
TORSDOF 4
ENDMDL
MODEL 3
REMARK VINA RESULT: -5.643671491      0.917      1.055
REMARK  4 active torsions:
REMARK  status: ('A' for Active; 'I' for Inactive)
REMARK    1  A    between atoms: O1_2  and  C2_3 
REMARK    2  A    between atoms: C2_3  and  C3_5 
REMARK    3  A    between atoms: N2_8  and  N3_10 
REMARK    4  A    between atoms: N3_10  and  C5_12 
ROOT
HETATM    1  C3  UNL     1     -11.124  13.194 -16.336  1.00  0.00     0.204 C 
HETATM    2  C4  UNL     1     -10.013  12.572 -17.018  1.00  0.00     0.125 C 
HETATM    3  N1  UNL     1      -9.120  12.081 -17.551  1.00  0.00    -0.190 NA
HETATM    4  N2  UNL     1     -11.381  14.443 -16.584  1.00  0.00    -0.285 N 
ATOM      5  H2  UNL     1     -12.165  14.881 -16.098  1.00  0.00     0.188 HD
ENDROOT
BRANCH   1   6
HETATM    6  C2  UNL     1     -11.942  12.477 -15.400  1.00  0.00     0.322 C 
HETATM    7  O2  UNL     1     -13.036  11.944 -15.750  1.00  0.00    -0.257 OA
BRANCH   6   8
HETATM    8  O1  UNL     1     -11.546  12.355 -14.091  1.00  0.00    -0.321 OA
HETATM    9  C1  UNL     1     -11.374  11.124 -13.428  1.00  0.00     0.213 C 
ENDBRANCH   6   8
ENDBRANCH   1   6
BRANCH   4  10
HETATM   10  N3  UNL     1     -10.655  15.204 -17.463  1.00  0.00    -0.300 N 
ATOM     11  H3  UNL     1      -9.672  15.395 -17.273  1.00  0.00     0.187 HD
BRANCH  10  12
HETATM   12  C5  UNL     1     -11.255  15.724 -18.629  1.00  0.00     0.048 A 
HETATM   13  C6  UNL     1     -11.499  17.080 -18.806  1.00  0.00     0.031 A 
HETATM   14  C7  UNL     1     -12.098  17.588 -19.935  1.00  0.00     0.002 A 
HETATM   15  C8  UNL     1     -12.484  16.740 -20.948  1.00  0.00     0.000 A 
HETATM   16  C9  UNL     1     -12.264  15.386 -20.817  1.00  0.00     0.002 A 
HETATM   17  C10 UNL     1     -11.660  14.904 -19.676  1.00  0.00     0.031 A 
ENDBRANCH  10  12
ENDBRANCH   4  10
TORSDOF 4
ENDMDL
MODEL 4
REMARK VINA RESULT: -5.589983090      1.590      1.916
REMARK  4 active torsions:
REMARK  status: ('A' for Active; 'I' for Inactive)
REMARK    1  A    between atoms: O1_2  and  C2_3 
REMARK    2  A    between atoms: C2_3  and  C3_5 
REMARK    3  A    between atoms: N2_8  and  N3_10 
REMARK    4  A    between atoms: N3_10  and  C5_12 
ROOT
HETATM    1  C3  UNL     1     -10.241  11.121 -15.794  1.00  0.00     0.204 C 
HETATM    2  C4  UNL     1      -9.546  10.464 -16.877  1.00  0.00     0.125 C 
HETATM    3  N1  UNL     1      -8.979   9.947 -17.734  1.00  0.00    -0.190 NA
HETATM    4  N2  UNL     1     -10.559  12.373 -15.931  1.00  0.00    -0.285 N 
ATOM      5  H2  UNL     1     -11.047  12.835 -15.164  1.00  0.00     0.188 HD
ENDROOT
BRANCH   1   6
HETATM    6  C2  UNL     1     -10.583  10.435 -14.581  1.00  0.00     0.322 C 
HETATM    7  O2  UNL     1     -10.432   9.182 -14.464  1.00  0.00    -0.257 OA
BRANCH   6   8
HETATM    8  O1  UNL     1     -11.088  11.134 -13.512  1.00  0.00    -0.321 OA
HETATM    9  C1  UNL     1     -11.722  10.537 -12.405  1.00  0.00     0.213 C 
ENDBRANCH   6   8
ENDBRANCH   1   6
BRANCH   4  10
HETATM   10  N3  UNL     1     -10.273  13.106 -17.054  1.00  0.00    -0.300 N 
ATOM     11  H3  UNL     1      -9.633  12.730 -17.754  1.00  0.00     0.187 HD
BRANCH  10  12
HETATM   12  C5  UNL     1     -10.856  14.375 -17.252  1.00  0.00     0.048 A 
HETATM   13  C6  UNL     1     -12.185  14.645 -16.952  1.00  0.00     0.031 A 
HETATM   14  C7  UNL     1     -12.760  15.878 -17.158  1.00  0.00     0.002 A 
HETATM   15  C8  UNL     1     -12.011  16.905 -17.683  1.00  0.00     0.000 A 
HETATM   16  C9  UNL     1     -10.688  16.685 -17.998  1.00  0.00     0.002 A 
HETATM   17  C10 UNL     1     -10.136  15.441 -17.780  1.00  0.00     0.031 A 
ENDBRANCH  10  12
ENDBRANCH   4  10
TORSDOF 4
ENDMDL
MODEL 5
REMARK VINA RESULT: -5.578381943      1.557      1.861
REMARK  4 active torsions:
REMARK  status: ('A' for Active; 'I' for Inactive)
REMARK    1  A    between atoms: O1_2  and  C2_3 
REMARK    2  A    between atoms: C2_3  and  C3_5 
REMARK    3  A    between atoms: N2_8  and  N3_10 
REMARK    4  A    between atoms: N3_10  and  C5_12 
ROOT
HETATM    1  C3  UNL     1     -10.350  11.325 -15.658  1.00  0.00     0.204 C 
HETATM    2  C4  UNL     1      -9.612  10.612 -16.674  1.00  0.00     0.125 C 
HETATM    3  N1  UNL     1      -9.011  10.050 -17.478  1.00  0.00    -0.190 NA
HETATM    4  N2  UNL     1     -10.673  12.564 -15.881  1.00  0.00    -0.285 N 
ATOM      5  H2  UNL     1     -11.191  13.066 -15.160  1.00  0.00     0.188 HD
ENDROOT
BRANCH   1   6
HETATM    6  C2  UNL     1     -10.730  10.710 -14.419  1.00  0.00     0.322 C 
HETATM    7  O2  UNL     1     -11.206  11.389 -13.461  1.00  0.00    -0.257 OA
BRANCH   6   8
HETATM    8  O1  UNL     1     -10.583   9.354 -14.249  1.00  0.00    -0.321 OA
HETATM    9  C1  UNL     1     -10.950   8.660 -13.080  1.00  0.00     0.213 C 
ENDBRANCH   6   8
ENDBRANCH   1   6
BRANCH   4  10
HETATM   10  N3  UNL     1     -10.353  13.231 -17.036  1.00  0.00    -0.300 N 
ATOM     11  H3  UNL     1      -9.722  12.799 -17.710  1.00  0.00     0.187 HD
BRANCH  10  12
HETATM   12  C5  UNL     1     -10.889  14.509 -17.299  1.00  0.00     0.048 A 
HETATM   13  C6  UNL     1     -10.142  15.535 -17.862  1.00  0.00     0.031 A 
HETATM   14  C7  UNL     1     -10.658  16.787 -18.105  1.00  0.00     0.002 A 
HETATM   15  C8  UNL     1     -11.967  17.063 -17.786  1.00  0.00     0.000 A 
HETATM   16  C9  UNL     1     -12.748  16.077 -17.224  1.00  0.00     0.002 A 
HETATM   17  C10 UNL     1     -12.207  14.830 -16.992  1.00  0.00     0.031 A 
ENDBRANCH  10  12
ENDBRANCH   4  10
TORSDOF 4
ENDMDL
