MODEL 1
REMARK VINA RESULT: -4.213539091      0.000      0.000
REMARK  4 active torsions:
REMARK  status: ('A' for Active; 'I' for Inactive)
REMARK    1  A    between atoms: N1_2  and  C3_4 
REMARK    2  A    between atoms: C3_4  and  C4_5 
REMARK    3  A    between atoms: C4_5  and  S1_6 
REMARK    4  A    between atoms: S1_6  and  C5_7 
ROOT
HETATM    1  C5  UNL     1     -12.859  13.466 -16.035  1.00  0.00     0.113 A 
HETATM    2  N2  UNL     1     -13.834  14.212 -16.301  1.00  0.00    -0.353 N 
ATOM      3  H2  UNL     1     -14.766  13.960 -15.971  1.00  0.00     0.166 HD
HETATM    4  C6  UNL     1     -13.660  15.365 -17.031  1.00  0.00     0.116 A 
HETATM    5  C7  UNL     1     -12.455  15.651 -17.432  1.00  0.00     0.069 A 
HETATM    6 BR1  UNL     1     -11.857  17.116 -18.430  1.00  0.00    -0.042 Br
HETATM    7  S2  UNL     1     -11.459  14.316 -16.818  1.00  0.00    -0.056 SA
ENDROOT
BRANCH   1   8
HETATM    8  S1  UNL     1     -12.748  11.934 -15.129  1.00  0.00    -0.103 SA
BRANCH   8   9
HETATM    9  C4  UNL     1     -11.195  11.878 -14.210  1.00  0.00     0.111 C 
BRANCH   9  10
HETATM   10  C3  UNL     1     -11.395  11.402 -12.788  1.00  0.00     0.282 C 
BRANCH  10  11
HETATM   11  N1  UNL     1     -11.317   9.982 -12.669  1.00  0.00     0.080 N 
HETATM   12  C1  UNL     1     -10.629   9.296 -13.710  1.00  0.00     0.309 C 
HETATM   13  C2  UNL     1     -12.555   9.346 -12.332  1.00  0.00     0.309 C 
ENDBRANCH  10  11
ENDBRANCH   9  10
ENDBRANCH   8   9
ENDBRANCH   1   8
TORSDOF 4
ENDMDL
MODEL 2
REMARK VINA RESULT: -4.193327176      0.314      1.014
REMARK  4 active torsions:
REMARK  status: ('A' for Active; 'I' for Inactive)
REMARK    1  A    between atoms: N1_2  and  C3_4 
REMARK    2  A    between atoms: C3_4  and  C4_5 
REMARK    3  A    between atoms: C4_5  and  S1_6 
REMARK    4  A    between atoms: S1_6  and  C5_7 
ROOT
HETATM    1  C5  UNL     1     -12.848  13.450 -16.015  1.00  0.00     0.113 A 
HETATM    2  N2  UNL     1     -13.881  14.130 -16.236  1.00  0.00    -0.353 N 
ATOM      3  H2  UNL     1     -14.774  13.830 -15.846  1.00  0.00     0.166 HD
HETATM    4  C6  UNL     1     -13.820  15.273 -16.997  1.00  0.00     0.116 A 
HETATM    5  C7  UNL     1     -12.661  15.622 -17.475  1.00  0.00     0.069 A 
HETATM    6 BR1  UNL     1     -12.212  17.097 -18.535  1.00  0.00    -0.042 Br
HETATM    7  S2  UNL     1     -11.550  14.364 -16.896  1.00  0.00    -0.056 SA
ENDROOT
BRANCH   1   8
HETATM    8  S1  UNL     1     -12.591  11.948 -15.088  1.00  0.00    -0.103 SA
BRANCH   8   9
HETATM    9  C4  UNL     1     -11.331  12.218 -13.823  1.00  0.00     0.111 C 
BRANCH   9  10
HETATM   10  C3  UNL     1     -11.414  11.194 -12.713  1.00  0.00     0.282 C 
BRANCH  10  11
HETATM   11  N1  UNL     1     -11.736   9.889 -13.195  1.00  0.00     0.080 N 
HETATM   12  C1  UNL     1     -12.660   9.137 -12.417  1.00  0.00     0.309 C 
HETATM   13  C2  UNL     1     -10.604   9.107 -13.591  1.00  0.00     0.309 C 
ENDBRANCH  10  11
ENDBRANCH   9  10
ENDBRANCH   8   9
ENDBRANCH   1   8
TORSDOF 4
ENDMDL
MODEL 3
REMARK VINA RESULT: -4.132040880      1.256      1.387
REMARK  4 active torsions:
REMARK  status: ('A' for Active; 'I' for Inactive)
REMARK    1  A    between atoms: N1_2  and  C3_4 
REMARK    2  A    between atoms: C3_4  and  C4_5 
REMARK    3  A    between atoms: C4_5  and  S1_6 
REMARK    4  A    between atoms: S1_6  and  C5_7 
ROOT
HETATM    1  C5  UNL     1     -12.060  13.960 -16.141  1.00  0.00     0.113 A 
HETATM    2  N2  UNL     1     -10.935  14.381 -16.510  1.00  0.00    -0.353 N 
ATOM      3  H2  UNL     1     -10.089  13.961 -16.124  1.00  0.00     0.166 HD
HETATM    4  C6  UNL     1     -10.831  15.400 -17.427  1.00  0.00     0.116 A 
HETATM    5  C7  UNL     1     -11.935  15.907 -17.895  1.00  0.00     0.069 A 
HETATM    6 BR1  UNL     1     -12.170  17.285 -19.139  1.00  0.00    -0.042 Br
HETATM    7  S2  UNL     1     -13.220  14.993 -17.080  1.00  0.00    -0.056 SA
ENDROOT
BRANCH   1   8
HETATM    8  S1  UNL     1     -12.530  12.679 -14.992  1.00  0.00    -0.103 SA
BRANCH   8   9
HETATM    9  C4  UNL     1     -11.064  12.047 -14.148  1.00  0.00     0.111 C 
BRANCH   9  10
HETATM   10  C3  UNL     1     -11.397  11.478 -12.786  1.00  0.00     0.282 C 
BRANCH  10  11
HETATM   11  N1  UNL     1     -11.303  10.054 -12.750  1.00  0.00     0.080 N 
HETATM   12  C1  UNL     1     -10.683   9.431 -13.868  1.00  0.00     0.309 C 
HETATM   13  C2  UNL     1     -12.513   9.390 -12.366  1.00  0.00     0.309 C 
ENDBRANCH  10  11
ENDBRANCH   9  10
ENDBRANCH   8   9
ENDBRANCH   1   8
TORSDOF 4
ENDMDL
MODEL 4
REMARK VINA RESULT: -4.048713791      1.312      1.730
REMARK  4 active torsions:
REMARK  status: ('A' for Active; 'I' for Inactive)
REMARK    1  A    between atoms: N1_2  and  C3_4 
REMARK    2  A    between atoms: C3_4  and  C4_5 
REMARK    3  A    between atoms: C4_5  and  S1_6 
REMARK    4  A    between atoms: S1_6  and  C5_7 
ROOT
HETATM    1  C5  UNL     1     -12.046  13.991 -16.163  1.00  0.00     0.113 A 
HETATM    2  N2  UNL     1     -10.914  14.420 -16.498  1.00  0.00    -0.353 N 
ATOM      3  H2  UNL     1     -10.077  14.015 -16.077  1.00  0.00     0.166 HD
HETATM    4  C6  UNL     1     -10.789  15.428 -17.425  1.00  0.00     0.116 A 
HETATM    5  C7  UNL     1     -11.881  15.916 -17.939  1.00  0.00     0.069 A 
HETATM    6 BR1  UNL     1     -12.086  17.274 -19.209  1.00  0.00    -0.042 Br
HETATM    7  S2  UNL     1     -13.184  14.999 -17.156  1.00  0.00    -0.056 SA
ENDROOT
BRANCH   1   8
HETATM    8  S1  UNL     1     -12.542  12.721 -15.014  1.00  0.00    -0.103 SA
BRANCH   8   9
HETATM    9  C4  UNL     1     -11.187  12.363 -13.875  1.00  0.00     0.111 C 
BRANCH   9  10
HETATM   10  C3  UNL     1     -11.592  11.372 -12.806  1.00  0.00     0.282 C 
BRANCH  10  11
HETATM   11  N1  UNL     1     -11.840  10.069 -13.333  1.00  0.00     0.080 N 
HETATM   12  C1  UNL     1     -12.616   9.195 -12.521  1.00  0.00     0.309 C 
HETATM   13  C2  UNL     1     -10.684   9.418 -13.872  1.00  0.00     0.309 C 
ENDBRANCH  10  11
ENDBRANCH   9  10
ENDBRANCH   8   9
ENDBRANCH   1   8
TORSDOF 4
ENDMDL
MODEL 5
REMARK VINA RESULT: -4.000702115      3.390      6.170
REMARK  4 active torsions:
REMARK  status: ('A' for Active; 'I' for Inactive)
REMARK    1  A    between atoms: N1_2  and  C3_4 
REMARK    2  A    between atoms: C3_4  and  C4_5 
REMARK    3  A    between atoms: C4_5  and  S1_6 
REMARK    4  A    between atoms: S1_6  and  C5_7 
ROOT
HETATM    1  C5  UNL     1     -10.645  12.683 -15.872  1.00  0.00     0.113 A 
HETATM    2  N2  UNL     1     -11.402  13.323 -15.101  1.00  0.00    -0.353 N 
ATOM      3  H2  UNL     1     -11.641  14.291 -15.318  1.00  0.00     0.166 HD
HETATM    4  C6  UNL     1     -11.913  12.735 -13.968  1.00  0.00     0.116 A 
HETATM    5  C7  UNL     1     -11.585  11.498 -13.728  1.00  0.00     0.069 A 
HETATM    6 BR1  UNL     1     -12.087  10.396 -12.301  1.00  0.00    -0.042 Br
HETATM    7  S2  UNL     1     -10.521  11.055 -15.079  1.00  0.00    -0.056 SA
ENDROOT
BRANCH   1   8
HETATM    8  S1  UNL     1      -9.832  13.144 -17.391  1.00  0.00    -0.103 SA
BRANCH   8   9
HETATM    9  C4  UNL     1     -10.090  14.903 -17.712  1.00  0.00     0.111 C 
BRANCH   9  10
HETATM   10  C3  UNL     1     -11.407  15.164 -18.410  1.00  0.00     0.282 C 
BRANCH  10  11
HETATM   11  N1  UNL     1     -12.321  15.900 -17.597  1.00  0.00     0.080 N 
HETATM   12  C1  UNL     1     -13.522  15.232 -17.231  1.00  0.00     0.309 C 
HETATM   13  C2  UNL     1     -12.563  17.239 -18.042  1.00  0.00     0.309 C 
ENDBRANCH  10  11
ENDBRANCH   9  10
ENDBRANCH   8   9
ENDBRANCH   1   8
TORSDOF 4
ENDMDL
