MODEL 1
REMARK VINA RESULT: -4.588756565      0.000      0.000
REMARK  4 active torsions:
REMARK  status: ('A' for Active; 'I' for Inactive)
REMARK    1  A    between atoms: N1_2  and  C4_5 
REMARK    2  A    between atoms: C4_5  and  C5_6 
REMARK    3  A    between atoms: C5_6  and  C6_7 
REMARK    4  A    between atoms: C6_7  and  C7_8 
ROOT
HETATM    1  C7  UNL     1     -12.972  13.792 -15.328  1.00  0.00     0.069 A 
HETATM    2  N2  UNL     1     -14.033  14.423 -15.818  1.00  0.00    -0.297 N 
ATOM      3  H2  UNL     1     -14.871  14.535 -15.246  1.00  0.00     0.187 HD
HETATM    4  N3  UNL     1     -14.004  14.884 -16.993  1.00  0.00    -0.287 N 
ATOM      5  H3  UNL     1     -14.819  15.368 -17.369  1.00  0.00     0.188 HD
HETATM    6  C8  UNL     1     -12.917  14.742 -17.741  1.00  0.00     0.138 A 
HETATM    7 BR1  UNL     1     -12.582  15.326 -19.531  1.00  0.00    -0.021 Br
HETATM    8  S1  UNL     1     -11.895  13.885 -16.650  1.00  0.00    -0.049 SA
ENDROOT
BRANCH   1   9
HETATM    9  C6  UNL     1     -12.821  13.187 -13.978  1.00  0.00     0.068 C 
BRANCH   9  10
HETATM   10  C5  UNL     1     -11.473  12.502 -13.902  1.00  0.00     0.034 C 
BRANCH  10  11
HETATM   11  C4  UNL     1     -11.583  11.235 -13.075  1.00  0.00     0.236 C 
BRANCH  11  12
HETATM   12  N1  UNL     1     -11.320  10.055 -13.839  1.00  0.00    -0.079 N 
HETATM   13  C1  UNL     1     -10.366  10.313 -14.927  1.00  0.00     0.271 C 
HETATM   14  C2  UNL     1     -12.548   9.607 -14.515  1.00  0.00     0.271 C 
HETATM   15  C3  UNL     1     -10.824   8.992 -13.018  1.00  0.00     0.271 C 
ENDBRANCH  11  12
ENDBRANCH  10  11
ENDBRANCH   9  10
ENDBRANCH   1   9
TORSDOF 4
ENDMDL
MODEL 2
REMARK VINA RESULT: -4.580993418      0.101      1.141
REMARK  4 active torsions:
REMARK  status: ('A' for Active; 'I' for Inactive)
REMARK    1  A    between atoms: N1_2  and  C4_5 
REMARK    2  A    between atoms: C4_5  and  C5_6 
REMARK    3  A    between atoms: C5_6  and  C6_7 
REMARK    4  A    between atoms: C6_7  and  C7_8 
ROOT
HETATM    1  C7  UNL     1     -12.954  13.804 -15.344  1.00  0.00     0.069 A 
HETATM    2  N2  UNL     1     -14.026  14.406 -15.846  1.00  0.00    -0.297 N 
ATOM      3  H2  UNL     1     -14.888  14.451 -15.303  1.00  0.00     0.187 HD
HETATM    4  N3  UNL     1     -13.976  14.922 -16.997  1.00  0.00    -0.287 N 
ATOM      5  H3  UNL     1     -14.800  15.384 -17.383  1.00  0.00     0.188 HD
HETATM    6  C8  UNL     1     -12.857  14.866 -17.709  1.00  0.00     0.138 A 
HETATM    7 BR1  UNL     1     -12.486  15.549 -19.456  1.00  0.00    -0.021 Br
HETATM    8  S1  UNL     1     -11.834  14.009 -16.618  1.00  0.00    -0.049 SA
ENDROOT
BRANCH   1   9
HETATM    9  C6  UNL     1     -12.823  13.144 -14.017  1.00  0.00     0.068 C 
BRANCH   9  10
HETATM   10  C5  UNL     1     -11.456  12.500 -13.930  1.00  0.00     0.034 C 
BRANCH  10  11
HETATM   11  C4  UNL     1     -11.538  11.220 -13.120  1.00  0.00     0.236 C 
BRANCH  11  12
HETATM   12  N1  UNL     1     -11.316  10.051 -13.914  1.00  0.00    -0.079 N 
HETATM   13  C1  UNL     1     -12.565   9.542 -14.496  1.00  0.00     0.271 C 
HETATM   14  C2  UNL     1     -10.820   8.953 -13.069  1.00  0.00     0.271 C 
HETATM   15  C3  UNL     1     -10.371  10.297 -14.962  1.00  0.00     0.271 C 
ENDBRANCH  11  12
ENDBRANCH  10  11
ENDBRANCH   9  10
ENDBRANCH   1   9
TORSDOF 4
ENDMDL
MODEL 3
REMARK VINA RESULT: -4.574693406      0.096      1.117
REMARK  4 active torsions:
REMARK  status: ('A' for Active; 'I' for Inactive)
REMARK    1  A    between atoms: N1_2  and  C4_5 
REMARK    2  A    between atoms: C4_5  and  C5_6 
REMARK    3  A    between atoms: C5_6  and  C6_7 
REMARK    4  A    between atoms: C6_7  and  C7_8 
ROOT
HETATM    1  C7  UNL     1     -12.970  13.783 -15.355  1.00  0.00     0.069 A 
HETATM    2  N2  UNL     1     -14.013  14.457 -15.824  1.00  0.00    -0.297 N 
ATOM      3  H2  UNL     1     -14.828  14.614 -15.232  1.00  0.00     0.187 HD
HETATM    4  N3  UNL     1     -13.993  14.903 -17.005  1.00  0.00    -0.287 N 
ATOM      5  H3  UNL     1     -14.794  15.421 -17.366  1.00  0.00     0.188 HD
HETATM    6  C8  UNL     1     -12.934  14.702 -17.780  1.00  0.00     0.138 A 
HETATM    7 BR1  UNL     1     -12.620  15.250 -19.586  1.00  0.00    -0.021 Br
HETATM    8  S1  UNL     1     -11.924  13.810 -16.706  1.00  0.00    -0.049 SA
ENDROOT
BRANCH   1   9
HETATM    9  C6  UNL     1     -12.811  13.186 -14.002  1.00  0.00     0.068 C 
BRANCH   9  10
HETATM   10  C5  UNL     1     -11.451  12.526 -13.920  1.00  0.00     0.034 C 
BRANCH  10  11
HETATM   11  C4  UNL     1     -11.552  11.228 -13.142  1.00  0.00     0.236 C 
BRANCH  11  12
HETATM   12  N1  UNL     1     -11.344  10.076 -13.964  1.00  0.00    -0.079 N 
HETATM   13  C1  UNL     1     -10.722   8.977 -13.213  1.00  0.00     0.271 C 
HETATM   14  C2  UNL     1     -10.386  10.388 -15.036  1.00  0.00     0.271 C 
HETATM   15  C3  UNL     1     -12.567   9.616 -14.549  1.00  0.00     0.271 C 
ENDBRANCH  11  12
ENDBRANCH  10  11
ENDBRANCH   9  10
ENDBRANCH   1   9
TORSDOF 4
ENDMDL
MODEL 4
REMARK VINA RESULT: -4.546942790      3.579      6.310
REMARK  4 active torsions:
REMARK  status: ('A' for Active; 'I' for Inactive)
REMARK    1  A    between atoms: N1_2  and  C4_5 
REMARK    2  A    between atoms: C4_5  and  C5_6 
REMARK    3  A    between atoms: C5_6  and  C6_7 
REMARK    4  A    between atoms: C6_7  and  C7_8 
ROOT
HETATM    1  C7  UNL     1     -10.481  12.907 -16.373  1.00  0.00     0.069 A 
HETATM    2  N2  UNL     1     -11.295  13.593 -15.579  1.00  0.00    -0.297 N 
ATOM      3  H2  UNL     1     -11.612  14.524 -15.852  1.00  0.00     0.187 HD
HETATM    4  N3  UNL     1     -11.677  13.091 -14.485  1.00  0.00    -0.287 N 
ATOM      5  H3  UNL     1     -12.302  13.618 -13.875  1.00  0.00     0.188 HD
HETATM    6  C8  UNL     1     -11.268  11.880 -14.125  1.00  0.00     0.138 A 
HETATM    7 BR1  UNL     1     -11.673  10.874 -12.550  1.00  0.00    -0.021 Br
HETATM    8  S1  UNL     1     -10.274  11.471 -15.471  1.00  0.00    -0.049 SA
ENDROOT
BRANCH   1   9
HETATM    9  C6  UNL     1      -9.930  13.330 -17.688  1.00  0.00     0.068 C 
BRANCH   9  10
HETATM   10  C5  UNL     1      -9.892  14.843 -17.734  1.00  0.00     0.034 C 
BRANCH  10  11
HETATM   11  C4  UNL     1     -10.885  15.355 -18.760  1.00  0.00     0.236 C 
BRANCH  11  12
HETATM   12  N1  UNL     1     -11.515  16.573 -18.356  1.00  0.00    -0.079 N 
HETATM   13  C1  UNL     1     -12.795  16.325 -17.680  1.00  0.00     0.271 C 
HETATM   14  C2  UNL     1     -11.863  17.378 -19.538  1.00  0.00     0.271 C 
HETATM   15  C3  UNL     1     -10.669  17.346 -17.497  1.00  0.00     0.271 C 
ENDBRANCH  11  12
ENDBRANCH  10  11
ENDBRANCH   9  10
ENDBRANCH   1   9
TORSDOF 4
ENDMDL
MODEL 5
REMARK VINA RESULT: -4.543604712      3.572      6.307
REMARK  4 active torsions:
REMARK  status: ('A' for Active; 'I' for Inactive)
REMARK    1  A    between atoms: N1_2  and  C4_5 
REMARK    2  A    between atoms: C4_5  and  C5_6 
REMARK    3  A    between atoms: C5_6  and  C6_7 
REMARK    4  A    between atoms: C6_7  and  C7_8 
ROOT
HETATM    1  C7  UNL     1     -10.516  12.913 -16.343  1.00  0.00     0.069 A 
HETATM    2  N2  UNL     1     -11.361  13.585 -15.571  1.00  0.00    -0.297 N 
ATOM      3  H2  UNL     1     -11.706  14.499 -15.866  1.00  0.00     0.187 HD
HETATM    4  N3  UNL     1     -11.736  13.092 -14.471  1.00  0.00    -0.287 N 
ATOM      5  H3  UNL     1     -12.385  13.609 -13.878  1.00  0.00     0.188 HD
HETATM    6  C8  UNL     1     -11.290  11.903 -14.083  1.00  0.00     0.138 A 
HETATM    7 BR1  UNL     1     -11.676  10.914 -12.492  1.00  0.00    -0.021 Br
HETATM    8  S1  UNL     1     -10.268  11.503 -15.411  1.00  0.00    -0.049 SA
ENDROOT
BRANCH   1   9
HETATM    9  C6  UNL     1      -9.966  13.328 -17.662  1.00  0.00     0.068 C 
BRANCH   9  10
HETATM   10  C5  UNL     1      -9.937  14.841 -17.720  1.00  0.00     0.034 C 
BRANCH  10  11
HETATM   11  C4  UNL     1     -10.917  15.337 -18.766  1.00  0.00     0.236 C 
BRANCH  11  12
HETATM   12  N1  UNL     1     -11.553  16.561 -18.387  1.00  0.00    -0.079 N 
HETATM   13  C1  UNL     1     -11.818  17.419 -19.549  1.00  0.00     0.271 C 
HETATM   14  C2  UNL     1     -10.655  17.353 -17.532  1.00  0.00     0.271 C 
HETATM   15  C3  UNL     1     -12.778  16.324 -17.685  1.00  0.00     0.271 C 
ENDBRANCH  11  12
ENDBRANCH  10  11
ENDBRANCH   9  10
ENDBRANCH   1   9
TORSDOF 4
ENDMDL
