MODEL 1
REMARK VINA RESULT: -5.026227049      0.000      0.000
REMARK  4 active torsions:
REMARK  status: ('A' for Active; 'I' for Inactive)
REMARK    1  A    between atoms: C2_2  and  N1_3 
REMARK    2  A    between atoms: N1_3  and  C3_4 
REMARK    3  A    between atoms: N1_3  and  C10_15 
REMARK    4  A    between atoms: C8_12  and  C9_13 
ROOT
HETATM    1  C3  UNL     1     -11.748  14.020 -16.194  1.00  0.00     0.099 C 
HETATM    2  C4  UNL     1     -11.225  12.870 -15.903  1.00  0.00     0.037 C 
HETATM    3  C5  UNL     1     -10.164  12.057 -16.435  1.00  0.00     0.256 C 
HETATM    4  O1  UNL     1      -9.154  12.464 -17.035  1.00  0.00    -0.267 OA
HETATM    5  N2  UNL     1     -10.483  10.672 -16.142  1.00  0.00    -0.312 N 
HETATM    6  C6  UNL     1      -9.687   9.529 -16.500  1.00  0.00     0.160 C 
HETATM    7  C7  UNL     1     -11.727  10.671 -15.441  1.00  0.00     0.092 C 
HETATM    8  S1  UNL     1     -12.842   9.508 -15.428  1.00  0.00    -0.064 SA
HETATM    9  C8  UNL     1     -11.747  12.000 -14.744  1.00  0.00     0.101 C 
ENDROOT
BRANCH   1  10
HETATM   10  N1  UNL     1     -11.543  15.000 -17.147  1.00  0.00    -0.390 N 
BRANCH  10  11
HETATM   11  C2  UNL     1     -10.325  15.692 -17.371  1.00  0.00     0.118 C 
HETATM   12  C1  UNL     1     -10.500  17.194 -17.538  1.00  0.00     0.026 C 
ENDBRANCH  10  11
BRANCH  10  13
HETATM   13  C10 UNL     1     -12.716  15.406 -17.929  1.00  0.00     0.118 C 
HETATM   14  C11 UNL     1     -13.943  15.110 -17.102  1.00  0.00     0.026 C 
ENDBRANCH  10  13
ENDBRANCH   1  10
BRANCH   9  15
HETATM   15  C9  UNL     1     -10.726  11.948 -13.654  1.00  0.00     0.131 C 
HETATM   16 CL1  UNL     1     -11.478  11.023 -12.306  1.00  0.00    -0.129 Cl
ENDBRANCH   9  15
TORSDOF 4
ENDMDL
MODEL 2
REMARK VINA RESULT: -5.006613704      1.791      2.382
REMARK  4 active torsions:
REMARK  status: ('A' for Active; 'I' for Inactive)
REMARK    1  A    between atoms: C2_2  and  N1_3 
REMARK    2  A    between atoms: N1_3  and  C3_4 
REMARK    3  A    between atoms: N1_3  and  C10_15 
REMARK    4  A    between atoms: C8_12  and  C9_13 
ROOT
HETATM    1  C3  UNL     1     -12.413  15.039 -17.560  1.00  0.00     0.099 C 
HETATM    2  C4  UNL     1     -11.686  14.058 -17.122  1.00  0.00     0.037 C 
HETATM    3  C5  UNL     1     -10.341  13.598 -17.338  1.00  0.00     0.256 C 
HETATM    4  O1  UNL     1      -9.363  14.301 -17.648  1.00  0.00    -0.267 OA
HETATM    5  N2  UNL     1     -10.328  12.163 -17.123  1.00  0.00    -0.312 N 
HETATM    6  C6  UNL     1      -9.181  11.303 -17.238  1.00  0.00     0.160 C 
HETATM    7  C7  UNL     1     -11.661  11.781 -16.784  1.00  0.00     0.092 C 
HETATM    8  S1  UNL     1     -12.372  10.361 -17.057  1.00  0.00    -0.064 SA
HETATM    9  C8  UNL     1     -12.232  13.008 -16.136  1.00  0.00     0.101 C 
ENDROOT
BRANCH   1  10
HETATM   10  N1  UNL     1     -12.245  16.096 -18.435  1.00  0.00    -0.390 N 
BRANCH  10  11
HETATM   11  C2  UNL     1     -12.167  15.994 -19.848  1.00  0.00     0.118 C 
HETATM   12  C1  UNL     1     -12.544  17.278 -20.572  1.00  0.00     0.026 C 
ENDBRANCH  10  11
BRANCH  10  13
HETATM   13  C10 UNL     1     -12.049  17.419 -17.831  1.00  0.00     0.118 C 
HETATM   14  C11 UNL     1     -10.586  17.550 -17.480  1.00  0.00     0.026 C 
ENDBRANCH  10  13
ENDBRANCH   1  10
BRANCH   9  15
HETATM   15  C9  UNL     1     -11.561  13.167 -14.811  1.00  0.00     0.131 C 
HETATM   16 CL1  UNL     1     -12.879  13.259 -13.589  1.00  0.00    -0.129 Cl
ENDBRANCH   9  15
TORSDOF 4
ENDMDL
MODEL 3
REMARK VINA RESULT: -4.973517674      1.751      2.123
REMARK  4 active torsions:
REMARK  status: ('A' for Active; 'I' for Inactive)
REMARK    1  A    between atoms: C2_2  and  N1_3 
REMARK    2  A    between atoms: N1_3  and  C3_4 
REMARK    3  A    between atoms: N1_3  and  C10_15 
REMARK    4  A    between atoms: C8_12  and  C9_13 
ROOT
HETATM    1  C3  UNL     1     -12.429  15.022 -17.499  1.00  0.00     0.099 C 
HETATM    2  C4  UNL     1     -11.702  14.034 -17.076  1.00  0.00     0.037 C 
HETATM    3  C5  UNL     1     -10.357  13.577 -17.296  1.00  0.00     0.256 C 
HETATM    4  O1  UNL     1      -9.378  14.284 -17.595  1.00  0.00    -0.267 OA
HETATM    5  N2  UNL     1     -10.345  12.140 -17.103  1.00  0.00    -0.312 N 
HETATM    6  C6  UNL     1      -9.197  11.281 -17.229  1.00  0.00     0.160 C 
HETATM    7  C7  UNL     1     -11.678  11.753 -16.771  1.00  0.00     0.092 C 
HETATM    8  S1  UNL     1     -12.389  10.337 -17.066  1.00  0.00    -0.064 SA
HETATM    9  C8  UNL     1     -12.250  12.970 -16.105  1.00  0.00     0.101 C 
ENDROOT
BRANCH   1  10
HETATM   10  N1  UNL     1     -12.259  16.092 -18.358  1.00  0.00    -0.390 N 
BRANCH  10  11
HETATM   11  C2  UNL     1     -11.940  17.419 -17.972  1.00  0.00     0.118 C 
HETATM   12  C1  UNL     1     -10.531  17.569 -17.417  1.00  0.00     0.026 C 
ENDBRANCH  10  11
BRANCH  10  13
HETATM   13  C10 UNL     1     -12.516  15.835 -19.780  1.00  0.00     0.118 C 
HETATM   14  C11 UNL     1     -12.512  17.164 -20.494  1.00  0.00     0.026 C 
ENDBRANCH  10  13
ENDBRANCH   1  10
BRANCH   9  15
HETATM   15  C9  UNL     1     -11.580  13.109 -14.778  1.00  0.00     0.131 C 
HETATM   16 CL1  UNL     1     -12.900  13.278 -13.565  1.00  0.00    -0.129 Cl
ENDBRANCH   9  15
TORSDOF 4
ENDMDL
MODEL 4
REMARK VINA RESULT: -4.794656626      4.770      6.129
REMARK  4 active torsions:
REMARK  status: ('A' for Active; 'I' for Inactive)
REMARK    1  A    between atoms: C2_2  and  N1_3 
REMARK    2  A    between atoms: N1_3  and  C3_4 
REMARK    3  A    between atoms: N1_3  and  C10_15 
REMARK    4  A    between atoms: C8_12  and  C9_13 
ROOT
HETATM    1  C3  UNL     1     -12.855  17.649 -20.738  1.00  0.00     0.099 C 
HETATM    2  C4  UNL     1     -12.435  16.617 -20.074  1.00  0.00     0.037 C 
HETATM    3  C5  UNL     1     -12.107  15.253 -20.390  1.00  0.00     0.256 C 
HETATM    4  O1  UNL     1     -11.690  14.830 -21.483  1.00  0.00    -0.267 OA
HETATM    5  N2  UNL     1     -12.344  14.458 -19.201  1.00  0.00    -0.312 N 
HETATM    6  C6  UNL     1     -12.144  13.038 -19.082  1.00  0.00     0.160 C 
HETATM    7  C7  UNL     1     -12.811  15.350 -18.190  1.00  0.00     0.092 C 
HETATM    8  S1  UNL     1     -13.794  15.007 -16.959  1.00  0.00    -0.064 SA
HETATM    9  C8  UNL     1     -12.187  16.665 -18.554  1.00  0.00     0.101 C 
ENDROOT
BRANCH   1  10
HETATM   10  N1  UNL     1     -13.190  17.925 -22.051  1.00  0.00    -0.390 N 
BRANCH  10  11
HETATM   11  C2  UNL     1     -12.497  18.816 -22.910  1.00  0.00     0.118 C 
HETATM   12  C1  UNL     1     -13.319  20.028 -23.322  1.00  0.00     0.026 C 
ENDBRANCH  10  11
BRANCH  10  13
HETATM   13  C10 UNL     1     -14.416  17.300 -22.558  1.00  0.00     0.118 C 
HETATM   14  C11 UNL     1     -14.024  16.361 -23.674  1.00  0.00     0.026 C 
ENDBRANCH  10  13
ENDBRANCH   1  10
BRANCH   9  15
HETATM   15  C9  UNL     1     -10.722  16.554 -18.281  1.00  0.00     0.131 C 
HETATM   16 CL1  UNL     1     -10.302  17.952 -17.228  1.00  0.00    -0.129 Cl
ENDBRANCH   9  15
TORSDOF 4
ENDMDL
MODEL 5
REMARK VINA RESULT: -4.777473778      1.045      1.124
REMARK  4 active torsions:
REMARK  status: ('A' for Active; 'I' for Inactive)
REMARK    1  A    between atoms: C2_2  and  N1_3 
REMARK    2  A    between atoms: N1_3  and  C3_4 
REMARK    3  A    between atoms: N1_3  and  C10_15 
REMARK    4  A    between atoms: C8_12  and  C9_13 
ROOT
HETATM    1  C3  UNL     1     -11.958  13.334 -15.870  1.00  0.00     0.099 C 
HETATM    2  C4  UNL     1     -11.492  12.203 -15.439  1.00  0.00     0.037 C 
HETATM    3  C5  UNL     1     -10.367  11.365 -15.757  1.00  0.00     0.256 C 
HETATM    4  O1  UNL     1      -9.274  11.742 -16.216  1.00  0.00    -0.267 OA
HETATM    5  N2  UNL     1     -10.735   9.998 -15.442  1.00  0.00    -0.312 N 
HETATM    6  C6  UNL     1      -9.900   8.839 -15.611  1.00  0.00     0.160 C 
HETATM    7  C7  UNL     1     -12.071  10.031 -14.941  1.00  0.00     0.092 C 
HETATM    8  S1  UNL     1     -13.182   8.868 -15.036  1.00  0.00    -0.064 SA
HETATM    9  C8  UNL     1     -12.191  11.396 -14.329  1.00  0.00     0.101 C 
ENDROOT
BRANCH   1  10
HETATM   10  N1  UNL     1     -11.603  14.261 -16.832  1.00  0.00    -0.390 N 
BRANCH  10  11
HETATM   11  C2  UNL     1     -10.387  14.990 -16.868  1.00  0.00     0.118 C 
HETATM   12  C1  UNL     1      -9.487  14.616 -18.036  1.00  0.00     0.026 C 
ENDBRANCH  10  11
BRANCH  10  13
HETATM   13  C10 UNL     1     -12.615  14.566 -17.849  1.00  0.00     0.118 C 
HETATM   14  C11 UNL     1     -13.814  15.151 -17.142  1.00  0.00     0.026 C 
ENDBRANCH  10  13
ENDBRANCH   1  10
BRANCH   9  15
HETATM   15  C9  UNL     1     -11.350  11.406 -13.094  1.00  0.00     0.131 C 
HETATM   16 CL1  UNL     1     -12.241  10.433 -11.871  1.00  0.00    -0.129 Cl
ENDBRANCH   9  15
TORSDOF 4
ENDMDL
