MODEL 1
REMARK VINA RESULT: -5.565813486      0.000      0.000
REMARK  5 active torsions:
REMARK  status: ('A' for Active; 'I' for Inactive)
REMARK    1  A    between atoms: C2_2  and  C3_3 
REMARK    2  A    between atoms: C3_3  and  N1_4 
REMARK    3  A    between atoms: C3_3  and  C9_15 
REMARK    4  A    between atoms: N1_4  and  C4_6 
REMARK    5  A    between atoms: C9_15  and  C10_17 
ROOT
HETATM    1  N1  UNL     1     -11.762  14.569 -16.051  1.00  0.00    -0.363 N 
ATOM      2  H1  UNL     1     -12.084  15.118 -15.255  1.00  0.00     0.162 HD
ENDROOT
BRANCH   1   3
HETATM    3  C3  UNL     1     -11.091  13.417 -15.627  1.00  0.00     0.161 C 
BRANCH   3   4
HETATM    4  C2  UNL     1     -10.281  12.762 -16.748  1.00  0.00     0.029 C 
HETATM    5  C1  UNL     1      -8.963  13.467 -16.968  1.00  0.00     0.007 C 
ENDBRANCH   3   4
BRANCH   3   6
HETATM    6  C9  UNL     1     -12.080  12.450 -15.080  1.00  0.00     0.216 C 
HETATM    7  O1  UNL     1     -12.196  12.346 -13.832  1.00  0.00    -0.287 OA
BRANCH   6   8
HETATM    8  C10 UNL     1     -12.936  11.605 -15.891  1.00  0.00     0.193 C 
HETATM    9  C11 UNL     1     -12.831  10.125 -15.871  1.00  0.00     0.100 C 
HETATM   10  O2  UNL     1     -13.807  12.091 -16.648  1.00  0.00    -0.290 OA
ENDBRANCH   6   8
ENDBRANCH   3   6
ENDBRANCH   1   3
BRANCH   1  11
HETATM   11  C4  UNL     1     -12.074  15.107 -17.117  1.00  0.00     0.124 A 
HETATM   12  N2  UNL     1     -13.086  14.681 -17.912  1.00  0.00    -0.285 N 
HETATM   13  N3  UNL     1     -13.180  15.447 -18.972  1.00  0.00    -0.303 N 
ATOM     14  H2  UNL     1     -13.687  13.881 -17.714  1.00  0.00     0.188 HD
HETATM   15  C5  UNL     1     -12.238  16.403 -18.918  1.00  0.00     0.031 A 
ATOM     16  H3  UNL     1     -13.862  15.335 -19.722  1.00  0.00     0.186 HD
HETATM   17  C6  UNL     1     -11.982  17.476 -19.901  1.00  0.00     0.070 C 
HETATM   18  C7  UNL     1     -11.533  16.192 -17.742  1.00  0.00     0.007 A 
HETATM   19  C8  UNL     1     -10.392  17.070 -17.333  1.00  0.00     0.054 C 
ENDBRANCH   1  11
TORSDOF 5
ENDMDL
MODEL 2
REMARK VINA RESULT: -5.564919390      2.270      5.195
REMARK  5 active torsions:
REMARK  status: ('A' for Active; 'I' for Inactive)
REMARK    1  A    between atoms: C2_2  and  C3_3 
REMARK    2  A    between atoms: C3_3  and  N1_4 
REMARK    3  A    between atoms: C3_3  and  C9_15 
REMARK    4  A    between atoms: N1_4  and  C4_6 
REMARK    5  A    between atoms: C9_15  and  C10_17 
ROOT
HETATM    1  N1  UNL     1     -11.213  13.449 -16.148  1.00  0.00    -0.363 N 
ATOM      2  H1  UNL     1     -10.731  14.333 -15.982  1.00  0.00     0.162 HD
ENDROOT
BRANCH   1   3
HETATM    3  C3  UNL     1     -11.344  13.200 -17.518  1.00  0.00     0.161 C 
BRANCH   3   4
HETATM    4  C2  UNL     1      -9.997  13.181 -18.244  1.00  0.00     0.029 C 
HETATM    5  C1  UNL     1      -8.977  14.051 -17.549  1.00  0.00     0.007 C 
ENDBRANCH   3   4
BRANCH   3   6
HETATM    6  C9  UNL     1     -12.232  14.231 -18.118  1.00  0.00     0.216 C 
HETATM    7  O1  UNL     1     -12.607  14.085 -19.310  1.00  0.00    -0.287 OA
BRANCH   6   8
HETATM    8  C10 UNL     1     -12.707  15.411 -17.422  1.00  0.00     0.193 C 
HETATM    9  C11 UNL     1     -12.172  16.765 -17.707  1.00  0.00     0.100 C 
HETATM   10  O2  UNL     1     -13.596  15.338 -16.542  1.00  0.00    -0.290 OA
ENDBRANCH   6   8
ENDBRANCH   3   6
ENDBRANCH   1   3
BRANCH   1  11
HETATM   11  C4  UNL     1     -11.515  12.901 -15.084  1.00  0.00     0.124 A 
HETATM   12  N2  UNL     1     -12.507  13.331 -14.267  1.00  0.00    -0.285 N 
HETATM   13  N3  UNL     1     -12.594  12.553 -13.215  1.00  0.00    -0.303 N 
ATOM     14  H2  UNL     1     -13.099  14.143 -14.443  1.00  0.00     0.188 HD
HETATM   15  C5  UNL     1     -11.667  11.584 -13.298  1.00  0.00     0.031 A 
ATOM     16  H3  UNL     1     -13.261  12.665 -12.452  1.00  0.00     0.186 HD
HETATM   17  C6  UNL     1     -11.410  10.494 -12.333  1.00  0.00     0.070 C 
HETATM   18  C7  UNL     1     -10.980  11.800 -14.482  1.00  0.00     0.007 A 
HETATM   19  C8  UNL     1      -9.859  10.911 -14.922  1.00  0.00     0.054 C 
ENDBRANCH   1  11
TORSDOF 5
ENDMDL
MODEL 3
REMARK VINA RESULT: -5.521053040      2.279      5.300
REMARK  5 active torsions:
REMARK  status: ('A' for Active; 'I' for Inactive)
REMARK    1  A    between atoms: C2_2  and  C3_3 
REMARK    2  A    between atoms: C3_3  and  N1_4 
REMARK    3  A    between atoms: C3_3  and  C9_15 
REMARK    4  A    between atoms: N1_4  and  C4_6 
REMARK    5  A    between atoms: C9_15  and  C10_17 
ROOT
HETATM    1  N1  UNL     1     -11.388  14.225 -16.107  1.00  0.00    -0.363 N 
ATOM      2  H1  UNL     1     -11.894  14.915 -15.551  1.00  0.00     0.162 HD
ENDROOT
BRANCH   1   3
HETATM    3  C3  UNL     1     -11.235  14.661 -17.427  1.00  0.00     0.161 C 
BRANCH   3   4
HETATM    4  C2  UNL     1     -10.150  15.731 -17.571  1.00  0.00     0.029 C 
HETATM    5  C1  UNL     1     -10.524  17.004 -16.850  1.00  0.00     0.007 C 
ENDBRANCH   3   4
BRANCH   3   6
HETATM    6  C9  UNL     1     -12.537  15.185 -17.921  1.00  0.00     0.216 C 
HETATM    7  O1  UNL     1     -13.475  15.343 -17.098  1.00  0.00    -0.287 OA
BRANCH   6   8
HETATM    8  C10 UNL     1     -12.810  15.532 -19.302  1.00  0.00     0.193 C 
HETATM    9  C11 UNL     1     -12.759  16.933 -19.789  1.00  0.00     0.100 C 
HETATM   10  O2  UNL     1     -13.104  14.659 -20.150  1.00  0.00    -0.290 OA
ENDBRANCH   6   8
ENDBRANCH   3   6
ENDBRANCH   1   3
BRANCH   1  11
HETATM   11  C4  UNL     1     -11.084  13.242 -15.425  1.00  0.00     0.124 A 
HETATM   12  N2  UNL     1     -10.085  12.382 -15.742  1.00  0.00    -0.285 N 
HETATM   13  N3  UNL     1      -9.997  11.439 -14.834  1.00  0.00    -0.303 N 
ATOM     14  H2  UNL     1      -9.489  12.457 -16.566  1.00  0.00     0.188 HD
HETATM   15  C5  UNL     1     -10.930  11.641 -13.889  1.00  0.00     0.031 A 
ATOM     16  H3  UNL     1      -9.325  10.673 -14.844  1.00  0.00     0.186 HD
HETATM   17  C6  UNL     1     -11.188  10.823 -12.685  1.00  0.00     0.070 C 
HETATM   18  C7  UNL     1     -11.622  12.784 -14.259  1.00  0.00     0.007 A 
HETATM   19  C8  UNL     1     -12.750  13.328 -13.439  1.00  0.00     0.054 C 
ENDBRANCH   1  11
TORSDOF 5
ENDMDL
MODEL 4
REMARK VINA RESULT: -5.501375819      2.920      5.486
REMARK  5 active torsions:
REMARK  status: ('A' for Active; 'I' for Inactive)
REMARK    1  A    between atoms: C2_2  and  C3_3 
REMARK    2  A    between atoms: C3_3  and  N1_4 
REMARK    3  A    between atoms: C3_3  and  C9_15 
REMARK    4  A    between atoms: N1_4  and  C4_6 
REMARK    5  A    between atoms: C9_15  and  C10_17 
ROOT
HETATM    1  N1  UNL     1     -11.039  13.318 -16.052  1.00  0.00    -0.363 N 
ATOM      2  H1  UNL     1     -11.946  13.248 -16.513  1.00  0.00     0.162 HD
ENDROOT
BRANCH   1   3
HETATM    3  C3  UNL     1     -10.311  14.408 -16.539  1.00  0.00     0.161 C 
BRANCH   3   4
HETATM    4  C2  UNL     1     -11.210  15.503 -17.119  1.00  0.00     0.029 C 
HETATM    5  C1  UNL     1     -10.490  16.829 -17.201  1.00  0.00     0.007 C 
ENDBRANCH   3   4
BRANCH   3   6
HETATM    6  C9  UNL     1      -9.355  13.932 -17.575  1.00  0.00     0.216 C 
HETATM    7  O1  UNL     1      -8.185  14.395 -17.573  1.00  0.00    -0.287 OA
BRANCH   6   8
HETATM    8  C10 UNL     1      -9.674  12.959 -18.602  1.00  0.00     0.193 C 
HETATM    9  C11 UNL     1     -10.276  13.350 -19.900  1.00  0.00     0.100 C 
HETATM   10  O2  UNL     1      -9.454  11.738 -18.436  1.00  0.00    -0.290 OA
ENDBRANCH   6   8
ENDBRANCH   3   6
ENDBRANCH   1   3
BRANCH   1  11
HETATM   11  C4  UNL     1     -10.893  12.417 -15.221  1.00  0.00     0.124 A 
HETATM   12  N2  UNL     1     -10.009  11.398 -15.356  1.00  0.00    -0.285 N 
HETATM   13  N3  UNL     1     -10.080  10.599 -14.319  1.00  0.00    -0.303 N 
ATOM     14  H2  UNL     1      -9.380  11.272 -16.149  1.00  0.00     0.188 HD
HETATM   15  C5  UNL     1     -11.010  11.057 -13.464  1.00  0.00     0.031 A 
ATOM     16  H3  UNL     1      -9.517   9.759 -14.182  1.00  0.00     0.186 HD
HETATM   17  C6  UNL     1     -11.417  10.467 -12.172  1.00  0.00     0.070 C 
HETATM   18  C7  UNL     1     -11.529  12.210 -14.032  1.00  0.00     0.007 A 
HETATM   19  C8  UNL     1     -12.601  13.010 -13.361  1.00  0.00     0.054 C 
ENDBRANCH   1  11
TORSDOF 5
ENDMDL
MODEL 5
REMARK VINA RESULT: -5.473127264      2.436      5.366
REMARK  5 active torsions:
REMARK  status: ('A' for Active; 'I' for Inactive)
REMARK    1  A    between atoms: C2_2  and  C3_3 
REMARK    2  A    between atoms: C3_3  and  N1_4 
REMARK    3  A    between atoms: C3_3  and  C9_15 
REMARK    4  A    between atoms: N1_4  and  C4_6 
REMARK    5  A    between atoms: C9_15  and  C10_17 
ROOT
HETATM    1  N1  UNL     1     -11.125  13.769 -15.844  1.00  0.00    -0.363 N 
ATOM      2  H1  UNL     1     -10.234  14.232 -15.667  1.00  0.00     0.162 HD
ENDROOT
BRANCH   1   3
HETATM    3  C3  UNL     1     -11.593  14.058 -17.130  1.00  0.00     0.161 C 
BRANCH   3   4
HETATM    4  C2  UNL     1     -10.468  14.104 -18.169  1.00  0.00     0.029 C 
HETATM    5  C1  UNL     1      -9.125  13.799 -17.549  1.00  0.00     0.007 C 
ENDBRANCH   3   4
BRANCH   3   6
HETATM    6  C9  UNL     1     -12.317  15.357 -17.105  1.00  0.00     0.216 C 
HETATM    7  O1  UNL     1     -13.475  15.392 -16.614  1.00  0.00    -0.287 OA
BRANCH   6   8
HETATM    8  C10 UNL     1     -11.781  16.605 -17.611  1.00  0.00     0.193 C 
HETATM    9  C11 UNL     1     -10.583  17.248 -17.018  1.00  0.00     0.100 C 
HETATM   10  O2  UNL     1     -12.312  17.200 -18.577  1.00  0.00    -0.290 OA
ENDBRANCH   6   8
ENDBRANCH   3   6
ENDBRANCH   1   3
BRANCH   1  11
HETATM   11  C4  UNL     1     -11.486  13.111 -14.864  1.00  0.00     0.124 A 
HETATM   12  N2  UNL     1     -12.528  13.451 -14.067  1.00  0.00    -0.285 N 
HETATM   13  N3  UNL     1     -12.672  12.565 -13.111  1.00  0.00    -0.303 N 
ATOM     14  H2  UNL     1     -13.115  14.276 -14.193  1.00  0.00     0.188 HD
HETATM   15  C5  UNL     1     -11.735  11.612 -13.239  1.00  0.00     0.031 A 
ATOM     16  H3  UNL     1     -13.385  12.595 -12.382  1.00  0.00     0.186 HD
HETATM   17  C6  UNL     1     -11.528  10.427 -12.381  1.00  0.00     0.070 C 
HETATM   18  C7  UNL     1     -10.979  11.954 -14.351  1.00  0.00     0.007 A 
HETATM   19  C8  UNL     1      -9.827  11.117 -14.813  1.00  0.00     0.054 C 
ENDBRANCH   1  11
TORSDOF 5
ENDMDL
