MODEL 1
REMARK VINA RESULT: -6.209501612      0.000      0.000
REMARK  3 active torsions:
REMARK  status: ('A' for Active; 'I' for Inactive)
REMARK    1  A    between atoms: C2_2  and  C3_3 
REMARK    2  A    between atoms: C5_5  and  C6_6 
REMARK    3  A    between atoms: C11_13  and  C13_15 
ROOT
HETATM    1  C3  UNL     1     -10.781  14.765 -17.391  1.00  0.00     0.019 C 
HETATM    2  C4  UNL     1     -10.008  14.534 -18.672  1.00  0.00     0.002 C 
HETATM    3  C5  UNL     1     -10.326  13.259 -18.960  1.00  0.00     0.010 C 
HETATM    4  C7  UNL     1     -11.241  12.894 -17.826  1.00  0.00     0.051 C 
HETATM    5  C8  UNL     1     -10.460  13.487 -16.675  1.00  0.00    -0.023 C 
HETATM    6  C9  UNL     1     -10.959  13.279 -15.299  1.00  0.00     0.017 C 
HETATM    7  C10 UNL     1      -8.991  13.061 -16.752  1.00  0.00     0.017 C 
HETATM    8  C11 UNL     1     -12.081  14.148 -17.808  1.00  0.00     0.058 C 
HETATM    9  C12 UNL     1     -12.457  14.622 -19.218  1.00  0.00     0.027 C 
ENDROOT
BRANCH   8  10
HETATM   10  C13 UNL     1     -13.233  14.213 -16.947  1.00  0.00     0.241 C 
HETATM   11  N2  UNL     1     -13.954  13.068 -16.523  1.00  0.00    -0.061 NA
HETATM   12  O2  UNL     1     -13.642  15.327 -16.537  1.00  0.00    -0.276 OA
ENDBRANCH   8  10
BRANCH   1  13
HETATM   13  C2  UNL     1     -10.705  16.020 -16.765  1.00  0.00    -0.021 C 
HETATM   14  C1  UNL     1     -10.411  17.125 -17.481  1.00  0.00     0.008 C 
ENDBRANCH   1  13
BRANCH   3  15
HETATM   15  C6  UNL     1      -9.905  12.444 -20.067  1.00  0.00     0.261 C 
HETATM   16  N1  UNL     1      -9.913  12.979 -21.383  1.00  0.00    -0.058 NA
HETATM   17  O1  UNL     1      -9.535  11.264 -19.827  1.00  0.00    -0.271 OA
ENDBRANCH   3  15
TORSDOF 3
ENDMDL
MODEL 2
REMARK VINA RESULT: -6.002355504      2.526      4.237
REMARK  3 active torsions:
REMARK  status: ('A' for Active; 'I' for Inactive)
REMARK    1  A    between atoms: C2_2  and  C3_3 
REMARK    2  A    between atoms: C5_5  and  C6_6 
REMARK    3  A    between atoms: C11_13  and  C13_15 
ROOT
HETATM    1  C3  UNL     1     -11.347  13.537 -17.587  1.00  0.00     0.019 C 
HETATM    2  C4  UNL     1     -12.131  12.653 -16.641  1.00  0.00     0.002 C 
HETATM    3  C5  UNL     1     -11.758  13.133 -15.441  1.00  0.00     0.010 C 
HETATM    4  C7  UNL     1     -10.808  14.232 -15.818  1.00  0.00     0.051 C 
HETATM    5  C8  UNL     1     -10.017  13.522 -16.893  1.00  0.00    -0.023 C 
HETATM    6  C9  UNL     1      -8.868  14.221 -17.507  1.00  0.00     0.017 C 
HETATM    7  C10 UNL     1      -9.568  12.143 -16.400  1.00  0.00     0.017 C 
HETATM    8  C11 UNL     1     -11.620  14.855 -16.928  1.00  0.00     0.058 C 
HETATM    9  C12 UNL     1     -13.109  14.964 -16.574  1.00  0.00     0.027 C 
ENDROOT
BRANCH   8  10
HETATM   10  C13 UNL     1     -11.169  16.083 -17.529  1.00  0.00     0.241 C 
HETATM   11  N2  UNL     1     -11.379  16.405 -18.894  1.00  0.00    -0.061 NA
HETATM   12  O2  UNL     1     -10.558  16.930 -16.832  1.00  0.00    -0.276 OA
ENDBRANCH   8  10
BRANCH   1  13
HETATM   13  C2  UNL     1     -11.478  13.342 -18.971  1.00  0.00    -0.021 C 
HETATM   14  C1  UNL     1     -11.660  12.103 -19.473  1.00  0.00     0.008 C 
ENDBRANCH   1  13
BRANCH   3  15
HETATM   15  C6  UNL     1     -12.159  12.709 -14.127  1.00  0.00     0.261 C 
HETATM   16  N1  UNL     1     -11.711  11.459 -13.620  1.00  0.00    -0.058 NA
HETATM   17  O1  UNL     1     -12.905  13.474 -13.460  1.00  0.00    -0.271 OA
ENDBRANCH   3  15
TORSDOF 3
ENDMDL
MODEL 3
REMARK VINA RESULT: -5.990130853      2.485      3.733
REMARK  3 active torsions:
REMARK  status: ('A' for Active; 'I' for Inactive)
REMARK    1  A    between atoms: C2_2  and  C3_3 
REMARK    2  A    between atoms: C5_5  and  C6_6 
REMARK    3  A    between atoms: C11_13  and  C13_15 
ROOT
HETATM    1  C3  UNL     1     -12.185  14.921 -17.454  1.00  0.00     0.019 C 
HETATM    2  C4  UNL     1     -13.161  14.784 -18.602  1.00  0.00     0.002 C 
HETATM    3  C5  UNL     1     -12.374  15.028 -19.665  1.00  0.00     0.010 C 
HETATM    4  C7  UNL     1     -11.039  15.277 -19.023  1.00  0.00     0.051 C 
HETATM    5  C8  UNL     1     -11.473  16.170 -17.883  1.00  0.00    -0.023 C 
HETATM    6  C9  UNL     1     -10.436  16.754 -17.006  1.00  0.00     0.017 C 
HETATM    7  C10 UNL     1     -12.389  17.284 -18.398  1.00  0.00     0.017 C 
HETATM    8  C11 UNL     1     -11.052  14.133 -18.038  1.00  0.00     0.058 C 
HETATM    9  C12 UNL     1     -11.582  12.833 -18.655  1.00  0.00     0.027 C 
ENDROOT
BRANCH   8  10
HETATM   10  C13 UNL     1      -9.871  13.859 -17.260  1.00  0.00     0.241 C 
HETATM   11  N2  UNL     1      -8.558  14.153 -17.708  1.00  0.00    -0.061 NA
HETATM   12  O2  UNL     1      -9.981  13.334 -16.125  1.00  0.00    -0.276 OA
ENDBRANCH   8  10
BRANCH   1  13
HETATM   13  C2  UNL     1     -12.644  14.728 -16.140  1.00  0.00    -0.021 C 
HETATM   14  C1  UNL     1     -13.485  13.713 -15.852  1.00  0.00     0.008 C 
ENDBRANCH   1  13
BRANCH   3  15
HETATM   15  C6  UNL     1     -12.712  15.048 -21.062  1.00  0.00     0.261 C 
HETATM   16  N1  UNL     1     -12.329  16.156 -21.866  1.00  0.00    -0.058 NA
HETATM   17  O1  UNL     1     -13.345  14.067 -21.533  1.00  0.00    -0.271 OA
ENDBRANCH   3  15
TORSDOF 3
ENDMDL
MODEL 4
REMARK VINA RESULT: -5.953364739      2.266      3.917
REMARK  3 active torsions:
REMARK  status: ('A' for Active; 'I' for Inactive)
REMARK    1  A    between atoms: C2_2  and  C3_3 
REMARK    2  A    between atoms: C5_5  and  C6_6 
REMARK    3  A    between atoms: C11_13  and  C13_15 
ROOT
HETATM    1  C3  UNL     1     -10.855  12.697 -15.974  1.00  0.00     0.019 C 
HETATM    2  C4  UNL     1     -10.927  14.165 -15.611  1.00  0.00     0.002 C 
HETATM    3  C5  UNL     1     -11.304  14.720 -16.776  1.00  0.00     0.010 C 
HETATM    4  C7  UNL     1     -11.410  13.525 -17.680  1.00  0.00     0.051 C 
HETATM    5  C8  UNL     1     -10.140  12.803 -17.288  1.00  0.00    -0.023 C 
HETATM    6  C9  UNL     1      -9.773  11.571 -18.018  1.00  0.00     0.017 C 
HETATM    7  C10 UNL     1      -8.954  13.771 -17.296  1.00  0.00     0.017 C 
HETATM    8  C11 UNL     1     -12.141  12.600 -16.737  1.00  0.00     0.058 C 
HETATM    9  C12 UNL     1     -13.261  13.313 -15.967  1.00  0.00     0.027 C 
ENDROOT
BRANCH   8  10
HETATM   10  C13 UNL     1     -12.613  11.329 -17.220  1.00  0.00     0.241 C 
HETATM   11  N2  UNL     1     -12.741  10.181 -16.397  1.00  0.00    -0.061 NA
HETATM   12  O2  UNL     1     -12.936  11.202 -18.427  1.00  0.00    -0.276 OA
ENDBRANCH   8  10
BRANCH   1  13
HETATM   13  C2  UNL     1     -10.488  11.767 -14.988  1.00  0.00    -0.021 C 
HETATM   14  C1  UNL     1     -10.924  11.906 -13.720  1.00  0.00     0.008 C 
ENDBRANCH   1  13
BRANCH   3  15
HETATM   15  C6  UNL     1     -11.546  16.102 -17.089  1.00  0.00     0.261 C 
HETATM   16  N1  UNL     1     -10.473  17.033 -17.060  1.00  0.00    -0.058 NA
HETATM   17  O1  UNL     1     -12.721  16.445 -17.386  1.00  0.00    -0.271 OA
ENDBRANCH   3  15
TORSDOF 3
ENDMDL
MODEL 5
REMARK VINA RESULT: -5.945653422      2.087      3.492
REMARK  3 active torsions:
REMARK  status: ('A' for Active; 'I' for Inactive)
REMARK    1  A    between atoms: C2_2  and  C3_3 
REMARK    2  A    between atoms: C5_5  and  C6_6 
REMARK    3  A    between atoms: C11_13  and  C13_15 
ROOT
HETATM    1  C3  UNL     1     -10.989  13.475 -16.352  1.00  0.00     0.019 C 
HETATM    2  C4  UNL     1     -10.879  14.968 -16.134  1.00  0.00     0.002 C 
HETATM    3  C5  UNL     1     -10.848  15.431 -17.396  1.00  0.00     0.010 C 
HETATM    4  C7  UNL     1     -10.943  14.167 -18.202  1.00  0.00     0.051 C 
HETATM    5  C8  UNL     1      -9.964  13.308 -17.434  1.00  0.00    -0.023 C 
HETATM    6  C9  UNL     1      -9.658  11.954 -17.944  1.00  0.00     0.017 C 
HETATM    7  C10 UNL     1      -8.656  14.070 -17.202  1.00  0.00     0.017 C 
HETATM    8  C11 UNL     1     -12.041  13.488 -17.418  1.00  0.00     0.058 C 
HETATM    9  C12 UNL     1     -13.167  14.455 -17.029  1.00  0.00     0.027 C 
ENDROOT
BRANCH   8  10
HETATM   10  C13 UNL     1     -12.603  12.257 -17.910  1.00  0.00     0.241 C 
HETATM   11  N2  UNL     1     -13.291  11.331 -17.086  1.00  0.00    -0.061 NA
HETATM   12  O2  UNL     1     -12.492  11.964 -19.127  1.00  0.00    -0.276 OA
ENDBRANCH   8  10
BRANCH   1  13
HETATM   13  C2  UNL     1     -11.052  12.624 -15.236  1.00  0.00    -0.021 C 
HETATM   14  C1  UNL     1     -11.748  12.987 -14.138  1.00  0.00     0.008 C 
ENDBRANCH   1  13
BRANCH   3  15
HETATM   15  C6  UNL     1     -10.750  16.786 -17.867  1.00  0.00     0.261 C 
HETATM   16  N1  UNL     1     -11.422  17.171 -19.058  1.00  0.00    -0.058 NA
HETATM   17  O1  UNL     1     -10.061  17.598 -17.195  1.00  0.00    -0.271 OA
ENDBRANCH   3  15
TORSDOF 3
ENDMDL
