MODEL 1
REMARK VINA RESULT: -6.056658944      0.000      0.000
REMARK  4 active torsions:
REMARK  status: ('A' for Active; 'I' for Inactive)
REMARK    1  A    between atoms: C5_5  and  O1_6 
REMARK    2  A    between atoms: C5_5  and  C6_8 
REMARK    3  A    between atoms: C6_8  and  N1_10 
REMARK       I    between atoms: N1_10  and  C8_12 
REMARK    4  A    between atoms: C8_12  and  C9_14 
ROOT
HETATM    1  C1  UNL     1     -13.536  17.982 -20.914  1.00  0.00     0.017 C 
HETATM    2  C2  UNL     1     -12.782  17.347 -20.248  1.00  0.00    -0.080 C 
HETATM    3  C3  UNL     1     -11.899  16.571 -19.456  1.00  0.00     0.022 C 
HETATM    4  C4  UNL     1     -10.987  17.231 -18.497  1.00  0.00     0.061 C 
HETATM    5  C5  UNL     1     -11.867  15.253 -19.552  1.00  0.00     0.080 C 
ENDROOT
BRANCH   5   6
HETATM    6  O1  UNL     1     -12.717  14.623 -20.449  1.00  0.00    -0.362 OA
ATOM      7  H1  UNL     1     -12.783  14.957 -21.335  1.00  0.00     0.217 HD
ENDBRANCH   5   6
BRANCH   5   8
HETATM    8  C6  UNL     1     -10.961  14.401 -18.745  1.00  0.00     0.138 C 
HETATM    9  C7  UNL     1     -10.278  13.409 -19.667  1.00  0.00     0.039 C 
BRANCH   8  10
HETATM   10  N1  UNL     1     -11.668  13.709 -17.689  1.00  0.00    -0.351 N 
HETATM   11  C8  UNL     1     -11.378  13.843 -16.313  1.00  0.00     0.223 C 
HETATM   12  O2  UNL     1     -10.413  14.652 -16.054  1.00  0.00    -0.273 OA
ATOM     13  H1  UNL     1     -12.427  13.083 -17.956  1.00  0.00     0.163 HD
BRANCH  11  14
HETATM   14  C9  UNL     1     -12.047  13.177 -15.208  1.00  0.00     0.086 A 
HETATM   15  C10 UNL     1     -12.558  11.760 -15.509  1.00  0.00     0.024 A 
HETATM   16  C11 UNL     1     -11.499  12.023 -14.454  1.00  0.00    -0.035 A 
HETATM   17  C12 UNL     1     -12.035  11.776 -13.054  1.00  0.00     0.015 C 
HETATM   18  C13 UNL     1     -10.160  11.426 -14.714  1.00  0.00     0.015 C 
ENDBRANCH  11  14
ENDBRANCH   8  10
ENDBRANCH   5   8
TORSDOF 4
ENDMDL
MODEL 2
REMARK VINA RESULT: -5.941442750      2.388      6.808
REMARK  4 active torsions:
REMARK  status: ('A' for Active; 'I' for Inactive)
REMARK    1  A    between atoms: C5_5  and  O1_6 
REMARK    2  A    between atoms: C5_5  and  C6_8 
REMARK    3  A    between atoms: C6_8  and  N1_10 
REMARK       I    between atoms: N1_10  and  C8_12 
REMARK    4  A    between atoms: C8_12  and  C9_14 
ROOT
HETATM    1  C1  UNL     1     -10.163   7.943 -12.758  1.00  0.00     0.017 C 
HETATM    2  C2  UNL     1     -10.720   8.915 -13.157  1.00  0.00    -0.080 C 
HETATM    3  C3  UNL     1     -11.374  10.070 -13.655  1.00  0.00     0.022 C 
HETATM    4  C4  UNL     1     -11.727  11.176 -12.738  1.00  0.00     0.061 C 
HETATM    5  C5  UNL     1     -11.682  10.187 -14.935  1.00  0.00     0.080 C 
ENDROOT
BRANCH   5   6
HETATM    6  O1  UNL     1     -11.357   9.157 -15.803  1.00  0.00    -0.362 OA
ATOM      7  H1  UNL     1     -11.513   9.271 -16.733  1.00  0.00     0.217 HD
ENDBRANCH   5   6
BRANCH   5   8
HETATM    8  C6  UNL     1     -12.366  11.375 -15.500  1.00  0.00     0.138 C 
HETATM    9  C7  UNL     1     -13.239  10.929 -16.656  1.00  0.00     0.039 C 
BRANCH   8  10
HETATM   10  N1  UNL     1     -11.425  12.385 -15.935  1.00  0.00    -0.351 N 
HETATM   11  C8  UNL     1     -11.637  13.777 -15.823  1.00  0.00     0.223 C 
HETATM   12  O2  UNL     1     -12.761  14.097 -15.286  1.00  0.00    -0.273 OA
ATOM     13  H1  UNL     1     -10.548  12.070 -16.350  1.00  0.00     0.163 HD
BRANCH  11  14
HETATM   14  C9  UNL     1     -10.736  14.837 -16.240  1.00  0.00     0.086 A 
HETATM   15  C10 UNL     1     -10.354  14.825 -17.728  1.00  0.00     0.024 A 
HETATM   16  C11 UNL     1     -11.112  15.982 -17.105  1.00  0.00    -0.035 A 
HETATM   17  C12 UNL     1     -10.256  17.234 -17.032  1.00  0.00     0.015 C 
HETATM   18  C13 UNL     1     -12.490  16.209 -17.622  1.00  0.00     0.015 C 
ENDBRANCH  11  14
ENDBRANCH   8  10
ENDBRANCH   5   8
TORSDOF 4
ENDMDL
MODEL 3
REMARK VINA RESULT: -5.876760344      2.737      3.942
REMARK  4 active torsions:
REMARK  status: ('A' for Active; 'I' for Inactive)
REMARK    1  A    between atoms: C5_5  and  O1_6 
REMARK    2  A    between atoms: C5_5  and  C6_8 
REMARK    3  A    between atoms: C6_8  and  N1_10 
REMARK       I    between atoms: N1_10  and  C8_12 
REMARK    4  A    between atoms: C8_12  and  C9_14 
ROOT
HETATM    1  C1  UNL     1     -10.500  17.210 -16.861  1.00  0.00     0.017 C 
HETATM    2  C2  UNL     1     -10.544  16.022 -16.851  1.00  0.00    -0.080 C 
HETATM    3  C3  UNL     1     -10.615  14.607 -16.821  1.00  0.00     0.022 C 
HETATM    4  C4  UNL     1      -9.458  13.797 -17.262  1.00  0.00     0.061 C 
HETATM    5  C5  UNL     1     -11.701  13.981 -16.402  1.00  0.00     0.080 C 
ENDROOT
BRANCH   5   6
HETATM    6  O1  UNL     1     -12.791  14.729 -15.986  1.00  0.00    -0.362 OA
ATOM      7  H1  UNL     1     -13.520  14.288 -15.565  1.00  0.00     0.217 HD
ENDBRANCH   5   6
BRANCH   5   8
HETATM    8  C6  UNL     1     -11.820  12.504 -16.353  1.00  0.00     0.138 C 
HETATM    9  C7  UNL     1     -13.239  12.118 -16.722  1.00  0.00     0.039 C 
BRANCH   8  10
HETATM   10  N1  UNL     1     -11.471  11.976 -15.051  1.00  0.00    -0.351 N 
HETATM   11  C8  UNL     1     -10.922  10.694 -14.829  1.00  0.00     0.223 C 
HETATM   12  O2  UNL     1     -10.743  10.005 -15.899  1.00  0.00    -0.273 OA
ATOM     13  H1  UNL     1     -11.634  12.571 -14.239  1.00  0.00     0.163 HD
BRANCH  11  14
HETATM   14  C9  UNL     1     -10.555  10.108 -13.551  1.00  0.00     0.086 A 
HETATM   15  C10 UNL     1     -11.453  10.499 -12.368  1.00  0.00     0.024 A 
HETATM   16  C11 UNL     1     -11.330   9.062 -12.841  1.00  0.00    -0.035 A 
HETATM   17  C12 UNL     1     -10.594   8.203 -11.827  1.00  0.00     0.015 C 
HETATM   18  C13 UNL     1     -12.575   8.448 -13.379  1.00  0.00     0.015 C 
ENDBRANCH  11  14
ENDBRANCH   8  10
ENDBRANCH   5   8
TORSDOF 4
ENDMDL
MODEL 4
REMARK VINA RESULT: -5.803456410      2.772      7.372
REMARK  4 active torsions:
REMARK  status: ('A' for Active; 'I' for Inactive)
REMARK    1  A    between atoms: C5_5  and  O1_6 
REMARK    2  A    between atoms: C5_5  and  C6_8 
REMARK    3  A    between atoms: C6_8  and  N1_10 
REMARK       I    between atoms: N1_10  and  C8_12 
REMARK    4  A    between atoms: C8_12  and  C9_14 
ROOT
HETATM    1  C1  UNL     1      -9.794   7.376 -11.878  1.00  0.00     0.017 C 
HETATM    2  C2  UNL     1     -10.491   8.241 -12.303  1.00  0.00    -0.080 C 
HETATM    3  C3  UNL     1     -11.303   9.278 -12.826  1.00  0.00     0.022 C 
HETATM    4  C4  UNL     1     -12.374   9.871 -11.997  1.00  0.00     0.061 C 
HETATM    5  C5  UNL     1     -11.127   9.736 -14.053  1.00  0.00     0.080 C 
ENDROOT
BRANCH   5   6
HETATM    6  O1  UNL     1     -10.127   9.187 -14.840  1.00  0.00    -0.362 OA
ATOM      7  H1  UNL     1     -10.091   9.411 -15.763  1.00  0.00     0.217 HD
ENDBRANCH   5   6
BRANCH   5   8
HETATM    8  C6  UNL     1     -11.951  10.819 -14.642  1.00  0.00     0.138 C 
HETATM    9  C7  UNL     1     -12.886  10.213 -15.671  1.00  0.00     0.039 C 
BRANCH   8  10
HETATM   10  N1  UNL     1     -11.137  11.853 -15.242  1.00  0.00    -0.351 N 
HETATM   11  C8  UNL     1     -11.474  13.225 -15.261  1.00  0.00     0.223 C 
HETATM   12  O2  UNL     1     -12.589  13.502 -14.685  1.00  0.00    -0.273 OA
ATOM     13  H1  UNL     1     -10.260  11.573 -15.681  1.00  0.00     0.163 HD
BRANCH  11  14
HETATM   14  C9  UNL     1     -10.702  14.308 -15.847  1.00  0.00     0.086 A 
HETATM   15  C10 UNL     1     -10.425  14.176 -17.352  1.00  0.00     0.024 A 
HETATM   16  C11 UNL     1     -11.239  15.324 -16.784  1.00  0.00    -0.035 A 
HETATM   17  C12 UNL     1     -10.496  16.644 -16.898  1.00  0.00     0.015 C 
HETATM   18  C13 UNL     1     -12.664  15.383 -17.212  1.00  0.00     0.015 C 
ENDBRANCH  11  14
ENDBRANCH   8  10
ENDBRANCH   5   8
TORSDOF 4
ENDMDL
MODEL 5
REMARK VINA RESULT: -5.760932889      1.502      1.741
REMARK  4 active torsions:
REMARK  status: ('A' for Active; 'I' for Inactive)
REMARK    1  A    between atoms: C5_5  and  O1_6 
REMARK    2  A    between atoms: C5_5  and  C6_8 
REMARK    3  A    between atoms: C6_8  and  N1_10 
REMARK       I    between atoms: N1_10  and  C8_12 
REMARK    4  A    between atoms: C8_12  and  C9_14 
ROOT
HETATM    1  C1  UNL     1     -12.379  17.538 -20.229  1.00  0.00     0.017 C 
HETATM    2  C2  UNL     1     -11.827  16.984 -19.333  1.00  0.00    -0.080 C 
HETATM    3  C3  UNL     1     -11.183  16.303 -18.269  1.00  0.00     0.022 C 
HETATM    4  C4  UNL     1     -10.547  17.070 -17.175  1.00  0.00     0.061 C 
HETATM    5  C5  UNL     1     -11.135  14.984 -18.226  1.00  0.00     0.080 C 
ENDROOT
BRANCH   5   6
HETATM    6  O1  UNL     1     -11.727  14.254 -19.246  1.00  0.00    -0.362 OA
ATOM      7  H1  UNL     1     -12.468  13.696 -19.043  1.00  0.00     0.217 HD
ENDBRANCH   5   6
BRANCH   5   8
HETATM    8  C6  UNL     1     -10.474  14.229 -17.134  1.00  0.00     0.138 C 
HETATM    9  C7  UNL     1      -9.070  13.864 -17.577  1.00  0.00     0.039 C 
BRANCH   8  10
HETATM   10  N1  UNL     1     -11.217  13.042 -16.770  1.00  0.00    -0.351 N 
HETATM   11  C8  UNL     1     -11.442  12.617 -15.442  1.00  0.00     0.223 C 
HETATM   12  O2  UNL     1     -10.928  13.384 -14.548  1.00  0.00    -0.273 OA
ATOM     13  H1  UNL     1     -11.604  12.475 -17.523  1.00  0.00     0.163 HD
BRANCH  11  14
HETATM   14  C9  UNL     1     -12.175  11.438 -15.012  1.00  0.00     0.086 A 
HETATM   15  C10 UNL     1     -12.214  10.284 -16.027  1.00  0.00     0.024 A 
HETATM   16  C11 UNL     1     -11.560  10.134 -14.666  1.00  0.00    -0.035 A 
HETATM   17  C12 UNL     1     -12.350   9.196 -13.769  1.00  0.00     0.015 C 
HETATM   18  C13 UNL     1     -10.092   9.883 -14.676  1.00  0.00     0.015 C 
ENDBRANCH  11  14
ENDBRANCH   8  10
ENDBRANCH   5   8
TORSDOF 4
ENDMDL
