MODEL 1
REMARK VINA RESULT: -5.369723021      0.000      0.000
REMARK  3 active torsions:
REMARK  status: ('A' for Active; 'I' for Inactive)
REMARK    1  A    between atoms: N1_2  and  C2_3 
REMARK       I    between atoms: N1_2  and  C6_12 
REMARK    2  A    between atoms: C2_3  and  C3_4 
REMARK    3  A    between atoms: C6_12  and  C7_14 
ROOT
HETATM    1  C2  UNL     1     -12.060  13.382 -15.081  1.00  0.00     0.183 C 
ENDROOT
BRANCH   1   2
HETATM    2  N1  UNL     1     -11.419  14.176 -16.111  1.00  0.00    -0.350 N 
HETATM    3  C1  UNL     1     -10.029  13.878 -16.392  1.00  0.00     0.153 C 
HETATM    4  C6  UNL     1     -12.099  15.179 -16.806  1.00  0.00     0.227 C 
HETATM    5  O2  UNL     1     -13.326  15.364 -16.491  1.00  0.00    -0.273 OA
BRANCH   4   6
HETATM    6  C7  UNL     1     -11.553  16.049 -17.866  1.00  0.00     0.030 C 
HETATM    7  C8  UNL     1     -11.085  15.312 -19.071  1.00  0.00     0.025 C 
HETATM    8  C9  UNL     1     -12.618  17.037 -18.365  1.00  0.00     0.025 C 
HETATM    9  C10 UNL     1     -10.411  16.883 -17.326  1.00  0.00     0.025 C 
ENDBRANCH   4   6
ENDBRANCH   1   2
BRANCH   1  10
HETATM   10  C3  UNL     1     -12.623  12.133 -15.584  1.00  0.00     0.047 A 
HETATM   11  C4  UNL     1     -12.242  10.871 -15.194  1.00  0.00     0.119 A 
HETATM   12  N2  UNL     1     -12.988   9.988 -15.880  1.00  0.00    -0.317 N 
HETATM   13  C5  UNL     1     -13.802  10.694 -16.667  1.00  0.00     0.324 A 
ATOM     14  H2  UNL     1     -12.941   8.971 -15.812  1.00  0.00     0.170 HD
HETATM   15  O1  UNL     1     -14.652  10.166 -17.458  1.00  0.00    -0.247 OA
HETATM   16  N3  UNL     1     -13.589  12.004 -16.496  1.00  0.00    -0.309 N 
ATOM     17  H3  UNL     1     -14.075  12.764 -16.974  1.00  0.00     0.170 HD
ENDBRANCH   1  10
TORSDOF 3
ENDMDL
MODEL 2
REMARK VINA RESULT: -5.231962855      1.969      2.181
REMARK  3 active torsions:
REMARK  status: ('A' for Active; 'I' for Inactive)
REMARK    1  A    between atoms: N1_2  and  C2_3 
REMARK       I    between atoms: N1_2  and  C6_12 
REMARK    2  A    between atoms: C2_3  and  C3_4 
REMARK    3  A    between atoms: C6_12  and  C7_14 
ROOT
HETATM    1  C2  UNL     1     -12.807  13.586 -15.046  1.00  0.00     0.183 C 
ENDROOT
BRANCH   1   2
HETATM    2  N1  UNL     1     -11.913  14.254 -15.971  1.00  0.00    -0.350 N 
HETATM    3  C1  UNL     1     -10.514  13.882 -15.908  1.00  0.00     0.153 C 
HETATM    4  C6  UNL     1     -12.368  15.210 -16.884  1.00  0.00     0.227 C 
HETATM    5  O2  UNL     1     -13.622  15.467 -16.868  1.00  0.00    -0.273 OA
BRANCH   4   6
HETATM    6  C7  UNL     1     -11.555  15.955 -17.865  1.00  0.00     0.030 C 
HETATM    7  C8  UNL     1     -10.871  15.089 -18.865  1.00  0.00     0.025 C 
HETATM    8  C9  UNL     1     -12.429  16.924 -18.676  1.00  0.00     0.025 C 
HETATM    9  C10 UNL     1     -10.518  16.800 -17.157  1.00  0.00     0.025 C 
ENDBRANCH   4   6
ENDBRANCH   1   2
BRANCH   1  10
HETATM   10  C3  UNL     1     -12.331  12.268 -14.637  1.00  0.00     0.047 A 
HETATM   11  C4  UNL     1     -12.378  11.128 -15.405  1.00  0.00     0.119 A 
HETATM   12  N2  UNL     1     -11.849  10.126 -14.682  1.00  0.00    -0.317 N 
HETATM   13  C5  UNL     1     -11.489  10.642 -13.505  1.00  0.00     0.324 A 
ATOM     14  H2  UNL     1     -11.742   9.155 -14.978  1.00  0.00     0.170 HD
HETATM   15  O1  UNL     1     -10.948   9.961 -12.572  1.00  0.00    -0.247 OA
HETATM   16  N3  UNL     1     -11.778  11.948 -13.465  1.00  0.00    -0.309 N 
ATOM     17  H3  UNL     1     -11.607  12.582 -12.684  1.00  0.00     0.170 HD
ENDBRANCH   1  10
TORSDOF 3
ENDMDL
MODEL 3
REMARK VINA RESULT: -5.148784626      1.167      1.380
REMARK  3 active torsions:
REMARK  status: ('A' for Active; 'I' for Inactive)
REMARK    1  A    between atoms: N1_2  and  C2_3 
REMARK       I    between atoms: N1_2  and  C6_12 
REMARK    2  A    between atoms: C2_3  and  C3_4 
REMARK    3  A    between atoms: C6_12  and  C7_14 
ROOT
HETATM    1  C2  UNL     1     -12.559  13.496 -15.117  1.00  0.00     0.183 C 
ENDROOT
BRANCH   1   2
HETATM    2  N1  UNL     1     -11.755  14.228 -16.076  1.00  0.00    -0.350 N 
HETATM    3  C1  UNL     1     -10.352  13.872 -16.156  1.00  0.00     0.153 C 
HETATM    4  C6  UNL     1     -12.296  15.228 -16.888  1.00  0.00     0.227 C 
HETATM    5  O2  UNL     1     -13.546  15.467 -16.748  1.00  0.00    -0.273 OA
BRANCH   4   6
HETATM    6  C7  UNL     1     -11.578  16.039 -17.892  1.00  0.00     0.030 C 
HETATM    7  C8  UNL     1     -10.978  15.241 -18.996  1.00  0.00     0.025 C 
HETATM    8  C9  UNL     1     -12.528  17.042 -18.565  1.00  0.00     0.025 C 
HETATM    9  C10 UNL     1     -10.490  16.856 -17.229  1.00  0.00     0.025 C 
ENDBRANCH   4   6
ENDBRANCH   1   2
BRANCH   1  10
HETATM   10  C3  UNL     1     -12.684  12.077 -15.436  1.00  0.00     0.047 A 
HETATM   11  C4  UNL     1     -13.409  11.555 -16.480  1.00  0.00     0.119 A 
HETATM   12  N2  UNL     1     -13.279  10.217 -16.441  1.00  0.00    -0.317 N 
HETATM   13  C5  UNL     1     -12.495   9.933 -15.398  1.00  0.00     0.324 A 
ATOM     14  H2  UNL     1     -13.699   9.547 -17.084  1.00  0.00     0.170 HD
HETATM   15  O1  UNL     1     -12.164   8.747 -15.067  1.00  0.00    -0.247 OA
HETATM   16  N3  UNL     1     -12.126  11.059 -14.777  1.00  0.00    -0.309 N 
ATOM     17  H3  UNL     1     -11.528  11.128 -13.952  1.00  0.00     0.170 HD
ENDBRANCH   1  10
TORSDOF 3
ENDMDL
MODEL 4
REMARK VINA RESULT: -5.113198244      2.196      5.446
REMARK  3 active torsions:
REMARK  status: ('A' for Active; 'I' for Inactive)
REMARK    1  A    between atoms: N1_2  and  C2_3 
REMARK       I    between atoms: N1_2  and  C6_12 
REMARK    2  A    between atoms: C2_3  and  C3_4 
REMARK    3  A    between atoms: C6_12  and  C7_14 
ROOT
HETATM    1  C2  UNL     1     -13.188  14.536 -16.435  1.00  0.00     0.183 C 
ENDROOT
BRANCH   1   2
HETATM    2  N1  UNL     1     -12.505  13.277 -16.218  1.00  0.00    -0.350 N 
HETATM    3  C1  UNL     1     -12.060  12.565 -17.399  1.00  0.00     0.153 C 
HETATM    4  C6  UNL     1     -12.279  12.765 -14.937  1.00  0.00     0.227 C 
HETATM    5  O2  UNL     1     -12.704  13.469 -13.956  1.00  0.00    -0.273 OA
BRANCH   4   6
HETATM    6  C7  UNL     1     -11.603  11.499 -14.595  1.00  0.00     0.030 C 
HETATM    7  C8  UNL     1     -10.168  11.454 -14.991  1.00  0.00     0.025 C 
HETATM    8  C9  UNL     1     -11.628  11.258 -13.078  1.00  0.00     0.025 C 
HETATM    9  C10 UNL     1     -12.324  10.329 -15.229  1.00  0.00     0.025 C 
ENDBRANCH   4   6
ENDBRANCH   1   2
BRANCH   1  10
HETATM   10  C3  UNL     1     -12.411  15.483 -17.230  1.00  0.00     0.047 A 
HETATM   11  C4  UNL     1     -11.174  15.980 -16.896  1.00  0.00     0.119 A 
HETATM   12  N2  UNL     1     -10.791  16.818 -17.875  1.00  0.00    -0.317 N 
HETATM   13  C5  UNL     1     -11.769  16.830 -18.783  1.00  0.00     0.324 A 
ATOM     14  H2  UNL     1      -9.918  17.344 -17.916  1.00  0.00     0.170 HD
HETATM   15  O1  UNL     1     -11.732  17.525 -19.851  1.00  0.00    -0.247 OA
HETATM   16  N3  UNL     1     -12.764  16.019 -18.401  1.00  0.00    -0.309 N 
ATOM     17  H3  UNL     1     -13.631  15.844 -18.910  1.00  0.00     0.170 HD
ENDBRANCH   1  10
TORSDOF 3
ENDMDL
MODEL 5
REMARK VINA RESULT: -5.071777777      2.200      5.411
REMARK  3 active torsions:
REMARK  status: ('A' for Active; 'I' for Inactive)
REMARK    1  A    between atoms: N1_2  and  C2_3 
REMARK       I    between atoms: N1_2  and  C6_12 
REMARK    2  A    between atoms: C2_3  and  C3_4 
REMARK    3  A    between atoms: C6_12  and  C7_14 
ROOT
HETATM    1  C2  UNL     1     -13.193  14.555 -16.413  1.00  0.00     0.183 C 
ENDROOT
BRANCH   1   2
HETATM    2  N1  UNL     1     -12.527  13.286 -16.199  1.00  0.00    -0.350 N 
HETATM    3  C1  UNL     1     -12.086  12.574 -17.382  1.00  0.00     0.153 C 
HETATM    4  C6  UNL     1     -12.313  12.766 -14.920  1.00  0.00     0.227 C 
HETATM    5  O2  UNL     1     -12.733  13.471 -13.937  1.00  0.00    -0.273 OA
BRANCH   4   6
HETATM    6  C7  UNL     1     -11.655  11.489 -14.581  1.00  0.00     0.030 C 
HETATM    7  C8  UNL     1     -12.272  10.300 -15.230  1.00  0.00     0.025 C 
HETATM    8  C9  UNL     1     -10.185  11.497 -15.028  1.00  0.00     0.025 C 
HETATM    9  C10 UNL     1     -11.648  11.281 -13.082  1.00  0.00     0.025 C 
ENDBRANCH   4   6
ENDBRANCH   1   2
BRANCH   1  10
HETATM   10  C3  UNL     1     -12.405  15.490 -17.212  1.00  0.00     0.047 A 
HETATM   11  C4  UNL     1     -11.162  15.973 -16.881  1.00  0.00     0.119 A 
HETATM   12  N2  UNL     1     -10.770  16.804 -17.863  1.00  0.00    -0.317 N 
HETATM   13  C5  UNL     1     -11.751  16.825 -18.769  1.00  0.00     0.324 A 
ATOM     14  H2  UNL     1      -9.891  17.320 -17.907  1.00  0.00     0.170 HD
HETATM   15  O1  UNL     1     -11.707  17.518 -19.839  1.00  0.00    -0.247 OA
HETATM   16  N3  UNL     1     -12.754  16.028 -18.383  1.00  0.00    -0.309 N 
ATOM     17  H3  UNL     1     -13.624  15.862 -18.890  1.00  0.00     0.170 HD
ENDBRANCH   1  10
TORSDOF 3
ENDMDL
