MODEL 1
REMARK VINA RESULT: -4.998897315      0.000      0.000
REMARK  4 active torsions:
REMARK  status: ('A' for Active; 'I' for Inactive)
REMARK    1  A    between atoms: C2_2  and  C4_4 
REMARK    2  A    between atoms: C4_4  and  N1_5 
REMARK    3  A    between atoms: C4_4  and  C9_14 
REMARK       I    between atoms: N1_5  and  C5_7 
REMARK       I    between atoms: C5_7  and  N2_9 
REMARK    4  A    between atoms: N2_9  and  C6_11 
REMARK       I    between atoms: C9_14  and  N3_16 
ROOT
HETATM    1  C4  UNL     1     -11.337  11.981 -15.560  1.00  0.00     0.206 C 
ENDROOT
BRANCH   1   2
HETATM    2  C2  UNL     1     -12.077  11.071 -16.494  1.00  0.00    -0.061 C 
HETATM    3  C1  UNL     1     -11.410  10.395 -17.455  1.00  0.00     0.016 C 
HETATM    4  C3  UNL     1     -13.546  10.847 -16.433  1.00  0.00     0.045 C 
ENDBRANCH   1   2
BRANCH   1   5
HETATM    5  N1  UNL     1     -11.839  13.329 -15.803  1.00  0.00    -0.326 N 
HETATM    6  C5  UNL     1     -11.063  14.212 -16.623  1.00  0.00     0.317 C 
HETATM    7  O1  UNL     1      -9.969  13.851 -17.117  1.00  0.00    -0.247 OA
HETATM    8  N2  UNL     1     -11.510  15.523 -16.900  1.00  0.00    -0.339 N 
ATOM      9  H2  UNL     1     -12.398  15.858 -16.525  1.00  0.00     0.164 HD
ATOM     10  H1  UNL     1     -12.723  13.636 -15.399  1.00  0.00     0.165 HD
BRANCH   8  11
HETATM   11  C6  UNL     1     -10.687  16.383 -17.726  1.00  0.00     0.078 C 
HETATM   12  C7  UNL     1     -10.165  17.569 -16.960  1.00  0.00     0.032 C 
HETATM   13  C8  UNL     1     -11.527  16.791 -18.927  1.00  0.00     0.032 C 
ENDBRANCH   8  11
ENDBRANCH   1   5
BRANCH   1  14
HETATM   14  C9  UNL     1     -11.597  11.592 -14.172  1.00  0.00     0.246 C 
HETATM   15  O2  UNL     1     -12.322  12.398 -13.490  1.00  0.00    -0.271 OA
HETATM   16  N3  UNL     1     -11.117  10.419 -13.528  1.00  0.00    -0.359 N 
HETATM   17  C10 UNL     1     -11.508  10.168 -12.140  1.00  0.00     0.152 C 
HETATM   18  C11 UNL     1     -10.239   9.444 -14.112  1.00  0.00     0.152 C 
ENDBRANCH   1  14
TORSDOF 4
ENDMDL
MODEL 2
REMARK VINA RESULT: -4.942848722      2.355      6.109
REMARK  4 active torsions:
REMARK  status: ('A' for Active; 'I' for Inactive)
REMARK    1  A    between atoms: C2_2  and  C4_4 
REMARK    2  A    between atoms: C4_4  and  N1_5 
REMARK    3  A    between atoms: C4_4  and  C9_14 
REMARK       I    between atoms: N1_5  and  C5_7 
REMARK       I    between atoms: C5_7  and  N2_9 
REMARK    4  A    between atoms: N2_9  and  C6_11 
REMARK       I    between atoms: C9_14  and  N3_16 
ROOT
HETATM    1  C4  UNL     1     -10.964  14.828 -18.150  1.00  0.00     0.206 C 
ENDROOT
BRANCH   1   2
HETATM    2  C2  UNL     1     -11.007  16.326 -18.116  1.00  0.00    -0.061 C 
HETATM    3  C1  UNL     1     -10.568  16.995 -17.028  1.00  0.00     0.016 C 
HETATM    4  C3  UNL     1     -11.511  17.161 -19.240  1.00  0.00     0.045 C 
ENDBRANCH   1   2
BRANCH   1   5
HETATM    5  N1  UNL     1     -11.495  14.366 -16.872  1.00  0.00    -0.326 N 
HETATM    6  C5  UNL     1     -11.088  13.082 -16.384  1.00  0.00     0.317 C 
HETATM    7  O1  UNL     1     -10.301  12.355 -17.037  1.00  0.00    -0.247 OA
HETATM    8  N2  UNL     1     -11.562  12.593 -15.147  1.00  0.00    -0.339 N 
ATOM      9  H2  UNL     1     -12.199  13.152 -14.578  1.00  0.00     0.164 HD
ATOM     10  H1  UNL     1     -12.142  14.945 -16.337  1.00  0.00     0.165 HD
BRANCH   8  11
HETATM   11  C6  UNL     1     -11.129  11.284 -14.699  1.00  0.00     0.078 C 
HETATM   12  C7  UNL     1     -12.149  10.219 -15.002  1.00  0.00     0.032 C 
HETATM   13  C8  UNL     1     -10.830  11.394 -13.211  1.00  0.00     0.032 C 
ENDBRANCH   8  11
ENDBRANCH   1   5
BRANCH   1  14
HETATM   14  C9  UNL     1     -11.794  14.328 -19.248  1.00  0.00     0.246 C 
HETATM   15  O2  UNL     1     -13.040  14.622 -19.189  1.00  0.00    -0.271 OA
HETATM   16  N3  UNL     1     -11.343  13.553 -20.352  1.00  0.00    -0.359 N 
HETATM   17  C10 UNL     1     -12.308  13.170 -21.384  1.00  0.00     0.152 C 
HETATM   18  C11 UNL     1     -10.004  13.074 -20.545  1.00  0.00     0.152 C 
ENDBRANCH   1  14
TORSDOF 4
ENDMDL
MODEL 3
REMARK VINA RESULT: -4.809677111      3.216      5.344
REMARK  4 active torsions:
REMARK  status: ('A' for Active; 'I' for Inactive)
REMARK    1  A    between atoms: C2_2  and  C4_4 
REMARK    2  A    between atoms: C4_4  and  N1_5 
REMARK    3  A    between atoms: C4_4  and  C9_14 
REMARK       I    between atoms: N1_5  and  C5_7 
REMARK       I    between atoms: C5_7  and  N2_9 
REMARK    4  A    between atoms: N2_9  and  C6_11 
REMARK       I    between atoms: C9_14  and  N3_16 
ROOT
HETATM    1  C4  UNL     1     -11.918  15.120 -18.425  1.00  0.00     0.206 C 
ENDROOT
BRANCH   1   2
HETATM    2  C2  UNL     1     -10.626  15.488 -17.760  1.00  0.00    -0.061 C 
HETATM    3  C1  UNL     1     -10.428  16.744 -17.306  1.00  0.00     0.016 C 
HETATM    4  C3  UNL     1      -9.506  14.530 -17.552  1.00  0.00     0.045 C 
ENDBRANCH   1   2
BRANCH   1   5
HETATM    5  N1  UNL     1     -11.689  15.208 -19.863  1.00  0.00    -0.326 N 
HETATM    6  C5  UNL     1     -12.445  16.161 -20.621  1.00  0.00     0.317 C 
HETATM    7  O1  UNL     1     -13.296  16.902 -20.075  1.00  0.00    -0.247 OA
HETATM    8  N2  UNL     1     -12.252  16.295 -22.014  1.00  0.00    -0.339 N 
ATOM      9  H2  UNL     1     -11.565  15.718 -22.500  1.00  0.00     0.164 HD
ATOM     10  H1  UNL     1     -11.006  14.603 -20.319  1.00  0.00     0.165 HD
BRANCH   8  11
HETATM   11  C6  UNL     1     -13.046  17.266 -22.740  1.00  0.00     0.078 C 
HETATM   12  C7  UNL     1     -13.607  16.696 -24.015  1.00  0.00     0.032 C 
HETATM   13  C8  UNL     1     -12.158  18.478 -22.986  1.00  0.00     0.032 C 
ENDBRANCH   8  11
ENDBRANCH   1   5
BRANCH   1  14
HETATM   14  C9  UNL     1     -12.298  13.753 -18.060  1.00  0.00     0.246 C 
HETATM   15  O2  UNL     1     -12.159  12.868 -18.976  1.00  0.00    -0.271 OA
HETATM   16  N3  UNL     1     -12.804  13.334 -16.799  1.00  0.00    -0.359 N 
HETATM   17  C10 UNL     1     -13.097  11.915 -16.595  1.00  0.00     0.152 C 
HETATM   18  C11 UNL     1     -13.089  14.193 -15.685  1.00  0.00     0.152 C 
ENDBRANCH   1  14
TORSDOF 4
ENDMDL
MODEL 4
REMARK VINA RESULT: -4.798675618      1.702      2.960
REMARK  4 active torsions:
REMARK  status: ('A' for Active; 'I' for Inactive)
REMARK    1  A    between atoms: C2_2  and  C4_4 
REMARK    2  A    between atoms: C4_4  and  N1_5 
REMARK    3  A    between atoms: C4_4  and  C9_14 
REMARK       I    between atoms: N1_5  and  C5_7 
REMARK       I    between atoms: C5_7  and  N2_9 
REMARK    4  A    between atoms: N2_9  and  C6_11 
REMARK       I    between atoms: C9_14  and  N3_16 
ROOT
HETATM    1  C4  UNL     1     -11.723  12.000 -15.704  1.00  0.00     0.206 C 
ENDROOT
BRANCH   1   2
HETATM    2  C2  UNL     1     -11.653  12.066 -14.208  1.00  0.00    -0.061 C 
HETATM    3  C1  UNL     1     -12.513  12.848 -13.520  1.00  0.00     0.016 C 
HETATM    4  C3  UNL     1     -10.671  11.298 -13.395  1.00  0.00     0.045 C 
ENDBRANCH   1   2
BRANCH   1   5
HETATM    5  N1  UNL     1     -10.822  13.029 -16.211  1.00  0.00    -0.326 N 
HETATM    6  C5  UNL     1     -11.373  14.296 -16.591  1.00  0.00     0.317 C 
HETATM    7  O1  UNL     1     -12.602  14.526 -16.506  1.00  0.00    -0.247 OA
HETATM    8  N2  UNL     1     -10.542  15.330 -17.076  1.00  0.00    -0.339 N 
ATOM      9  H2  UNL     1      -9.535  15.192 -17.157  1.00  0.00     0.164 HD
ATOM     10  H1  UNL     1      -9.822  12.850 -16.293  1.00  0.00     0.165 HD
BRANCH   8  11
HETATM   11  C6  UNL     1     -11.145  16.593 -17.456  1.00  0.00     0.078 C 
HETATM   12  C7  UNL     1     -11.411  16.667 -18.936  1.00  0.00     0.032 C 
HETATM   13  C8  UNL     1     -10.216  17.698 -16.977  1.00  0.00     0.032 C 
ENDBRANCH   8  11
ENDBRANCH   1   5
BRANCH   1  14
HETATM   14  C9  UNL     1     -11.291  10.680 -16.168  1.00  0.00     0.246 C 
HETATM   15  O2  UNL     1     -10.067  10.589 -16.538  1.00  0.00    -0.271 OA
HETATM   16  N3  UNL     1     -12.100   9.514 -16.246  1.00  0.00    -0.359 N 
HETATM   17  C10 UNL     1     -11.489   8.263 -16.700  1.00  0.00     0.152 C 
HETATM   18  C11 UNL     1     -13.501   9.447 -15.942  1.00  0.00     0.152 C 
ENDBRANCH   1  14
TORSDOF 4
ENDMDL
MODEL 5
REMARK VINA RESULT: -4.695906897      2.888      4.575
REMARK  4 active torsions:
REMARK  status: ('A' for Active; 'I' for Inactive)
REMARK    1  A    between atoms: C2_2  and  C4_4 
REMARK    2  A    between atoms: C4_4  and  N1_5 
REMARK    3  A    between atoms: C4_4  and  C9_14 
REMARK       I    between atoms: N1_5  and  C5_7 
REMARK       I    between atoms: C5_7  and  N2_9 
REMARK    4  A    between atoms: N2_9  and  C6_11 
REMARK       I    between atoms: C9_14  and  N3_16 
ROOT
HETATM    1  C4  UNL     1     -11.166  13.816 -17.925  1.00  0.00     0.206 C 
ENDROOT
BRANCH   1   2
HETATM    2  C2  UNL     1     -10.877  14.721 -16.765  1.00  0.00    -0.061 C 
HETATM    3  C1  UNL     1     -10.911  14.241 -15.503  1.00  0.00     0.016 C 
HETATM    4  C3  UNL     1     -10.536  16.162 -16.909  1.00  0.00     0.045 C 
ENDBRANCH   1   2
BRANCH   1   5
HETATM    5  N1  UNL     1     -10.987  14.615 -19.132  1.00  0.00    -0.326 N 
HETATM    6  C5  UNL     1     -12.147  15.170 -19.765  1.00  0.00     0.317 C 
HETATM    7  O1  UNL     1     -13.297  14.974 -19.308  1.00  0.00    -0.247 OA
HETATM    8  N2  UNL     1     -12.027  15.962 -20.929  1.00  0.00    -0.339 N 
ATOM      9  H2  UNL     1     -11.111  16.154 -21.333  1.00  0.00     0.164 HD
ATOM     10  H1  UNL     1     -10.057  14.774 -19.518  1.00  0.00     0.165 HD
BRANCH   8  11
HETATM   11  C6  UNL     1     -13.229  16.495 -21.539  1.00  0.00     0.078 C 
HETATM   12  C7  UNL     1     -13.282  16.218 -23.018  1.00  0.00     0.032 C 
HETATM   13  C8  UNL     1     -13.269  17.984 -21.226  1.00  0.00     0.032 C 
ENDBRANCH   8  11
ENDBRANCH   1   5
BRANCH   1  14
HETATM   14  C9  UNL     1     -10.232  12.688 -17.925  1.00  0.00     0.246 C 
HETATM   15  O2  UNL     1      -9.037  12.950 -18.307  1.00  0.00    -0.271 OA
HETATM   16  N3  UNL     1     -10.534  11.351 -17.549  1.00  0.00    -0.359 N 
HETATM   17  C10 UNL     1      -9.463  10.354 -17.573  1.00  0.00     0.152 C 
HETATM   18  C11 UNL     1     -11.828  10.864 -17.163  1.00  0.00     0.152 C 
ENDBRANCH   1  14
TORSDOF 4
ENDMDL
