MODEL 1
REMARK VINA RESULT: -5.163615788      0.000      0.000
REMARK  6 active torsions:
REMARK  status: ('A' for Active; 'I' for Inactive)
REMARK    1  A    between atoms: C2_2  and  C3_3 
REMARK    2  A    between atoms: C3_3  and  C6_6 
REMARK    3  A    between atoms: C6_6  and  N1_7 
REMARK    4  A    between atoms: C6_6  and  C7_11 
REMARK       I    between atoms: C7_11  and  N2_13 
REMARK    5  A    between atoms: N2_13  and  C8_14 
REMARK    6  A    between atoms: C8_14  and  N3_16 
ROOT
HETATM    1  C6  UNL     1     -10.654  14.896 -18.241  1.00  0.00     0.297 C 
ENDROOT
BRANCH   1   2
HETATM    2  C3  UNL     1     -11.247  16.195 -17.866  1.00  0.00    -0.010 C 
HETATM    3  C4  UNL     1     -12.577  16.077 -17.167  1.00  0.00     0.017 C 
HETATM    4  C5  UNL     1     -10.363  17.048 -16.981  1.00  0.00     0.017 C 
BRANCH   2   5
HETATM    5  C2  UNL     1     -11.410  16.975 -19.156  1.00  0.00     0.007 C 
HETATM    6  C1  UNL     1     -12.730  16.878 -19.814  1.00  0.00     0.006 C 
ENDBRANCH   2   5
ENDBRANCH   1   2
BRANCH   1   7
HETATM    7  N1  UNL     1      -9.383  14.646 -17.654  1.00  0.00    -0.065 N 
ATOM      8  H13 UNL     1      -9.409  14.830 -16.652  1.00  0.00     0.275 HD
ATOM      9  H12 UNL     1      -9.186  13.645 -17.641  1.00  0.00     0.275 HD
ATOM     10  H11 UNL     1      -8.614  15.155 -18.091  1.00  0.00     0.275 HD
ENDBRANCH   1   7
BRANCH   1  11
HETATM   11  C7  UNL     1     -11.524  13.686 -18.016  1.00  0.00     0.325 C 
HETATM   12  O1  UNL     1     -12.394  13.422 -18.904  1.00  0.00    -0.255 OA
HETATM   13  N2  UNL     1     -11.303  12.994 -16.905  1.00  0.00    -0.339 NA
BRANCH  13  14
HETATM   14  C8  UNL     1     -11.073  12.270 -15.745  1.00  0.00     0.250 C 
HETATM   15  S1  UNL     1      -9.797  11.178 -15.853  1.00  0.00    -0.025 SA
BRANCH  14  16
HETATM   16  N3  UNL     1     -11.727  12.294 -14.537  1.00  0.00    -0.355 N 
HETATM   17  C9  UNL     1     -11.543  11.407 -13.404  1.00  0.00     0.152 C 
HETATM   18  C10 UNL     1     -12.741  13.344 -14.319  1.00  0.00     0.152 C 
ENDBRANCH  14  16
ENDBRANCH  13  14
ENDBRANCH   1  11
TORSDOF 6
ENDMDL
MODEL 2
REMARK VINA RESULT: -5.126247148      1.218      1.594
REMARK  6 active torsions:
REMARK  status: ('A' for Active; 'I' for Inactive)
REMARK    1  A    between atoms: C2_2  and  C3_3 
REMARK    2  A    between atoms: C3_3  and  C6_6 
REMARK    3  A    between atoms: C6_6  and  N1_7 
REMARK    4  A    between atoms: C6_6  and  C7_11 
REMARK       I    between atoms: C7_11  and  N2_13 
REMARK    5  A    between atoms: N2_13  and  C8_14 
REMARK    6  A    between atoms: C8_14  and  N3_16 
ROOT
HETATM    1  C6  UNL     1     -10.664  14.963 -18.242  1.00  0.00     0.297 C 
ENDROOT
BRANCH   1   2
HETATM    2  C3  UNL     1     -11.231  16.286 -17.910  1.00  0.00    -0.010 C 
HETATM    3  C4  UNL     1     -12.560  16.216 -17.203  1.00  0.00     0.017 C 
HETATM    4  C5  UNL     1     -10.327  17.152 -17.058  1.00  0.00     0.017 C 
BRANCH   2   5
HETATM    5  C2  UNL     1     -11.385  17.024 -19.225  1.00  0.00     0.007 C 
HETATM    6  C1  UNL     1     -12.764  17.157 -19.740  1.00  0.00     0.006 C 
ENDBRANCH   2   5
ENDBRANCH   1   2
BRANCH   1   7
HETATM    7  N1  UNL     1      -9.428  14.681 -17.597  1.00  0.00    -0.065 N 
ATOM      8  H13 UNL     1      -8.676  14.606 -18.282  1.00  0.00     0.275 HD
ATOM      9  H12 UNL     1      -9.105  15.494 -17.072  1.00  0.00     0.275 HD
ATOM     10  H11 UNL     1      -9.449  13.855 -16.998  1.00  0.00     0.275 HD
ENDBRANCH   1   7
BRANCH   1  11
HETATM   11  C7  UNL     1     -11.581  13.784 -18.043  1.00  0.00     0.325 C 
HETATM   12  O1  UNL     1     -12.410  13.529 -18.971  1.00  0.00    -0.255 OA
HETATM   13  N2  UNL     1     -11.442  13.109 -16.909  1.00  0.00    -0.339 NA
BRANCH  13  14
HETATM   14  C8  UNL     1     -11.297  12.403 -15.725  1.00  0.00     0.250 C 
HETATM   15  S1  UNL     1     -12.359  12.871 -14.505  1.00  0.00    -0.025 SA
BRANCH  14  16
HETATM   16  N3  UNL     1     -10.421  11.399 -15.387  1.00  0.00    -0.355 N 
HETATM   17  C9  UNL     1     -10.413  10.586 -14.187  1.00  0.00     0.152 C 
HETATM   18  C10 UNL     1      -9.346  11.069 -16.344  1.00  0.00     0.152 C 
ENDBRANCH  14  16
ENDBRANCH  13  14
ENDBRANCH   1  11
TORSDOF 6
ENDMDL
MODEL 3
REMARK VINA RESULT: -5.033807800      1.808      2.473
REMARK  6 active torsions:
REMARK  status: ('A' for Active; 'I' for Inactive)
REMARK    1  A    between atoms: C2_2  and  C3_3 
REMARK    2  A    between atoms: C3_3  and  C6_6 
REMARK    3  A    between atoms: C6_6  and  N1_7 
REMARK    4  A    between atoms: C6_6  and  C7_11 
REMARK       I    between atoms: C7_11  and  N2_13 
REMARK    5  A    between atoms: N2_13  and  C8_14 
REMARK    6  A    between atoms: C8_14  and  N3_16 
ROOT
HETATM    1  C6  UNL     1     -11.012  14.578 -18.347  1.00  0.00     0.297 C 
ENDROOT
BRANCH   1   2
HETATM    2  C3  UNL     1     -11.286  15.986 -17.998  1.00  0.00    -0.010 C 
HETATM    3  C4  UNL     1     -10.157  16.661 -17.264  1.00  0.00     0.017 C 
HETATM    4  C5  UNL     1     -11.624  16.865 -19.184  1.00  0.00     0.017 C 
BRANCH   2   5
HETATM    5  C2  UNL     1     -12.530  15.973 -17.130  1.00  0.00     0.007 C 
HETATM    6  C1  UNL     1     -13.489  14.878 -17.384  1.00  0.00     0.006 C 
ENDBRANCH   2   5
ENDBRANCH   1   2
BRANCH   1   7
HETATM    7  N1  UNL     1     -10.742  14.362 -19.727  1.00  0.00    -0.065 N 
ATOM      8  H13 UNL     1     -10.438  15.229 -20.171  1.00  0.00     0.275 HD
ATOM      9  H12 UNL     1      -9.897  13.803 -19.842  1.00  0.00     0.275 HD
ATOM     10  H11 UNL     1     -11.518  13.949 -20.245  1.00  0.00     0.275 HD
ENDBRANCH   1   7
BRANCH   1  11
HETATM   11  C7  UNL     1      -9.934  13.898 -17.544  1.00  0.00     0.325 C 
HETATM   12  O1  UNL     1      -8.731  14.096 -17.900  1.00  0.00    -0.255 OA
HETATM   13  N2  UNL     1     -10.336  13.148 -16.524  1.00  0.00    -0.339 NA
BRANCH  13  14
HETATM   14  C8  UNL     1     -10.755  12.366 -15.460  1.00  0.00     0.250 C 
HETATM   15  S1  UNL     1     -11.918  13.092 -14.482  1.00  0.00    -0.025 SA
BRANCH  14  16
HETATM   16  N3  UNL     1     -10.364  11.107 -15.072  1.00  0.00    -0.355 N 
HETATM   17  C9  UNL     1      -9.748  10.073 -15.880  1.00  0.00     0.152 C 
HETATM   18  C10 UNL     1     -10.570  10.724 -13.661  1.00  0.00     0.152 C 
ENDBRANCH  14  16
ENDBRANCH  13  14
ENDBRANCH   1  11
TORSDOF 6
ENDMDL
MODEL 4
REMARK VINA RESULT: -5.009434381      1.867      2.067
REMARK  6 active torsions:
REMARK  status: ('A' for Active; 'I' for Inactive)
REMARK    1  A    between atoms: C2_2  and  C3_3 
REMARK    2  A    between atoms: C3_3  and  C6_6 
REMARK    3  A    between atoms: C6_6  and  N1_7 
REMARK    4  A    between atoms: C6_6  and  C7_11 
REMARK       I    between atoms: C7_11  and  N2_13 
REMARK    5  A    between atoms: N2_13  and  C8_14 
REMARK    6  A    between atoms: C8_14  and  N3_16 
ROOT
HETATM    1  C6  UNL     1     -10.949  14.063 -18.117  1.00  0.00     0.297 C 
ENDROOT
BRANCH   1   2
HETATM    2  C3  UNL     1     -11.427  15.451 -17.962  1.00  0.00    -0.010 C 
HETATM    3  C4  UNL     1     -12.700  15.569 -17.166  1.00  0.00     0.017 C 
HETATM    4  C5  UNL     1     -10.422  16.384 -17.320  1.00  0.00     0.017 C 
BRANCH   2   5
HETATM    5  C2  UNL     1     -11.644  15.985 -19.365  1.00  0.00     0.007 C 
HETATM    6  C1  UNL     1     -12.354  17.276 -19.467  1.00  0.00     0.006 C 
ENDBRANCH   2   5
ENDBRANCH   1   2
BRANCH   1   7
HETATM    7  N1  UNL     1     -10.370  13.785 -19.387  1.00  0.00    -0.065 N 
ATOM      8  H13 UNL     1     -10.989  14.095 -20.137  1.00  0.00     0.275 HD
ATOM      9  H12 UNL     1      -9.572  14.396 -19.557  1.00  0.00     0.275 HD
ATOM     10  H11 UNL     1     -10.108  12.808 -19.522  1.00  0.00     0.275 HD
ENDBRANCH   1   7
BRANCH   1  11
HETATM   11  C7  UNL     1     -10.006  13.567 -17.051  1.00  0.00     0.325 C 
HETATM   12  O1  UNL     1      -8.763  13.745 -17.245  1.00  0.00    -0.255 OA
HETATM   13  N2  UNL     1     -10.559  12.987 -15.993  1.00  0.00    -0.339 NA
BRANCH  13  14
HETATM   14  C8  UNL     1     -11.134  12.380 -14.888  1.00  0.00     0.250 C 
HETATM   15  S1  UNL     1     -12.490  13.179 -14.288  1.00  0.00    -0.025 SA
BRANCH  14  16
HETATM   16  N3  UNL     1     -10.769  11.248 -14.201  1.00  0.00    -0.355 N 
HETATM   17  C9  UNL     1     -10.999  10.935 -12.804  1.00  0.00     0.152 C 
HETATM   18  C10 UNL     1     -10.061  10.187 -14.945  1.00  0.00     0.152 C 
ENDBRANCH  14  16
ENDBRANCH  13  14
ENDBRANCH   1  11
TORSDOF 6
ENDMDL
MODEL 5
REMARK VINA RESULT: -5.000683966      1.834      2.318
REMARK  6 active torsions:
REMARK  status: ('A' for Active; 'I' for Inactive)
REMARK    1  A    between atoms: C2_2  and  C3_3 
REMARK    2  A    between atoms: C3_3  and  C6_6 
REMARK    3  A    between atoms: C6_6  and  N1_7 
REMARK    4  A    between atoms: C6_6  and  C7_11 
REMARK       I    between atoms: C7_11  and  N2_13 
REMARK    5  A    between atoms: N2_13  and  C8_14 
REMARK    6  A    between atoms: C8_14  and  N3_16 
ROOT
HETATM    1  C6  UNL     1     -10.463  15.688 -17.772  1.00  0.00     0.297 C 
ENDROOT
BRANCH   1   2
HETATM    2  C3  UNL     1     -11.565  15.638 -18.753  1.00  0.00    -0.010 C 
HETATM    3  C4  UNL     1     -11.391  14.577 -19.808  1.00  0.00     0.017 C 
HETATM    4  C5  UNL     1     -12.933  15.425 -18.139  1.00  0.00     0.017 C 
BRANCH   2   5
HETATM    5  C2  UNL     1     -11.618  17.008 -19.402  1.00  0.00     0.007 C 
HETATM    6  C1  UNL     1     -12.762  17.257 -20.304  1.00  0.00     0.006 C 
ENDBRANCH   2   5
ENDBRANCH   1   2
BRANCH   1   7
HETATM    7  N1  UNL     1     -10.768  16.421 -16.591  1.00  0.00    -0.065 N 
ATOM      8  H13 UNL     1     -11.761  16.345 -16.370  1.00  0.00     0.275 HD
ATOM      9  H12 UNL     1     -10.373  15.958 -15.772  1.00  0.00     0.275 HD
ATOM     10  H11 UNL     1     -10.482  17.400 -16.621  1.00  0.00     0.275 HD
ENDBRANCH   1   7
BRANCH   1  11
HETATM   11  C7  UNL     1      -9.882  14.359 -17.365  1.00  0.00     0.325 C 
HETATM   12  O1  UNL     1      -8.806  13.996 -17.936  1.00  0.00    -0.255 OA
HETATM   13  N2  UNL     1     -10.546  13.678 -16.439  1.00  0.00    -0.339 NA
BRANCH  13  14
HETATM   14  C8  UNL     1     -11.239  12.967 -15.473  1.00  0.00     0.250 C 
HETATM   15  S1  UNL     1     -12.773  13.573 -15.134  1.00  0.00    -0.025 SA
BRANCH  14  16
HETATM   16  N3  UNL     1     -10.869  11.863 -14.742  1.00  0.00    -0.355 N 
HETATM   17  C9  UNL     1     -11.284  11.498 -13.402  1.00  0.00     0.152 C 
HETATM   18  C10 UNL     1      -9.945  10.898 -15.369  1.00  0.00     0.152 C 
ENDBRANCH  14  16
ENDBRANCH  13  14
ENDBRANCH   1  11
TORSDOF 6
ENDMDL
