MODEL 1
REMARK VINA RESULT: -5.572395911      0.000      0.000
REMARK  2 active torsions:
REMARK  status: ('A' for Active; 'I' for Inactive)
REMARK    1  A    between atoms: N2_7  and  C4_8 
REMARK    2  A    between atoms: N3_12  and  C8_14 
ROOT
HETATM    1  C1  UNL     1      -9.898  12.894 -19.636  1.00  0.00     0.072 C 
HETATM    2  C2  UNL     1     -10.499  12.604 -18.321  1.00  0.00     0.052 A 
HETATM    3  N1  UNL     1     -11.311  11.628 -18.112  1.00  0.00    -0.333 N 
ATOM      4  H1  UNL     1     -11.627  10.962 -18.817  1.00  0.00     0.168 HD
HETATM    5  C3  UNL     1     -11.705  11.620 -16.733  1.00  0.00     0.180 A 
HETATM    6  S1  UNL     1     -12.720  10.537 -16.091  1.00  0.00    -0.040 SA
HETATM    7  N2  UNL     1     -11.065  12.688 -16.054  1.00  0.00    -0.304 N 
HETATM    8  C7  UNL     1     -10.302  13.381 -17.045  1.00  0.00     0.129 A 
HETATM    9  N3  UNL     1     -10.287  14.744 -17.132  1.00  0.00    -0.366 N 
ATOM     10  H3  UNL     1      -9.412  15.185 -16.850  1.00  0.00     0.162 HD
ENDROOT
BRANCH   7  11
HETATM   11  C4  UNL     1     -11.171  12.924 -14.658  1.00  0.00     0.086 C 
HETATM   12  C5  UNL     1     -10.742  11.722 -13.820  1.00  0.00     0.032 C 
HETATM   13  C6  UNL     1     -12.582  13.189 -14.159  1.00  0.00     0.032 C 
ENDBRANCH   7  11
BRANCH   9  14
HETATM   14  C8  UNL     1     -11.268  15.610 -17.542  1.00  0.00     0.021 C 
HETATM   15  C9  UNL     1     -11.562  15.757 -19.017  1.00  0.00     0.037 C 
HETATM   16  C10 UNL     1     -12.623  15.529 -16.852  1.00  0.00     0.037 C 
HETATM   17  C11 UNL     1     -10.768  17.031 -17.139  1.00  0.00     0.037 C 
ENDBRANCH   9  14
TORSDOF 2
ENDMDL
MODEL 2
REMARK VINA RESULT: -5.393732519      1.740      3.497
REMARK  2 active torsions:
REMARK  status: ('A' for Active; 'I' for Inactive)
REMARK    1  A    between atoms: N2_7  and  C4_8 
REMARK    2  A    between atoms: N3_12  and  C8_14 
ROOT
HETATM    1  C1  UNL     1     -13.505  14.472 -15.982  1.00  0.00     0.072 C 
HETATM    2  C2  UNL     1     -12.725  13.262 -15.664  1.00  0.00     0.052 A 
HETATM    3  N1  UNL     1     -12.322  12.968 -14.478  1.00  0.00    -0.333 N 
ATOM      4  H1  UNL     1     -12.491  13.529 -13.643  1.00  0.00     0.168 HD
HETATM    5  C3  UNL     1     -11.600  11.730 -14.510  1.00  0.00     0.180 A 
HETATM    6  S1  UNL     1     -10.941  11.036 -13.207  1.00  0.00    -0.040 SA
HETATM    7  N2  UNL     1     -11.571  11.235 -15.839  1.00  0.00    -0.304 N 
HETATM    8  C7  UNL     1     -12.252  12.209 -16.634  1.00  0.00     0.129 A 
HETATM    9  N3  UNL     1     -11.770  12.633 -17.840  1.00  0.00    -0.366 N 
ATOM     10  H3  UNL     1     -12.297  12.313 -18.652  1.00  0.00     0.162 HD
ENDROOT
BRANCH   7  11
HETATM   11  C4  UNL     1     -11.005   9.989 -16.215  1.00  0.00     0.086 C 
HETATM   12  C5  UNL     1      -9.550  10.110 -16.662  1.00  0.00     0.032 C 
HETATM   13  C6  UNL     1     -11.665   9.321 -17.411  1.00  0.00     0.032 C 
ENDBRANCH   7  11
BRANCH   9  14
HETATM   14  C8  UNL     1     -10.686  13.422 -18.125  1.00  0.00     0.021 C 
HETATM   15  C9  UNL     1      -9.877  14.012 -16.993  1.00  0.00     0.037 C 
HETATM   16  C10 UNL     1      -9.672  12.903 -19.136  1.00  0.00     0.037 C 
HETATM   17  C11 UNL     1     -11.261  14.683 -18.841  1.00  0.00     0.037 C 
ENDBRANCH   9  14
TORSDOF 2
ENDMDL
MODEL 3
REMARK VINA RESULT: -5.273024662      1.906      3.700
REMARK  2 active torsions:
REMARK  status: ('A' for Active; 'I' for Inactive)
REMARK    1  A    between atoms: N2_7  and  C4_8 
REMARK    2  A    between atoms: N3_12  and  C8_14 
ROOT
HETATM    1  C1  UNL     1     -13.308  14.338 -15.869  1.00  0.00     0.072 C 
HETATM    2  C2  UNL     1     -12.658  13.079 -15.463  1.00  0.00     0.052 A 
HETATM    3  N1  UNL     1     -12.269  12.837 -14.261  1.00  0.00    -0.333 N 
ATOM      4  H1  UNL     1     -12.360  13.477 -13.472  1.00  0.00     0.168 HD
HETATM    5  C3  UNL     1     -11.686  11.528 -14.200  1.00  0.00     0.180 A 
HETATM    6  S1  UNL     1     -11.082  10.871 -12.852  1.00  0.00    -0.040 SA
HETATM    7  N2  UNL     1     -11.735  10.930 -15.486  1.00  0.00    -0.304 N 
HETATM    8  C7  UNL     1     -12.321  11.908 -16.350  1.00  0.00     0.129 A 
HETATM    9  N3  UNL     1     -11.818  12.180 -17.590  1.00  0.00    -0.366 N 
ATOM     10  H3  UNL     1     -12.391  11.857 -18.369  1.00  0.00     0.162 HD
ENDROOT
BRANCH   7  11
HETATM   11  C4  UNL     1     -11.315   9.604 -15.766  1.00  0.00     0.086 C 
HETATM   12  C5  UNL     1      -9.845   9.521 -16.172  1.00  0.00     0.032 C 
HETATM   13  C6  UNL     1     -12.021   8.944 -16.940  1.00  0.00     0.032 C 
ENDBRANCH   7  11
BRANCH   9  14
HETATM   14  C8  UNL     1     -10.660  12.821 -17.948  1.00  0.00     0.021 C 
HETATM   15  C9  UNL     1     -10.733  14.196 -18.572  1.00  0.00     0.037 C 
HETATM   16  C10 UNL     1      -9.536  12.887 -16.922  1.00  0.00     0.037 C 
HETATM   17  C11 UNL     1     -10.033  11.953 -19.081  1.00  0.00     0.037 C 
ENDBRANCH   9  14
TORSDOF 2
ENDMDL
MODEL 4
REMARK VINA RESULT: -5.269530505      2.115      5.063
REMARK  2 active torsions:
REMARK  status: ('A' for Active; 'I' for Inactive)
REMARK    1  A    between atoms: N2_7  and  C4_8 
REMARK    2  A    between atoms: N3_12  and  C8_14 
ROOT
HETATM    1  C1  UNL     1     -11.008  11.114 -12.896  1.00  0.00     0.072 C 
HETATM    2  C2  UNL     1     -11.243  11.940 -14.094  1.00  0.00     0.052 A 
HETATM    3  N1  UNL     1     -12.306  12.642 -14.275  1.00  0.00    -0.333 N 
ATOM      4  H1  UNL     1     -13.090  12.701 -13.625  1.00  0.00     0.168 HD
HETATM    5  C3  UNL     1     -12.220  13.328 -15.530  1.00  0.00     0.180 A 
HETATM    6  S1  UNL     1     -13.370  14.310 -16.103  1.00  0.00    -0.040 SA
HETATM    7  N2  UNL     1     -10.988  13.010 -16.158  1.00  0.00    -0.304 N 
HETATM    8  C7  UNL     1     -10.333  12.083 -15.288  1.00  0.00     0.129 A 
HETATM    9  N3  UNL     1      -9.719  10.955 -15.753  1.00  0.00    -0.366 N 
ATOM     10  H3  UNL     1      -8.701  10.968 -15.708  1.00  0.00     0.162 HD
ENDROOT
BRANCH   7  11
HETATM   11  C4  UNL     1     -10.544  13.580 -17.380  1.00  0.00     0.086 C 
HETATM   12  C5  UNL     1     -10.835  12.692 -18.588  1.00  0.00     0.032 C 
HETATM   13  C6  UNL     1      -9.041  13.791 -17.479  1.00  0.00     0.032 C 
ENDBRANCH   7  11
BRANCH   9  14
HETATM   14  C8  UNL     1     -10.263   9.808 -16.270  1.00  0.00     0.021 C 
HETATM   15  C9  UNL     1     -11.767   9.661 -16.335  1.00  0.00     0.037 C 
HETATM   16  C10 UNL     1      -9.737   9.310 -17.610  1.00  0.00     0.037 C 
HETATM   17  C11 UNL     1      -9.841   8.666 -15.296  1.00  0.00     0.037 C 
ENDBRANCH   9  14
TORSDOF 2
ENDMDL
MODEL 5
REMARK VINA RESULT: -5.255633724      1.579      1.906
REMARK  2 active torsions:
REMARK  status: ('A' for Active; 'I' for Inactive)
REMARK    1  A    between atoms: N2_7  and  C4_8 
REMARK    2  A    between atoms: N3_12  and  C8_14 
ROOT
HETATM    1  C1  UNL     1      -8.826  13.982 -17.847  1.00  0.00     0.072 C 
HETATM    2  C2  UNL     1      -9.541  12.987 -17.027  1.00  0.00     0.052 A 
HETATM    3  N1  UNL     1      -9.500  11.721 -17.251  1.00  0.00    -0.333 N 
ATOM      4  H1  UNL     1      -8.982  11.273 -18.007  1.00  0.00     0.168 HD
HETATM    5  C3  UNL     1     -10.294  11.035 -16.274  1.00  0.00     0.180 A 
HETATM    6  S1  UNL     1     -10.483   9.430 -16.231  1.00  0.00    -0.040 SA
HETATM    7  N2  UNL     1     -10.860  11.979 -15.379  1.00  0.00    -0.304 N 
HETATM    8  C7  UNL     1     -10.435  13.263 -15.845  1.00  0.00     0.129 A 
HETATM    9  N3  UNL     1     -11.290  14.325 -15.934  1.00  0.00    -0.366 N 
ATOM     10  H3  UNL     1     -11.134  15.063 -15.247  1.00  0.00     0.162 HD
ENDROOT
BRANCH   7  11
HETATM   11  C4  UNL     1     -11.638  11.636 -14.243  1.00  0.00     0.086 C 
HETATM   12  C5  UNL     1     -12.280  12.850 -13.575  1.00  0.00     0.032 C 
HETATM   13  C6  UNL     1     -10.859  11.002 -13.101  1.00  0.00     0.032 C 
ENDBRANCH   7  11
BRANCH   9  14
HETATM   14  C8  UNL     1     -12.324  14.551 -16.805  1.00  0.00     0.021 C 
HETATM   15  C9  UNL     1     -12.360  13.813 -18.124  1.00  0.00     0.037 C 
HETATM   16  C10 UNL     1     -13.743  14.496 -16.256  1.00  0.00     0.037 C 
HETATM   17  C11 UNL     1     -12.187  16.042 -17.241  1.00  0.00     0.037 C 
ENDBRANCH   9  14
TORSDOF 2
ENDMDL
