MODEL 1
REMARK VINA RESULT: -5.501798118      0.000      0.000
REMARK  1 active torsions:
REMARK  status: ('A' for Active; 'I' for Inactive)
REMARK    1  A    between atoms: C4_6  and  S1_7 
ROOT
HETATM    1  C1  UNL     1      -9.853  12.169 -21.090  1.00  0.00     0.147 C 
HETATM    2  N1  UNL     1     -10.706  13.273 -20.912  1.00  0.00    -0.380 N 
ATOM      3  H1  UNL     1     -11.197  13.552 -21.761  1.00  0.00     0.160 HD
HETATM    4  C2  UNL     1     -10.984  13.984 -19.908  1.00  0.00     0.105 C 
HETATM    5  C3  UNL     1     -11.954  15.106 -20.071  1.00  0.00    -0.005 C 
HETATM    6  C4  UNL     1     -12.796  15.121 -21.089  1.00  0.00     0.089 C 
HETATM    7  C6  UNL     1     -11.977  16.202 -19.103  1.00  0.00     0.053 C 
HETATM    8  C7  UNL     1     -11.382  15.940 -17.774  1.00  0.00    -0.027 C 
HETATM    9  C8  UNL     1     -12.436  15.442 -16.786  1.00  0.00     0.016 C 
HETATM   10  C9  UNL     1     -10.834  17.238 -17.167  1.00  0.00     0.016 C 
HETATM   11  C10 UNL     1     -10.252  14.954 -17.771  1.00  0.00     0.133 C 
HETATM   12  N2  UNL     1     -10.459  13.822 -18.609  1.00  0.00    -0.371 N 
HETATM   13  C11 UNL     1     -10.127  12.513 -18.114  1.00  0.00     0.151 C 
ENDROOT
BRANCH   6  14
HETATM   14  S1  UNL     1     -12.748  13.807 -22.232  1.00  0.00     0.035 S 
HETATM   15  C5  UNL     1     -13.219  14.321 -23.860  1.00  0.00     0.132 C 
HETATM   16  O1  UNL     1     -13.569  12.462 -21.721  1.00  0.00    -0.254 OA
ENDBRANCH   6  14
TORSDOF 1
ENDMDL
MODEL 2
REMARK VINA RESULT: -5.500209950      2.125      2.368
REMARK  1 active torsions:
REMARK  status: ('A' for Active; 'I' for Inactive)
REMARK    1  A    between atoms: C4_6  and  S1_7 
ROOT
HETATM    1  C1  UNL     1     -12.143  13.814 -22.630  1.00  0.00     0.147 C 
HETATM    2  N1  UNL     1     -12.368  15.008 -21.921  1.00  0.00    -0.380 N 
ATOM      3  H1  UNL     1     -12.717  15.770 -22.502  1.00  0.00     0.160 HD
HETATM    4  C2  UNL     1     -12.222  15.322 -20.708  1.00  0.00     0.105 C 
HETATM    5  C3  UNL     1     -12.560  16.710 -20.281  1.00  0.00    -0.005 C 
HETATM    6  C4  UNL     1     -13.353  17.465 -21.021  1.00  0.00     0.089 C 
HETATM    7  C6  UNL     1     -12.011  17.249 -19.037  1.00  0.00     0.053 C 
HETATM    8  C7  UNL     1     -11.535  16.273 -18.033  1.00  0.00    -0.027 C 
HETATM    9  C8  UNL     1     -12.641  15.917 -17.041  1.00  0.00     0.016 C 
HETATM   10  C9  UNL     1     -10.407  16.881 -17.187  1.00  0.00     0.016 C 
HETATM   11  C10 UNL     1     -11.001  14.991 -18.600  1.00  0.00     0.133 C 
HETATM   12  N2  UNL     1     -11.762  14.469 -19.684  1.00  0.00    -0.371 N 
HETATM   13  C11 UNL     1     -12.055  13.061 -19.719  1.00  0.00     0.151 C 
ENDROOT
BRANCH   6  14
HETATM   14  S1  UNL     1     -13.992  16.804 -22.501  1.00  0.00     0.035 S 
HETATM   15  C5  UNL     1     -14.061  18.010 -23.796  1.00  0.00     0.132 C 
HETATM   16  O1  UNL     1     -15.426  16.000 -22.296  1.00  0.00    -0.254 OA
ENDBRANCH   6  14
TORSDOF 1
ENDMDL
MODEL 3
REMARK VINA RESULT: -5.138661981      4.706      6.306
REMARK  1 active torsions:
REMARK  status: ('A' for Active; 'I' for Inactive)
REMARK    1  A    between atoms: C4_6  and  S1_7 
ROOT
HETATM    1  C1  UNL     1     -12.927   9.175 -16.554  1.00  0.00     0.147 C 
HETATM    2  N1  UNL     1     -12.331  10.224 -15.832  1.00  0.00    -0.380 N 
ATOM      3  H1  UNL     1     -12.377  10.103 -14.820  1.00  0.00     0.160 HD
HETATM    4  C2  UNL     1     -11.751  11.286 -16.189  1.00  0.00     0.105 C 
HETATM    5  C3  UNL     1     -11.224  12.203 -15.138  1.00  0.00    -0.005 C 
HETATM    6  C4  UNL     1     -10.998  11.761 -13.914  1.00  0.00     0.089 C 
HETATM    7  C6  UNL     1     -10.954  13.605 -15.456  1.00  0.00     0.053 C 
HETATM    8  C7  UNL     1     -10.770  13.949 -16.882  1.00  0.00    -0.027 C 
HETATM    9  C8  UNL     1      -9.296  13.887 -17.279  1.00  0.00     0.016 C 
HETATM   10  C9  UNL     1     -11.203  15.398 -17.145  1.00  0.00     0.016 C 
HETATM   11  C10 UNL     1     -11.538  13.091 -17.844  1.00  0.00     0.133 C 
HETATM   12  N2  UNL     1     -11.542  11.706 -17.519  1.00  0.00    -0.371 N 
HETATM   13  C11 UNL     1     -11.327  10.741 -18.564  1.00  0.00     0.151 C 
ENDROOT
BRANCH   6  14
HETATM   14  S1  UNL     1     -11.330  10.087 -13.556  1.00  0.00     0.035 S 
HETATM   15  C5  UNL     1     -11.842   9.852 -11.878  1.00  0.00     0.132 C 
HETATM   16  O1  UNL     1     -10.105   9.066 -14.003  1.00  0.00    -0.254 OA
ENDBRANCH   6  14
TORSDOF 1
ENDMDL
MODEL 4
REMARK VINA RESULT: -4.991760931      3.945      5.619
REMARK  1 active torsions:
REMARK  status: ('A' for Active; 'I' for Inactive)
REMARK    1  A    between atoms: C4_6  and  S1_7 
ROOT
HETATM    1  C1  UNL     1      -9.096  12.854 -17.737  1.00  0.00     0.147 C 
HETATM    2  N1  UNL     1     -10.148  12.943 -16.807  1.00  0.00    -0.380 N 
ATOM      3  H1  UNL     1     -10.656  13.827 -16.846  1.00  0.00     0.160 HD
HETATM    4  C2  UNL     1     -10.587  12.144 -15.935  1.00  0.00     0.105 C 
HETATM    5  C3  UNL     1     -11.746  12.566 -15.095  1.00  0.00    -0.005 C 
HETATM    6  C4  UNL     1     -12.543  13.542 -15.494  1.00  0.00     0.089 C 
HETATM    7  C6  UNL     1     -12.006  11.902 -13.819  1.00  0.00     0.053 C 
HETATM    8  C7  UNL     1     -11.416  10.560 -13.625  1.00  0.00    -0.027 C 
HETATM    9  C8  UNL     1     -12.387   9.462 -14.053  1.00  0.00     0.016 C 
HETATM   10  C9  UNL     1     -11.141  10.305 -12.136  1.00  0.00     0.016 C 
HETATM   11  C10 UNL     1     -10.120  10.329 -14.345  1.00  0.00     0.133 C 
HETATM   12  N2  UNL     1     -10.083  10.855 -15.667  1.00  0.00    -0.371 N 
HETATM   13  C11 UNL     1      -9.526  10.054 -16.724  1.00  0.00     0.151 C 
ENDROOT
BRANCH   6  14
HETATM   14  S1  UNL     1     -12.211  14.321 -17.017  1.00  0.00     0.035 S 
HETATM   15  C5  UNL     1     -12.660  16.034 -17.002  1.00  0.00     0.132 C 
HETATM   16  O1  UNL     1     -12.830  13.507 -18.320  1.00  0.00    -0.254 OA
ENDBRANCH   6  14
TORSDOF 1
ENDMDL
MODEL 5
REMARK VINA RESULT: -4.948712111      4.700      6.642
REMARK  1 active torsions:
REMARK  status: ('A' for Active; 'I' for Inactive)
REMARK    1  A    between atoms: C4_6  and  S1_7 
ROOT
HETATM    1  C1  UNL     1     -11.086  10.755 -12.534  1.00  0.00     0.147 C 
HETATM    2  N1  UNL     1     -10.553  10.655 -13.831  1.00  0.00    -0.380 N 
ATOM      3  H1  UNL     1     -10.032   9.794 -13.995  1.00  0.00     0.160 HD
HETATM    4  C2  UNL     1     -10.593  11.421 -14.833  1.00  0.00     0.105 C 
HETATM    5  C3  UNL     1      -9.902  11.000 -16.086  1.00  0.00    -0.005 C 
HETATM    6  C4  UNL     1      -9.609   9.728 -16.294  1.00  0.00     0.089 C 
HETATM    7  C6  UNL     1      -9.540  11.995 -17.094  1.00  0.00     0.053 C 
HETATM    8  C7  UNL     1     -10.266  13.283 -17.061  1.00  0.00    -0.027 C 
HETATM    9  C8  UNL     1     -11.495  13.247 -17.968  1.00  0.00     0.016 C 
HETATM   10  C9  UNL     1      -9.384  14.411 -17.612  1.00  0.00     0.016 C 
HETATM   11  C10 UNL     1     -10.718  13.719 -15.698  1.00  0.00     0.133 C 
HETATM   12  N2  UNL     1     -11.244  12.670 -14.892  1.00  0.00    -0.371 N 
HETATM   13  C11 UNL     1     -12.449  12.902 -14.141  1.00  0.00     0.151 C 
ENDROOT
BRANCH   6  14
HETATM   14  S1  UNL     1     -10.046   8.560 -15.077  1.00  0.00     0.035 S 
HETATM   15  C5  UNL     1      -8.911   7.202 -15.017  1.00  0.00     0.132 C 
HETATM   16  O1  UNL     1     -11.626   8.072 -15.172  1.00  0.00    -0.254 OA
ENDBRANCH   6  14
TORSDOF 1
ENDMDL
