MODEL 1
REMARK VINA RESULT: -5.591241714      0.000      0.000
REMARK  3 active torsions:
REMARK  status: ('A' for Active; 'I' for Inactive)
REMARK    1  A    between atoms: C4_5  and  C5_6 
REMARK    2  A    between atoms: C5_6  and  C6_12 
REMARK    3  A    between atoms: N1_7  and  N2_9 
ROOT
HETATM    1  C5  UNL     1     -11.727  15.487 -18.353  1.00  0.00     0.046 C 
HETATM    2  N1  UNL     1     -10.467  15.678 -18.471  1.00  0.00    -0.310 N 
ATOM      3  H1  UNL     1     -10.155  16.327 -19.194  1.00  0.00     0.186 HD
ENDROOT
BRANCH   1   4
HETATM    4  C4  UNL     1     -12.157  14.541 -17.298  1.00  0.00     0.029 A 
HETATM    5  S1  UNL     1     -12.306  12.845 -17.370  1.00  0.00    -0.100 SA
HETATM    6  C3  UNL     1     -12.853  12.544 -15.787  1.00  0.00     0.057 A 
HETATM    7  C2  UNL     1     -12.908  13.793 -15.230  1.00  0.00    -0.054 A 
HETATM    8  C1  UNL     1     -13.365  13.951 -13.779  1.00  0.00     0.048 C 
HETATM    9  C12 UNL     1     -12.545  14.833 -16.019  1.00  0.00     0.028 A 
ENDBRANCH   1   4
BRANCH   1  10
HETATM   10  C6  UNL     1     -12.638  16.205 -19.228  1.00  0.00     0.038 C 
HETATM   11  C7  UNL     1     -12.230  17.599 -19.603  1.00  0.00     0.011 C 
HETATM   12  C8  UNL     1     -13.519  18.313 -20.027  1.00  0.00     0.001 C 
HETATM   13  C9  UNL     1     -14.013  17.622 -21.260  1.00  0.00     0.000 C 
HETATM   14  C10 UNL     1     -13.248  16.403 -21.651  1.00  0.00     0.001 C 
HETATM   15  C11 UNL     1     -12.959  15.465 -20.505  1.00  0.00     0.011 C 
ENDBRANCH   1  10
BRANCH   2  16
HETATM   16  N2  UNL     1      -9.500  15.075 -17.699  1.00  0.00    -0.345 N 
ATOM     17  H22 UNL     1      -9.468  15.348 -16.716  1.00  0.00     0.176 HD
ATOM     18  H21 UNL     1      -8.826  14.387 -18.036  1.00  0.00     0.176 HD
ENDBRANCH   2  16
TORSDOF 3
ENDMDL
MODEL 2
REMARK VINA RESULT: -5.544584567      1.787      5.476
REMARK  3 active torsions:
REMARK  status: ('A' for Active; 'I' for Inactive)
REMARK    1  A    between atoms: C4_5  and  C5_6 
REMARK    2  A    between atoms: C5_6  and  C6_12 
REMARK    3  A    between atoms: N1_7  and  N2_9 
ROOT
HETATM    1  C5  UNL     1     -11.666  15.017 -18.608  1.00  0.00     0.046 C 
HETATM    2  N1  UNL     1     -10.800  14.255 -19.162  1.00  0.00    -0.310 N 
ATOM      3  H1  UNL     1     -10.365  13.537 -18.583  1.00  0.00     0.186 HD
ENDROOT
BRANCH   1   4
HETATM    4  C4  UNL     1     -12.285  16.051 -19.468  1.00  0.00     0.029 A 
HETATM    5  S1  UNL     1     -12.263  17.746 -19.298  1.00  0.00    -0.100 SA
HETATM    6  C3  UNL     1     -13.194  18.177 -20.655  1.00  0.00     0.057 A 
HETATM    7  C2  UNL     1     -13.506  16.970 -21.218  1.00  0.00    -0.054 A 
HETATM    8  C1  UNL     1     -14.355  16.929 -22.490  1.00  0.00     0.048 C 
HETATM    9  C12 UNL     1     -13.032  15.862 -20.599  1.00  0.00     0.028 A 
ENDBRANCH   1   4
BRANCH   1  10
HETATM   10  C6  UNL     1     -11.993  14.816 -17.207  1.00  0.00     0.038 C 
HETATM   11  C7  UNL     1     -13.395  14.369 -16.915  1.00  0.00     0.011 C 
HETATM   12  C8  UNL     1     -13.661  14.750 -15.454  1.00  0.00     0.001 C 
HETATM   13  C9  UNL     1     -12.727  13.936 -14.615  1.00  0.00     0.000 C 
HETATM   14  C10 UNL     1     -11.740  13.119 -15.380  1.00  0.00     0.001 C 
HETATM   15  C11 UNL     1     -11.056  13.868 -16.497  1.00  0.00     0.011 C 
ENDBRANCH   1  10
BRANCH   2  16
HETATM   16  N2  UNL     1     -10.411  14.329 -20.481  1.00  0.00    -0.345 N 
ATOM     17  H22 UNL     1     -11.158  14.420 -21.170  1.00  0.00     0.176 HD
ATOM     18  H21 UNL     1      -9.445  14.298 -20.810  1.00  0.00     0.176 HD
ENDBRANCH   2  16
TORSDOF 3
ENDMDL
MODEL 3
REMARK VINA RESULT: -5.465946163      1.796      2.326
REMARK  3 active torsions:
REMARK  status: ('A' for Active; 'I' for Inactive)
REMARK    1  A    between atoms: C4_5  and  C5_6 
REMARK    2  A    between atoms: C5_6  and  C6_12 
REMARK    3  A    between atoms: N1_7  and  N2_9 
ROOT
HETATM    1  C5  UNL     1     -12.467  14.684 -19.752  1.00  0.00     0.046 C 
HETATM    2  N1  UNL     1     -12.514  13.558 -20.358  1.00  0.00    -0.310 N 
ATOM      3  H1  UNL     1     -12.686  13.571 -21.363  1.00  0.00     0.186 HD
ENDROOT
BRANCH   1   4
HETATM    4  C4  UNL     1     -12.216  14.642 -18.293  1.00  0.00     0.029 A 
HETATM    5  S1  UNL     1     -10.733  14.689 -17.454  1.00  0.00    -0.100 SA
HETATM    6  C3  UNL     1     -11.310  14.582 -15.857  1.00  0.00     0.057 A 
HETATM    7  C2  UNL     1     -12.667  14.511 -16.017  1.00  0.00    -0.054 A 
HETATM    8  C1  UNL     1     -13.566  14.402 -14.784  1.00  0.00     0.048 C 
HETATM    9  C12 UNL     1     -13.138  14.542 -17.287  1.00  0.00     0.028 A 
ENDBRANCH   1   4
BRANCH   1  10
HETATM   10  C6  UNL     1     -12.643  15.908 -20.515  1.00  0.00     0.038 C 
HETATM   11  C7  UNL     1     -13.875  15.981 -21.368  1.00  0.00     0.011 C 
HETATM   12  C8  UNL     1     -13.580  17.035 -22.441  1.00  0.00     0.001 C 
HETATM   13  C9  UNL     1     -13.422  18.345 -21.733  1.00  0.00     0.000 C 
HETATM   14  C10 UNL     1     -13.450  18.265 -20.244  1.00  0.00     0.001 C 
HETATM   15  C11 UNL     1     -12.597  17.159 -19.672  1.00  0.00     0.011 C 
ENDBRANCH   1  10
BRANCH   2  16
HETATM   16  N2  UNL     1     -12.349  12.330 -19.757  1.00  0.00    -0.345 N 
ATOM     17  H22 UNL     1     -12.951  12.132 -18.958  1.00  0.00     0.176 HD
ATOM     18  H21 UNL     1     -11.679  11.619 -20.052  1.00  0.00     0.176 HD
ENDBRANCH   2  16
TORSDOF 3
ENDMDL
MODEL 4
REMARK VINA RESULT: -5.451271007      1.745      5.417
REMARK  3 active torsions:
REMARK  status: ('A' for Active; 'I' for Inactive)
REMARK    1  A    between atoms: C4_5  and  C5_6 
REMARK    2  A    between atoms: C5_6  and  C6_12 
REMARK    3  A    between atoms: N1_7  and  N2_9 
ROOT
HETATM    1  C5  UNL     1     -11.742  14.281 -18.402  1.00  0.00     0.046 C 
HETATM    2  N1  UNL     1     -11.044  13.502 -19.139  1.00  0.00    -0.310 N 
ATOM      3  H1  UNL     1     -10.834  12.573 -18.775  1.00  0.00     0.186 HD
ENDROOT
BRANCH   1   4
HETATM    4  C4  UNL     1     -12.035  15.625 -18.950  1.00  0.00     0.029 A 
HETATM    5  S1  UNL     1     -11.459  17.145 -18.439  1.00  0.00    -0.100 SA
HETATM    6  C3  UNL     1     -12.266  18.142 -19.557  1.00  0.00     0.057 A 
HETATM    7  C2  UNL     1     -12.977  17.253 -20.315  1.00  0.00    -0.054 A 
HETATM    8  C1  UNL     1     -13.854  17.770 -21.457  1.00  0.00     0.048 C 
HETATM    9  C12 UNL     1     -12.857  15.941 -19.998  1.00  0.00     0.028 A 
ENDBRANCH   1   4
BRANCH   1  10
HETATM   10  C6  UNL     1     -12.208  13.806 -17.111  1.00  0.00     0.038 C 
HETATM   11  C7  UNL     1     -11.231  13.913 -15.978  1.00  0.00     0.011 C 
HETATM   12  C8  UNL     1     -11.696  12.900 -14.925  1.00  0.00     0.001 C 
HETATM   13  C9  UNL     1     -13.033  13.364 -14.436  1.00  0.00     0.000 C 
HETATM   14  C10 UNL     1     -13.596  14.541 -15.157  1.00  0.00     0.001 C 
HETATM   15  C11 UNL     1     -13.500  14.445 -16.660  1.00  0.00     0.011 C 
ENDBRANCH   1  10
BRANCH   2  16
HETATM   16  N2  UNL     1     -10.554  13.822 -20.385  1.00  0.00    -0.345 N 
ATOM     17  H22 UNL     1     -10.981  14.625 -20.848  1.00  0.00     0.176 HD
ATOM     18  H21 UNL     1      -9.808  13.320 -20.868  1.00  0.00     0.176 HD
ENDBRANCH   2  16
TORSDOF 3
ENDMDL
MODEL 5
REMARK VINA RESULT: -5.425420300      1.178      5.195
REMARK  3 active torsions:
REMARK  status: ('A' for Active; 'I' for Inactive)
REMARK    1  A    between atoms: C4_5  and  C5_6 
REMARK    2  A    between atoms: C5_6  and  C6_12 
REMARK    3  A    between atoms: N1_7  and  N2_9 
ROOT
HETATM    1  C5  UNL     1     -11.052  14.953 -17.338  1.00  0.00     0.046 C 
HETATM    2  N1  UNL     1      -9.775  14.982 -17.405  1.00  0.00    -0.310 N 
ATOM      3  H1  UNL     1      -9.253  14.672 -16.586  1.00  0.00     0.186 HD
ENDROOT
BRANCH   1   4
HETATM    4  C4  UNL     1     -11.789  15.407 -18.540  1.00  0.00     0.029 A 
HETATM    5  S1  UNL     1     -12.411  14.487 -19.832  1.00  0.00    -0.100 SA
HETATM    6  C3  UNL     1     -13.079  15.739 -20.772  1.00  0.00     0.057 A 
HETATM    7  C2  UNL     1     -12.797  16.863 -20.045  1.00  0.00    -0.054 A 
HETATM    8  C1  UNL     1     -13.244  18.229 -20.568  1.00  0.00     0.048 C 
HETATM    9  C12 UNL     1     -12.124  16.689 -18.882  1.00  0.00     0.028 A 
ENDBRANCH   1   4
BRANCH   1  10
HETATM   10  C6  UNL     1     -11.687  14.474 -16.123  1.00  0.00     0.038 C 
HETATM   11  C7  UNL     1     -13.187  14.527 -16.098  1.00  0.00     0.011 C 
HETATM   12  C8  UNL     1     -13.583  14.514 -14.617  1.00  0.00     0.001 C 
HETATM   13  C9  UNL     1     -13.151  13.193 -14.062  1.00  0.00     0.000 C 
HETATM   14  C10 UNL     1     -12.368  12.339 -15.001  1.00  0.00     0.001 C 
HETATM   15  C11 UNL     1     -11.274  13.075 -15.735  1.00  0.00     0.011 C 
ENDBRANCH   1  10
BRANCH   2  16
HETATM   16  N2  UNL     1      -9.050  15.398 -18.500  1.00  0.00    -0.345 N 
ATOM     17  H22 UNL     1      -9.587  15.679 -19.320  1.00  0.00     0.176 HD
ATOM     18  H21 UNL     1      -8.031  15.443 -18.545  1.00  0.00     0.176 HD
ENDBRANCH   2  16
TORSDOF 3
ENDMDL
