MODEL 1
REMARK VINA RESULT: -5.815523116      0.000      0.000
REMARK  2 active torsions:
REMARK  status: ('A' for Active; 'I' for Inactive)
REMARK    1  A    between atoms: C4_6  and  C5_7 
REMARK    2  A    between atoms: C5_7  and  O1_8 
ROOT
HETATM    1  C5  UNL     1     -11.833  12.951 -16.050  1.00  0.00     0.106 C 
HETATM    2  C6  UNL     1     -10.563  12.121 -15.838  1.00  0.00     0.045 C 
HETATM    3  C7  UNL     1     -11.029  10.892 -15.122  1.00  0.00     0.007 C 
HETATM    4  C8  UNL     1     -11.653  11.147 -13.806  1.00  0.00    -0.018 C 
HETATM    5  C9  UNL     1     -12.612   9.981 -13.536  1.00  0.00     0.010 C 
HETATM    6  C10 UNL     1     -12.438  12.403 -13.671  1.00  0.00     0.007 C 
HETATM    7  C11 UNL     1     -12.180  13.468 -14.661  1.00  0.00     0.045 C 
ENDROOT
BRANCH   1   8
HETATM    8  C4  UNL     1     -11.589  14.159 -16.890  1.00  0.00     0.086 A 
HETATM    9  N1  UNL     1     -10.497  14.779 -17.283  1.00  0.00    -0.360 N 
HETATM   10  C3  UNL     1     -10.575  15.824 -18.036  1.00  0.00     0.102 A 
ATOM     11  H1  UNL     1      -9.584  14.432 -16.990  1.00  0.00     0.165 HD
HETATM   12  C2  UNL     1     -11.819  16.263 -18.410  1.00  0.00    -0.004 A 
HETATM   13  C1  UNL     1     -12.241  17.409 -19.247  1.00  0.00     0.058 C 
HETATM   14  S1  UNL     1     -12.813  15.103 -17.626  1.00  0.00    -0.077 SA
ENDBRANCH   1   8
BRANCH   1  15
HETATM   15  O1  UNL     1     -12.829  12.145 -16.565  1.00  0.00    -0.383 OA
ATOM     16  H1  UNL     1     -12.687  11.226 -16.370  1.00  0.00     0.211 HD
ENDBRANCH   1  15
TORSDOF 2
ENDMDL
MODEL 2
REMARK VINA RESULT: -5.734308194      2.653      5.946
REMARK  2 active torsions:
REMARK  status: ('A' for Active; 'I' for Inactive)
REMARK    1  A    between atoms: C4_6  and  C5_7 
REMARK    2  A    between atoms: C5_7  and  O1_8 
ROOT
HETATM    1  C5  UNL     1     -12.489  12.434 -15.159  1.00  0.00     0.106 C 
HETATM    2  C6  UNL     1     -12.968  13.720 -14.478  1.00  0.00     0.045 C 
HETATM    3  C7  UNL     1     -13.312  14.641 -15.607  1.00  0.00     0.007 C 
HETATM    4  C8  UNL     1     -12.179  14.971 -16.497  1.00  0.00    -0.018 C 
HETATM    5  C9  UNL     1     -12.777  15.323 -17.865  1.00  0.00     0.010 C 
HETATM    6  C10 UNL     1     -11.170  13.900 -16.720  1.00  0.00     0.007 C 
HETATM    7  C11 UNL     1     -11.128  12.799 -15.737  1.00  0.00     0.045 C 
ENDROOT
BRANCH   1   8
HETATM    8  C4  UNL     1     -12.240  11.333 -14.185  1.00  0.00     0.086 A 
HETATM    9  N1  UNL     1     -12.617  11.127 -12.941  1.00  0.00    -0.360 N 
HETATM   10  C3  UNL     1     -12.259  10.054 -12.319  1.00  0.00     0.102 A 
ATOM     11  H1  UNL     1     -13.195  11.819 -12.465  1.00  0.00     0.165 HD
HETATM   12  C2  UNL     1     -11.482   9.144 -12.991  1.00  0.00    -0.004 A 
HETATM   13  C1  UNL     1     -10.912   7.845 -12.569  1.00  0.00     0.058 C 
HETATM   14  S1  UNL     1     -11.321   9.926 -14.511  1.00  0.00    -0.077 SA
ENDBRANCH   1   8
BRANCH   1  15
HETATM   15  O1  UNL     1     -13.388  12.072 -16.144  1.00  0.00    -0.383 OA
ATOM     16  H1  UNL     1     -13.420  12.703 -16.854  1.00  0.00     0.211 HD
ENDBRANCH   1  15
TORSDOF 2
ENDMDL
MODEL 3
REMARK VINA RESULT: -5.711794098      1.937      2.848
REMARK  2 active torsions:
REMARK  status: ('A' for Active; 'I' for Inactive)
REMARK    1  A    between atoms: C4_6  and  C5_7 
REMARK    2  A    between atoms: C5_7  and  O1_8 
ROOT
HETATM    1  C5  UNL     1     -12.607  14.449 -17.637  1.00  0.00     0.106 C 
HETATM    2  C6  UNL     1     -11.260  14.735 -16.967  1.00  0.00     0.045 C 
HETATM    3  C7  UNL     1     -11.190  13.764 -15.829  1.00  0.00     0.007 C 
HETATM    4  C8  UNL     1     -12.262  13.921 -14.822  1.00  0.00    -0.018 C 
HETATM    5  C9  UNL     1     -12.447  12.552 -14.155  1.00  0.00     0.010 C 
HETATM    6  C10 UNL     1     -13.594  14.349 -15.326  1.00  0.00     0.007 C 
HETATM    7  C11 UNL     1     -13.638  14.990 -16.655  1.00  0.00     0.045 C 
ENDROOT
BRANCH   1   8
HETATM    8  C4  UNL     1     -12.791  15.226 -18.897  1.00  0.00     0.086 A 
HETATM    9  N1  UNL     1     -12.919  14.879 -20.160  1.00  0.00    -0.360 N 
HETATM   10  C3  UNL     1     -13.082  15.778 -21.071  1.00  0.00     0.102 A 
ATOM     11  H1  UNL     1     -12.889  13.893 -20.420  1.00  0.00     0.165 HD
HETATM   12  C2  UNL     1     -13.118  17.093 -20.685  1.00  0.00    -0.004 A 
HETATM   13  C1  UNL     1     -13.283  18.338 -21.468  1.00  0.00     0.058 C 
HETATM   14  S1  UNL     1     -12.908  16.931 -18.988  1.00  0.00    -0.077 SA
ENDBRANCH   1   8
BRANCH   1  15
HETATM   15  O1  UNL     1     -12.745  13.089 -17.833  1.00  0.00    -0.383 OA
ATOM     16  H1  UNL     1     -13.494  12.731 -17.369  1.00  0.00     0.211 HD
ENDBRANCH   1  15
TORSDOF 2
ENDMDL
MODEL 4
REMARK VINA RESULT: -5.693975609      2.380      5.785
REMARK  2 active torsions:
REMARK  status: ('A' for Active; 'I' for Inactive)
REMARK    1  A    between atoms: C4_6  and  C5_7 
REMARK    2  A    between atoms: C5_7  and  O1_8 
ROOT
HETATM    1  C5  UNL     1     -11.787  12.735 -15.831  1.00  0.00     0.106 C 
HETATM    2  C6  UNL     1     -11.941  14.178 -15.342  1.00  0.00     0.045 C 
HETATM    3  C7  UNL     1     -12.058  14.992 -16.593  1.00  0.00     0.007 C 
HETATM    4  C8  UNL     1     -10.882  14.918 -17.486  1.00  0.00    -0.018 C 
HETATM    5  C9  UNL     1     -11.384  15.212 -18.906  1.00  0.00     0.010 C 
HETATM    6  C10 UNL     1     -10.160  13.618 -17.535  1.00  0.00     0.007 C 
HETATM    7  C11 UNL     1     -10.380  12.683 -16.413  1.00  0.00     0.045 C 
ENDROOT
BRANCH   1   8
HETATM    8  C4  UNL     1     -11.805  11.750 -14.712  1.00  0.00     0.086 A 
HETATM    9  N1  UNL     1     -12.232  11.805 -13.469  1.00  0.00    -0.360 N 
HETATM   10  C3  UNL     1     -12.134  10.775 -12.698  1.00  0.00     0.102 A 
ATOM     11  H1  UNL     1     -12.643  12.668 -13.112  1.00  0.00     0.165 HD
HETATM   12  C2  UNL     1     -11.578   9.632 -13.211  1.00  0.00    -0.004 A 
HETATM   13  C1  UNL     1     -11.323   8.308 -12.600  1.00  0.00     0.058 C 
HETATM   14  S1  UNL     1     -11.226  10.142 -14.813  1.00  0.00    -0.077 SA
ENDBRANCH   1   8
BRANCH   1  15
HETATM   15  O1  UNL     1     -12.750  12.467 -16.784  1.00  0.00    -0.383 OA
ATOM     16  H1  UNL     1     -13.528  13.000 -16.672  1.00  0.00     0.211 HD
ENDBRANCH   1  15
TORSDOF 2
ENDMDL
MODEL 5
REMARK VINA RESULT: -5.691597494      2.901      6.027
REMARK  2 active torsions:
REMARK  status: ('A' for Active; 'I' for Inactive)
REMARK    1  A    between atoms: C4_6  and  C5_7 
REMARK    2  A    between atoms: C5_7  and  O1_8 
ROOT
HETATM    1  C5  UNL     1     -12.209  11.740 -15.137  1.00  0.00     0.106 C 
HETATM    2  C6  UNL     1     -12.621  12.753 -14.065  1.00  0.00     0.045 C 
HETATM    3  C7  UNL     1     -13.244  13.880 -14.828  1.00  0.00     0.007 C 
HETATM    4  C8  UNL     1     -12.336  14.548 -15.786  1.00  0.00    -0.018 C 
HETATM    5  C9  UNL     1     -13.219  15.158 -16.882  1.00  0.00     0.010 C 
HETATM    6  C10 UNL     1     -11.327  13.688 -16.461  1.00  0.00     0.007 C 
HETATM    7  C11 UNL     1     -11.019  12.390 -15.830  1.00  0.00     0.045 C 
ENDROOT
BRANCH   1   8
HETATM    8  C4  UNL     1     -11.699  10.467 -14.551  1.00  0.00     0.086 A 
HETATM    9  N1  UNL     1     -10.977   9.478 -15.033  1.00  0.00    -0.360 N 
HETATM   10  C3  UNL     1     -10.661   8.475 -14.285  1.00  0.00     0.102 A 
ATOM     11  H1  UNL     1     -10.666   9.503 -16.004  1.00  0.00     0.165 HD
HETATM   12  C2  UNL     1     -11.096   8.474 -12.985  1.00  0.00    -0.004 A 
HETATM   13  C1  UNL     1     -10.913   7.491 -11.893  1.00  0.00     0.058 C 
HETATM   14  S1  UNL     1     -11.954   9.961 -12.936  1.00  0.00    -0.077 SA
ENDBRANCH   1   8
BRANCH   1  15
HETATM   15  O1  UNL     1     -13.263  11.534 -16.006  1.00  0.00    -0.383 OA
ATOM     16  H1  UNL     1     -12.979  11.175 -16.839  1.00  0.00     0.211 HD
ENDBRANCH   1  15
TORSDOF 2
ENDMDL
