MODEL 1
REMARK VINA RESULT: -6.264008797      0.000      0.000
REMARK  3 active torsions:
REMARK  status: ('A' for Active; 'I' for Inactive)
REMARK    1  A    between atoms: C2_2  and  C3_3 
REMARK    2  A    between atoms: C3_3  and  C4_4 
REMARK    3  A    between atoms: C14_17  and  C15_18 
ROOT
HETATM    1  C4  UNL     1      -4.975 167.515 398.116  1.00  0.00     0.045 C 
HETATM    2  C5  UNL     1      -5.638 166.919 399.280  1.00  0.00     0.024 A 
HETATM    3  C6  UNL     1      -6.919 167.229 399.331  1.00  0.00     0.012 A 
HETATM    4  C7  UNL     1      -7.715 166.710 400.433  1.00  0.00     0.127 A 
HETATM    5  F1  UNL     1      -9.059 167.002 400.534  1.00  0.00    -0.205 F 
HETATM    6  C8  UNL     1      -7.247 165.942 401.401  1.00  0.00     0.071 A 
HETATM    7  C9  UNL     1      -5.840 165.578 401.381  1.00  0.00     0.025 A 
HETATM    8  C10 UNL     1      -5.282 164.819 402.299  1.00  0.00     0.043 C 
HETATM    9  N1  UNL     1      -5.065 166.086 400.305  1.00  0.00    -0.359 N 
ATOM     10  H1  UNL     1      -4.073 165.854 400.256  1.00  0.00     0.166 HD
HETATM   11  C11 UNL     1      -7.332 168.096 398.220  1.00  0.00    -0.006 C 
HETATM   12  C12 UNL     1      -8.409 167.618 397.314  1.00  0.00     0.021 C 
HETATM   13  C13 UNL     1      -7.486 169.563 398.574  1.00  0.00     0.023 C 
HETATM   14  C14 UNL     1      -5.994 169.750 398.433  1.00  0.00     0.014 C 
HETATM   15  C17 UNL     1      -6.010 168.470 397.591  1.00  0.00     0.016 C 
ENDROOT
BRANCH   1  16
HETATM   16  C3  UNL     1      -4.677 166.547 396.995  1.00  0.00     0.037 C 
BRANCH  16  17
HETATM   17  C2  UNL     1      -3.395 165.838 397.159  1.00  0.00    -0.036 C 
HETATM   18  C1  UNL     1      -2.341 166.497 397.617  1.00  0.00     0.007 C 
ENDBRANCH  16  17
ENDBRANCH   1  16
BRANCH  14  19
HETATM   19  C15 UNL     1      -5.562 170.877 397.580  1.00  0.00    -0.032 C 
HETATM   20  C16 UNL     1      -4.307 171.215 397.387  1.00  0.00     0.007 C 
ENDBRANCH  14  19
TORSDOF 3
ENDMDL
MODEL 2
REMARK VINA RESULT: -5.880353412      2.212      4.478
REMARK  3 active torsions:
REMARK  status: ('A' for Active; 'I' for Inactive)
REMARK    1  A    between atoms: C2_2  and  C3_3 
REMARK    2  A    between atoms: C3_3  and  C4_4 
REMARK    3  A    between atoms: C14_17  and  C15_18 
ROOT
HETATM    1  C4  UNL     1      -5.669 168.968 399.067  1.00  0.00     0.045 C 
HETATM    2  C5  UNL     1      -4.708 167.949 398.632  1.00  0.00     0.024 A 
HETATM    3  C6  UNL     1      -5.270 167.037 397.861  1.00  0.00     0.012 A 
HETATM    4  C7  UNL     1      -4.441 165.958 397.347  1.00  0.00     0.127 A 
HETATM    5  F1  UNL     1      -4.977 164.979 396.537  1.00  0.00    -0.205 F 
HETATM    6  C8  UNL     1      -3.151 165.817 397.597  1.00  0.00     0.071 A 
HETATM    7  C9  UNL     1      -2.495 166.801 398.443  1.00  0.00     0.025 A 
HETATM    8  C10 UNL     1      -1.217 166.745 398.749  1.00  0.00     0.043 C 
HETATM    9  N1  UNL     1      -3.306 167.853 398.943  1.00  0.00    -0.359 N 
ATOM     10  H1  UNL     1      -2.883 168.563 399.541  1.00  0.00     0.166 HD
HETATM   11  C11 UNL     1      -6.704 167.279 397.659  1.00  0.00    -0.006 C 
HETATM   12  C12 UNL     1      -7.201 167.459 396.269  1.00  0.00     0.021 C 
HETATM   13  C13 UNL     1      -7.625 166.407 398.492  1.00  0.00     0.023 C 
HETATM   14  C14 UNL     1      -7.428 167.331 399.669  1.00  0.00     0.014 C 
HETATM   15  C17 UNL     1      -6.990 168.385 398.647  1.00  0.00     0.016 C 
ENDROOT
BRANCH   1  16
HETATM   16  C3  UNL     1      -5.544 170.297 398.361  1.00  0.00     0.037 C 
BRANCH  16  17
HETATM   17  C2  UNL     1      -6.843 170.892 397.998  1.00  0.00    -0.036 C 
HETATM   18  C1  UNL     1      -7.118 172.132 398.374  1.00  0.00     0.007 C 
ENDBRANCH  16  17
ENDBRANCH   1  16
BRANCH  14  19
HETATM   19  C15 UNL     1      -8.662 167.798 400.338  1.00  0.00    -0.032 C 
HETATM   20  C16 UNL     1      -9.348 167.081 401.200  1.00  0.00     0.007 C 
ENDBRANCH  14  19
TORSDOF 3
ENDMDL
MODEL 3
REMARK VINA RESULT: -5.744240292      2.056      4.713
REMARK  3 active torsions:
REMARK  status: ('A' for Active; 'I' for Inactive)
REMARK    1  A    between atoms: C2_2  and  C3_3 
REMARK    2  A    between atoms: C3_3  and  C4_4 
REMARK    3  A    between atoms: C14_17  and  C15_18 
ROOT
HETATM    1  C4  UNL     1      -3.907 167.160 399.775  1.00  0.00     0.045 C 
HETATM    2  C5  UNL     1      -4.993 167.638 398.912  1.00  0.00     0.024 A 
HETATM    3  C6  UNL     1      -5.045 166.975 397.772  1.00  0.00     0.012 A 
HETATM    4  C7  UNL     1      -6.074 167.335 396.809  1.00  0.00     0.127 A 
HETATM    5  F1  UNL     1      -6.174 166.675 395.602  1.00  0.00    -0.205 F 
HETATM    6  C8  UNL     1      -6.972 168.287 396.988  1.00  0.00     0.071 A 
HETATM    7  C9  UNL     1      -6.947 169.040 398.232  1.00  0.00     0.025 A 
HETATM    8  C10 UNL     1      -7.798 170.007 398.502  1.00  0.00     0.043 C 
HETATM    9  N1  UNL     1      -5.942 168.688 399.171  1.00  0.00    -0.359 N 
ATOM     10  H1  UNL     1      -5.891 169.194 400.055  1.00  0.00     0.166 HD
HETATM   11  C11 UNL     1      -3.997 165.952 397.668  1.00  0.00    -0.006 C 
HETATM   12  C12 UNL     1      -4.409 164.538 397.468  1.00  0.00     0.021 C 
HETATM   13  C13 UNL     1      -2.811 166.334 396.803  1.00  0.00     0.023 C 
HETATM   14  C14 UNL     1      -2.223 167.109 397.959  1.00  0.00     0.014 C 
HETATM   15  C17 UNL     1      -3.124 166.259 398.861  1.00  0.00     0.016 C 
ENDROOT
BRANCH   1  16
HETATM   16  C3  UNL     1      -4.353 166.307 400.939  1.00  0.00     0.037 C 
BRANCH  16  17
HETATM   17  C2  UNL     1      -5.659 165.659 400.723  1.00  0.00    -0.036 C 
HETATM   18  C1  UNL     1      -6.726 166.118 401.359  1.00  0.00     0.007 C 
ENDBRANCH  16  17
ENDBRANCH   1  16
BRANCH  14  19
HETATM   19  C15 UNL     1      -0.811 166.816 398.281  1.00  0.00    -0.032 C 
HETATM   20  C16 UNL     1       0.194 167.055 397.468  1.00  0.00     0.007 C 
ENDBRANCH  14  19
TORSDOF 3
ENDMDL
MODEL 4
REMARK VINA RESULT: -4.839157249     10.303     14.120
REMARK  3 active torsions:
REMARK  status: ('A' for Active; 'I' for Inactive)
REMARK    1  A    between atoms: C2_2  and  C3_3 
REMARK    2  A    between atoms: C3_3  and  C4_4 
REMARK    3  A    between atoms: C14_17  and  C15_18 
ROOT
HETATM    1  C4  UNL     1       5.201 163.710 396.523  1.00  0.00     0.045 C 
HETATM    2  C5  UNL     1       5.982 164.327 395.445  1.00  0.00     0.024 A 
HETATM    3  C6  UNL     1       6.318 163.452 394.516  1.00  0.00     0.012 A 
HETATM    4  C7  UNL     1       7.096 163.915 393.377  1.00  0.00     0.127 A 
HETATM    5  F1  UNL     1       7.473 163.044 392.377  1.00  0.00    -0.205 F 
HETATM    6  C8  UNL     1       7.500 165.160 393.200  1.00  0.00     0.071 A 
HETATM    7  C9  UNL     1       7.151 166.154 394.202  1.00  0.00     0.025 A 
HETATM    8  C10 UNL     1       7.507 167.418 394.114  1.00  0.00     0.043 C 
HETATM    9  N1  UNL     1       6.391 165.700 395.312  1.00  0.00    -0.359 N 
ATOM     10  H1  UNL     1       6.128 166.367 396.037  1.00  0.00     0.166 HD
HETATM   11  C11 UNL     1       5.833 162.099 394.817  1.00  0.00    -0.006 C 
HETATM   12  C12 UNL     1       4.931 161.438 393.837  1.00  0.00     0.021 C 
HETATM   13  C13 UNL     1       6.881 161.150 395.367  1.00  0.00     0.023 C 
HETATM   14  C14 UNL     1       6.691 161.743 396.742  1.00  0.00     0.014 C 
HETATM   15  C17 UNL     1       5.334 162.241 396.235  1.00  0.00     0.016 C 
ENDROOT
BRANCH   1  16
HETATM   16  C3  UNL     1       3.724 164.022 396.491  1.00  0.00     0.037 C 
BRANCH  16  17
HETATM   17  C2  UNL     1       3.345 165.149 397.362  1.00  0.00    -0.036 C 
HETATM   18  C1  UNL     1       2.062 165.416 397.557  1.00  0.00     0.007 C 
ENDBRANCH  16  17
ENDBRANCH   1  16
BRANCH  14  19
HETATM   19  C15 UNL     1       6.467 160.776 397.837  1.00  0.00    -0.032 C 
HETATM   20  C16 UNL     1       7.131 160.782 398.971  1.00  0.00     0.007 C 
ENDBRANCH  14  19
TORSDOF 3
ENDMDL
MODEL 5
REMARK VINA RESULT: -4.782443335      2.263      4.678
REMARK  3 active torsions:
REMARK  status: ('A' for Active; 'I' for Inactive)
REMARK    1  A    between atoms: C2_2  and  C3_3 
REMARK    2  A    between atoms: C3_3  and  C4_4 
REMARK    3  A    between atoms: C14_17  and  C15_18 
ROOT
HETATM    1  C4  UNL     1      -3.099 168.784 398.853  1.00  0.00     0.045 C 
HETATM    2  C5  UNL     1      -4.558 168.875 398.736  1.00  0.00     0.024 A 
HETATM    3  C6  UNL     1      -5.140 167.699 398.875  1.00  0.00     0.012 A 
HETATM    4  C7  UNL     1      -6.590 167.627 398.785  1.00  0.00     0.127 A 
HETATM    5  F1  UNL     1      -7.248 166.423 398.922  1.00  0.00    -0.205 F 
HETATM    6  C8  UNL     1      -7.382 168.663 398.570  1.00  0.00     0.071 A 
HETATM    7  C9  UNL     1      -6.779 169.977 398.412  1.00  0.00     0.025 A 
HETATM    8  C10 UNL     1      -7.484 171.067 398.195  1.00  0.00     0.043 C 
HETATM    9  N1  UNL     1      -5.364 170.044 398.500  1.00  0.00    -0.359 N 
ATOM     10  H1  UNL     1      -4.904 170.948 398.393  1.00  0.00     0.166 HD
HETATM   11  C11 UNL     1      -4.172 166.616 399.093  1.00  0.00    -0.006 C 
HETATM   12  C12 UNL     1      -4.284 165.810 400.337  1.00  0.00     0.021 C 
HETATM   13  C13 UNL     1      -3.881 165.760 397.875  1.00  0.00     0.023 C 
HETATM   14  C14 UNL     1      -2.909 166.803 397.379  1.00  0.00     0.014 C 
HETATM   15  C17 UNL     1      -2.852 167.301 398.826  1.00  0.00     0.016 C 
ENDROOT
BRANCH   1  16
HETATM   16  C3  UNL     1      -2.538 169.288 400.161  1.00  0.00     0.037 C 
BRANCH  16  17
HETATM   17  C2  UNL     1      -2.884 170.693 400.444  1.00  0.00    -0.036 C 
HETATM   18  C1  UNL     1      -3.238 171.040 401.672  1.00  0.00     0.007 C 
ENDBRANCH  16  17
ENDBRANCH   1  16
BRANCH  14  19
HETATM   19  C15 UNL     1      -1.572 166.307 396.991  1.00  0.00    -0.032 C 
HETATM   20  C16 UNL     1      -0.554 167.086 396.702  1.00  0.00     0.007 C 
ENDBRANCH  14  19
TORSDOF 3
ENDMDL
