MODEL 1
REMARK VINA RESULT: -6.911500077      0.000      0.000
REMARK  3 active torsions:
REMARK  status: ('A' for Active; 'I' for Inactive)
REMARK    1  A    between atoms: C2_2  and  C3_4 
REMARK       I    between atoms: C3_4  and  N1_6 
REMARK    2  A    between atoms: N1_6  and  C4_8 
REMARK    3  A    between atoms: C4_8  and  C5_9 
ROOT
HETATM    1  C5  UNL     1      -5.545 167.257 399.050  1.00  0.00    -0.007 C 
HETATM    2  C6  UNL     1      -5.801 166.783 397.600  1.00  0.00     0.019 C 
HETATM    3  C7  UNL     1      -6.914 167.553 396.996  1.00  0.00    -0.013 C 
HETATM    4  C8  UNL     1      -6.677 169.027 396.949  1.00  0.00     0.009 C 
HETATM    5  C9  UNL     1      -6.453 169.474 398.389  1.00  0.00    -0.013 C 
HETATM    6  C10 UNL     1      -7.645 169.194 399.246  1.00  0.00     0.009 C 
HETATM    7  C11 UNL     1      -7.977 167.695 399.185  1.00  0.00    -0.013 C 
HETATM    8  C12 UNL     1      -8.199 167.300 397.773  1.00  0.00     0.009 C 
HETATM    9  C13 UNL     1      -6.765 167.025 399.836  1.00  0.00     0.019 C 
HETATM   10  C14 UNL     1      -5.243 168.755 398.897  1.00  0.00     0.019 C 
ENDROOT
BRANCH   1  11
HETATM   11  C4  UNL     1      -4.336 166.564 399.547  1.00  0.00     0.073 C 
BRANCH  11  12
HETATM   12  N1  UNL     1      -3.046 166.996 399.197  1.00  0.00    -0.339 N 
HETATM   13  C3  UNL     1      -2.217 166.687 398.102  1.00  0.00     0.239 C 
HETATM   14  O1  UNL     1      -2.521 165.932 397.168  1.00  0.00    -0.272 OA
ATOM     15  H1  UNL     1      -2.634 167.655 399.858  1.00  0.00     0.167 HD
BRANCH  13  16
HETATM   16  C2  UNL     1      -0.826 167.301 398.007  1.00  0.00     0.170 C 
HETATM   17  C1  UNL     1      -0.654 167.786 396.571  1.00  0.00     0.037 C 
HETATM   18 CL1  UNL     1       0.308 165.984 398.360  1.00  0.00    -0.115 Cl
ENDBRANCH  13  16
ENDBRANCH  11  12
ENDBRANCH   1  11
TORSDOF 3
ENDMDL
MODEL 2
REMARK VINA RESULT: -6.847605904      0.182      1.800
REMARK  3 active torsions:
REMARK  status: ('A' for Active; 'I' for Inactive)
REMARK    1  A    between atoms: C2_2  and  C3_4 
REMARK       I    between atoms: C3_4  and  N1_6 
REMARK    2  A    between atoms: N1_6  and  C4_8 
REMARK    3  A    between atoms: C4_8  and  C5_9 
ROOT
HETATM    1  C5  UNL     1      -5.449 167.153 398.964  1.00  0.00    -0.007 C 
HETATM    2  C6  UNL     1      -5.288 168.691 398.959  1.00  0.00     0.019 C 
HETATM    3  C7  UNL     1      -6.547 169.340 398.523  1.00  0.00    -0.013 C 
HETATM    4  C8  UNL     1      -7.726 169.016 399.381  1.00  0.00     0.009 C 
HETATM    5  C9  UNL     1      -7.880 167.500 399.349  1.00  0.00    -0.013 C 
HETATM    6  C10 UNL     1      -8.128 166.999 397.963  1.00  0.00     0.009 C 
HETATM    7  C11 UNL     1      -6.982 167.451 397.044  1.00  0.00    -0.013 C 
HETATM    8  C12 UNL     1      -6.870 168.929 397.092  1.00  0.00     0.009 C 
HETATM    9  C13 UNL     1      -5.759 166.716 397.595  1.00  0.00     0.019 C 
HETATM   10  C14 UNL     1      -6.628 166.912 399.919  1.00  0.00     0.019 C 
ENDROOT
BRANCH   1  11
HETATM   11  C4  UNL     1      -4.221 166.570 399.548  1.00  0.00     0.073 C 
BRANCH  11  12
HETATM   12  N1  UNL     1      -2.944 167.018 399.170  1.00  0.00    -0.339 N 
HETATM   13  C3  UNL     1      -2.140 166.726 398.052  1.00  0.00     0.239 C 
HETATM   14  O1  UNL     1      -2.460 165.976 397.119  1.00  0.00    -0.272 OA
ATOM     15  H1  UNL     1      -2.522 167.676 399.825  1.00  0.00     0.167 HD
BRANCH  13  16
HETATM   16  C2  UNL     1      -0.758 167.355 397.927  1.00  0.00     0.170 C 
HETATM   17  C1  UNL     1      -0.619 167.835 396.486  1.00  0.00     0.037 C 
HETATM   18 CL1  UNL     1       0.397 166.052 398.265  1.00  0.00    -0.115 Cl
ENDBRANCH  13  16
ENDBRANCH  11  12
ENDBRANCH   1  11
TORSDOF 3
ENDMDL
MODEL 3
REMARK VINA RESULT: -6.820781767      2.051      3.040
REMARK  3 active torsions:
REMARK  status: ('A' for Active; 'I' for Inactive)
REMARK    1  A    between atoms: C2_2  and  C3_4 
REMARK       I    between atoms: C3_4  and  N1_6 
REMARK    2  A    between atoms: N1_6  and  C4_8 
REMARK    3  A    between atoms: C4_8  and  C5_9 
ROOT
HETATM    1  C5  UNL     1      -3.068 166.850 398.080  1.00  0.00    -0.007 C 
HETATM    2  C6  UNL     1      -4.433 166.429 397.489  1.00  0.00     0.019 C 
HETATM    3  C7  UNL     1      -5.540 167.036 398.266  1.00  0.00    -0.013 C 
HETATM    4  C8  UNL     1      -5.509 168.529 398.302  1.00  0.00     0.009 C 
HETATM    5  C9  UNL     1      -4.168 168.919 398.911  1.00  0.00    -0.013 C 
HETATM    6  C10 UNL     1      -4.017 168.390 400.301  1.00  0.00     0.009 C 
HETATM    7  C11 UNL     1      -4.188 166.863 400.287  1.00  0.00    -0.013 C 
HETATM    8  C12 UNL     1      -5.506 166.523 399.700  1.00  0.00     0.009 C 
HETATM    9  C13 UNL     1      -2.994 166.368 399.467  1.00  0.00     0.019 C 
HETATM   10  C14 UNL     1      -3.097 168.384 398.012  1.00  0.00     0.019 C 
ENDROOT
BRANCH   1  11
HETATM   11  C4  UNL     1      -2.008 166.342 397.181  1.00  0.00     0.073 C 
BRANCH  11  12
HETATM   12  N1  UNL     1      -0.734 166.002 397.667  1.00  0.00    -0.339 N 
HETATM   13  C3  UNL     1       0.558 166.390 397.265  1.00  0.00     0.239 C 
HETATM   14  O1  UNL     1       0.811 167.185 396.349  1.00  0.00    -0.272 OA
ATOM     15  H1  UNL     1      -0.748 165.356 398.456  1.00  0.00     0.167 HD
BRANCH  13  16
HETATM   16  C2  UNL     1       1.777 165.820 397.979  1.00  0.00     0.170 C 
HETATM   17  C1  UNL     1       2.443 164.848 397.010  1.00  0.00     0.037 C 
HETATM   18 CL1  UNL     1       1.146 164.956 399.394  1.00  0.00    -0.115 Cl
ENDBRANCH  13  16
ENDBRANCH  11  12
ENDBRANCH   1  11
TORSDOF 3
ENDMDL
MODEL 4
REMARK VINA RESULT: -6.808168791      0.166      1.794
REMARK  3 active torsions:
REMARK  status: ('A' for Active; 'I' for Inactive)
REMARK    1  A    between atoms: C2_2  and  C3_4 
REMARK       I    between atoms: C3_4  and  N1_6 
REMARK    2  A    between atoms: N1_6  and  C4_8 
REMARK    3  A    between atoms: C4_8  and  C5_9 
ROOT
HETATM    1  C5  UNL     1      -5.456 167.425 398.983  1.00  0.00    -0.007 C 
HETATM    2  C6  UNL     1      -6.662 167.066 399.882  1.00  0.00     0.019 C 
HETATM    3  C7  UNL     1      -7.917 167.593 399.294  1.00  0.00    -0.013 C 
HETATM    4  C8  UNL     1      -8.210 167.074 397.924  1.00  0.00     0.009 C 
HETATM    5  C9  UNL     1      -7.022 167.462 397.053  1.00  0.00    -0.013 C 
HETATM    6  C10 UNL     1      -6.843 168.945 396.990  1.00  0.00     0.009 C 
HETATM    7  C11 UNL     1      -6.681 169.500 398.414  1.00  0.00    -0.013 C 
HETATM    8  C12 UNL     1      -7.858 169.113 399.228  1.00  0.00     0.009 C 
HETATM    9  C13 UNL     1      -5.363 168.890 398.896  1.00  0.00     0.019 C 
HETATM   10  C14 UNL     1      -5.811 166.797 397.627  1.00  0.00     0.019 C 
ENDROOT
BRANCH   1  11
HETATM   11  C4  UNL     1      -4.261 166.751 399.536  1.00  0.00     0.073 C 
BRANCH  11  12
HETATM   12  N1  UNL     1      -2.962 167.135 399.161  1.00  0.00    -0.339 N 
HETATM   13  C3  UNL     1      -2.153 166.767 398.070  1.00  0.00     0.239 C 
HETATM   14  O1  UNL     1      -2.487 165.992 397.163  1.00  0.00    -0.272 OA
ATOM     15  H1  UNL     1      -2.526 167.803 399.797  1.00  0.00     0.167 HD
BRANCH  13  16
HETATM   16  C2  UNL     1      -0.746 167.338 397.944  1.00  0.00     0.170 C 
HETATM   17  C1  UNL     1      -0.586 167.805 396.500  1.00  0.00     0.037 C 
HETATM   18 CL1  UNL     1       0.354 165.990 398.289  1.00  0.00    -0.115 Cl
ENDBRANCH  13  16
ENDBRANCH  11  12
ENDBRANCH   1  11
TORSDOF 3
ENDMDL
MODEL 5
REMARK VINA RESULT: -6.759949110      1.143      1.232
REMARK  3 active torsions:
REMARK  status: ('A' for Active; 'I' for Inactive)
REMARK    1  A    between atoms: C2_2  and  C3_4 
REMARK       I    between atoms: C3_4  and  N1_6 
REMARK    2  A    between atoms: N1_6  and  C4_8 
REMARK    3  A    between atoms: C4_8  and  C5_9 
ROOT
HETATM    1  C5  UNL     1      -5.516 167.265 399.132  1.00  0.00    -0.007 C 
HETATM    2  C6  UNL     1      -5.699 166.809 397.666  1.00  0.00     0.019 C 
HETATM    3  C7  UNL     1      -6.852 167.507 397.050  1.00  0.00    -0.013 C 
HETATM    4  C8  UNL     1      -6.728 168.996 397.043  1.00  0.00     0.009 C 
HETATM    5  C9  UNL     1      -6.575 169.423 398.498  1.00  0.00    -0.013 C 
HETATM    6  C10 UNL     1      -7.763 169.032 399.316  1.00  0.00     0.009 C 
HETATM    7  C11 UNL     1      -7.977 167.514 399.212  1.00  0.00    -0.013 C 
HETATM    8  C12 UNL     1      -8.133 167.138 397.786  1.00  0.00     0.009 C 
HETATM    9  C13 UNL     1      -6.734 166.922 399.880  1.00  0.00     0.019 C 
HETATM   10  C14 UNL     1      -5.326 168.785 399.021  1.00  0.00     0.019 C 
ENDROOT
BRANCH   1  11
HETATM   11  C4  UNL     1      -4.270 166.654 399.646  1.00  0.00     0.073 C 
BRANCH  11  12
HETATM   12  N1  UNL     1      -3.178 166.393 398.801  1.00  0.00    -0.339 N 
HETATM   13  C3  UNL     1      -2.077 167.183 398.419  1.00  0.00     0.239 C 
HETATM   14  O1  UNL     1      -1.853 168.335 398.817  1.00  0.00    -0.272 OA
ATOM     15  H1  UNL     1      -3.184 165.460 398.389  1.00  0.00     0.167 HD
BRANCH  13  16
HETATM   16  C2  UNL     1      -1.047 166.626 397.444  1.00  0.00     0.170 C 
HETATM   17  C1  UNL     1       0.192 166.274 398.262  1.00  0.00     0.037 C 
HETATM   18 CL1  UNL     1      -0.694 167.946 396.313  1.00  0.00    -0.115 Cl
ENDBRANCH  13  16
ENDBRANCH  11  12
ENDBRANCH   1  11
TORSDOF 3
ENDMDL
