MODEL 1
REMARK VINA RESULT: -6.659894622      0.000      0.000
REMARK  3 active torsions:
REMARK  status: ('A' for Active; 'I' for Inactive)
REMARK    1  A    between atoms: C2_2  and  C4_4 
REMARK    2  A    between atoms: C4_4  and  C5_5 
REMARK    3  A    between atoms: C5_5  and  C6_6 
ROOT
HETATM    1  C4  UNL     1      -4.170 167.187 398.773  1.00  0.00     0.088 C 
HETATM    2  C10 UNL     1      -3.844 166.468 400.027  1.00  0.00     0.046 C 
HETATM    3  C11 UNL     1      -5.198 166.438 400.715  1.00  0.00     0.047 C 
HETATM    4  C12 UNL     1      -6.134 166.452 399.547  1.00  0.00     0.194 C 
HETATM    5 BR1  UNL     1      -7.527 167.760 399.884  1.00  0.00    -0.061 Br
HETATM    6  O1  UNL     1      -5.456 166.788 398.401  1.00  0.00    -0.359 OA
ENDROOT
BRANCH   1   7
HETATM    7  C2  UNL     1      -4.155 168.651 398.931  1.00  0.00    -0.059 C 
HETATM    8  C1  UNL     1      -5.059 169.411 398.373  1.00  0.00     0.017 C 
HETATM    9  C3  UNL     1      -3.088 169.340 399.742  1.00  0.00     0.046 C 
ENDBRANCH   1   7
BRANCH   1  10
HETATM   10  C5  UNL     1      -3.228 166.846 397.643  1.00  0.00     0.070 C 
BRANCH  10  11
HETATM   11  C6  UNL     1      -1.926 166.306 398.085  1.00  0.00    -0.021 C 
HETATM   12  C7  UNL     1      -0.814 166.817 397.578  1.00  0.00    -0.091 C 
HETATM   13  C8  UNL     1      -0.855 167.916 396.580  1.00  0.00     0.042 C 
HETATM   14  C9  UNL     1       0.510 166.274 398.021  1.00  0.00     0.042 C 
ENDBRANCH  10  11
ENDBRANCH   1  10
TORSDOF 3
ENDMDL
MODEL 2
REMARK VINA RESULT: -6.509841753      1.500      3.075
REMARK  3 active torsions:
REMARK  status: ('A' for Active; 'I' for Inactive)
REMARK    1  A    between atoms: C2_2  and  C4_4 
REMARK    2  A    between atoms: C4_4  and  C5_5 
REMARK    3  A    between atoms: C5_5  and  C6_6 
ROOT
HETATM    1  C4  UNL     1      -5.403 167.069 399.225  1.00  0.00     0.088 C 
HETATM    2  C10 UNL     1      -5.471 166.564 397.834  1.00  0.00     0.046 C 
HETATM    3  C11 UNL     1      -6.583 167.423 397.257  1.00  0.00     0.047 C 
HETATM    4  C12 UNL     1      -6.462 168.669 398.078  1.00  0.00     0.194 C 
HETATM    5 BR1  UNL     1      -8.233 169.195 398.672  1.00  0.00    -0.061 Br
HETATM    6  O1  UNL     1      -5.660 168.441 399.169  1.00  0.00    -0.359 OA
ENDROOT
BRANCH   1   7
HETATM    7  C2  UNL     1      -6.393 166.436 400.113  1.00  0.00    -0.059 C 
HETATM    8  C1  UNL     1      -6.162 166.270 401.389  1.00  0.00     0.017 C 
HETATM    9  C3  UNL     1      -7.716 165.945 399.587  1.00  0.00     0.046 C 
ENDBRANCH   1   7
BRANCH   1  10
HETATM   10  C5  UNL     1      -4.043 166.872 399.852  1.00  0.00     0.070 C 
BRANCH  10  11
HETATM   11  C6  UNL     1      -2.932 166.826 398.880  1.00  0.00    -0.021 C 
HETATM   12  C7  UNL     1      -2.191 167.909 398.702  1.00  0.00    -0.091 C 
HETATM   13  C8  UNL     1      -2.456 169.159 399.458  1.00  0.00     0.042 C 
HETATM   14  C9  UNL     1      -1.062 167.870 397.717  1.00  0.00     0.042 C 
ENDBRANCH  10  11
ENDBRANCH   1  10
TORSDOF 3
ENDMDL
MODEL 3
REMARK VINA RESULT: -6.432994785      1.521      3.001
REMARK  3 active torsions:
REMARK  status: ('A' for Active; 'I' for Inactive)
REMARK    1  A    between atoms: C2_2  and  C4_4 
REMARK    2  A    between atoms: C4_4  and  C5_5 
REMARK    3  A    between atoms: C5_5  and  C6_6 
ROOT
HETATM    1  C4  UNL     1      -5.439 166.919 398.992  1.00  0.00     0.088 C 
HETATM    2  C10 UNL     1      -5.853 166.525 397.625  1.00  0.00     0.046 C 
HETATM    3  C11 UNL     1      -6.756 167.684 397.239  1.00  0.00     0.047 C 
HETATM    4  C12 UNL     1      -6.171 168.805 398.041  1.00  0.00     0.194 C 
HETATM    5 BR1  UNL     1      -7.615 169.764 398.912  1.00  0.00    -0.061 Br
HETATM    6  O1  UNL     1      -5.310 168.309 398.989  1.00  0.00    -0.359 OA
ENDROOT
BRANCH   1   7
HETATM    7  C2  UNL     1      -6.421 166.535 400.020  1.00  0.00    -0.059 C 
HETATM    8  C1  UNL     1      -6.089 166.429 401.280  1.00  0.00     0.017 C 
HETATM    9  C3  UNL     1      -7.855 166.242 399.664  1.00  0.00     0.046 C 
ENDBRANCH   1   7
BRANCH   1  10
HETATM   10  C5  UNL     1      -4.110 166.324 399.393  1.00  0.00     0.070 C 
BRANCH  10  11
HETATM   11  C6  UNL     1      -2.969 167.251 399.255  1.00  0.00    -0.021 C 
HETATM   12  C7  UNL     1      -2.185 167.149 398.192  1.00  0.00    -0.091 C 
HETATM   13  C8  UNL     1      -2.434 166.125 397.145  1.00  0.00     0.042 C 
HETATM   14  C9  UNL     1      -1.024 168.085 398.044  1.00  0.00     0.042 C 
ENDBRANCH  10  11
ENDBRANCH   1  10
TORSDOF 3
ENDMDL
MODEL 4
REMARK VINA RESULT: -6.166458645      2.494      4.911
REMARK  3 active torsions:
REMARK  status: ('A' for Active; 'I' for Inactive)
REMARK    1  A    between atoms: C2_2  and  C4_4 
REMARK    2  A    between atoms: C4_4  and  C5_5 
REMARK    3  A    between atoms: C5_5  and  C6_6 
ROOT
HETATM    1  C4  UNL     1      -3.384 167.166 399.047  1.00  0.00     0.088 C 
HETATM    2  C10 UNL     1      -3.989 166.558 397.839  1.00  0.00     0.046 C 
HETATM    3  C11 UNL     1      -2.789 166.478 396.911  1.00  0.00     0.047 C 
HETATM    4  C12 UNL     1      -1.659 166.347 397.885  1.00  0.00     0.194 C 
HETATM    5 BR1  UNL     1      -0.247 167.572 397.364  1.00  0.00    -0.061 Br
HETATM    6  O1  UNL     1      -2.090 166.653 399.152  1.00  0.00    -0.359 OA
ENDROOT
BRANCH   1   7
HETATM    7  C2  UNL     1      -3.307 168.635 398.970  1.00  0.00    -0.059 C 
HETATM    8  C1  UNL     1      -2.407 169.310 399.635  1.00  0.00     0.017 C 
HETATM    9  C3  UNL     1      -4.271 169.427 398.125  1.00  0.00     0.046 C 
ENDBRANCH   1   7
BRANCH   1  10
HETATM   10  C5  UNL     1      -4.132 166.819 400.312  1.00  0.00     0.070 C 
BRANCH  10  11
HETATM   11  C6  UNL     1      -5.601 166.888 400.182  1.00  0.00    -0.021 C 
HETATM   12  C7  UNL     1      -6.347 166.034 400.867  1.00  0.00    -0.091 C 
HETATM   13  C8  UNL     1      -5.733 165.016 401.758  1.00  0.00     0.042 C 
HETATM   14  C9  UNL     1      -7.838 166.097 400.740  1.00  0.00     0.042 C 
ENDBRANCH  10  11
ENDBRANCH   1  10
TORSDOF 3
ENDMDL
MODEL 5
REMARK VINA RESULT: -5.864728766      2.558      5.124
REMARK  3 active torsions:
REMARK  status: ('A' for Active; 'I' for Inactive)
REMARK    1  A    between atoms: C2_2  and  C4_4 
REMARK    2  A    between atoms: C4_4  and  C5_5 
REMARK    3  A    between atoms: C5_5  and  C6_6 
ROOT
HETATM    1  C4  UNL     1      -4.205 167.897 398.673  1.00  0.00     0.088 C 
HETATM    2  C10 UNL     1      -3.706 168.917 399.624  1.00  0.00     0.046 C 
HETATM    3  C11 UNL     1      -2.204 168.737 399.496  1.00  0.00     0.047 C 
HETATM    4  C12 UNL     1      -2.075 168.241 398.090  1.00  0.00     0.194 C 
HETATM    5 BR1  UNL     1      -0.876 166.715 398.077  1.00  0.00    -0.061 Br
HETATM    6  O1  UNL     1      -3.304 167.864 397.607  1.00  0.00    -0.359 OA
ENDROOT
BRANCH   1   7
HETATM    7  C2  UNL     1      -4.287 166.551 399.267  1.00  0.00    -0.059 C 
HETATM    8  C1  UNL     1      -4.112 165.473 398.550  1.00  0.00     0.017 C 
HETATM    9  C3  UNL     1      -4.582 166.359 400.732  1.00  0.00     0.046 C 
ENDBRANCH   1   7
BRANCH   1  10
HETATM   10  C5  UNL     1      -5.572 168.230 398.123  1.00  0.00     0.070 C 
BRANCH  10  11
HETATM   11  C6  UNL     1      -5.870 169.676 398.083  1.00  0.00    -0.021 C 
HETATM   12  C7  UNL     1      -7.075 170.092 398.442  1.00  0.00    -0.091 C 
HETATM   13  C8  UNL     1      -8.123 169.136 398.881  1.00  0.00     0.042 C 
HETATM   14  C9  UNL     1      -7.385 171.558 398.404  1.00  0.00     0.042 C 
ENDBRANCH  10  11
ENDBRANCH   1  10
TORSDOF 3
ENDMDL
