MODEL 1
REMARK VINA RESULT: -5.984283867      0.000      0.000
REMARK  4 active torsions:
REMARK  status: ('A' for Active; 'I' for Inactive)
REMARK    1  A    between atoms: C2_2  and  C3_4 
REMARK    2  A    between atoms: C3_4  and  N1_5 
REMARK       I    between atoms: N1_5  and  C4_6 
REMARK    3  A    between atoms: N1_5  and  C10_15 
REMARK       I    between atoms: C4_6  and  N2_8 
REMARK    4  A    between atoms: N2_8  and  C5_10 
ROOT
HETATM    1  N1  UNL     1      -6.123 167.781 398.991  1.00  0.00    -0.325 N 
HETATM    2  C4  UNL     1      -4.739 167.483 399.274  1.00  0.00     0.319 C 
HETATM    3  O1  UNL     1      -4.445 166.575 400.082  1.00  0.00    -0.247 OA
HETATM    4  N2  UNL     1      -3.675 168.191 398.660  1.00  0.00    -0.338 N 
ATOM      5  H2  UNL     1      -3.884 168.936 397.995  1.00  0.00     0.164 HD
ENDROOT
BRANCH   1   6
HETATM    6  C3  UNL     1      -6.484 168.810 398.086  1.00  0.00     0.148 C 
BRANCH   6   7
HETATM    7  C2  UNL     1      -6.087 170.200 398.386  1.00  0.00     0.096 C 
HETATM    8  C1  UNL     1      -5.151 170.878 397.435  1.00  0.00     0.028 C 
HETATM    9 CL1  UNL     1      -7.612 171.173 398.345  1.00  0.00    -0.124 Cl
ENDBRANCH   6   7
ENDBRANCH   1   6
BRANCH   1  10
HETATM   10  C10 UNL     1      -7.077 166.993 399.728  1.00  0.00     0.026 C 
HETATM   11  C11 UNL     1      -7.686 165.922 398.806  1.00  0.00     0.037 C 
HETATM   12  C12 UNL     1      -8.279 167.851 400.145  1.00  0.00     0.037 C 
HETATM   13  C13 UNL     1      -6.585 166.290 400.944  1.00  0.00     0.037 C 
ENDBRANCH   1  10
BRANCH   4  14
HETATM   14  C5  UNL     1      -2.303 167.875 398.959  1.00  0.00     0.094 A 
HETATM   15  C6  UNL     1      -1.226 168.425 398.035  1.00  0.00     0.036 A 
HETATM   16  C7  UNL     1      -1.513 166.980 398.082  1.00  0.00    -0.025 A 
HETATM   17  C8  UNL     1      -0.585 166.017 398.780  1.00  0.00     0.017 C 
HETATM   18  C9  UNL     1      -2.135 166.401 396.821  1.00  0.00     0.017 C 
ENDBRANCH   4  14
TORSDOF 4
ENDMDL
MODEL 2
REMARK VINA RESULT: -5.648848779      1.381      1.585
REMARK  4 active torsions:
REMARK  status: ('A' for Active; 'I' for Inactive)
REMARK    1  A    between atoms: C2_2  and  C3_4 
REMARK    2  A    between atoms: C3_4  and  N1_5 
REMARK       I    between atoms: N1_5  and  C4_6 
REMARK    3  A    between atoms: N1_5  and  C10_15 
REMARK       I    between atoms: C4_6  and  N2_8 
REMARK    4  A    between atoms: N2_8  and  C5_10 
ROOT
HETATM    1  N1  UNL     1      -6.050 167.446 399.491  1.00  0.00    -0.325 N 
HETATM    2  C4  UNL     1      -4.625 167.251 399.615  1.00  0.00     0.319 C 
HETATM    3  O1  UNL     1      -4.177 166.373 400.386  1.00  0.00    -0.247 OA
HETATM    4  N2  UNL     1      -3.691 168.028 398.884  1.00  0.00    -0.338 N 
ATOM      5  H2  UNL     1      -4.028 168.750 398.247  1.00  0.00     0.164 HD
ENDROOT
BRANCH   1   6
HETATM    6  C3  UNL     1      -6.585 168.438 398.632  1.00  0.00     0.148 C 
BRANCH   6   7
HETATM    7  C2  UNL     1      -6.863 168.092 397.224  1.00  0.00     0.096 C 
HETATM    8  C1  UNL     1      -6.072 166.981 396.609  1.00  0.00     0.028 C 
HETATM    9 CL1  UNL     1      -8.587 167.547 397.177  1.00  0.00    -0.124 Cl
ENDBRANCH   6   7
ENDBRANCH   1   6
BRANCH   1  10
HETATM   10  C10 UNL     1      -6.855 166.597 400.331  1.00  0.00     0.026 C 
HETATM   11  C11 UNL     1      -7.306 165.359 399.537  1.00  0.00     0.037 C 
HETATM   12  C12 UNL     1      -8.168 167.298 400.705  1.00  0.00     0.037 C 
HETATM   13  C13 UNL     1      -6.237 166.103 401.592  1.00  0.00     0.037 C 
ENDBRANCH   1  10
BRANCH   4  14
HETATM   14  C5  UNL     1      -2.275 167.815 399.027  1.00  0.00     0.094 A 
HETATM   15  C6  UNL     1      -1.352 168.419 397.978  1.00  0.00     0.036 A 
HETATM   16  C7  UNL     1      -1.529 166.958 398.076  1.00  0.00    -0.025 A 
HETATM   17  C8  UNL     1      -0.460 166.077 398.674  1.00  0.00     0.017 C 
HETATM   18  C9  UNL     1      -2.248 166.311 396.904  1.00  0.00     0.017 C 
ENDBRANCH   4  14
TORSDOF 4
ENDMDL
MODEL 3
REMARK VINA RESULT: -5.548561365      0.774      1.203
REMARK  4 active torsions:
REMARK  status: ('A' for Active; 'I' for Inactive)
REMARK    1  A    between atoms: C2_2  and  C3_4 
REMARK    2  A    between atoms: C3_4  and  N1_5 
REMARK       I    between atoms: N1_5  and  C4_6 
REMARK    3  A    between atoms: N1_5  and  C10_15 
REMARK       I    between atoms: C4_6  and  N2_8 
REMARK    4  A    between atoms: N2_8  and  C5_10 
ROOT
HETATM    1  N1  UNL     1      -6.244 167.424 398.822  1.00  0.00    -0.325 N 
HETATM    2  C4  UNL     1      -4.965 166.756 398.775  1.00  0.00     0.319 C 
HETATM    3  O1  UNL     1      -4.748 165.762 399.502  1.00  0.00    -0.247 OA
HETATM    4  N2  UNL     1      -3.920 167.188 397.919  1.00  0.00    -0.338 N 
ATOM      5  H2  UNL     1      -4.069 167.995 397.313  1.00  0.00     0.164 HD
ENDROOT
BRANCH   1   6
HETATM    6  C3  UNL     1      -6.514 168.556 398.014  1.00  0.00     0.148 C 
BRANCH   6   7
HETATM    7  C2  UNL     1      -6.025 169.879 398.449  1.00  0.00     0.096 C 
HETATM    8  C1  UNL     1      -4.967 170.539 397.622  1.00  0.00     0.028 C 
HETATM    9 CL1  UNL     1      -7.455 170.985 398.382  1.00  0.00    -0.124 Cl
ENDBRANCH   6   7
ENDBRANCH   1   6
BRANCH   1  10
HETATM   10  C10 UNL     1      -7.180 166.878 399.771  1.00  0.00     0.026 C 
HETATM   11  C11 UNL     1      -7.952 165.714 399.128  1.00  0.00     0.037 C 
HETATM   12  C12 UNL     1      -8.268 167.906 400.108  1.00  0.00     0.037 C 
HETATM   13  C13 UNL     1      -6.627 166.374 401.058  1.00  0.00     0.037 C 
ENDBRANCH   1  10
BRANCH   4  14
HETATM   14  C5  UNL     1      -2.653 166.507 397.892  1.00  0.00     0.094 A 
HETATM   15  C6  UNL     1      -1.840 166.460 399.179  1.00  0.00     0.036 A 
HETATM   16  C7  UNL     1      -1.379 167.251 398.023  1.00  0.00    -0.025 A 
HETATM   17  C8  UNL     1      -0.241 166.778 397.152  1.00  0.00     0.017 C 
HETATM   18  C9  UNL     1      -1.390 168.758 398.223  1.00  0.00     0.017 C 
ENDBRANCH   4  14
TORSDOF 4
ENDMDL
MODEL 4
REMARK VINA RESULT: -5.515770583      1.366      1.743
REMARK  4 active torsions:
REMARK  status: ('A' for Active; 'I' for Inactive)
REMARK    1  A    between atoms: C2_2  and  C3_4 
REMARK    2  A    between atoms: C3_4  and  N1_5 
REMARK       I    between atoms: N1_5  and  C4_6 
REMARK    3  A    between atoms: N1_5  and  C10_15 
REMARK       I    between atoms: C4_6  and  N2_8 
REMARK    4  A    between atoms: N2_8  and  C5_10 
ROOT
HETATM    1  N1  UNL     1      -6.311 168.116 398.805  1.00  0.00    -0.325 N 
HETATM    2  C4  UNL     1      -5.211 167.255 398.436  1.00  0.00     0.319 C 
HETATM    3  O1  UNL     1      -5.407 166.035 398.242  1.00  0.00    -0.247 OA
HETATM    4  N2  UNL     1      -3.890 167.746 398.279  1.00  0.00    -0.338 N 
ATOM      5  H2  UNL     1      -3.701 168.736 398.429  1.00  0.00     0.164 HD
ENDROOT
BRANCH   1   6
HETATM    6  C3  UNL     1      -6.116 169.500 399.038  1.00  0.00     0.148 C 
BRANCH   6   7
HETATM    7  C2  UNL     1      -6.362 170.454 397.939  1.00  0.00     0.096 C 
HETATM    8  C1  UNL     1      -7.216 171.647 398.228  1.00  0.00     0.028 C 
HETATM    9 CL1  UNL     1      -4.741 171.115 397.481  1.00  0.00    -0.124 Cl
ENDBRANCH   6   7
ENDBRANCH   1   6
BRANCH   1  10
HETATM   10  C10 UNL     1      -7.579 167.451 398.957  1.00  0.00     0.026 C 
HETATM   11  C11 UNL     1      -8.206 167.209 397.573  1.00  0.00     0.037 C 
HETATM   12  C12 UNL     1      -8.586 168.365 399.668  1.00  0.00     0.037 C 
HETATM   13  C13 UNL     1      -7.581 166.143 399.669  1.00  0.00     0.037 C 
ENDBRANCH   1  10
BRANCH   4  14
HETATM   14  C5  UNL     1      -2.811 166.866 397.912  1.00  0.00     0.094 A 
HETATM   15  C6  UNL     1      -1.841 166.434 399.003  1.00  0.00     0.036 A 
HETATM   16  C7  UNL     1      -1.406 167.334 397.919  1.00  0.00    -0.025 A 
HETATM   17  C8  UNL     1      -0.536 166.839 396.789  1.00  0.00     0.017 C 
HETATM   18  C9  UNL     1      -1.073 168.754 398.349  1.00  0.00     0.017 C 
ENDBRANCH   4  14
TORSDOF 4
ENDMDL
MODEL 5
REMARK VINA RESULT: -5.332029827      2.193      3.465
REMARK  4 active torsions:
REMARK  status: ('A' for Active; 'I' for Inactive)
REMARK    1  A    between atoms: C2_2  and  C3_4 
REMARK    2  A    between atoms: C3_4  and  N1_5 
REMARK       I    between atoms: N1_5  and  C4_6 
REMARK    3  A    between atoms: N1_5  and  C10_15 
REMARK       I    between atoms: C4_6  and  N2_8 
REMARK    4  A    between atoms: N2_8  and  C5_10 
ROOT
HETATM    1  N1  UNL     1      -6.407 167.792 399.262  1.00  0.00    -0.325 N 
HETATM    2  C4  UNL     1      -5.236 167.473 398.480  1.00  0.00     0.319 C 
HETATM    3  O1  UNL     1      -5.190 167.775 397.267  1.00  0.00    -0.247 OA
HETATM    4  N2  UNL     1      -4.110 166.819 399.041  1.00  0.00    -0.338 N 
ATOM      5  H2  UNL     1      -4.119 166.562 400.028  1.00  0.00     0.164 HD
ENDROOT
BRANCH   1   6
HETATM    6  C3  UNL     1      -6.489 167.454 400.636  1.00  0.00     0.148 C 
BRANCH   6   7
HETATM    7  C2  UNL     1      -7.034 166.137 401.019  1.00  0.00     0.096 C 
HETATM    8  C1  UNL     1      -7.802 165.372 399.987  1.00  0.00     0.028 C 
HETATM    9 CL1  UNL     1      -5.605 165.106 401.426  1.00  0.00    -0.124 Cl
ENDBRANCH   6   7
ENDBRANCH   1   6
BRANCH   1  10
HETATM   10  C10 UNL     1      -7.474 168.424 398.529  1.00  0.00     0.026 C 
HETATM   11  C11 UNL     1      -7.032 169.827 398.079  1.00  0.00     0.037 C 
HETATM   12  C12 UNL     1      -8.676 168.688 399.446  1.00  0.00     0.037 C 
HETATM   13  C13 UNL     1      -7.980 167.719 397.320  1.00  0.00     0.037 C 
ENDBRANCH   1  10
BRANCH   4  14
HETATM   14  C5  UNL     1      -2.955 166.511 398.239  1.00  0.00     0.094 A 
HETATM   15  C6  UNL     1      -1.634 166.268 398.955  1.00  0.00     0.036 A 
HETATM   16  C7  UNL     1      -1.829 167.466 398.118  1.00  0.00    -0.025 A 
HETATM   17  C8  UNL     1      -1.200 167.580 396.752  1.00  0.00     0.017 C 
HETATM   18  C9  UNL     1      -1.861 168.786 398.872  1.00  0.00     0.017 C 
ENDBRANCH   4  14
TORSDOF 4
ENDMDL
