MODEL 1
REMARK VINA RESULT: -7.004997906      0.000      0.000
REMARK  3 active torsions:
REMARK  status: ('A' for Active; 'I' for Inactive)
REMARK    1  A    between atoms: C2_2  and  C3_3 
REMARK    2  A    between atoms: C3_3  and  C4_4 
REMARK    3  A    between atoms: C4_4  and  C5_5 
ROOT
HETATM    1  C5  UNL     1      -5.655 167.984 398.478  1.00  0.00    -0.016 A 
HETATM    2  C6  UNL     1      -5.579 169.353 398.537  1.00  0.00     0.086 A 
HETATM    3 BR1  UNL     1      -7.026 170.608 398.428  1.00  0.00    -0.031 Br
HETATM    4  N1  UNL     1      -4.259 169.665 398.642  1.00  0.00    -0.353 N 
ATOM      5  H1  UNL     1      -3.884 170.611 398.706  1.00  0.00     0.166 HD
HETATM    6  C7  UNL     1      -3.524 168.545 398.647  1.00  0.00     0.017 A 
HETATM    7  C8  UNL     1      -4.359 167.459 398.546  1.00  0.00    -0.026 A 
HETATM    8  C9  UNL     1      -3.748 166.117 398.533  1.00  0.00     0.041 C 
HETATM    9  C10 UNL     1      -2.634 166.122 397.475  1.00  0.00     0.005 C 
HETATM   10  C11 UNL     1      -1.720 167.291 397.594  1.00  0.00     0.006 C 
HETATM   11  C12 UNL     1      -2.052 168.232 398.735  1.00  0.00     0.057 C 
ENDROOT
BRANCH   1  12
HETATM   12  C4  UNL     1      -6.811 167.091 398.410  1.00  0.00     0.042 C 
BRANCH  12  13
HETATM   13  C3  UNL     1      -7.702 167.124 399.608  1.00  0.00     0.004 C 
BRANCH  13  14
HETATM   14  C2  UNL     1      -7.595 165.984 400.541  1.00  0.00    -0.004 C 
HETATM   15  C1  UNL     1      -6.281 166.019 401.333  1.00  0.00     0.005 C 
ENDBRANCH  13  14
ENDBRANCH  12  13
ENDBRANCH   1  12
TORSDOF 3
ENDMDL
MODEL 2
REMARK VINA RESULT: -6.810566668      1.243      4.269
REMARK  3 active torsions:
REMARK  status: ('A' for Active; 'I' for Inactive)
REMARK    1  A    between atoms: C2_2  and  C3_3 
REMARK    2  A    between atoms: C3_3  and  C4_4 
REMARK    3  A    between atoms: C4_4  and  C5_5 
ROOT
HETATM    1  C5  UNL     1      -4.308 168.435 399.137  1.00  0.00    -0.016 A 
HETATM    2  C6  UNL     1      -5.137 169.240 398.396  1.00  0.00     0.086 A 
HETATM    3 BR1  UNL     1      -4.716 170.937 397.607  1.00  0.00    -0.031 Br
HETATM    4  N1  UNL     1      -6.349 168.623 398.363  1.00  0.00    -0.353 N 
ATOM      5  H1  UNL     1      -7.175 168.981 397.884  1.00  0.00     0.166 HD
HETATM    6  C7  UNL     1      -6.298 167.477 399.054  1.00  0.00     0.017 A 
HETATM    7  C8  UNL     1      -5.032 167.314 399.561  1.00  0.00    -0.026 A 
HETATM    8  C9  UNL     1      -4.758 166.107 400.362  1.00  0.00     0.041 C 
HETATM    9  C10 UNL     1      -5.855 165.998 401.431  1.00  0.00     0.005 C 
HETATM   10  C11 UNL     1      -7.228 166.160 400.880  1.00  0.00     0.006 C 
HETATM   11  C12 UNL     1      -7.279 166.381 399.381  1.00  0.00     0.057 C 
ENDROOT
BRANCH   1  12
HETATM   12  C4  UNL     1      -2.888 168.564 399.464  1.00  0.00     0.042 C 
BRANCH  12  13
HETATM   13  C3  UNL     1      -1.952 168.171 398.369  1.00  0.00     0.004 C 
BRANCH  13  14
HETATM   14  C2  UNL     1      -1.676 166.727 398.225  1.00  0.00    -0.004 C 
HETATM   15  C1  UNL     1      -2.579 166.077 397.169  1.00  0.00     0.005 C 
ENDBRANCH  13  14
ENDBRANCH  12  13
ENDBRANCH   1  12
TORSDOF 3
ENDMDL
MODEL 3
REMARK VINA RESULT: -6.394454679      2.309      3.442
REMARK  3 active torsions:
REMARK  status: ('A' for Active; 'I' for Inactive)
REMARK    1  A    between atoms: C2_2  and  C3_3 
REMARK    2  A    between atoms: C3_3  and  C4_4 
REMARK    3  A    between atoms: C4_4  and  C5_5 
ROOT
HETATM    1  C5  UNL     1      -7.312 167.140 399.103  1.00  0.00    -0.016 A 
HETATM    2  C6  UNL     1      -7.706 166.812 400.377  1.00  0.00     0.086 A 
HETATM    3 BR1  UNL     1      -9.434 167.072 401.167  1.00  0.00    -0.031 Br
HETATM    4  N1  UNL     1      -6.610 166.304 401.003  1.00  0.00    -0.353 N 
ATOM      5  H1  UNL     1      -6.589 165.969 401.966  1.00  0.00     0.166 HD
HETATM    6  C7  UNL     1      -5.563 166.308 400.168  1.00  0.00     0.017 A 
HETATM    7  C8  UNL     1      -5.956 166.826 398.958  1.00  0.00    -0.026 A 
HETATM    8  C9  UNL     1      -4.946 166.922 397.887  1.00  0.00     0.041 C 
HETATM    9  C10 UNL     1      -3.712 167.624 398.472  1.00  0.00     0.005 C 
HETATM   10  C11 UNL     1      -3.277 167.054 399.776  1.00  0.00     0.006 C 
HETATM   11  C12 UNL     1      -4.118 165.890 400.262  1.00  0.00     0.057 C 
ENDROOT
BRANCH   1  12
HETATM   12  C4  UNL     1      -8.071 167.676 397.974  1.00  0.00     0.042 C 
BRANCH  12  13
HETATM   13  C3  UNL     1      -8.441 169.118 398.092  1.00  0.00     0.004 C 
BRANCH  13  14
HETATM   14  C2  UNL     1      -7.481 169.987 398.804  1.00  0.00    -0.004 C 
HETATM   15  C1  UNL     1      -6.293 170.370 397.913  1.00  0.00     0.005 C 
ENDBRANCH  13  14
ENDBRANCH  12  13
ENDBRANCH   1  12
TORSDOF 3
ENDMDL
MODEL 4
REMARK VINA RESULT: -6.151023748      1.895      3.846
REMARK  3 active torsions:
REMARK  status: ('A' for Active; 'I' for Inactive)
REMARK    1  A    between atoms: C2_2  and  C3_3 
REMARK    2  A    between atoms: C3_3  and  C4_4 
REMARK    3  A    between atoms: C4_4  and  C5_5 
ROOT
HETATM    1  C5  UNL     1      -4.624 167.747 398.393  1.00  0.00    -0.016 A 
HETATM    2  C6  UNL     1      -3.887 168.867 398.683  1.00  0.00     0.086 A 
HETATM    3 BR1  UNL     1      -2.025 168.955 399.134  1.00  0.00    -0.031 Br
HETATM    4  N1  UNL     1      -4.748 169.920 398.638  1.00  0.00    -0.353 N 
ATOM      5  H1  UNL     1      -4.493 170.892 398.811  1.00  0.00     0.166 HD
HETATM    6  C7  UNL     1      -5.980 169.491 398.335  1.00  0.00     0.017 A 
HETATM    7  C8  UNL     1      -5.953 168.128 398.170  1.00  0.00    -0.026 A 
HETATM    8  C9  UNL     1      -7.216 167.448 397.829  1.00  0.00     0.041 C 
HETATM    9  C10 UNL     1      -8.281 167.913 398.834  1.00  0.00     0.005 C 
HETATM   10  C11 UNL     1      -8.321 169.392 399.001  1.00  0.00     0.006 C 
HETATM   11  C12 UNL     1      -7.323 170.146 398.144  1.00  0.00     0.057 C 
ENDROOT
BRANCH   1  12
HETATM   12  C4  UNL     1      -4.224 166.347 398.249  1.00  0.00     0.042 C 
BRANCH  12  13
HETATM   13  C3  UNL     1      -4.199 165.567 399.523  1.00  0.00     0.004 C 
BRANCH  13  14
HETATM   14  C2  UNL     1      -4.638 166.279 400.740  1.00  0.00    -0.004 C 
HETATM   15  C1  UNL     1      -5.918 165.668 401.326  1.00  0.00     0.005 C 
ENDBRANCH  13  14
ENDBRANCH  12  13
ENDBRANCH   1  12
TORSDOF 3
ENDMDL
MODEL 5
REMARK VINA RESULT: -6.048871250      1.621      4.579
REMARK  3 active torsions:
REMARK  status: ('A' for Active; 'I' for Inactive)
REMARK    1  A    between atoms: C2_2  and  C3_3 
REMARK    2  A    between atoms: C3_3  and  C4_4 
REMARK    3  A    between atoms: C4_4  and  C5_5 
ROOT
HETATM    1  C5  UNL     1      -5.023 167.543 399.076  1.00  0.00    -0.016 A 
HETATM    2  C6  UNL     1      -4.786 168.868 398.807  1.00  0.00     0.086 A 
HETATM    3 BR1  UNL     1      -3.084 169.734 398.620  1.00  0.00    -0.031 Br
HETATM    4  N1  UNL     1      -6.001 169.475 398.744  1.00  0.00    -0.353 N 
ATOM      5  H1  UNL     1      -6.151 170.466 398.556  1.00  0.00     0.166 HD
HETATM    6  C7  UNL     1      -6.972 168.579 398.964  1.00  0.00     0.017 A 
HETATM    7  C8  UNL     1      -6.406 167.347 399.179  1.00  0.00    -0.026 A 
HETATM    8  C9  UNL     1      -7.305 166.209 399.445  1.00  0.00     0.041 C 
HETATM    9  C10 UNL     1      -8.273 166.631 400.561  1.00  0.00     0.005 C 
HETATM   10  C11 UNL     1      -8.899 167.961 400.321  1.00  0.00     0.006 C 
HETATM   11  C12 UNL     1      -8.477 168.626 399.026  1.00  0.00     0.057 C 
ENDROOT
BRANCH   1  12
HETATM   12  C4  UNL     1      -4.105 166.412 399.206  1.00  0.00     0.042 C 
BRANCH  12  13
HETATM   13  C3  UNL     1      -3.698 165.782 397.915  1.00  0.00     0.004 C 
BRANCH  13  14
HETATM   14  C2  UNL     1      -2.447 166.278 397.306  1.00  0.00    -0.004 C 
HETATM   15  C1  UNL     1      -1.348 166.488 398.355  1.00  0.00     0.005 C 
ENDBRANCH  13  14
ENDBRANCH  12  13
ENDBRANCH   1  12
TORSDOF 3
ENDMDL
