MODEL 1
REMARK VINA RESULT: -3.911954150      0.000      0.000
REMARK  2 active torsions:
REMARK  status: ('A' for Active; 'I' for Inactive)
REMARK    1  A    between atoms: C2_2  and  C3_4 
REMARK    2  A    between atoms: C7_12  and  C8_13 
ROOT
HETATM    1  C3  UNL     1    -136.039-183.622 297.333  1.00  0.00     0.242 C 
HETATM    2  N1  UNL     1    -136.918-182.548 297.024  1.00  0.00    -0.059 N 
ATOM      3  H11 UNL     1    -136.600-181.581 297.089  1.00  0.00     0.278 HD
ATOM      4  H12 UNL     1    -137.698-182.320 297.642  1.00  0.00     0.278 HD
HETATM    5  C4  UNL     1    -137.152-183.146 295.759  1.00  0.00     0.218 A 
HETATM    6  C5  UNL     1    -137.919-184.433 295.758  1.00  0.00     0.055 A 
HETATM    7  C6  UNL     1    -138.988-184.675 296.820  1.00  0.00     0.031 C 
HETATM    8 BR1  UNL     1    -138.555-184.898 293.994  1.00  0.00    -0.083 Br
HETATM    9  C7  UNL     1    -136.504-184.430 296.113  1.00  0.00     0.042 A 
ENDROOT
BRANCH   1  10
HETATM   10  C2  UNL     1    -136.156-184.306 298.618  1.00  0.00     0.034 C 
HETATM   11  C1  UNL     1    -135.432-185.379 298.862  1.00  0.00     0.034 C 
HETATM   12 CL1  UNL     1    -137.266-183.670 299.816  1.00  0.00    -0.088 Cl
ENDBRANCH   1  10
BRANCH   9  13
HETATM   13  C8  UNL     1    -135.398-185.061 295.379  1.00  0.00     0.011 C 
HETATM   14  C9  UNL     1    -135.417-186.529 295.182  1.00  0.00     0.006 C 
ENDBRANCH   9  13
TORSDOF 2
ENDMDL
MODEL 2
REMARK VINA RESULT: -3.901825030      2.218      2.707
REMARK  2 active torsions:
REMARK  status: ('A' for Active; 'I' for Inactive)
REMARK    1  A    between atoms: C2_2  and  C3_4 
REMARK    2  A    between atoms: C7_12  and  C8_13 
ROOT
HETATM    1  C3  UNL     1    -136.288-184.604 297.026  1.00  0.00     0.242 C 
HETATM    2  N1  UNL     1    -135.985-183.245 297.320  1.00  0.00    -0.059 N 
ATOM      3  H11 UNL     1    -135.186-182.785 296.884  1.00  0.00     0.278 HD
ATOM      4  H12 UNL     1    -135.623-182.981 298.236  1.00  0.00     0.278 HD
HETATM    5  C4  UNL     1    -137.309-182.902 296.942  1.00  0.00     0.218 A 
HETATM    6  C5  UNL     1    -138.407-183.373 297.845  1.00  0.00     0.055 A 
HETATM    7  C6  UNL     1    -138.151-183.496 299.345  1.00  0.00     0.031 C 
HETATM    8 BR1  UNL     1    -140.080-182.476 297.483  1.00  0.00    -0.083 Br
HETATM    9  C7  UNL     1    -137.789-184.303 296.906  1.00  0.00     0.042 A 
ENDROOT
BRANCH   1  10
HETATM   10  C2  UNL     1    -135.936-185.647 297.985  1.00  0.00     0.034 C 
HETATM   11  C1  UNL     1    -135.160-185.365 299.011  1.00  0.00     0.034 C 
HETATM   12 CL1  UNL     1    -136.567-187.265 297.744  1.00  0.00    -0.088 Cl
ENDBRANCH   1  10
BRANCH   9  13
HETATM   13  C8  UNL     1    -138.422-184.960 295.753  1.00  0.00     0.011 C 
HETATM   14  C9  UNL     1    -139.502-185.944 295.998  1.00  0.00     0.006 C 
ENDBRANCH   9  13
TORSDOF 2
ENDMDL
MODEL 3
REMARK VINA RESULT: -3.889768985      2.144      2.691
REMARK  2 active torsions:
REMARK  status: ('A' for Active; 'I' for Inactive)
REMARK    1  A    between atoms: C2_2  and  C3_4 
REMARK    2  A    between atoms: C7_12  and  C8_13 
ROOT
HETATM    1  C3  UNL     1    -136.772-184.452 298.743  1.00  0.00     0.242 C 
HETATM    2  N1  UNL     1    -135.654-183.592 298.563  1.00  0.00    -0.059 N 
ATOM      3  H11 UNL     1    -135.022-183.392 299.339  1.00  0.00     0.278 HD
ATOM      4  H12 UNL     1    -135.786-182.589 298.428  1.00  0.00     0.278 HD
HETATM    5  C4  UNL     1    -135.235-184.416 297.487  1.00  0.00     0.218 A 
HETATM    6  C5  UNL     1    -136.086-184.390 296.254  1.00  0.00     0.055 A 
HETATM    7  C6  UNL     1    -136.818-183.107 295.869  1.00  0.00     0.031 C 
HETATM    8 BR1  UNL     1    -135.186-185.174 294.734  1.00  0.00    -0.083 Br
HETATM    9  C7  UNL     1    -136.507-185.170 297.412  1.00  0.00     0.042 A 
ENDROOT
BRANCH   1  10
HETATM   10  C2  UNL     1    -138.108-183.880 298.890  1.00  0.00     0.034 C 
HETATM   11  C1  UNL     1    -138.373-183.072 299.896  1.00  0.00     0.034 C 
HETATM   12 CL1  UNL     1    -139.335-184.284 297.704  1.00  0.00    -0.088 Cl
ENDBRANCH   1  10
BRANCH   9  13
HETATM   13  C8  UNL     1    -136.642-186.631 297.504  1.00  0.00     0.011 C 
HETATM   14  C9  UNL     1    -137.644-187.309 296.650  1.00  0.00     0.006 C 
ENDBRANCH   9  13
TORSDOF 2
ENDMDL
MODEL 4
REMARK VINA RESULT: -3.812927285      1.686      2.566
REMARK  2 active torsions:
REMARK  status: ('A' for Active; 'I' for Inactive)
REMARK    1  A    between atoms: C2_2  and  C3_4 
REMARK    2  A    between atoms: C7_12  and  C8_13 
ROOT
HETATM    1  C3  UNL     1    -137.732-183.067 297.319  1.00  0.00     0.242 C 
HETATM    2  N1  UNL     1    -138.232-183.156 295.991  1.00  0.00    -0.059 N 
ATOM      3  H11 UNL     1    -138.475-182.313 295.469  1.00  0.00     0.278 HD
ATOM      4  H12 UNL     1    -139.168-183.521 295.811  1.00  0.00     0.278 HD
HETATM    5  C4  UNL     1    -137.084-183.913 295.644  1.00  0.00     0.218 A 
HETATM    6  C5  UNL     1    -136.985-185.288 296.231  1.00  0.00     0.055 A 
HETATM    7  C6  UNL     1    -138.258-186.087 296.499  1.00  0.00     0.031 C 
HETATM    8 BR1  UNL     1    -135.647-186.362 295.344  1.00  0.00    -0.083 Br
HETATM    9  C7  UNL     1    -136.652-184.124 297.045  1.00  0.00     0.042 A 
ENDROOT
BRANCH   1  10
HETATM   10  C2  UNL     1    -138.616-183.355 298.446  1.00  0.00     0.034 C 
HETATM   11  C1  UNL     1    -139.898-183.578 298.238  1.00  0.00     0.034 C 
HETATM   12 CL1  UNL     1    -137.938-183.404 300.061  1.00  0.00    -0.088 Cl
ENDBRANCH   1  10
BRANCH   9  13
HETATM   13  C8  UNL     1    -135.338-183.767 297.598  1.00  0.00     0.011 C 
HETATM   14  C9  UNL     1    -134.775-184.595 298.690  1.00  0.00     0.006 C 
ENDBRANCH   9  13
TORSDOF 2
ENDMDL
MODEL 5
REMARK VINA RESULT: -3.743635978      2.115      2.733
REMARK  2 active torsions:
REMARK  status: ('A' for Active; 'I' for Inactive)
REMARK    1  A    between atoms: C2_2  and  C3_4 
REMARK    2  A    between atoms: C7_12  and  C8_13 
ROOT
HETATM    1  C3  UNL     1    -136.370-184.546 296.858  1.00  0.00     0.242 C 
HETATM    2  N1  UNL     1    -136.008-183.213 297.198  1.00  0.00    -0.059 N 
ATOM      3  H11 UNL     1    -135.232-182.749 296.726  1.00  0.00     0.278 HD
ATOM      4  H12 UNL     1    -135.569-183.007 298.096  1.00  0.00     0.278 HD
HETATM    5  C4  UNL     1    -137.346-182.819 296.943  1.00  0.00     0.218 A 
HETATM    6  C5  UNL     1    -138.384-183.313 297.904  1.00  0.00     0.055 A 
HETATM    7  C6  UNL     1    -138.017-183.523 299.370  1.00  0.00     0.031 C 
HETATM    8 BR1  UNL     1    -140.054-182.358 297.722  1.00  0.00    -0.083 Br
HETATM    9  C7  UNL     1    -137.867-184.204 296.871  1.00  0.00     0.042 A 
ENDROOT
BRANCH   1  10
HETATM   10  C2  UNL     1    -135.973-185.648 297.730  1.00  0.00     0.034 C 
HETATM   11  C1  UNL     1    -136.392-186.871 297.478  1.00  0.00     0.034 C 
HETATM   12 CL1  UNL     1    -134.934-185.310 299.100  1.00  0.00    -0.088 Cl
ENDBRANCH   1  10
BRANCH   9  13
HETATM   13  C8  UNL     1    -138.604-184.782 295.739  1.00  0.00     0.011 C 
HETATM   14  C9  UNL     1    -139.623-185.823 296.009  1.00  0.00     0.006 C 
ENDBRANCH   9  13
TORSDOF 2
ENDMDL
