MODEL 1
REMARK VINA RESULT: -4.683535422      0.000      0.000
REMARK  2 active torsions:
REMARK  status: ('A' for Active; 'I' for Inactive)
REMARK    1  A    between atoms: C3_3  and  N1_4 
REMARK       I    between atoms: N1_4  and  C4_6 
REMARK    2  A    between atoms: C4_6  and  C5_8 
ROOT
HETATM    1  C1  UNL     1    -139.553-181.102 301.192  1.00  0.00     0.014 C 
HETATM    2  C2  UNL     1    -139.514-182.147 300.591  1.00  0.00    -0.098 C 
HETATM    3  C3  UNL     1    -139.457-183.420 299.833  1.00  0.00     0.216 C 
ENDROOT
BRANCH   3   4
HETATM    4  N1  UNL     1    -138.236-183.537 299.093  1.00  0.00    -0.350 N 
HETATM    5  C4  UNL     1    -138.177-183.236 297.713  1.00  0.00     0.228 C 
HETATM    6  O1  UNL     1    -139.243-182.861 297.160  1.00  0.00    -0.273 OA
ATOM      7  H1  UNL     1    -137.391-183.845 299.573  1.00  0.00     0.163 HD
BRANCH   5   8
HETATM    8  C5  UNL     1    -136.958-183.336 296.896  1.00  0.00     0.062 C 
HETATM    9  C6  UNL     1    -136.771-182.054 296.094  1.00  0.00     0.027 C 
HETATM   10  C7  UNL     1    -135.759-183.689 297.745  1.00  0.00     0.049 C 
HETATM   11  C8  UNL     1    -135.762-185.041 297.121  1.00  0.00     0.066 A 
HETATM   12 CL1  UNL     1    -136.107-186.478 298.072  1.00  0.00    -0.117 Cl
HETATM   13  C9  UNL     1    -135.499-185.107 295.669  1.00  0.00     0.034 A 
HETATM   14  C11 UNL     1    -136.817-184.593 296.078  1.00  0.00     0.080 A 
HETATM   15  C10 UNL     1    -135.436-186.487 295.082  1.00  0.00     0.014 C 
HETATM   16 CL2  UNL     1    -138.197-185.645 295.813  1.00  0.00    -0.115 Cl
ENDBRANCH   5   8
ENDBRANCH   3   4
TORSDOF 2
ENDMDL
MODEL 2
REMARK VINA RESULT: -4.662797837      2.089      2.838
REMARK  2 active torsions:
REMARK  status: ('A' for Active; 'I' for Inactive)
REMARK    1  A    between atoms: C3_3  and  N1_4 
REMARK       I    between atoms: N1_4  and  C4_6 
REMARK    2  A    between atoms: C4_6  and  C5_8 
ROOT
HETATM    1  C1  UNL     1    -140.643-182.337 301.012  1.00  0.00     0.014 C 
HETATM    2  C2  UNL     1    -139.490-182.539 300.726  1.00  0.00    -0.098 C 
HETATM    3  C3  UNL     1    -138.077-182.812 300.367  1.00  0.00     0.216 C 
ENDROOT
BRANCH   3   4
HETATM    4  N1  UNL     1    -137.979-183.599 299.175  1.00  0.00    -0.350 N 
HETATM    5  C4  UNL     1    -136.806-184.325 298.863  1.00  0.00     0.228 C 
HETATM    6  O1  UNL     1    -135.851-184.250 299.679  1.00  0.00    -0.273 OA
ATOM      7  H1  UNL     1    -138.773-183.636 298.536  1.00  0.00     0.163 HD
BRANCH   5   8
HETATM    8  C5  UNL     1    -136.641-185.151 297.658  1.00  0.00     0.062 C 
HETATM    9  C6  UNL     1    -136.239-186.565 298.056  1.00  0.00     0.027 C 
HETATM   10  C7  UNL     1    -137.876-185.103 296.789  1.00  0.00     0.049 C 
HETATM   11  C8  UNL     1    -137.107-184.290 295.806  1.00  0.00     0.066 A 
HETATM   12 CL1  UNL     1    -137.541-182.620 295.476  1.00  0.00    -0.117 Cl
HETATM   13  C9  UNL     1    -135.953-184.943 295.157  1.00  0.00     0.034 A 
HETATM   14  C11 UNL     1    -135.786-184.558 296.568  1.00  0.00     0.080 A 
HETATM   15  C10 UNL     1    -135.242-184.124 294.118  1.00  0.00     0.014 C 
HETATM   16 CL2  UNL     1    -134.744-183.184 296.900  1.00  0.00    -0.115 Cl
ENDBRANCH   5   8
ENDBRANCH   3   4
TORSDOF 2
ENDMDL
MODEL 3
REMARK VINA RESULT: -4.634631788      1.328      1.593
REMARK  2 active torsions:
REMARK  status: ('A' for Active; 'I' for Inactive)
REMARK    1  A    between atoms: C3_3  and  N1_4 
REMARK       I    between atoms: N1_4  and  C4_6 
REMARK    2  A    between atoms: C4_6  and  C5_8 
ROOT
HETATM    1  C1  UNL     1    -139.807-182.711 301.027  1.00  0.00     0.014 C 
HETATM    2  C2  UNL     1    -139.798-183.043 299.868  1.00  0.00    -0.098 C 
HETATM    3  C3  UNL     1    -139.763-183.447 298.442  1.00  0.00     0.216 C 
ENDROOT
BRANCH   3   4
HETATM    4  N1  UNL     1    -138.588-184.208 298.139  1.00  0.00    -0.350 N 
HETATM    5  C4  UNL     1    -137.521-183.655 297.395  1.00  0.00     0.228 C 
HETATM    6  O1  UNL     1    -137.646-182.464 297.008  1.00  0.00    -0.273 OA
ATOM      7  H1  UNL     1    -138.521-185.171 298.468  1.00  0.00     0.163 HD
BRANCH   5   8
HETATM    8  C5  UNL     1    -136.290-184.382 297.050  1.00  0.00     0.062 C 
HETATM    9  C6  UNL     1    -135.088-183.459 297.209  1.00  0.00     0.027 C 
HETATM   10  C7  UNL     1    -136.169-185.660 297.845  1.00  0.00     0.049 C 
HETATM   11  C8  UNL     1    -136.447-186.419 296.594  1.00  0.00     0.066 A 
HETATM   12 CL1  UNL     1    -137.913-187.372 296.419  1.00  0.00    -0.117 Cl
HETATM   13  C9  UNL     1    -135.454-186.303 295.508  1.00  0.00     0.034 A 
HETATM   14  C11 UNL     1    -136.314-185.132 295.744  1.00  0.00     0.080 A 
HETATM   15  C10 UNL     1    -135.723-187.136 294.288  1.00  0.00     0.014 C 
HETATM   16 CL2  UNL     1    -137.563-184.810 294.553  1.00  0.00    -0.115 Cl
ENDBRANCH   5   8
ENDBRANCH   3   4
TORSDOF 2
ENDMDL
MODEL 4
REMARK VINA RESULT: -4.596853417      2.050      2.484
REMARK  2 active torsions:
REMARK  status: ('A' for Active; 'I' for Inactive)
REMARK    1  A    between atoms: C3_3  and  N1_4 
REMARK       I    between atoms: N1_4  and  C4_6 
REMARK    2  A    between atoms: C4_6  and  C5_8 
ROOT
HETATM    1  C1  UNL     1    -139.884-183.082 300.607  1.00  0.00     0.014 C 
HETATM    2  C2  UNL     1    -138.717-183.241 300.347  1.00  0.00    -0.098 C 
HETATM    3  C3  UNL     1    -137.289-183.453 300.009  1.00  0.00     0.216 C 
ENDROOT
BRANCH   3   4
HETATM    4  N1  UNL     1    -137.101-183.623 298.599  1.00  0.00    -0.350 N 
HETATM    5  C4  UNL     1    -136.537-184.805 298.066  1.00  0.00     0.228 C 
HETATM    6  O1  UNL     1    -136.207-185.703 298.884  1.00  0.00    -0.273 OA
ATOM      7  H1  UNL     1    -137.379-182.874 297.966  1.00  0.00     0.163 HD
BRANCH   5   8
HETATM    8  C5  UNL     1    -136.317-185.043 296.632  1.00  0.00     0.062 C 
HETATM    9  C6  UNL     1    -135.454-183.928 296.053  1.00  0.00     0.027 C 
HETATM   10  C7  UNL     1    -135.753-186.422 296.387  1.00  0.00     0.049 C 
HETATM   11  C8  UNL     1    -137.065-186.814 295.804  1.00  0.00     0.066 A 
HETATM   12 CL1  UNL     1    -138.079-188.020 296.582  1.00  0.00    -0.117 Cl
HETATM   13  C9  UNL     1    -137.483-186.119 294.570  1.00  0.00     0.034 A 
HETATM   14  C11 UNL     1    -137.549-185.343 295.820  1.00  0.00     0.080 A 
HETATM   15  C10 UNL     1    -138.775-186.586 293.965  1.00  0.00     0.014 C 
HETATM   16 CL2  UNL     1    -139.148-185.018 296.469  1.00  0.00    -0.115 Cl
ENDBRANCH   5   8
ENDBRANCH   3   4
TORSDOF 2
ENDMDL
MODEL 5
REMARK VINA RESULT: -4.594586766      9.547     11.313
REMARK  2 active torsions:
REMARK  status: ('A' for Active; 'I' for Inactive)
REMARK    1  A    between atoms: C3_3  and  N1_4 
REMARK       I    between atoms: N1_4  and  C4_6 
REMARK    2  A    between atoms: C4_6  and  C5_8 
ROOT
HETATM    1  C1  UNL     1    -139.595-183.870 308.040  1.00  0.00     0.014 C 
HETATM    2  C2  UNL     1    -140.739-183.561 307.817  1.00  0.00    -0.098 C 
HETATM    3  C3  UNL     1    -142.138-183.158 307.534  1.00  0.00     0.216 C 
ENDROOT
BRANCH   3   4
HETATM    4  N1  UNL     1    -142.234-182.405 306.320  1.00  0.00    -0.350 N 
HETATM    5  C4  UNL     1    -143.486-182.037 305.777  1.00  0.00     0.228 C 
HETATM    6  O1  UNL     1    -144.515-182.400 306.404  1.00  0.00    -0.273 OA
ATOM      7  H1  UNL     1    -141.380-182.127 305.837  1.00  0.00     0.163 HD
BRANCH   5   8
HETATM    8  C5  UNL     1    -143.655-181.265 304.536  1.00  0.00     0.062 C 
HETATM    9  C6  UNL     1    -142.618-181.708 303.511  1.00  0.00     0.027 C 
HETATM   10  C7  UNL     1    -145.074-181.353 304.027  1.00  0.00     0.049 C 
HETATM   11  C8  UNL     1    -145.264-179.930 304.421  1.00  0.00     0.066 A 
HETATM   12 CL1  UNL     1    -146.386-179.486 305.699  1.00  0.00    -0.117 Cl
HETATM   13  C9  UNL     1    -144.443-178.925 303.716  1.00  0.00     0.034 A 
HETATM   14  C11 UNL     1    -143.749-179.770 304.701  1.00  0.00     0.080 A 
HETATM   15  C10 UNL     1    -144.709-177.494 304.083  1.00  0.00     0.014 C 
HETATM   16 CL2  UNL     1    -143.275-179.007 306.209  1.00  0.00    -0.115 Cl
ENDBRANCH   5   8
ENDBRANCH   3   4
TORSDOF 2
ENDMDL
