MODEL 1
REMARK VINA RESULT: -5.585662159      0.000      0.000
REMARK  3 active torsions:
REMARK  status: ('A' for Active; 'I' for Inactive)
REMARK    1  A    between atoms: O1_1  and  C1_3 
REMARK    2  A    between atoms: C4_7  and  C5_8 
REMARK    3  A    between atoms: C6_9  and  C7_10 
ROOT
HETATM    1  C1  UNL     1       3.760  31.689 -25.141  1.00  0.00     0.187 A 
HETATM    2  C2  UNL     1       2.563  32.364 -25.208  1.00  0.00     0.105 A 
HETATM    3  C3  UNL     1       1.681  31.675 -24.387  1.00  0.00     0.133 A 
HETATM    4  O2  UNL     1       0.468  31.607 -23.905  1.00  0.00    -0.289 OA
HETATM    5  C4  UNL     1       0.279  30.611 -23.106  1.00  0.00     0.150 A 
HETATM    6  N1  UNL     1       1.516  29.978 -23.082  1.00  0.00    -0.315 N 
ATOM      7  H1  UNL     1       1.729  29.138 -22.542  1.00  0.00     0.170 HD
HETATM    8  C11 UNL     1       2.387  30.620 -23.865  1.00  0.00     0.186 A 
HETATM    9  O4  UNL     1       3.609  30.668 -24.337  1.00  0.00    -0.268 OA
ENDROOT
BRANCH   5  10
HETATM   10  C5  UNL     1      -0.819  30.104 -22.342  1.00  0.00     0.059 C 
HETATM   11  C6  UNL     1      -1.060  29.067 -21.665  1.00  0.00     0.041 C 
BRANCH  11  12
HETATM   12  C7  UNL     1      -0.318  27.887 -21.343  1.00  0.00     0.075 A 
HETATM   13  C8  UNL     1      -0.679  26.584 -21.179  1.00  0.00     0.039 A 
HETATM   14  C9  UNL     1       0.477  25.862 -20.868  1.00  0.00     0.027 A 
HETATM   15  C10 UNL     1       1.489  26.763 -20.858  1.00  0.00     0.142 A 
HETATM   16  O3  UNL     1       1.033  27.933 -21.132  1.00  0.00    -0.323 OA
ENDBRANCH  11  12
ENDBRANCH   5  10
BRANCH   1  17
HETATM   17  O1  UNL     1       4.961  31.979 -25.782  1.00  0.00    -0.341 OA
ATOM     18  H1  UNL     1       5.194  31.850 -26.694  1.00  0.00     0.220 HD
ENDBRANCH   1  17
TORSDOF 3
ENDMDL
MODEL 2
REMARK VINA RESULT: -5.494757215      4.044      5.664
REMARK  3 active torsions:
REMARK  status: ('A' for Active; 'I' for Inactive)
REMARK    1  A    between atoms: O1_1  and  C1_3 
REMARK    2  A    between atoms: C4_7  and  C5_8 
REMARK    3  A    between atoms: C6_9  and  C7_10 
ROOT
HETATM    1  C1  UNL     1      -4.379  26.578 -26.043  1.00  0.00     0.187 A 
HETATM    2  C2  UNL     1      -4.436  27.953 -26.060  1.00  0.00     0.105 A 
HETATM    3  C3  UNL     1      -3.531  28.392 -25.105  1.00  0.00     0.133 A 
HETATM    4  O2  UNL     1      -2.988  29.421 -24.509  1.00  0.00    -0.289 OA
HETATM    5  C4  UNL     1      -2.116  29.106 -23.611  1.00  0.00     0.150 A 
HETATM    6  N1  UNL     1      -2.107  27.716 -23.646  1.00  0.00    -0.315 N 
ATOM      7  H1  UNL     1      -1.521  27.124 -23.056  1.00  0.00     0.170 HD
HETATM    8  C11 UNL     1      -2.971  27.264 -24.559  1.00  0.00     0.186 A 
HETATM    9  O4  UNL     1      -3.502  26.217 -25.143  1.00  0.00    -0.268 OA
ENDROOT
BRANCH   5  10
HETATM   10  C5  UNL     1      -1.269  29.822 -22.708  1.00  0.00     0.059 C 
HETATM   11  C6  UNL     1      -0.346  29.534 -21.897  1.00  0.00     0.041 C 
BRANCH  11  12
HETATM   12  C7  UNL     1       0.295  28.317 -21.501  1.00  0.00     0.075 A 
HETATM   13  C8  UNL     1       1.602  27.971 -21.340  1.00  0.00     0.039 A 
HETATM   14  C9  UNL     1       1.636  26.634 -20.932  1.00  0.00     0.027 A 
HETATM   15  C10 UNL     1       0.344  26.230 -20.865  1.00  0.00     0.142 A 
HETATM   16  O3  UNL     1      -0.432  27.200 -21.193  1.00  0.00    -0.323 OA
ENDBRANCH  11  12
ENDBRANCH   5  10
BRANCH   1  17
HETATM   17  O1  UNL     1      -5.094  25.667 -26.816  1.00  0.00    -0.341 OA
ATOM     18  H1  UNL     1      -4.907  25.357 -27.694  1.00  0.00     0.220 HD
ENDBRANCH   1  17
TORSDOF 3
ENDMDL
MODEL 3
REMARK VINA RESULT: -5.475664023      4.032      6.005
REMARK  3 active torsions:
REMARK  status: ('A' for Active; 'I' for Inactive)
REMARK    1  A    between atoms: O1_1  and  C1_3 
REMARK    2  A    between atoms: C4_7  and  C5_8 
REMARK    3  A    between atoms: C6_9  and  C7_10 
ROOT
HETATM    1  C1  UNL     1      -3.547  24.926 -25.526  1.00  0.00     0.187 A 
HETATM    2  C2  UNL     1      -3.960  26.191 -25.870  1.00  0.00     0.105 A 
HETATM    3  C3  UNL     1      -3.271  27.065 -25.039  1.00  0.00     0.133 A 
HETATM    4  O2  UNL     1      -3.061  28.310 -24.702  1.00  0.00    -0.289 OA
HETATM    5  C4  UNL     1      -2.202  28.455 -23.749  1.00  0.00     0.150 A 
HETATM    6  N1  UNL     1      -1.828  27.150 -23.451  1.00  0.00    -0.315 N 
ATOM      7  H1  UNL     1      -1.152  26.888 -22.733  1.00  0.00     0.170 HD
HETATM    8  C11 UNL     1      -2.477  26.285 -24.236  1.00  0.00     0.186 A 
HETATM    9  O4  UNL     1      -2.672  25.029 -24.559  1.00  0.00    -0.268 OA
ENDROOT
BRANCH   5  10
HETATM   10  C5  UNL     1      -1.639  29.560 -23.035  1.00  0.00     0.059 C 
HETATM   11  C6  UNL     1      -0.555  29.804 -22.436  1.00  0.00     0.041 C 
BRANCH  11  12
HETATM   12  C7  UNL     1       0.643  29.061 -22.191  1.00  0.00     0.075 A 
HETATM   13  C8  UNL     1       1.915  29.180 -22.660  1.00  0.00     0.039 A 
HETATM   14  C9  UNL     1       2.678  28.167 -22.071  1.00  0.00     0.027 A 
HETATM   15  C10 UNL     1       1.829  27.479 -21.269  1.00  0.00     0.142 A 
HETATM   16  O3  UNL     1       0.654  27.993 -21.337  1.00  0.00    -0.323 OA
ENDBRANCH  11  12
ENDBRANCH   5  10
BRANCH   1  17
HETATM   17  O1  UNL     1      -3.942  23.704 -26.065  1.00  0.00    -0.341 OA
ATOM     18  H1  UNL     1      -3.525  22.855 -25.980  1.00  0.00     0.220 HD
ENDBRANCH   1  17
TORSDOF 3
ENDMDL
MODEL 4
REMARK VINA RESULT: -5.410096185      3.788      4.312
REMARK  3 active torsions:
REMARK  status: ('A' for Active; 'I' for Inactive)
REMARK    1  A    between atoms: O1_1  and  C1_3 
REMARK    2  A    between atoms: C4_7  and  C5_8 
REMARK    3  A    between atoms: C6_9  and  C7_10 
ROOT
HETATM    1  C1  UNL     1       5.315  25.923 -27.067  1.00  0.00     0.187 A 
HETATM    2  C2  UNL     1       4.031  26.373 -27.268  1.00  0.00     0.105 A 
HETATM    3  C3  UNL     1       3.706  27.134 -26.154  1.00  0.00     0.133 A 
HETATM    4  O2  UNL     1       2.798  27.862 -25.559  1.00  0.00    -0.289 OA
HETATM    5  C4  UNL     1       3.172  28.333 -24.417  1.00  0.00     0.150 A 
HETATM    6  N1  UNL     1       4.466  27.846 -24.276  1.00  0.00    -0.315 N 
ATOM      7  H1  UNL     1       5.072  28.027 -23.475  1.00  0.00     0.170 HD
HETATM    8  C11 UNL     1       4.807  27.107 -25.336  1.00  0.00     0.186 A 
HETATM    9  O4  UNL     1       5.733  26.381 -25.916  1.00  0.00    -0.268 OA
ENDROOT
BRANCH   5  10
HETATM   10  C5  UNL     1       2.583  29.153 -23.404  1.00  0.00     0.059 C 
HETATM   11  C6  UNL     1       1.813  28.979 -22.420  1.00  0.00     0.041 C 
BRANCH  11  12
HETATM   12  C7  UNL     1       1.156  27.842 -21.852  1.00  0.00     0.075 A 
HETATM   13  C8  UNL     1       1.571  26.867 -20.996  1.00  0.00     0.039 A 
HETATM   14  C9  UNL     1       0.492  26.004 -20.785  1.00  0.00     0.027 A 
HETATM   15  C10 UNL     1      -0.531  26.497 -21.525  1.00  0.00     0.142 A 
HETATM   16  O3  UNL     1      -0.150  27.558 -22.141  1.00  0.00    -0.323 OA
ENDBRANCH  11  12
ENDBRANCH   5  10
BRANCH   1  17
HETATM   17  O1  UNL     1       6.097  25.122 -27.894  1.00  0.00    -0.341 OA
ATOM     18  H1  UNL     1       6.749  25.385 -28.533  1.00  0.00     0.220 HD
ENDBRANCH   1  17
TORSDOF 3
ENDMDL
MODEL 5
REMARK VINA RESULT: -5.400964765      1.976      3.608
REMARK  3 active torsions:
REMARK  status: ('A' for Active; 'I' for Inactive)
REMARK    1  A    between atoms: O1_1  and  C1_3 
REMARK    2  A    between atoms: C4_7  and  C5_8 
REMARK    3  A    between atoms: C6_9  and  C7_10 
ROOT
HETATM    1  C1  UNL     1      -1.944  32.862 -23.965  1.00  0.00     0.187 A 
HETATM    2  C2  UNL     1      -0.770  32.935 -24.677  1.00  0.00     0.105 A 
HETATM    3  C3  UNL     1       0.050  31.931 -24.180  1.00  0.00     0.133 A 
HETATM    4  O2  UNL     1       1.211  31.335 -24.255  1.00  0.00    -0.289 OA
HETATM    5  C4  UNL     1       1.354  30.363 -23.418  1.00  0.00     0.150 A 
HETATM    6  N1  UNL     1       0.143  30.344 -22.736  1.00  0.00    -0.315 N 
ATOM      7  H1  UNL     1      -0.094  29.690 -21.990  1.00  0.00     0.170 HD
HETATM    8  C11 UNL     1      -0.668  31.302 -23.194  1.00  0.00     0.186 A 
HETATM    9  O4  UNL     1      -1.839  31.885 -23.102  1.00  0.00    -0.268 OA
ENDROOT
BRANCH   5  10
HETATM   10  C5  UNL     1       2.388  29.427 -23.101  1.00  0.00     0.059 C 
HETATM   11  C6  UNL     1       2.463  28.308 -22.522  1.00  0.00     0.041 C 
BRANCH  11  12
HETATM   12  C7  UNL     1       1.512  27.439 -21.897  1.00  0.00     0.075 A 
HETATM   13  C8  UNL     1       1.621  26.513 -20.905  1.00  0.00     0.039 A 
HETATM   14  C9  UNL     1       0.351  25.962 -20.702  1.00  0.00     0.027 A 
HETATM   15  C10 UNL     1      -0.470  26.583 -21.584  1.00  0.00     0.142 A 
HETATM   16  O3  UNL     1       0.198  27.436 -22.275  1.00  0.00    -0.323 OA
ENDBRANCH  11  12
ENDBRANCH   5  10
BRANCH   1  17
HETATM   17  O1  UNL     1      -3.085  33.651 -24.084  1.00  0.00    -0.341 OA
ATOM     18  H1  UNL     1      -3.997  33.391 -24.022  1.00  0.00     0.220 HD
ENDBRANCH   1  17
TORSDOF 3
ENDMDL
