MODEL 1
REMARK VINA RESULT: -4.289478456      0.000      0.000
REMARK  4 active torsions:
REMARK  status: ('A' for Active; 'I' for Inactive)
REMARK    1  A    between atoms: N1_2  and  C2_3 
REMARK    2  A    between atoms: N1_2  and  N2_8 
REMARK    3  A    between atoms: N2_8  and  O1_9 
REMARK    4  A    between atoms: N3_11  and  O2_13 
ROOT
HETATM    1  C1  UNL     1      -6.857  36.791 -21.090  1.00  0.00     0.176 C 
HETATM    2  N1  UNL     1      -8.241  37.147 -20.828  1.00  0.00    -0.273 N 
ENDROOT
BRANCH   2   3
HETATM    3  C2  UNL     1      -9.191  37.224 -21.920  1.00  0.00     0.189 C 
HETATM    4  C3  UNL     1      -8.459  36.763 -23.154  1.00  0.00     0.125 C 
HETATM    5  S1  UNL     1      -9.612  36.844 -24.549  1.00  0.00    -0.083 SA
HETATM    6  S2  UNL     1     -10.482  38.788 -24.186  1.00  0.00    -0.023 SA
HETATM    7  S3  UNL     1      -9.704  38.933 -22.177  1.00  0.00    -0.058 SA
ENDBRANCH   2   3
BRANCH   2   8
HETATM    8  N2  UNL     1      -8.583  37.402 -19.497  1.00  0.00    -0.076 N 
HETATM    9  N3  UNL     1      -9.758  37.221 -19.048  1.00  0.00    -0.168 N 
ATOM     10  H3  UNL     1     -10.463  36.877 -19.700  1.00  0.00     0.220 HD
BRANCH   8  11
HETATM   11  O1  UNL     1      -7.656  37.869 -18.582  1.00  0.00    -0.252 OA
ATOM     12  H1  UNL     1      -7.671  38.765 -18.267  1.00  0.00     0.248 HD
ENDBRANCH   8  11
BRANCH   9  13
HETATM   13  O2  UNL     1     -10.143  37.449 -17.778  1.00  0.00    -0.271 OA
ATOM     14  H2  UNL     1     -10.198  36.788 -17.098  1.00  0.00     0.246 HD
ENDBRANCH   9  13
ENDBRANCH   2   8
TORSDOF 4
ENDMDL
MODEL 2
REMARK VINA RESULT: -4.207842126     12.874     13.589
REMARK  4 active torsions:
REMARK  status: ('A' for Active; 'I' for Inactive)
REMARK    1  A    between atoms: N1_2  and  C2_3 
REMARK    2  A    between atoms: N1_2  and  N2_8 
REMARK    3  A    between atoms: N2_8  and  O1_9 
REMARK    4  A    between atoms: N3_11  and  O2_13 
ROOT
HETATM    1  C1  UNL     1      -7.803  25.379 -26.483  1.00  0.00     0.176 C 
HETATM    2  N1  UNL     1      -8.698  25.382 -25.339  1.00  0.00    -0.273 N 
ENDROOT
BRANCH   2   3
HETATM    3  C2  UNL     1      -8.963  24.152 -24.620  1.00  0.00     0.189 C 
HETATM    4  C3  UNL     1      -7.817  23.223 -24.929  1.00  0.00     0.125 C 
HETATM    5  S1  UNL     1      -8.107  21.667 -24.049  1.00  0.00    -0.083 SA
HETATM    6  S2  UNL     1     -10.198  21.375 -24.511  1.00  0.00    -0.023 SA
HETATM    7  S3  UNL     1     -10.481  23.392 -25.226  1.00  0.00    -0.058 SA
ENDBRANCH   2   3
BRANCH   2   8
HETATM    8  N2  UNL     1      -9.268  26.610 -24.991  1.00  0.00    -0.076 N 
HETATM    9  N3  UNL     1      -8.779  27.356 -24.086  1.00  0.00    -0.168 N 
ATOM     10  H3  UNL     1      -7.940  27.029 -23.608  1.00  0.00     0.220 HD
BRANCH   8  11
HETATM   11  O1  UNL     1     -10.407  27.089 -25.614  1.00  0.00    -0.252 OA
ATOM     12  H1  UNL     1     -11.216  27.234 -25.138  1.00  0.00     0.248 HD
ENDBRANCH   8  11
BRANCH   9  13
HETATM   13  O2  UNL     1      -9.285  28.546 -23.709  1.00  0.00    -0.271 OA
ATOM     14  H2  UNL     1     -10.003  28.664 -23.099  1.00  0.00     0.246 HD
ENDBRANCH   9  13
ENDBRANCH   2   8
TORSDOF 4
ENDMDL
MODEL 3
REMARK VINA RESULT: -4.165142722      2.496      2.901
REMARK  4 active torsions:
REMARK  status: ('A' for Active; 'I' for Inactive)
REMARK    1  A    between atoms: N1_2  and  C2_3 
REMARK    2  A    between atoms: N1_2  and  N2_8 
REMARK    3  A    between atoms: N2_8  and  O1_9 
REMARK    4  A    between atoms: N3_11  and  O2_13 
ROOT
HETATM    1  C1  UNL     1     -10.108  37.149 -21.681  1.00  0.00     0.176 C 
HETATM    2  N1  UNL     1      -8.941  37.522 -20.902  1.00  0.00    -0.273 N 
ENDROOT
BRANCH   2   3
HETATM    3  C2  UNL     1      -7.636  37.582 -21.531  1.00  0.00     0.189 C 
HETATM    4  C3  UNL     1      -7.742  36.787 -22.807  1.00  0.00     0.125 C 
HETATM    5  S1  UNL     1      -6.129  36.832 -23.629  1.00  0.00    -0.083 SA
HETATM    6  S2  UNL     1      -4.849  36.433 -21.934  1.00  0.00    -0.023 SA
HETATM    7  S3  UNL     1      -6.403  36.792 -20.479  1.00  0.00    -0.058 SA
ENDBRANCH   2   3
BRANCH   2   8
HETATM    8  N2  UNL     1      -9.152  37.810 -19.551  1.00  0.00    -0.076 N 
HETATM    9  N3  UNL     1      -9.646  36.963 -18.743  1.00  0.00    -0.168 N 
ATOM     10  H3  UNL     1      -9.891  36.045 -19.113  1.00  0.00     0.220 HD
BRANCH   8  11
HETATM   11  O1  UNL     1      -8.835  39.043 -19.009  1.00  0.00    -0.252 OA
ATOM     12  H1  UNL     1      -9.330  39.826 -19.220  1.00  0.00     0.248 HD
ENDBRANCH   8  11
BRANCH   9  13
HETATM   13  O2  UNL     1      -9.872  37.185 -17.434  1.00  0.00    -0.271 OA
ATOM     14  H2  UNL     1      -9.244  37.565 -16.829  1.00  0.00     0.246 HD
ENDBRANCH   9  13
ENDBRANCH   2   8
TORSDOF 4
ENDMDL
MODEL 4
REMARK VINA RESULT: -4.153670592      1.363      1.729
REMARK  4 active torsions:
REMARK  status: ('A' for Active; 'I' for Inactive)
REMARK    1  A    between atoms: N1_2  and  C2_3 
REMARK    2  A    between atoms: N1_2  and  N2_8 
REMARK    3  A    between atoms: N2_8  and  O1_9 
REMARK    4  A    between atoms: N3_11  and  O2_13 
ROOT
HETATM    1  C1  UNL     1      -9.076  39.660 -20.905  1.00  0.00     0.176 C 
HETATM    2  N1  UNL     1      -8.805  38.247 -20.713  1.00  0.00    -0.273 N 
ENDROOT
BRANCH   2   3
HETATM    3  C2  UNL     1      -8.667  37.370 -21.859  1.00  0.00     0.189 C 
HETATM    4  C3  UNL     1      -7.729  38.062 -22.814  1.00  0.00     0.125 C 
HETATM    5  S1  UNL     1      -7.529  37.000 -24.267  1.00  0.00    -0.083 SA
HETATM    6  S2  UNL     1      -9.593  36.462 -24.610  1.00  0.00    -0.023 SA
HETATM    7  S3  UNL     1     -10.259  37.169 -22.681  1.00  0.00    -0.058 SA
ENDBRANCH   2   3
BRANCH   2   8
HETATM    8  N2  UNL     1      -8.690  37.803 -19.392  1.00  0.00    -0.076 N 
HETATM    9  N3  UNL     1      -9.683  37.367 -18.731  1.00  0.00    -0.168 N 
ATOM     10  H3  UNL     1     -10.590  37.348 -19.198  1.00  0.00     0.220 HD
BRANCH   8  11
HETATM   11  O1  UNL     1      -7.479  37.813 -18.722  1.00  0.00    -0.252 OA
ATOM     12  H1  UNL     1      -7.431  37.887 -17.776  1.00  0.00     0.248 HD
ENDBRANCH   8  11
BRANCH   9  13
HETATM   13  O2  UNL     1      -9.631  36.928 -17.458  1.00  0.00    -0.271 OA
ATOM     14  H2  UNL     1      -8.939  37.132 -16.840  1.00  0.00     0.246 HD
ENDBRANCH   9  13
ENDBRANCH   2   8
TORSDOF 4
ENDMDL
MODEL 5
REMARK VINA RESULT: -4.118998984      2.198      2.586
REMARK  4 active torsions:
REMARK  status: ('A' for Active; 'I' for Inactive)
REMARK    1  A    between atoms: N1_2  and  C2_3 
REMARK    2  A    between atoms: N1_2  and  N2_8 
REMARK    3  A    between atoms: N2_8  and  O1_9 
REMARK    4  A    between atoms: N3_11  and  O2_13 
ROOT
HETATM    1  C1  UNL     1     -10.042  37.143 -21.467  1.00  0.00     0.176 C 
HETATM    2  N1  UNL     1      -8.788  37.503 -20.829  1.00  0.00    -0.273 N 
ENDROOT
BRANCH   2   3
HETATM    3  C2  UNL     1      -7.644  37.882 -21.635  1.00  0.00     0.189 C 
HETATM    4  C3  UNL     1      -8.183  38.238 -22.997  1.00  0.00     0.125 C 
HETATM    5  S1  UNL     1      -6.784  38.717 -24.042  1.00  0.00    -0.083 SA
HETATM    6  S2  UNL     1      -5.403  37.130 -23.548  1.00  0.00    -0.023 SA
HETATM    7  S3  UNL     1      -6.526  36.480 -21.822  1.00  0.00    -0.058 SA
ENDBRANCH   2   3
BRANCH   2   8
HETATM    8  N2  UNL     1      -8.759  37.462 -19.432  1.00  0.00    -0.076 N 
HETATM    9  N3  UNL     1      -9.766  37.115 -18.739  1.00  0.00    -0.168 N 
ATOM     10  H3  UNL     1     -10.618  36.861 -19.240  1.00  0.00     0.220 HD
BRANCH   8  11
HETATM   11  O1  UNL     1      -7.625  37.799 -18.715  1.00  0.00    -0.252 OA
ATOM     12  H1  UNL     1      -7.433  38.698 -18.474  1.00  0.00     0.248 HD
ENDBRANCH   8  11
BRANCH   9  13
HETATM   13  O2  UNL     1      -9.796  37.057 -17.394  1.00  0.00    -0.271 OA
ATOM     14  H2  UNL     1      -9.778  36.256 -16.883  1.00  0.00     0.246 HD
ENDBRANCH   9  13
ENDBRANCH   2   8
TORSDOF 4
ENDMDL
