MODEL 1
REMARK VINA RESULT: -5.056079542      0.000      0.000
REMARK  5 active torsions:
REMARK  status: ('A' for Active; 'I' for Inactive)
REMARK    1  A    between atoms: N1_1  and  N2_4 
REMARK    2  A    between atoms: N3_6  and  O1_7 
REMARK    3  A    between atoms: N3_6  and  C1_9 
REMARK    4  A    between atoms: C4_12  and  N4_13 
REMARK    5  A    between atoms: C5_15  and  C6_16 
ROOT
HETATM    1  C1  UNL     1      -5.020  28.628 -25.266  1.00  0.00     0.196 A 
HETATM    2  C2  UNL     1      -4.341  29.766 -25.640  1.00  0.00     0.065 A 
HETATM    3  C3  UNL     1      -3.061  29.619 -25.141  1.00  0.00     0.061 A 
HETATM    4  C4  UNL     1      -3.022  28.398 -24.485  1.00  0.00     0.150 A 
HETATM    5  O3  UNL     1      -4.212  27.860 -24.595  1.00  0.00    -0.273 OA
ENDROOT
BRANCH   1   6
HETATM    6  N3  UNL     1      -6.382  28.332 -25.559  1.00  0.00    -0.125 N 
HETATM    7  N2  UNL     1      -6.836  27.163 -25.332  1.00  0.00    -0.221 N 
ATOM      8  H2  UNL     1      -6.216  26.454 -24.942  1.00  0.00     0.210 HD
BRANCH   7   9
HETATM    9  N1  UNL     1      -8.154  26.834 -25.604  1.00  0.00    -0.329 N 
ATOM     10  H12 UNL     1      -8.860  27.566 -25.526  1.00  0.00     0.178 HD
ATOM     11  H11 UNL     1      -8.422  25.889 -25.876  1.00  0.00     0.178 HD
ENDBRANCH   7   9
BRANCH   6  12
HETATM   12  O1  UNL     1      -7.224  29.274 -26.083  1.00  0.00    -0.265 OA
ATOM     13  H1  UNL     1      -6.898  29.846 -26.767  1.00  0.00     0.247 HD
ENDBRANCH   6  12
ENDBRANCH   1   6
BRANCH   4  14
HETATM   14  N4  UNL     1      -1.910  27.821 -23.814  1.00  0.00    -0.344 N 
HETATM   15  C5  UNL     1      -1.481  28.295 -22.696  1.00  0.00     0.127 C 
ATOM     16  H4  UNL     1      -1.442  27.013 -24.227  1.00  0.00     0.167 HD
BRANCH  15  17
HETATM   17  C6  UNL     1      -0.344  27.706 -22.010  1.00  0.00     0.090 A 
HETATM   18  C7  UNL     1      -0.354  26.481 -21.354  1.00  0.00     0.040 A 
HETATM   19  C8  UNL     1       0.910  26.274 -20.832  1.00  0.00     0.027 A 
HETATM   20  C9  UNL     1       1.628  27.406 -21.208  1.00  0.00     0.142 A 
HETATM   21  O2  UNL     1       0.844  28.209 -21.893  1.00  0.00    -0.321 OA
ENDBRANCH  15  17
ENDBRANCH   4  14
TORSDOF 5
ENDMDL
MODEL 2
REMARK VINA RESULT: -5.044336234      1.275      1.453
REMARK  5 active torsions:
REMARK  status: ('A' for Active; 'I' for Inactive)
REMARK    1  A    between atoms: N1_1  and  N2_4 
REMARK    2  A    between atoms: N3_6  and  O1_7 
REMARK    3  A    between atoms: N3_6  and  C1_9 
REMARK    4  A    between atoms: C4_12  and  N4_13 
REMARK    5  A    between atoms: C5_15  and  C6_16 
ROOT
HETATM    1  C1  UNL     1      -5.790  27.830 -25.434  1.00  0.00     0.196 A 
HETATM    2  C2  UNL     1      -5.191  27.223 -26.515  1.00  0.00     0.065 A 
HETATM    3  C3  UNL     1      -3.844  27.168 -26.214  1.00  0.00     0.061 A 
HETATM    4  C4  UNL     1      -3.686  27.744 -24.962  1.00  0.00     0.150 A 
HETATM    5  O3  UNL     1      -4.875  28.115 -24.553  1.00  0.00    -0.273 OA
ENDROOT
BRANCH   1   6
HETATM    6  N3  UNL     1      -7.180  28.104 -25.292  1.00  0.00    -0.125 N 
HETATM    7  N2  UNL     1      -7.851  27.513 -24.385  1.00  0.00    -0.221 N 
ATOM      8  H2  UNL     1      -7.381  26.849 -23.770  1.00  0.00     0.210 HD
BRANCH   7   9
HETATM    9  N1  UNL     1      -9.205  27.751 -24.215  1.00  0.00    -0.329 N 
ATOM     10  H12 UNL     1      -9.520  28.718 -24.150  1.00  0.00     0.178 HD
ATOM     11  H11 UNL     1      -9.877  26.986 -24.154  1.00  0.00     0.178 HD
ENDBRANCH   7   9
BRANCH   6  12
HETATM   12  O1  UNL     1      -7.823  28.992 -26.110  1.00  0.00    -0.265 OA
ATOM     13  H1  UNL     1      -8.251  28.664 -26.892  1.00  0.00     0.247 HD
ENDBRANCH   6  12
ENDBRANCH   1   6
BRANCH   4  14
HETATM   14  N4  UNL     1      -2.473  27.909 -24.241  1.00  0.00    -0.344 N 
HETATM   15  C5  UNL     1      -2.005  26.969 -23.493  1.00  0.00     0.127 C 
ATOM     16  H4  UNL     1      -1.962  28.789 -24.316  1.00  0.00     0.167 HD
BRANCH  15  17
HETATM   17  C6  UNL     1      -0.765  27.137 -22.755  1.00  0.00     0.090 A 
HETATM   18  C7  UNL     1      -0.477  26.542 -21.533  1.00  0.00     0.040 A 
HETATM   19  C8  UNL     1       0.792  26.945 -21.159  1.00  0.00     0.027 A 
HETATM   20  C9  UNL     1       1.209  27.777 -22.195  1.00  0.00     0.142 A 
HETATM   21  O2  UNL     1       0.258  27.853 -23.099  1.00  0.00    -0.321 OA
ENDBRANCH  15  17
ENDBRANCH   4  14
TORSDOF 5
ENDMDL
MODEL 3
REMARK VINA RESULT: -5.039884609     10.916     11.527
REMARK  5 active torsions:
REMARK  status: ('A' for Active; 'I' for Inactive)
REMARK    1  A    between atoms: N1_1  and  N2_4 
REMARK    2  A    between atoms: N3_6  and  O1_7 
REMARK    3  A    between atoms: N3_6  and  C1_9 
REMARK    4  A    between atoms: C4_12  and  N4_13 
REMARK    5  A    between atoms: C5_15  and  C6_16 
ROOT
HETATM    1  C1  UNL     1      -2.326  36.361 -16.579  1.00  0.00     0.196 A 
HETATM    2  C2  UNL     1      -2.509  35.050 -16.956  1.00  0.00     0.065 A 
HETATM    3  C3  UNL     1      -1.242  34.518 -17.089  1.00  0.00     0.061 A 
HETATM    4  C4  UNL     1      -0.345  35.531 -16.785  1.00  0.00     0.150 A 
HETATM    5  O3  UNL     1      -1.049  36.597 -16.490  1.00  0.00    -0.273 OA
ENDROOT
BRANCH   1   6
HETATM    6  N3  UNL     1      -3.356  37.311 -16.323  1.00  0.00    -0.125 N 
HETATM    7  N2  UNL     1      -3.710  37.550 -15.123  1.00  0.00    -0.221 N 
ATOM      8  H2  UNL     1      -3.249  37.057 -14.359  1.00  0.00     0.210 HD
BRANCH   7   9
HETATM    9  N1  UNL     1      -4.708  38.466 -14.833  1.00  0.00    -0.329 N 
ATOM     10  H12 UNL     1      -4.501  39.458 -14.946  1.00  0.00     0.178 HD
ATOM     11  H11 UNL     1      -5.629  38.167 -14.512  1.00  0.00     0.178 HD
ENDBRANCH   7   9
BRANCH   6  12
HETATM   12  O1  UNL     1      -3.982  37.979 -17.339  1.00  0.00    -0.265 OA
ATOM     13  H1  UNL     1      -4.919  37.867 -17.449  1.00  0.00     0.247 HD
ENDBRANCH   6  12
ENDBRANCH   1   6
BRANCH   4  14
HETATM   14  N4  UNL     1       1.074  35.449 -16.786  1.00  0.00    -0.344 N 
HETATM   15  C5  UNL     1       1.757  35.655 -17.859  1.00  0.00     0.127 C 
ATOM     16  H4  UNL     1       1.562  35.223 -15.919  1.00  0.00     0.167 HD
BRANCH  15  17
HETATM   17  C6  UNL     1       3.207  35.571 -17.861  1.00  0.00     0.090 A 
HETATM   18  C7  UNL     1       3.987  35.242 -18.962  1.00  0.00     0.040 A 
HETATM   19  C8  UNL     1       5.310  35.268 -18.562  1.00  0.00     0.027 A 
HETATM   20  C9  UNL     1       5.258  35.619 -17.216  1.00  0.00     0.142 A 
HETATM   21  O2  UNL     1       4.002  35.782 -16.860  1.00  0.00    -0.321 OA
ENDBRANCH  15  17
ENDBRANCH   4  14
TORSDOF 5
ENDMDL
MODEL 4
REMARK VINA RESULT: -4.960943263      5.148      7.076
REMARK  5 active torsions:
REMARK  status: ('A' for Active; 'I' for Inactive)
REMARK    1  A    between atoms: N1_1  and  N2_4 
REMARK    2  A    between atoms: N3_6  and  O1_7 
REMARK    3  A    between atoms: N3_6  and  C1_9 
REMARK    4  A    between atoms: C4_12  and  N4_13 
REMARK    5  A    between atoms: C5_15  and  C6_16 
ROOT
HETATM    1  C1  UNL     1       0.886  29.337 -22.472  1.00  0.00     0.196 A 
HETATM    2  C2  UNL     1       1.022  28.417 -21.457  1.00  0.00     0.065 A 
HETATM    3  C3  UNL     1       2.187  27.727 -21.730  1.00  0.00     0.061 A 
HETATM    4  C4  UNL     1       2.707  28.261 -22.900  1.00  0.00     0.150 A 
HETATM    5  O3  UNL     1       1.891  29.211 -23.289  1.00  0.00    -0.273 OA
ENDROOT
BRANCH   1   6
HETATM    6  N3  UNL     1      -0.174  30.278 -22.613  1.00  0.00    -0.125 N 
HETATM    7  N2  UNL     1      -0.060  31.239 -23.442  1.00  0.00    -0.221 N 
ATOM      8  H2  UNL     1       0.793  31.321 -23.995  1.00  0.00     0.210 HD
BRANCH   7   9
HETATM    9  N1  UNL     1      -1.067  32.174 -23.608  1.00  0.00    -0.329 N 
ATOM     10  H12 UNL     1      -1.887  31.908 -24.152  1.00  0.00     0.178 HD
ATOM     11  H11 UNL     1      -1.001  33.107 -23.201  1.00  0.00     0.178 HD
ENDBRANCH   7   9
BRANCH   6  12
HETATM   12  O1  UNL     1      -1.322  30.179 -21.876  1.00  0.00    -0.265 OA
ATOM     13  H1  UNL     1      -1.264  29.873 -20.979  1.00  0.00     0.247 HD
ENDBRANCH   6  12
ENDBRANCH   1   6
BRANCH   4  14
HETATM   14  N4  UNL     1       3.898  27.868 -23.567  1.00  0.00    -0.344 N 
HETATM   15  C5  UNL     1       4.010  27.956 -24.848  1.00  0.00     0.127 C 
ATOM     16  H4  UNL     1       4.681  27.508 -23.021  1.00  0.00     0.167 HD
BRANCH  15  17
HETATM   17  C6  UNL     1       5.227  27.554 -25.531  1.00  0.00     0.090 A 
HETATM   18  C7  UNL     1       5.778  26.278 -25.496  1.00  0.00     0.040 A 
HETATM   19  C8  UNL     1       6.927  26.297 -26.265  1.00  0.00     0.027 A 
HETATM   20  C9  UNL     1       7.010  27.607 -26.731  1.00  0.00     0.142 A 
HETATM   21  O2  UNL     1       5.990  28.296 -26.269  1.00  0.00    -0.321 OA
ENDBRANCH  15  17
ENDBRANCH   4  14
TORSDOF 5
ENDMDL
MODEL 5
REMARK VINA RESULT: -4.948967832     10.066     12.303
REMARK  5 active torsions:
REMARK  status: ('A' for Active; 'I' for Inactive)
REMARK    1  A    between atoms: N1_1  and  N2_4 
REMARK    2  A    between atoms: N3_6  and  O1_7 
REMARK    3  A    between atoms: N3_6  and  C1_9 
REMARK    4  A    between atoms: C4_12  and  N4_13 
REMARK    5  A    between atoms: C5_15  and  C6_16 
ROOT
HETATM    1  C1  UNL     1      -2.045  35.740 -17.870  1.00  0.00     0.196 A 
HETATM    2  C2  UNL     1      -1.654  36.040 -19.156  1.00  0.00     0.065 A 
HETATM    3  C3  UNL     1      -2.749  36.638 -19.749  1.00  0.00     0.061 A 
HETATM    4  C4  UNL     1      -3.756  36.673 -18.797  1.00  0.00     0.150 A 
HETATM    5  O3  UNL     1      -3.276  36.127 -17.705  1.00  0.00    -0.273 OA
ENDROOT
BRANCH   1   6
HETATM    6  N3  UNL     1      -1.242  35.110 -16.877  1.00  0.00    -0.125 N 
HETATM    7  N2  UNL     1      -0.265  35.743 -16.360  1.00  0.00    -0.221 N 
ATOM      8  H2  UNL     1      -0.070  36.696 -16.666  1.00  0.00     0.210 HD
BRANCH   7   9
HETATM    9  N1  UNL     1       0.540  35.166 -15.392  1.00  0.00    -0.329 N 
ATOM     10  H12 UNL     1       0.483  34.158 -15.255  1.00  0.00     0.178 HD
ATOM     11  H11 UNL     1       1.177  35.726 -14.825  1.00  0.00     0.178 HD
ENDBRANCH   7   9
BRANCH   6  12
HETATM   12  O1  UNL     1      -1.492  33.832 -16.457  1.00  0.00    -0.265 OA
ATOM     13  H1  UNL     1      -1.148  33.553 -15.617  1.00  0.00     0.247 HD
ENDBRANCH   6  12
ENDBRANCH   1   6
BRANCH   4  14
HETATM   14  N4  UNL     1      -5.066  37.199 -18.953  1.00  0.00    -0.344 N 
HETATM   15  C5  UNL     1      -5.906  36.672 -19.776  1.00  0.00     0.127 C 
ATOM     16  H4  UNL     1      -5.348  38.011 -18.402  1.00  0.00     0.167 HD
BRANCH  15  17
HETATM   17  C6  UNL     1      -7.246  37.210 -19.937  1.00  0.00     0.090 A 
HETATM   18  C7  UNL     1      -7.969  37.213 -21.124  1.00  0.00     0.040 A 
HETATM   19  C8  UNL     1      -9.191  37.808 -20.870  1.00  0.00     0.027 A 
HETATM   20  C9  UNL     1      -9.139  38.139 -19.518  1.00  0.00     0.142 A 
HETATM   21  O2  UNL     1      -7.979  37.767 -19.025  1.00  0.00    -0.321 OA
ENDBRANCH  15  17
ENDBRANCH   4  14
TORSDOF 5
ENDMDL
