MODEL 1
REMARK VINA RESULT: -4.880229009      0.000      0.000
REMARK  4 active torsions:
REMARK  status: ('A' for Active; 'I' for Inactive)
REMARK    1  A    between atoms: C1_2  and  N1_3 
REMARK    2  A    between atoms: C1_2  and  N2_10 
REMARK    3  A    between atoms: N1_3  and  C2_5 
REMARK    4  A    between atoms: N2_10  and  C7_12 
ROOT
HETATM    1  S1  UNL     1    -137.001-183.539 295.705  1.00  0.00    -0.041 SA
HETATM    2  C1  UNL     1    -136.234-183.257 297.111  1.00  0.00     0.168 C 
ENDROOT
BRANCH   2   3
HETATM    3  N1  UNL     1    -137.002-182.927 298.249  1.00  0.00    -0.363 N 
ATOM      4  H1  UNL     1    -137.632-183.639 298.619  1.00  0.00     0.162 HD
BRANCH   3   5
HETATM    5  C2  UNL     1    -136.959-181.649 298.929  1.00  0.00     0.083 C 
HETATM    6  C3  UNL     1    -137.009-180.470 298.028  1.00  0.00     0.025 C 
HETATM    7  C4  UNL     1    -138.520-180.204 297.950  1.00  0.00     0.002 C 
HETATM    8  C5  UNL     1    -138.838-180.210 299.433  1.00  0.00     0.002 C 
HETATM    9  C6  UNL     1    -138.153-181.511 299.850  1.00  0.00     0.025 C 
ENDBRANCH   3   5
ENDBRANCH   2   3
BRANCH   2  10
HETATM   10  N2  UNL     1    -134.837-183.330 297.166  1.00  0.00    -0.363 N 
ATOM     11  H2  UNL     1    -134.372-182.717 297.836  1.00  0.00     0.162 HD
BRANCH  10  12
HETATM   12  C7  UNL     1    -133.995-184.175 296.380  1.00  0.00     0.083 C 
HETATM   13  C8  UNL     1    -132.943-184.888 297.193  1.00  0.00     0.025 C 
HETATM   14  C9  UNL     1    -131.624-184.660 296.536  1.00  0.00     0.002 C 
HETATM   15  C10 UNL     1    -131.817-183.682 295.424  1.00  0.00     0.002 C 
HETATM   16  C11 UNL     1    -133.284-183.346 295.337  1.00  0.00     0.025 C 
ENDBRANCH  10  12
ENDBRANCH   2  10
TORSDOF 4
ENDMDL
MODEL 2
REMARK VINA RESULT: -4.869027377      1.830      2.692
REMARK  4 active torsions:
REMARK  status: ('A' for Active; 'I' for Inactive)
REMARK    1  A    between atoms: C1_2  and  N1_3 
REMARK    2  A    between atoms: C1_2  and  N2_10 
REMARK    3  A    between atoms: N1_3  and  C2_5 
REMARK    4  A    between atoms: N2_10  and  C7_12 
ROOT
HETATM    1  S1  UNL     1    -135.397-182.665 293.129  1.00  0.00    -0.041 SA
HETATM    2  C1  UNL     1    -134.862-182.179 294.586  1.00  0.00     0.168 C 
ENDROOT
BRANCH   2   3
HETATM    3  N1  UNL     1    -135.721-181.409 295.402  1.00  0.00    -0.363 N 
ATOM      4  H1  UNL     1    -135.512-180.416 295.505  1.00  0.00     0.162 HD
BRANCH   3   5
HETATM    5  C2  UNL     1    -136.877-181.929 296.103  1.00  0.00     0.083 C 
HETATM    6  C3  UNL     1    -136.717-183.316 296.608  1.00  0.00     0.025 C 
HETATM    7  C4  UNL     1    -136.164-183.069 298.021  1.00  0.00     0.002 C 
HETATM    8  C5  UNL     1    -137.183-182.054 298.500  1.00  0.00     0.002 C 
HETATM    9  C6  UNL     1    -137.168-181.080 297.321  1.00  0.00     0.025 C 
ENDBRANCH   3   5
ENDBRANCH   2   3
BRANCH   2  10
HETATM   10  N2  UNL     1    -133.567-182.515 294.998  1.00  0.00    -0.363 N 
ATOM     11  H2  UNL     1    -132.980-181.751 295.333  1.00  0.00     0.162 HD
BRANCH  10  12
HETATM   12  C7  UNL     1    -132.983-183.819 294.996  1.00  0.00     0.083 C 
HETATM   13  C8  UNL     1    -133.902-184.881 295.545  1.00  0.00     0.025 C 
HETATM   14  C9  UNL     1    -133.150-185.646 296.582  1.00  0.00     0.002 C 
HETATM   15  C10 UNL     1    -131.836-184.970 296.801  1.00  0.00     0.002 C 
HETATM   16  C11 UNL     1    -131.734-183.811 295.844  1.00  0.00     0.025 C 
ENDBRANCH  10  12
ENDBRANCH   2  10
TORSDOF 4
ENDMDL
MODEL 3
REMARK VINA RESULT: -4.820561177      1.742      5.572
REMARK  4 active torsions:
REMARK  status: ('A' for Active; 'I' for Inactive)
REMARK    1  A    between atoms: C1_2  and  N1_3 
REMARK    2  A    between atoms: C1_2  and  N2_10 
REMARK    3  A    between atoms: N1_3  and  C2_5 
REMARK    4  A    between atoms: N2_10  and  C7_12 
ROOT
HETATM    1  S1  UNL     1    -136.001-183.344 293.160  1.00  0.00    -0.041 SA
HETATM    2  C1  UNL     1    -135.950-184.006 294.644  1.00  0.00     0.168 C 
ENDROOT
BRANCH   2   3
HETATM    3  N1  UNL     1    -135.110-185.122 294.861  1.00  0.00    -0.363 N 
ATOM      4  H1  UNL     1    -135.553-186.033 294.974  1.00  0.00     0.162 HD
BRANCH   3   5
HETATM    5  C2  UNL     1    -133.665-185.063 294.933  1.00  0.00     0.083 C 
HETATM    6  C3  UNL     1    -133.128-183.798 295.496  1.00  0.00     0.025 C 
HETATM    7  C4  UNL     1    -133.035-184.139 296.992  1.00  0.00     0.002 C 
HETATM    8  C5  UNL     1    -132.294-185.458 296.888  1.00  0.00     0.002 C 
HETATM    9  C6  UNL     1    -133.146-186.164 295.833  1.00  0.00     0.025 C 
ENDBRANCH   3   5
ENDBRANCH   2   3
BRANCH   2  10
HETATM   10  N2  UNL     1    -136.743-183.477 295.669  1.00  0.00    -0.363 N 
ATOM     11  H2  UNL     1    -137.715-183.783 295.702  1.00  0.00     0.162 HD
BRANCH  10  12
HETATM   12  C7  UNL     1    -136.328-182.550 296.675  1.00  0.00     0.083 C 
HETATM   13  C8  UNL     1    -136.510-183.075 298.077  1.00  0.00     0.025 C 
HETATM   14  C9  UNL     1    -137.252-182.044 298.859  1.00  0.00     0.002 C 
HETATM   15  C10 UNL     1    -137.677-180.962 297.923  1.00  0.00     0.002 C 
HETATM   16  C11 UNL     1    -137.137-181.281 296.552  1.00  0.00     0.025 C 
ENDBRANCH  10  12
ENDBRANCH   2  10
TORSDOF 4
ENDMDL
MODEL 4
REMARK VINA RESULT: -4.804508338      1.488      2.224
REMARK  4 active torsions:
REMARK  status: ('A' for Active; 'I' for Inactive)
REMARK    1  A    between atoms: C1_2  and  N1_3 
REMARK    2  A    between atoms: C1_2  and  N2_10 
REMARK    3  A    between atoms: N1_3  and  C2_5 
REMARK    4  A    between atoms: N2_10  and  C7_12 
ROOT
HETATM    1  S1  UNL     1    -136.252-183.942 295.045  1.00  0.00    -0.041 SA
HETATM    2  C1  UNL     1    -135.197-183.235 296.060  1.00  0.00     0.168 C 
ENDROOT
BRANCH   2   3
HETATM    3  N1  UNL     1    -135.669-182.758 297.304  1.00  0.00    -0.363 N 
ATOM      4  H1  UNL     1    -135.063-182.873 298.116  1.00  0.00     0.162 HD
BRANCH   3   5
HETATM    5  C2  UNL     1    -136.952-182.117 297.508  1.00  0.00     0.083 C 
HETATM    6  C3  UNL     1    -137.378-182.031 298.927  1.00  0.00     0.025 C 
HETATM    7  C4  UNL     1    -136.804-180.667 299.341  1.00  0.00     0.002 C 
HETATM    8  C5  UNL     1    -137.336-179.829 298.195  1.00  0.00     0.002 C 
HETATM    9  C6  UNL     1    -136.902-180.689 297.008  1.00  0.00     0.025 C 
ENDBRANCH   3   5
ENDBRANCH   2   3
BRANCH   2  10
HETATM   10  N2  UNL     1    -133.856-183.096 295.684  1.00  0.00    -0.363 N 
ATOM     11  H2  UNL     1    -133.535-182.151 295.470  1.00  0.00     0.162 HD
BRANCH  10  12
HETATM   12  C7  UNL     1    -132.890-184.142 295.568  1.00  0.00     0.083 C 
HETATM   13  C8  UNL     1    -132.892-184.804 294.212  1.00  0.00     0.025 C 
HETATM   14  C9  UNL     1    -132.980-186.278 294.422  1.00  0.00     0.002 C 
HETATM   15  C10 UNL     1    -133.199-186.532 295.877  1.00  0.00     0.002 C 
HETATM   16  C11 UNL     1    -133.179-185.208 296.598  1.00  0.00     0.025 C 
ENDBRANCH  10  12
ENDBRANCH   2  10
TORSDOF 4
ENDMDL
MODEL 5
REMARK VINA RESULT: -4.767995630      1.394      5.885
REMARK  4 active torsions:
REMARK  status: ('A' for Active; 'I' for Inactive)
REMARK    1  A    between atoms: C1_2  and  N1_3 
REMARK    2  A    between atoms: C1_2  and  N2_10 
REMARK    3  A    between atoms: N1_3  and  C2_5 
REMARK    4  A    between atoms: N2_10  and  C7_12 
ROOT
HETATM    1  S1  UNL     1    -136.030-183.128 293.986  1.00  0.00    -0.041 SA
HETATM    2  C1  UNL     1    -134.957-182.854 295.176  1.00  0.00     0.168 C 
ENDROOT
BRANCH   2   3
HETATM    3  N1  UNL     1    -133.585-182.771 294.848  1.00  0.00    -0.363 N 
ATOM      4  H1  UNL     1    -133.215-181.857 294.588  1.00  0.00     0.162 HD
BRANCH   3   5
HETATM    5  C2  UNL     1    -132.668-183.892 294.853  1.00  0.00     0.083 C 
HETATM    6  C3  UNL     1    -131.654-183.851 295.937  1.00  0.00     0.025 C 
HETATM    7  C4  UNL     1    -132.365-184.627 297.056  1.00  0.00     0.002 C 
HETATM    8  C5  UNL     1    -132.782-185.853 296.267  1.00  0.00     0.002 C 
HETATM    9  C6  UNL     1    -133.430-185.184 295.054  1.00  0.00     0.025 C 
ENDBRANCH   3   5
ENDBRANCH   2   3
BRANCH   2  10
HETATM   10  N2  UNL     1    -135.403-182.723 296.497  1.00  0.00    -0.363 N 
ATOM     11  H2  UNL     1    -134.711-182.876 297.231  1.00  0.00     0.162 HD
BRANCH  10  12
HETATM   12  C7  UNL     1    -136.728-182.398 296.921  1.00  0.00     0.083 C 
HETATM   13  C8  UNL     1    -137.002-180.915 296.926  1.00  0.00     0.025 C 
HETATM   14  C9  UNL     1    -137.571-180.559 298.258  1.00  0.00     0.002 C 
HETATM   15  C10 UNL     1    -137.500-181.765 299.135  1.00  0.00     0.002 C 
HETATM   16  C11 UNL     1    -136.945-182.909 298.325  1.00  0.00     0.025 C 
ENDBRANCH  10  12
ENDBRANCH   2  10
TORSDOF 4
ENDMDL
