MODEL 1
REMARK VINA RESULT: -4.440562724      0.000      0.000
REMARK  3 active torsions:
REMARK  status: ('A' for Active; 'I' for Inactive)
REMARK       I    between atoms: N1_2  and  C2_4 
REMARK       I    between atoms: C2_4  and  N3_12 
REMARK    1  A    between atoms: N2_5  and  C3_7 
REMARK    2  A    between atoms: C3_7  and  S1_10 
REMARK    3  A    between atoms: N3_12  and  C6_14 
ROOT
HETATM    1  C1  UNL     1    -137.197-182.116 298.569  1.00  0.00     0.165 C 
HETATM    2  N1  UNL     1    -136.725-183.338 297.966  1.00  0.00    -0.231 N 
ATOM      3  H1  UNL     1    -136.577-184.179 298.523  1.00  0.00     0.177 HD
HETATM    4  C2  UNL     1    -136.474-183.329 296.568  1.00  0.00     0.674 C 
HETATM    5  N2  UNL     1    -137.380-183.786 295.785  1.00  0.00    -0.184 N 
ATOM      6  H2  UNL     1    -138.240-184.136 296.206  1.00  0.00     0.185 HD
HETATM    7  N3  UNL     1    -135.231-182.811 296.122  1.00  0.00    -0.222 N 
ATOM      8  H3  UNL     1    -135.119-181.820 295.912  1.00  0.00     0.178 HD
ENDROOT
BRANCH   5   9
HETATM    9  C3  UNL     1    -137.269-183.841 294.375  1.00  0.00     0.112 C 
HETATM   10  C4  UNL     1    -137.603-182.833 293.586  1.00  0.00     0.225 C 
HETATM   11  F1  UNL     1    -137.481-182.926 292.246  1.00  0.00    -0.216 F 
BRANCH   9  12
HETATM   12  S1  UNL     1    -136.651-185.337 293.641  1.00  0.00    -0.114 SA
HETATM   13  C5  UNL     1    -137.920-186.587 293.441  1.00  0.00     0.097 C 
ENDBRANCH   9  12
ENDBRANCH   5   9
BRANCH   7  14
HETATM   14  C6  UNL     1    -134.134-183.728 295.975  1.00  0.00     0.099 C 
HETATM   15  C7  UNL     1    -133.408-183.963 297.307  1.00  0.00     0.026 C 
HETATM   16  C8  UNL     1    -132.180-184.726 296.787  1.00  0.00     0.002 C 
HETATM   17  C9  UNL     1    -131.797-183.953 295.558  1.00  0.00     0.002 C 
HETATM   18  C10 UNL     1    -133.003-183.136 295.151  1.00  0.00     0.026 C 
ENDBRANCH   7  14
TORSDOF 3
ENDMDL
MODEL 2
REMARK VINA RESULT: -4.366202094      1.161      1.790
REMARK  3 active torsions:
REMARK  status: ('A' for Active; 'I' for Inactive)
REMARK       I    between atoms: N1_2  and  C2_4 
REMARK       I    between atoms: C2_4  and  N3_12 
REMARK    1  A    between atoms: N2_5  and  C3_7 
REMARK    2  A    between atoms: C3_7  and  S1_10 
REMARK    3  A    between atoms: N3_12  and  C6_14 
ROOT
HETATM    1  C1  UNL     1    -137.183-182.094 298.583  1.00  0.00     0.165 C 
HETATM    2  N1  UNL     1    -136.720-183.318 297.977  1.00  0.00    -0.231 N 
ATOM      3  H1  UNL     1    -136.568-184.159 298.535  1.00  0.00     0.177 HD
HETATM    4  C2  UNL     1    -136.482-183.313 296.578  1.00  0.00     0.674 C 
HETATM    5  N2  UNL     1    -137.396-183.770 295.803  1.00  0.00    -0.184 N 
ATOM      6  H2  UNL     1    -138.253-184.116 296.234  1.00  0.00     0.185 HD
HETATM    7  N3  UNL     1    -135.241-182.799 296.119  1.00  0.00    -0.222 N 
ATOM      8  H3  UNL     1    -135.129-181.808 295.906  1.00  0.00     0.178 HD
ENDROOT
BRANCH   5   9
HETATM    9  C3  UNL     1    -137.298-183.827 294.392  1.00  0.00     0.112 C 
HETATM   10  C4  UNL     1    -136.926-184.914 293.739  1.00  0.00     0.225 C 
HETATM   11  F1  UNL     1    -136.845-184.927 292.393  1.00  0.00    -0.216 F 
BRANCH   9  12
HETATM   12  S1  UNL     1    -137.698-182.363 293.466  1.00  0.00    -0.114 SA
HETATM   13  C5  UNL     1    -136.245-181.519 292.842  1.00  0.00     0.097 C 
ENDBRANCH   9  12
ENDBRANCH   5   9
BRANCH   7  14
HETATM   14  C6  UNL     1    -134.148-183.719 295.963  1.00  0.00     0.099 C 
HETATM   15  C7  UNL     1    -133.411-183.954 297.289  1.00  0.00     0.026 C 
HETATM   16  C8  UNL     1    -132.190-184.721 296.759  1.00  0.00     0.002 C 
HETATM   17  C9  UNL     1    -131.816-183.951 295.526  1.00  0.00     0.002 C 
HETATM   18  C10 UNL     1    -133.023-183.130 295.128  1.00  0.00     0.026 C 
ENDBRANCH   7  14
TORSDOF 3
ENDMDL
MODEL 3
REMARK VINA RESULT: -4.101473026      3.154      4.861
REMARK  3 active torsions:
REMARK  status: ('A' for Active; 'I' for Inactive)
REMARK       I    between atoms: N1_2  and  C2_4 
REMARK       I    between atoms: C2_4  and  N3_12 
REMARK    1  A    between atoms: N2_5  and  C3_7 
REMARK    2  A    between atoms: C3_7  and  S1_10 
REMARK    3  A    between atoms: N3_12  and  C6_14 
ROOT
HETATM    1  C1  UNL     1    -134.495-181.843 292.082  1.00  0.00     0.165 C 
HETATM    2  N1  UNL     1    -135.039-182.910 292.886  1.00  0.00    -0.231 N 
ATOM      3  H1  UNL     1    -135.887-183.403 292.605  1.00  0.00     0.177 HD
HETATM    4  C2  UNL     1    -134.354-183.251 294.082  1.00  0.00     0.674 C 
HETATM    5  N2  UNL     1    -133.547-184.246 294.058  1.00  0.00    -0.184 N 
ATOM      6  H2  UNL     1    -133.436-184.747 293.177  1.00  0.00     0.185 HD
HETATM    7  N3  UNL     1    -134.605-182.464 295.236  1.00  0.00    -0.222 N 
ATOM      8  H3  UNL     1    -134.053-181.629 295.433  1.00  0.00     0.178 HD
ENDROOT
BRANCH   5   9
HETATM    9  C3  UNL     1    -132.798-184.699 295.171  1.00  0.00     0.112 C 
HETATM   10  C4  UNL     1    -131.826-183.993 295.721  1.00  0.00     0.225 C 
HETATM   11  F1  UNL     1    -131.137-184.461 296.782  1.00  0.00    -0.216 F 
BRANCH   9  12
HETATM   12  S1  UNL     1    -133.192-186.294 295.851  1.00  0.00    -0.114 SA
HETATM   13  C5  UNL     1    -134.323-187.227 294.820  1.00  0.00     0.097 C 
ENDBRANCH   9  12
ENDBRANCH   5   9
BRANCH   7  14
HETATM   14  C6  UNL     1    -135.661-182.879 296.117  1.00  0.00     0.099 C 
HETATM   15  C7  UNL     1    -136.493-181.687 296.609  1.00  0.00     0.026 C 
HETATM   16  C8  UNL     1    -137.318-182.393 297.695  1.00  0.00     0.002 C 
HETATM   17  C9  UNL     1    -136.302-183.259 298.382  1.00  0.00     0.002 C 
HETATM   18  C10 UNL     1    -135.126-183.401 297.440  1.00  0.00     0.026 C 
ENDBRANCH   7  14
TORSDOF 3
ENDMDL
MODEL 4
REMARK VINA RESULT: -4.094193392      2.460      4.416
REMARK  3 active torsions:
REMARK  status: ('A' for Active; 'I' for Inactive)
REMARK       I    between atoms: N1_2  and  C2_4 
REMARK       I    between atoms: C2_4  and  N3_12 
REMARK    1  A    between atoms: N2_5  and  C3_7 
REMARK    2  A    between atoms: C3_7  and  S1_10 
REMARK    3  A    between atoms: N3_12  and  C6_14 
ROOT
HETATM    1  C1  UNL     1    -136.798-182.931 298.305  1.00  0.00     0.165 C 
HETATM    2  N1  UNL     1    -136.218-182.370 297.110  1.00  0.00    -0.231 N 
ATOM      3  H1  UNL     1    -136.381-181.398 296.850  1.00  0.00     0.177 HD
HETATM    4  C2  UNL     1    -135.413-183.220 296.306  1.00  0.00     0.674 C 
HETATM    5  N2  UNL     1    -134.140-183.162 296.445  1.00  0.00    -0.184 N 
ATOM      6  H2  UNL     1    -133.767-182.504 297.130  1.00  0.00     0.185 HD
HETATM    7  N3  UNL     1    -136.070-184.087 295.395  1.00  0.00    -0.222 N 
ATOM      8  H3  UNL     1    -136.364-185.022 295.677  1.00  0.00     0.178 HD
ENDROOT
BRANCH   5   9
HETATM    9  C3  UNL     1    -133.216-183.946 295.714  1.00  0.00     0.112 C 
HETATM   10  C4  UNL     1    -132.631-183.525 294.606  1.00  0.00     0.225 C 
HETATM   11  F1  UNL     1    -131.755-184.305 293.939  1.00  0.00    -0.216 F 
BRANCH   9  12
HETATM   12  S1  UNL     1    -132.830-185.571 296.325  1.00  0.00    -0.114 SA
HETATM   13  C5  UNL     1    -133.584-186.874 295.352  1.00  0.00     0.097 C 
ENDBRANCH   9  12
ENDBRANCH   5   9
BRANCH   7  14
HETATM   14  C6  UNL     1    -136.307-183.607 294.061  1.00  0.00     0.099 C 
HETATM   15  C7  UNL     1    -137.807-183.476 293.763  1.00  0.00     0.026 C 
HETATM   16  C8  UNL     1    -137.736-183.224 292.250  1.00  0.00     0.002 C 
HETATM   17  C9  UNL     1    -136.705-184.214 291.790  1.00  0.00     0.002 C 
HETATM   18  C10 UNL     1    -135.910-184.628 293.009  1.00  0.00     0.026 C 
ENDBRANCH   7  14
TORSDOF 3
ENDMDL
MODEL 5
REMARK VINA RESULT: -4.040651551      2.990      4.914
REMARK  3 active torsions:
REMARK  status: ('A' for Active; 'I' for Inactive)
REMARK       I    between atoms: N1_2  and  C2_4 
REMARK       I    between atoms: C2_4  and  N3_12 
REMARK    1  A    between atoms: N2_5  and  C3_7 
REMARK    2  A    between atoms: C3_7  and  S1_10 
REMARK    3  A    between atoms: N3_12  and  C6_14 
ROOT
HETATM    1  C1  UNL     1    -136.666-184.465 292.150  1.00  0.00     0.165 C 
HETATM    2  N1  UNL     1    -136.638-185.019 293.481  1.00  0.00    -0.231 N 
ATOM      3  H1  UNL     1    -137.376-185.641 293.810  1.00  0.00     0.177 HD
HETATM    4  C2  UNL     1    -135.547-184.668 294.318  1.00  0.00     0.674 C 
HETATM    5  N2  UNL     1    -134.563-185.485 294.412  1.00  0.00    -0.184 N 
ATOM      6  H2  UNL     1    -134.614-186.352 293.876  1.00  0.00     0.185 HD
HETATM    7  N3  UNL     1    -135.611-183.427 295.005  1.00  0.00    -0.222 N 
ATOM      8  H3  UNL     1    -135.256-182.571 294.578  1.00  0.00     0.178 HD
ENDROOT
BRANCH   5   9
HETATM    9  C3  UNL     1    -133.412-185.269 295.206  1.00  0.00     0.112 C 
HETATM   10  C4  UNL     1    -133.107-186.016 296.252  1.00  0.00     0.225 C 
HETATM   11  F1  UNL     1    -131.999-185.776 296.983  1.00  0.00    -0.216 F 
BRANCH   9  12
HETATM   12  S1  UNL     1    -132.332-183.927 294.766  1.00  0.00    -0.114 SA
HETATM   13  C5  UNL     1    -132.125-183.755 292.994  1.00  0.00     0.097 C 
ENDBRANCH   9  12
ENDBRANCH   5   9
BRANCH   7  14
HETATM   14  C6  UNL     1    -136.191-183.414 296.319  1.00  0.00     0.099 C 
HETATM   15  C7  UNL     1    -136.939-182.102 296.597  1.00  0.00     0.026 C 
HETATM   16  C8  UNL     1    -137.190-182.276 298.102  1.00  0.00     0.002 C 
HETATM   17  C9  UNL     1    -135.880-182.810 298.604  1.00  0.00     0.002 C 
HETATM   18  C10 UNL     1    -135.133-183.359 297.408  1.00  0.00     0.026 C 
ENDBRANCH   7  14
TORSDOF 3
ENDMDL
