MODEL 1
REMARK VINA RESULT: -5.760031349      0.000      0.000
REMARK  2 active torsions:
REMARK  status: ('A' for Active; 'I' for Inactive)
REMARK    1  A    between atoms: C2_2  and  N1_4 
REMARK       I    between atoms: N1_4  and  C4_6 
REMARK       I    between atoms: C4_6  and  N2_8 
REMARK    2  A    between atoms: N2_8  and  C5_10 
ROOT
HETATM    1  C5  UNL     1    -134.433-183.482 295.617  1.00  0.00     0.041 C 
HETATM    2  C6  UNL     1    -135.356-184.542 294.979  1.00  0.00     0.036 C 
HETATM    3  C7  UNL     1    -134.318-185.362 294.240  1.00  0.00    -0.009 C 
HETATM    4  C8  UNL     1    -133.601-184.241 293.484  1.00  0.00     0.012 C 
HETATM    5  C9  UNL     1    -133.271-183.323 294.672  1.00  0.00     0.017 C 
HETATM    6  C10 UNL     1    -132.072-183.992 295.359  1.00  0.00     0.050 C 
HETATM    7  C11 UNL     1    -132.782-185.029 296.192  1.00  0.00     0.106 C 
HETATM    8  F1  UNL     1    -131.999-185.658 297.095  1.00  0.00    -0.243 F 
HETATM    9  C12 UNL     1    -133.421-186.016 295.244  1.00  0.00     0.048 C 
HETATM   10  C13 UNL     1    -133.879-184.176 296.844  1.00  0.00     0.075 C 
ENDROOT
BRANCH   1  11
HETATM   11  N2  UNL     1    -135.155-182.282 295.895  1.00  0.00    -0.333 N 
HETATM   12  C4  UNL     1    -136.112-182.236 296.937  1.00  0.00     0.317 C 
HETATM   13  N1  UNL     1    -136.821-181.027 297.196  1.00  0.00    -0.339 N 
HETATM   14  O1  UNL     1    -136.364-183.236 297.652  1.00  0.00    -0.247 OA
ATOM     15  H1  UNL     1    -136.642-180.195 296.634  1.00  0.00     0.164 HD
ATOM     16  H2  UNL     1    -134.979-181.448 295.335  1.00  0.00     0.165 HD
BRANCH  13  17
HETATM   17  C2  UNL     1    -137.795-180.992 298.263  1.00  0.00     0.078 C 
HETATM   18  C1  UNL     1    -138.959-180.095 297.935  1.00  0.00     0.032 C 
HETATM   19  C3  UNL     1    -137.131-180.578 299.562  1.00  0.00     0.032 C 
ENDBRANCH  13  17
ENDBRANCH   1  11
TORSDOF 2
ENDMDL
MODEL 2
REMARK VINA RESULT: -5.636485136      1.113      1.722
REMARK  2 active torsions:
REMARK  status: ('A' for Active; 'I' for Inactive)
REMARK    1  A    between atoms: C2_2  and  N1_4 
REMARK       I    between atoms: N1_4  and  C4_6 
REMARK       I    between atoms: C4_6  and  N2_8 
REMARK    2  A    between atoms: N2_8  and  C5_10 
ROOT
HETATM    1  C5  UNL     1    -134.197-183.501 295.092  1.00  0.00     0.041 C 
HETATM    2  C6  UNL     1    -133.452-183.312 293.753  1.00  0.00     0.036 C 
HETATM    3  C7  UNL     1    -132.321-184.299 293.959  1.00  0.00    -0.009 C 
HETATM    4  C8  UNL     1    -131.820-183.828 295.326  1.00  0.00     0.012 C 
HETATM    5  C9  UNL     1    -133.146-183.884 296.099  1.00  0.00     0.017 C 
HETATM    6  C10 UNL     1    -133.363-185.375 296.393  1.00  0.00     0.050 C 
HETATM    7  C11 UNL     1    -133.960-185.824 295.083  1.00  0.00     0.106 C 
HETATM    8  F1  UNL     1    -134.469-187.074 295.095  1.00  0.00    -0.243 F 
HETATM    9  C12 UNL     1    -132.895-185.679 294.023  1.00  0.00     0.048 C 
HETATM   10  C13 UNL     1    -135.031-184.745 294.868  1.00  0.00     0.075 C 
ENDROOT
BRANCH   1  11
HETATM   11  N2  UNL     1    -134.954-182.335 295.420  1.00  0.00    -0.333 N 
HETATM   12  C4  UNL     1    -135.847-182.336 296.517  1.00  0.00     0.317 C 
HETATM   13  N1  UNL     1    -136.593-181.161 296.825  1.00  0.00    -0.339 N 
HETATM   14  O1  UNL     1    -136.011-183.349 297.241  1.00  0.00    -0.247 OA
ATOM     15  H1  UNL     1    -136.485-180.319 296.259  1.00  0.00     0.164 HD
ATOM     16  H2  UNL     1    -134.850-181.492 294.856  1.00  0.00     0.165 HD
BRANCH  13  17
HETATM   17  C2  UNL     1    -137.502-181.173 297.949  1.00  0.00     0.078 C 
HETATM   18  C1  UNL     1    -138.673-180.251 297.737  1.00  0.00     0.032 C 
HETATM   19  C3  UNL     1    -136.758-180.831 299.226  1.00  0.00     0.032 C 
ENDBRANCH  13  17
ENDBRANCH   1  11
TORSDOF 2
ENDMDL
MODEL 3
REMARK VINA RESULT: -5.587425637      3.592      5.795
REMARK  2 active torsions:
REMARK  status: ('A' for Active; 'I' for Inactive)
REMARK    1  A    between atoms: C2_2  and  N1_4 
REMARK       I    between atoms: N1_4  and  C4_6 
REMARK       I    between atoms: C4_6  and  N2_8 
REMARK    2  A    between atoms: N2_8  and  C5_10 
ROOT
HETATM    1  C5  UNL     1    -133.773-185.995 295.212  1.00  0.00     0.041 C 
HETATM    2  C6  UNL     1    -132.769-185.752 294.066  1.00  0.00     0.036 C 
HETATM    3  C7  UNL     1    -132.678-184.240 294.133  1.00  0.00    -0.009 C 
HETATM    4  C8  UNL     1    -134.169-183.896 294.093  1.00  0.00     0.012 C 
HETATM    5  C9  UNL     1    -134.649-184.771 295.261  1.00  0.00     0.017 C 
HETATM    6  C10 UNL     1    -134.230-184.001 296.522  1.00  0.00     0.050 C 
HETATM    7  C11 UNL     1    -132.787-184.423 296.630  1.00  0.00     0.106 C 
HETATM    8  F1  UNL     1    -132.183-184.073 297.785  1.00  0.00    -0.243 F 
HETATM    9  C12 UNL     1    -132.055-183.855 295.438  1.00  0.00     0.048 C 
HETATM   10  C13 UNL     1    -132.917-185.944 296.461  1.00  0.00     0.075 C 
ENDROOT
BRANCH   1  11
HETATM   11  N2  UNL     1    -134.467-187.229 295.025  1.00  0.00    -0.333 N 
HETATM   12  C4  UNL     1    -135.217-187.468 293.849  1.00  0.00     0.317 C 
HETATM   13  N1  UNL     1    -135.902-188.707 293.683  1.00  0.00    -0.339 N 
HETATM   14  O1  UNL     1    -135.304-186.616 292.931  1.00  0.00    -0.247 OA
ATOM     15  H1  UNL     1    -135.853-189.423 294.409  1.00  0.00     0.164 HD
ATOM     16  H2  UNL     1    -134.421-187.947 295.747  1.00  0.00     0.165 HD
BRANCH  13  17
HETATM   17  C2  UNL     1    -136.665-188.940 292.478  1.00  0.00     0.078 C 
HETATM   18  C1  UNL     1    -138.143-188.772 292.705  1.00  0.00     0.032 C 
HETATM   19  C3  UNL     1    -136.347-190.313 291.917  1.00  0.00     0.032 C 
ENDBRANCH  13  17
ENDBRANCH   1  11
TORSDOF 2
ENDMDL
MODEL 4
REMARK VINA RESULT: -5.527687055      3.175      4.334
REMARK  2 active torsions:
REMARK  status: ('A' for Active; 'I' for Inactive)
REMARK    1  A    between atoms: C2_2  and  N1_4 
REMARK       I    between atoms: N1_4  and  C4_6 
REMARK       I    between atoms: C4_6  and  N2_8 
REMARK    2  A    between atoms: N2_8  and  C5_10 
ROOT
HETATM    1  C5  UNL     1    -134.513-184.394 295.440  1.00  0.00     0.041 C 
HETATM    2  C6  UNL     1    -133.984-183.887 296.798  1.00  0.00     0.036 C 
HETATM    3  C7  UNL     1    -132.601-184.505 296.772  1.00  0.00    -0.009 C 
HETATM    4  C8  UNL     1    -132.977-185.953 296.452  1.00  0.00     0.012 C 
HETATM    5  C9  UNL     1    -133.823-185.709 295.193  1.00  0.00     0.017 C 
HETATM    6  C10 UNL     1    -132.797-185.448 294.080  1.00  0.00     0.050 C 
HETATM    7  C11 UNL     1    -132.503-183.989 294.322  1.00  0.00     0.106 C 
HETATM    8  F1  UNL     1    -131.777-183.393 293.352  1.00  0.00    -0.243 F 
HETATM    9  C12 UNL     1    -131.817-183.878 295.662  1.00  0.00     0.048 C 
HETATM   10  C13 UNL     1    -133.925-183.422 294.438  1.00  0.00     0.075 C 
ENDROOT
BRANCH   1  11
HETATM   11  N2  UNL     1    -135.940-184.449 295.439  1.00  0.00    -0.333 N 
HETATM   12  C4  UNL     1    -136.651-184.818 294.273  1.00  0.00     0.317 C 
HETATM   13  N1  UNL     1    -138.075-184.867 294.296  1.00  0.00    -0.339 N 
HETATM   14  O1  UNL     1    -136.066-185.109 293.201  1.00  0.00    -0.247 OA
ATOM     15  H1  UNL     1    -138.584-184.637 295.150  1.00  0.00     0.164 HD
ATOM     16  H2  UNL     1    -136.453-184.220 296.291  1.00  0.00     0.165 HD
BRANCH  13  17
HETATM   17  C2  UNL     1    -138.791-185.245 293.099  1.00  0.00     0.078 C 
HETATM   18  C1  UNL     1    -140.095-184.506 292.964  1.00  0.00     0.032 C 
HETATM   19  C3  UNL     1    -139.005-186.746 293.072  1.00  0.00     0.032 C 
ENDBRANCH  13  17
ENDBRANCH   1  11
TORSDOF 2
ENDMDL
MODEL 5
REMARK VINA RESULT: -5.378077457      1.658      2.221
REMARK  2 active torsions:
REMARK  status: ('A' for Active; 'I' for Inactive)
REMARK    1  A    between atoms: C2_2  and  N1_4 
REMARK       I    between atoms: N1_4  and  C4_6 
REMARK       I    between atoms: C4_6  and  N2_8 
REMARK    2  A    between atoms: N2_8  and  C5_10 
ROOT
HETATM    1  C5  UNL     1    -133.693-184.402 295.796  1.00  0.00     0.041 C 
HETATM    2  C6  UNL     1    -133.220-185.819 296.183  1.00  0.00     0.036 C 
HETATM    3  C7  UNL     1    -133.433-186.522 294.858  1.00  0.00    -0.009 C 
HETATM    4  C8  UNL     1    -134.883-186.116 294.587  1.00  0.00     0.012 C 
HETATM    5  C9  UNL     1    -134.736-184.593 294.727  1.00  0.00     0.017 C 
HETATM    6  C10 UNL     1    -134.082-184.143 293.412  1.00  0.00     0.050 C 
HETATM    7  C11 UNL     1    -132.635-184.439 293.715  1.00  0.00     0.106 C 
HETATM    8  F1  UNL     1    -131.759-183.947 292.814  1.00  0.00    -0.243 F 
HETATM    9  C12 UNL     1    -132.495-185.937 293.849  1.00  0.00     0.048 C 
HETATM   10  C13 UNL     1    -132.492-183.796 295.101  1.00  0.00     0.075 C 
ENDROOT
BRANCH   1  11
HETATM   11  N2  UNL     1    -134.133-183.682 296.949  1.00  0.00    -0.333 N 
HETATM   12  C4  UNL     1    -135.381-183.015 296.954  1.00  0.00     0.317 C 
HETATM   13  N1  UNL     1    -135.798-182.302 298.116  1.00  0.00    -0.339 N 
HETATM   14  O1  UNL     1    -136.146-183.027 295.959  1.00  0.00    -0.247 OA
ATOM     15  H1  UNL     1    -135.202-182.271 298.943  1.00  0.00     0.164 HD
ATOM     16  H2  UNL     1    -133.540-183.648 297.777  1.00  0.00     0.165 HD
BRANCH  13  17
HETATM   17  C2  UNL     1    -137.075-181.624 298.111  1.00  0.00     0.078 C 
HETATM   18  C1  UNL     1    -136.945-180.178 297.716  1.00  0.00     0.032 C 
HETATM   19  C3  UNL     1    -137.746-181.767 299.463  1.00  0.00     0.032 C 
ENDBRANCH  13  17
ENDBRANCH   1  11
TORSDOF 2
ENDMDL
