MODEL 1
REMARK VINA RESULT: -5.432861985      0.000      0.000
REMARK  4 active torsions:
REMARK  status: ('A' for Active; 'I' for Inactive)
REMARK    1  A    between atoms: C4_4  and  N1_5 
REMARK    2  A    between atoms: N1_5  and  C5_7 
REMARK    3  A    between atoms: C5_7  and  N2_9 
REMARK    4  A    between atoms: N2_9  and  C6_11 
ROOT
HETATM    1  C5  UNL     1    -135.038-182.804 295.217  1.00  0.00     0.168 C 
HETATM    2  S1  UNL     1    -135.976-183.838 294.402  1.00  0.00    -0.041 SA
ENDROOT
BRANCH   1   3
HETATM    3  N1  UNL     1    -135.591-182.024 296.250  1.00  0.00    -0.360 N 
ATOM      4  H1  UNL     1    -135.017-181.286 296.659  1.00  0.00     0.162 HD
BRANCH   3   5
HETATM    5  C4  UNL     1    -136.934-182.213 296.764  1.00  0.00     0.118 C 
HETATM    6  C3  UNL     1    -137.525-180.984 297.422  1.00  0.00     0.035 C 
HETATM    7  C2  UNL     1    -136.961-181.506 298.736  1.00  0.00     0.019 C 
HETATM    8  C1  UNL     1    -137.888-181.344 299.914  1.00  0.00     0.013 C 
HETATM    9  C11 UNL     1    -136.976-182.883 298.120  1.00  0.00     0.196 C 
HETATM   10  F1  UNL     1    -135.876-183.658 298.411  1.00  0.00    -0.247 F 
ENDBRANCH   3   5
ENDBRANCH   1   3
BRANCH   1  11
HETATM   11  N2  UNL     1    -133.666-182.685 294.891  1.00  0.00    -0.363 N 
ATOM     12  H2  UNL     1    -133.341-181.920 294.301  1.00  0.00     0.162 HD
BRANCH  11  13
HETATM   13  C6  UNL     1    -132.716-183.671 295.409  1.00  0.00     0.083 C 
HETATM   14  C7  UNL     1    -132.756-184.927 294.556  1.00  0.00     0.025 C 
HETATM   15  C8  UNL     1    -133.012-186.080 295.478  1.00  0.00     0.002 C 
HETATM   16  C9  UNL     1    -132.534-185.565 296.814  1.00  0.00     0.002 C 
HETATM   17  C10 UNL     1    -133.093-184.137 296.788  1.00  0.00     0.025 C 
ENDBRANCH  11  13
ENDBRANCH   1  11
TORSDOF 4
ENDMDL
MODEL 2
REMARK VINA RESULT: -5.293673636      0.842      1.285
REMARK  4 active torsions:
REMARK  status: ('A' for Active; 'I' for Inactive)
REMARK    1  A    between atoms: C4_4  and  N1_5 
REMARK    2  A    between atoms: N1_5  and  C5_7 
REMARK    3  A    between atoms: C5_7  and  N2_9 
REMARK    4  A    between atoms: N2_9  and  C6_11 
ROOT
HETATM    1  C5  UNL     1    -135.362-182.145 295.126  1.00  0.00     0.168 C 
HETATM    2  S1  UNL     1    -136.145-182.004 293.719  1.00  0.00    -0.041 SA
ENDROOT
BRANCH   1   3
HETATM    3  N1  UNL     1    -135.872-181.511 296.276  1.00  0.00    -0.360 N 
ATOM      4  H1  UNL     1    -135.297-180.804 296.733  1.00  0.00     0.162 HD
BRANCH   3   5
HETATM    5  C4  UNL     1    -137.171-181.812 296.845  1.00  0.00     0.118 C 
HETATM    6  C3  UNL     1    -137.796-180.663 297.607  1.00  0.00     0.035 C 
HETATM    7  C2  UNL     1    -137.132-181.225 298.855  1.00  0.00     0.019 C 
HETATM    8  C1  UNL     1    -138.001-181.190 300.087  1.00  0.00     0.013 C 
HETATM    9  C11 UNL     1    -137.100-182.562 298.157  1.00  0.00     0.196 C 
HETATM   10  F1  UNL     1    -135.942-183.284 298.344  1.00  0.00    -0.247 F 
ENDBRANCH   3   5
ENDBRANCH   1   3
BRANCH   1  11
HETATM   11  N2  UNL     1    -134.169-182.902 295.200  1.00  0.00    -0.363 N 
ATOM     12  H2  UNL     1    -133.317-182.566 294.752  1.00  0.00     0.162 HD
BRANCH  11  13
HETATM   13  C6  UNL     1    -134.169-184.174 295.925  1.00  0.00     0.083 C 
HETATM   14  C7  UNL     1    -133.111-184.149 297.013  1.00  0.00     0.025 C 
HETATM   15  C8  UNL     1    -132.233-185.346 296.805  1.00  0.00     0.002 C 
HETATM   16  C9  UNL     1    -133.119-186.291 296.029  1.00  0.00     0.002 C 
HETATM   17  C10 UNL     1    -133.773-185.321 295.037  1.00  0.00     0.025 C 
ENDBRANCH  11  13
ENDBRANCH   1  11
TORSDOF 4
ENDMDL
MODEL 3
REMARK VINA RESULT: -5.233421271      1.001      1.099
REMARK  4 active torsions:
REMARK  status: ('A' for Active; 'I' for Inactive)
REMARK    1  A    between atoms: C4_4  and  N1_5 
REMARK    2  A    between atoms: N1_5  and  C5_7 
REMARK    3  A    between atoms: C5_7  and  N2_9 
REMARK    4  A    between atoms: N2_9  and  C6_11 
ROOT
HETATM    1  C5  UNL     1    -135.102-182.415 294.814  1.00  0.00     0.168 C 
HETATM    2  S1  UNL     1    -134.700-181.543 293.513  1.00  0.00    -0.041 SA
ENDROOT
BRANCH   1   3
HETATM    3  N1  UNL     1    -135.633-181.773 295.949  1.00  0.00    -0.360 N 
ATOM      4  H1  UNL     1    -135.080-181.039 296.392  1.00  0.00     0.162 HD
BRANCH   3   5
HETATM    5  C4  UNL     1    -136.925-182.099 296.521  1.00  0.00     0.118 C 
HETATM    6  C3  UNL     1    -137.567-180.965 297.292  1.00  0.00     0.035 C 
HETATM    7  C2  UNL     1    -136.888-181.522 298.535  1.00  0.00     0.019 C 
HETATM    8  C1  UNL     1    -137.753-181.508 299.770  1.00  0.00     0.013 C 
HETATM    9  C11 UNL     1    -136.836-182.854 297.829  1.00  0.00     0.196 C 
HETATM   10  F1  UNL     1    -135.665-183.557 298.008  1.00  0.00    -0.247 F 
ENDBRANCH   3   5
ENDBRANCH   1   3
BRANCH   1  11
HETATM   11  N2  UNL     1    -134.921-183.818 294.809  1.00  0.00    -0.363 N 
ATOM     12  H2  UNL     1    -135.716-184.439 294.657  1.00  0.00     0.162 HD
BRANCH  11  13
HETATM   13  C6  UNL     1    -133.583-184.372 295.025  1.00  0.00     0.083 C 
HETATM   14  C7  UNL     1    -133.684-185.843 295.388  1.00  0.00     0.025 C 
HETATM   15  C8  UNL     1    -132.945-186.032 296.678  1.00  0.00     0.002 C 
HETATM   16  C9  UNL     1    -131.988-184.864 296.700  1.00  0.00     0.002 C 
HETATM   17  C10 UNL     1    -132.901-183.736 296.204  1.00  0.00     0.025 C 
ENDBRANCH  11  13
ENDBRANCH   1  11
TORSDOF 4
ENDMDL
MODEL 4
REMARK VINA RESULT: -5.072242982      1.857      5.365
REMARK  4 active torsions:
REMARK  status: ('A' for Active; 'I' for Inactive)
REMARK    1  A    between atoms: C4_4  and  N1_5 
REMARK    2  A    between atoms: N1_5  and  C5_7 
REMARK    3  A    between atoms: C5_7  and  N2_9 
REMARK    4  A    between atoms: N2_9  and  C6_11 
ROOT
HETATM    1  C5  UNL     1    -136.032-181.489 295.258  1.00  0.00     0.168 C 
HETATM    2  S1  UNL     1    -137.191-181.694 294.151  1.00  0.00    -0.041 SA
ENDROOT
BRANCH   1   3
HETATM    3  N1  UNL     1    -134.838-182.228 295.165  1.00  0.00    -0.360 N 
ATOM      4  H1  UNL     1    -133.989-181.741 294.878  1.00  0.00     0.162 HD
BRANCH   3   5
HETATM    5  C4  UNL     1    -134.750-183.647 295.454  1.00  0.00     0.118 C 
HETATM    6  C3  UNL     1    -134.310-183.966 296.867  1.00  0.00     0.035 C 
HETATM    7  C2  UNL     1    -132.883-183.997 296.339  1.00  0.00     0.019 C 
HETATM    8  C1  UNL     1    -132.040-185.113 296.902  1.00  0.00     0.013 C 
HETATM    9  C11 UNL     1    -133.464-184.285 294.976  1.00  0.00     0.196 C 
HETATM   10  F1  UNL     1    -132.849-183.627 293.935  1.00  0.00    -0.247 F 
ENDBRANCH   3   5
ENDBRANCH   1   3
BRANCH   1  11
HETATM   11  N2  UNL     1    -136.219-180.569 296.317  1.00  0.00    -0.363 N 
ATOM     12  H2  UNL     1    -135.597-179.767 296.418  1.00  0.00     0.162 HD
BRANCH  11  13
HETATM   13  C6  UNL     1    -137.314-180.777 297.266  1.00  0.00     0.083 C 
HETATM   14  C7  UNL     1    -137.410-179.594 298.213  1.00  0.00     0.025 C 
HETATM   15  C8  UNL     1    -137.350-180.139 299.608  1.00  0.00     0.002 C 
HETATM   16  C9  UNL     1    -137.807-181.568 299.440  1.00  0.00     0.002 C 
HETATM   17  C10 UNL     1    -137.059-181.959 298.160  1.00  0.00     0.025 C 
ENDBRANCH  11  13
ENDBRANCH   1  11
TORSDOF 4
ENDMDL
MODEL 5
REMARK VINA RESULT: -4.999877266      1.646      2.058
REMARK  4 active torsions:
REMARK  status: ('A' for Active; 'I' for Inactive)
REMARK    1  A    between atoms: C4_4  and  N1_5 
REMARK    2  A    between atoms: N1_5  and  C5_7 
REMARK    3  A    between atoms: C5_7  and  N2_9 
REMARK    4  A    between atoms: N2_9  and  C6_11 
ROOT
HETATM    1  C5  UNL     1    -136.000-182.295 295.710  1.00  0.00     0.168 C 
HETATM    2  S1  UNL     1    -137.117-182.776 294.645  1.00  0.00    -0.041 SA
ENDROOT
BRANCH   1   3
HETATM    3  N1  UNL     1    -136.334-181.341 296.691  1.00  0.00    -0.360 N 
ATOM      4  H1  UNL     1    -136.703-180.441 296.384  1.00  0.00     0.162 HD
BRANCH   3   5
HETATM    5  C4  UNL     1    -136.179-181.570 298.114  1.00  0.00     0.118 C 
HETATM    6  C3  UNL     1    -137.212-182.504 298.708  1.00  0.00     0.035 C 
HETATM    7  C2  UNL     1    -138.049-181.270 299.009  1.00  0.00     0.019 C 
HETATM    8  C1  UNL     1    -138.726-181.295 300.357  1.00  0.00     0.013 C 
HETATM    9  C11 UNL     1    -136.769-180.472 298.973  1.00  0.00     0.196 C 
HETATM   10  F1  UNL     1    -136.869-179.248 298.351  1.00  0.00    -0.247 F 
ENDBRANCH   3   5
ENDBRANCH   1   3
BRANCH   1  11
HETATM   11  N2  UNL     1    -134.692-182.832 295.655  1.00  0.00    -0.363 N 
ATOM     12  H2  UNL     1    -133.937-182.305 295.216  1.00  0.00     0.162 HD
BRANCH  11  13
HETATM   13  C6  UNL     1    -134.431-184.151 296.235  1.00  0.00     0.083 C 
HETATM   14  C7  UNL     1    -133.259-184.071 297.197  1.00  0.00     0.025 C 
HETATM   15  C8  UNL     1    -132.262-185.104 296.766  1.00  0.00     0.002 C 
HETATM   16  C9  UNL     1    -133.102-186.092 295.994  1.00  0.00     0.002 C 
HETATM   17  C10 UNL     1    -133.998-185.142 295.190  1.00  0.00     0.025 C 
ENDBRANCH  11  13
ENDBRANCH   1  11
TORSDOF 4
ENDMDL
