MODEL 1
REMARK VINA RESULT: -5.110819109      0.000      0.000
REMARK  4 active torsions:
REMARK  status: ('A' for Active; 'I' for Inactive)
REMARK    1  A    between atoms: C5_6  and  N1_7 
REMARK    2  A    between atoms: N1_7  and  C6_9 
REMARK    3  A    between atoms: C6_9  and  N2_11 
REMARK    4  A    between atoms: N2_11  and  C7_13 
ROOT
HETATM    1  C6  UNL     1    -135.726-182.054 295.258  1.00  0.00     0.168 C 
HETATM    2  S1  UNL     1    -136.707-182.417 293.964  1.00  0.00    -0.041 SA
ENDROOT
BRANCH   1   3
HETATM    3  N1  UNL     1    -136.104-181.030 296.158  1.00  0.00    -0.360 N 
ATOM      4  H1  UNL     1    -135.599-180.143 296.173  1.00  0.00     0.162 HD
BRANCH   3   5
HETATM    5  C5  UNL     1    -137.213-181.254 297.055  1.00  0.00     0.117 C 
HETATM    6  C1  UNL     1    -136.816-182.241 298.152  1.00  0.00     0.192 C 
HETATM    7  F1  UNL     1    -137.254-183.516 297.874  1.00  0.00    -0.247 F 
HETATM    8  C2  UNL     1    -137.589-181.694 299.356  1.00  0.00     0.039 C 
HETATM    9  C3  UNL     1    -137.259-180.223 299.230  1.00  0.00     0.005 C 
HETATM   10  C4  UNL     1    -137.537-179.968 297.765  1.00  0.00     0.028 C 
ENDBRANCH   3   5
ENDBRANCH   1   3
BRANCH   1  11
HETATM   11  N2  UNL     1    -134.545-182.829 295.365  1.00  0.00    -0.363 N 
ATOM     12  H2  UNL     1    -133.708-182.470 294.906  1.00  0.00     0.162 HD
BRANCH  11  13
HETATM   13  C7  UNL     1    -134.425-184.089 296.071  1.00  0.00     0.083 C 
HETATM   14  C8  UNL     1    -133.912-185.126 295.111  1.00  0.00     0.025 C 
HETATM   15  C9  UNL     1    -133.024-185.993 296.013  1.00  0.00     0.002 C 
HETATM   16  C10 UNL     1    -132.280-184.937 296.790  1.00  0.00     0.002 C 
HETATM   17  C11 UNL     1    -133.438-184.013 297.198  1.00  0.00     0.025 C 
ENDBRANCH  11  13
ENDBRANCH   1  11
TORSDOF 4
ENDMDL
MODEL 2
REMARK VINA RESULT: -5.046111416      1.186      5.157
REMARK  4 active torsions:
REMARK  status: ('A' for Active; 'I' for Inactive)
REMARK    1  A    between atoms: C5_6  and  N1_7 
REMARK    2  A    between atoms: N1_7  and  C6_9 
REMARK    3  A    between atoms: C6_9  and  N2_11 
REMARK    4  A    between atoms: N2_11  and  C7_13 
ROOT
HETATM    1  C6  UNL     1    -135.683-182.188 295.358  1.00  0.00     0.168 C 
HETATM    2  S1  UNL     1    -136.764-182.539 294.142  1.00  0.00    -0.041 SA
ENDROOT
BRANCH   1   3
HETATM    3  N1  UNL     1    -134.450-182.879 295.420  1.00  0.00    -0.360 N 
ATOM      4  H1  UNL     1    -133.619-182.493 294.970  1.00  0.00     0.162 HD
BRANCH   3   5
HETATM    5  C5  UNL     1    -134.381-184.136 296.126  1.00  0.00     0.117 C 
HETATM    6  C1  UNL     1    -133.965-185.257 295.175  1.00  0.00     0.192 C 
HETATM    7  F1  UNL     1    -135.050-185.980 294.733  1.00  0.00    -0.247 F 
HETATM    8  C2  UNL     1    -133.110-186.139 296.090  1.00  0.00     0.039 C 
HETATM    9  C3  UNL     1    -132.255-185.078 296.748  1.00  0.00     0.005 C 
HETATM   10  C4  UNL     1    -133.293-184.057 297.162  1.00  0.00     0.028 C 
ENDBRANCH   3   5
ENDBRANCH   1   3
BRANCH   1  11
HETATM   11  N2  UNL     1    -136.096-181.186 296.270  1.00  0.00    -0.363 N 
ATOM     12  H2  UNL     1    -135.538-180.333 296.310  1.00  0.00     0.162 HD
BRANCH  11  13
HETATM   13  C7  UNL     1    -137.243-181.270 297.151  1.00  0.00     0.083 C 
HETATM   14  C8  UNL     1    -136.955-182.295 298.212  1.00  0.00     0.025 C 
HETATM   15  C9  UNL     1    -137.656-181.699 299.440  1.00  0.00     0.002 C 
HETATM   16  C10 UNL     1    -137.231-180.255 299.344  1.00  0.00     0.002 C 
HETATM   17  C11 UNL     1    -137.507-179.974 297.859  1.00  0.00     0.025 C 
ENDBRANCH  11  13
ENDBRANCH   1  11
TORSDOF 4
ENDMDL
MODEL 3
REMARK VINA RESULT: -4.998274563      1.417      5.271
REMARK  4 active torsions:
REMARK  status: ('A' for Active; 'I' for Inactive)
REMARK    1  A    between atoms: C5_6  and  N1_7 
REMARK    2  A    between atoms: N1_7  and  C6_9 
REMARK    3  A    between atoms: C6_9  and  N2_11 
REMARK    4  A    between atoms: N2_11  and  C7_13 
ROOT
HETATM    1  C6  UNL     1    -135.408-183.008 295.264  1.00  0.00     0.168 C 
HETATM    2  S1  UNL     1    -136.661-184.033 294.878  1.00  0.00    -0.041 SA
ENDROOT
BRANCH   1   3
HETATM    3  N1  UNL     1    -134.157-183.157 294.619  1.00  0.00    -0.360 N 
ATOM      4  H1  UNL     1    -133.987-182.717 293.714  1.00  0.00     0.162 HD
BRANCH   3   5
HETATM    5  C5  UNL     1    -133.124-183.938 295.256  1.00  0.00     0.117 C 
HETATM    6  C1  UNL     1    -133.621-184.482 296.595  1.00  0.00     0.192 C 
HETATM    7  F1  UNL     1    -133.187-183.715 297.651  1.00  0.00    -0.247 F 
HETATM    8  C2  UNL     1    -132.932-185.850 296.649  1.00  0.00     0.039 C 
HETATM    9  C3  UNL     1    -133.225-186.344 295.249  1.00  0.00     0.005 C 
HETATM   10  C4  UNL     1    -132.831-185.147 294.410  1.00  0.00     0.028 C 
ENDBRANCH   3   5
ENDBRANCH   1   3
BRANCH   1  11
HETATM   11  N2  UNL     1    -135.702-182.028 296.243  1.00  0.00    -0.363 N 
ATOM     12  H2  UNL     1    -134.992-181.317 296.420  1.00  0.00     0.162 HD
BRANCH  11  13
HETATM   13  C7  UNL     1    -136.925-181.949 297.016  1.00  0.00     0.083 C 
HETATM   14  C8  UNL     1    -136.697-182.624 298.339  1.00  0.00     0.025 C 
HETATM   15  C9  UNL     1    -137.542-181.766 299.291  1.00  0.00     0.002 C 
HETATM   16  C10 UNL     1    -137.175-180.377 298.833  1.00  0.00     0.002 C 
HETATM   17  C11 UNL     1    -137.316-180.531 297.311  1.00  0.00     0.025 C 
ENDBRANCH  11  13
ENDBRANCH   1  11
TORSDOF 4
ENDMDL
MODEL 4
REMARK VINA RESULT: -4.991085508      0.988      1.406
REMARK  4 active torsions:
REMARK  status: ('A' for Active; 'I' for Inactive)
REMARK    1  A    between atoms: C5_6  and  N1_7 
REMARK    2  A    between atoms: N1_7  and  C6_9 
REMARK    3  A    between atoms: C6_9  and  N2_11 
REMARK    4  A    between atoms: N2_11  and  C7_13 
ROOT
HETATM    1  C6  UNL     1    -135.306-182.808 295.223  1.00  0.00     0.168 C 
HETATM    2  S1  UNL     1    -136.340-184.055 294.841  1.00  0.00    -0.041 SA
ENDROOT
BRANCH   1   3
HETATM    3  N1  UNL     1    -135.762-181.745 296.039  1.00  0.00    -0.360 N 
ATOM      4  H1  UNL     1    -135.301-180.836 296.006  1.00  0.00     0.162 HD
BRANCH   3   5
HETATM    5  C5  UNL     1    -136.886-181.963 296.917  1.00  0.00     0.117 C 
HETATM    6  C1  UNL     1    -136.401-182.354 298.313  1.00  0.00     0.192 C 
HETATM    7  F1  UNL     1    -136.449-183.715 298.508  1.00  0.00    -0.247 F 
HETATM    8  C2  UNL     1    -137.448-181.679 299.205  1.00  0.00     0.039 C 
HETATM    9  C3  UNL     1    -137.499-180.312 298.558  1.00  0.00     0.005 C 
HETATM   10  C4  UNL     1    -137.630-180.668 297.093  1.00  0.00     0.028 C 
ENDBRANCH   3   5
ENDBRANCH   1   3
BRANCH   1  11
HETATM   11  N2  UNL     1    -134.001-182.912 294.684  1.00  0.00    -0.363 N 
ATOM     12  H2  UNL     1    -133.806-182.392 293.829  1.00  0.00     0.162 HD
BRANCH  11  13
HETATM   13  C7  UNL     1    -132.918-183.695 295.245  1.00  0.00     0.083 C 
HETATM   14  C8  UNL     1    -133.274-184.057 296.659  1.00  0.00     0.025 C 
HETATM   15  C9  UNL     1    -132.664-185.459 296.800  1.00  0.00     0.002 C 
HETATM   16  C10 UNL     1    -133.089-186.092 295.499  1.00  0.00     0.002 C 
HETATM   17  C11 UNL     1    -132.710-184.983 294.504  1.00  0.00     0.025 C 
ENDBRANCH  11  13
ENDBRANCH   1  11
TORSDOF 4
ENDMDL
MODEL 5
REMARK VINA RESULT: -4.846850788      1.976      5.741
REMARK  4 active torsions:
REMARK  status: ('A' for Active; 'I' for Inactive)
REMARK    1  A    between atoms: C5_6  and  N1_7 
REMARK    2  A    between atoms: N1_7  and  C6_9 
REMARK    3  A    between atoms: C6_9  and  N2_11 
REMARK    4  A    between atoms: N2_11  and  C7_13 
ROOT
HETATM    1  C6  UNL     1    -136.217-183.236 297.130  1.00  0.00     0.168 C 
HETATM    2  S1  UNL     1    -136.989-183.542 295.688  1.00  0.00    -0.041 SA
ENDROOT
BRANCH   1   3
HETATM    3  N1  UNL     1    -134.806-183.318 297.201  1.00  0.00    -0.360 N 
ATOM      4  H1  UNL     1    -134.300-182.860 297.959  1.00  0.00     0.162 HD
BRANCH   3   5
HETATM    5  C5  UNL     1    -134.092-184.058 296.187  1.00  0.00     0.117 C 
HETATM    6  C1  UNL     1    -133.325-183.102 295.275  1.00  0.00     0.192 C 
HETATM    7  F1  UNL     1    -134.003-182.857 294.103  1.00  0.00    -0.247 F 
HETATM    8  C2  UNL     1    -132.063-183.914 294.967  1.00  0.00     0.039 C 
HETATM    9  C3  UNL     1    -131.715-184.392 296.360  1.00  0.00     0.005 C 
HETATM   10  C4  UNL     1    -133.048-184.914 296.849  1.00  0.00     0.028 C 
ENDBRANCH   3   5
ENDBRANCH   1   3
BRANCH   1  11
HETATM   11  N2  UNL     1    -137.063-182.902 298.216  1.00  0.00    -0.363 N 
ATOM     12  H2  UNL     1    -137.799-183.566 298.456  1.00  0.00     0.162 HD
BRANCH  11  13
HETATM   13  C7  UNL     1    -136.973-181.696 299.015  1.00  0.00     0.083 C 
HETATM   14  C8  UNL     1    -136.933-180.513 298.089  1.00  0.00     0.025 C 
HETATM   15  C9  UNL     1    -137.715-179.455 298.879  1.00  0.00     0.002 C 
HETATM   16  C10 UNL     1    -138.888-180.267 299.369  1.00  0.00     0.002 C 
HETATM   17  C11 UNL     1    -138.169-181.516 299.902  1.00  0.00     0.025 C 
ENDBRANCH  11  13
ENDBRANCH   1  11
TORSDOF 4
ENDMDL
