MODEL 1
REMARK VINA RESULT: -6.513891819      0.000      0.000
REMARK  2 active torsions:
REMARK  status: ('A' for Active; 'I' for Inactive)
REMARK    1  A    between atoms: N1_1  and  C1_4 
REMARK    2  A    between atoms: C2_7  and  N3_8 
ROOT
HETATM    1  C1  UNL     1     -18.395 -30.556  -4.738  1.00  0.00     0.680 A 
HETATM    2  N2  UNL     1     -19.399 -30.566  -3.819  1.00  0.00    -0.175 N 
ATOM      3  H2  UNL     1     -19.411 -31.283  -3.094  1.00  0.00     0.186 HD
HETATM    4  C2  UNL     1     -20.378 -29.641  -3.854  1.00  0.00     0.149 A 
HETATM    5  C7  UNL     1     -20.322 -28.695  -4.852  1.00  0.00     0.159 A 
HETATM    6  N5  UNL     1     -21.368 -27.706  -4.897  1.00  0.00    -0.092 NA
HETATM    7  C8  UNL     1     -19.319 -28.660  -5.795  1.00  0.00     0.287 A 
HETATM    8  O1  UNL     1     -19.304 -27.778  -6.692  1.00  0.00    -0.265 OA
HETATM    9  N6  UNL     1     -18.376 -29.615  -5.698  1.00  0.00    -0.155 N 
ATOM     10  H6  UNL     1     -17.617 -29.625  -6.379  1.00  0.00     0.187 HD
ENDROOT
BRANCH   4  11
HETATM   11  N3  UNL     1     -21.432 -29.608  -2.921  1.00  0.00    -0.362 N 
HETATM   12  C3  UNL     1     -21.176 -28.953  -1.655  1.00  0.00     0.152 C 
HETATM   13  C4  UNL     1     -21.381 -29.971  -0.546  1.00  0.00     0.252 C 
HETATM   14  N4  UNL     1     -22.465 -30.872  -0.795  1.00  0.00    -0.072 N 
HETATM   15  C5  UNL     1     -23.402 -30.363  -1.772  1.00  0.00     0.252 C 
ATOM     16  H42 UNL     1     -22.120 -31.793  -1.065  1.00  0.00     0.277 HD
ATOM     17  H41 UNL     1     -22.940 -31.121   0.073  1.00  0.00     0.277 HD
HETATM   18  C6  UNL     1     -22.751 -30.167  -3.127  1.00  0.00     0.152 C 
ENDBRANCH   4  11
BRANCH   1  19
HETATM   19  N1  UNL     1     -17.440 -31.433  -4.705  1.00  0.00    -0.234 N 
ATOM     20  H12 UNL     1     -17.645 -32.368  -4.353  1.00  0.00     0.174 HD
ATOM     21  H11 UNL     1     -16.500 -31.207  -5.029  1.00  0.00     0.174 HD
ENDBRANCH   1  19
TORSDOF 2
ENDMDL
MODEL 2
REMARK VINA RESULT: -6.503614056      2.200      3.281
REMARK  2 active torsions:
REMARK  status: ('A' for Active; 'I' for Inactive)
REMARK    1  A    between atoms: N1_1  and  C1_4 
REMARK    2  A    between atoms: C2_7  and  N3_8 
ROOT
HETATM    1  C1  UNL     1     -19.866 -30.052  -3.345  1.00  0.00     0.680 A 
HETATM    2  N2  UNL     1     -20.174 -29.966  -2.022  1.00  0.00    -0.175 N 
ATOM      3  H2  UNL     1     -19.425 -29.881  -1.334  1.00  0.00     0.186 HD
HETATM    4  C2  UNL     1     -21.456 -29.990  -1.607  1.00  0.00     0.149 A 
HETATM    5  C7  UNL     1     -22.432 -30.109  -2.570  1.00  0.00     0.159 A 
HETATM    6  N5  UNL     1     -23.804 -30.140  -2.132  1.00  0.00    -0.092 NA
HETATM    7  C8  UNL     1     -22.150 -30.199  -3.914  1.00  0.00     0.287 A 
HETATM    8  O1  UNL     1     -23.073 -30.306  -4.763  1.00  0.00    -0.265 OA
HETATM    9  N6  UNL     1     -20.849 -30.168  -4.255  1.00  0.00    -0.155 N 
ATOM     10  H6  UNL     1     -20.598 -30.234  -5.241  1.00  0.00     0.187 HD
ENDROOT
BRANCH   4  11
HETATM   11  N3  UNL     1     -21.822 -29.897  -0.250  1.00  0.00    -0.362 N 
HETATM   12  C3  UNL     1     -22.004 -28.568   0.296  1.00  0.00     0.152 C 
HETATM   13  C4  UNL     1     -21.027 -28.392   1.446  1.00  0.00     0.252 C 
HETATM   14  N4  UNL     1     -20.846 -29.579   2.226  1.00  0.00    -0.072 N 
HETATM   15  C5  UNL     1     -21.931 -30.522   2.067  1.00  0.00     0.252 C 
ATOM     16  H42 UNL     1     -19.948 -30.017   2.023  1.00  0.00     0.277 HD
ATOM     17  H41 UNL     1     -20.700 -29.351   3.209  1.00  0.00     0.277 HD
HETATM   18  C6  UNL     1     -22.039 -31.018   0.638  1.00  0.00     0.152 C 
ENDBRANCH   4  11
BRANCH   1  19
HETATM   19  N1  UNL     1     -18.636 -30.016  -3.755  1.00  0.00    -0.234 N 
ATOM     20  H12 UNL     1     -18.257 -30.829  -4.242  1.00  0.00     0.174 HD
ATOM     21  H11 UNL     1     -18.051 -29.195  -3.607  1.00  0.00     0.174 HD
ENDBRANCH   1  19
TORSDOF 2
ENDMDL
MODEL 3
REMARK VINA RESULT: -6.482668541      1.514      2.291
REMARK  2 active torsions:
REMARK  status: ('A' for Active; 'I' for Inactive)
REMARK    1  A    between atoms: N1_1  and  C1_4 
REMARK    2  A    between atoms: C2_7  and  N3_8 
ROOT
HETATM    1  C1  UNL     1     -18.514 -30.625  -4.818  1.00  0.00     0.680 A 
HETATM    2  N2  UNL     1     -19.739 -31.060  -4.414  1.00  0.00    -0.175 N 
ATOM      3  H2  UNL     1     -19.842 -32.007  -4.049  1.00  0.00     0.186 HD
HETATM    4  C2  UNL     1     -20.818 -30.257  -4.490  1.00  0.00     0.149 A 
HETATM    5  C7  UNL     1     -20.632 -28.990  -4.993  1.00  0.00     0.159 A 
HETATM    6  N5  UNL     1     -21.784 -28.128  -5.081  1.00  0.00    -0.092 NA
HETATM    7  C8  UNL     1     -19.406 -28.523  -5.410  1.00  0.00     0.287 A 
HETATM    8  O1  UNL     1     -19.278 -27.356  -5.863  1.00  0.00    -0.265 OA
HETATM    9  N6  UNL     1     -18.374 -29.379  -5.304  1.00  0.00    -0.155 N 
ATOM     10  H6  UNL     1     -17.449 -29.072  -5.604  1.00  0.00     0.187 HD
ENDROOT
BRANCH   4  11
HETATM   11  N3  UNL     1     -22.103 -30.662  -4.078  1.00  0.00    -0.362 N 
HETATM   12  C3  UNL     1     -22.829 -31.555  -4.958  1.00  0.00     0.152 C 
HETATM   13  C4  UNL     1     -24.123 -30.870  -5.363  1.00  0.00     0.252 C 
HETATM   14  N4  UNL     1     -24.714 -30.103  -4.308  1.00  0.00    -0.072 N 
HETATM   15  C5  UNL     1     -24.242 -30.497  -2.999  1.00  0.00     0.252 C 
ATOM     16  H42 UNL     1     -24.576 -29.104  -4.462  1.00  0.00     0.277 HD
ATOM     17  H41 UNL     1     -25.732 -30.138  -4.357  1.00  0.00     0.277 HD
HETATM   18  C6  UNL     1     -22.752 -30.268  -2.847  1.00  0.00     0.152 C 
ENDBRANCH   4  11
BRANCH   1  19
HETATM   19  N1  UNL     1     -17.467 -31.385  -4.737  1.00  0.00    -0.234 N 
ATOM     20  H12 UNL     1     -17.028 -31.520  -3.826  1.00  0.00     0.174 HD
ATOM     21  H11 UNL     1     -17.083 -31.851  -5.559  1.00  0.00     0.174 HD
ENDBRANCH   1  19
TORSDOF 2
ENDMDL
MODEL 4
REMARK VINA RESULT: -6.446771288      2.404      4.933
REMARK  2 active torsions:
REMARK  status: ('A' for Active; 'I' for Inactive)
REMARK    1  A    between atoms: N1_1  and  C1_4 
REMARK    2  A    between atoms: C2_7  and  N3_8 
ROOT
HETATM    1  C1  UNL     1     -21.432 -31.077  -1.550  1.00  0.00     0.680 A 
HETATM    2  N2  UNL     1     -20.481 -30.553  -2.371  1.00  0.00    -0.175 N 
ATOM      3  H2  UNL     1     -19.629 -30.162  -1.970  1.00  0.00     0.186 HD
HETATM    4  C2  UNL     1     -20.650 -30.546  -3.708  1.00  0.00     0.149 A 
HETATM    5  C7  UNL     1     -21.816 -31.082  -4.204  1.00  0.00     0.159 A 
HETATM    6  N5  UNL     1     -22.005 -31.072  -5.632  1.00  0.00    -0.092 NA
HETATM    7  C8  UNL     1     -22.796 -31.616  -3.397  1.00  0.00     0.287 A 
HETATM    8  O1  UNL     1     -23.849 -32.098  -3.891  1.00  0.00    -0.265 OA
HETATM    9  N6  UNL     1     -22.559 -31.591  -2.073  1.00  0.00    -0.155 N 
ATOM     10  H6  UNL     1     -23.261 -31.976  -1.442  1.00  0.00     0.187 HD
ENDROOT
BRANCH   4  11
HETATM   11  N3  UNL     1     -19.691 -30.021  -4.596  1.00  0.00    -0.362 N 
HETATM   12  C3  UNL     1     -19.606 -28.579  -4.702  1.00  0.00     0.152 C 
HETATM   13  C4  UNL     1     -19.884 -28.194  -6.145  1.00  0.00     0.252 C 
HETATM   14  N4  UNL     1     -19.338 -29.117  -7.094  1.00  0.00    -0.072 N 
HETATM   15  C5  UNL     1     -18.279 -29.930  -6.538  1.00  0.00     0.252 C 
ATOM     16  H42 UNL     1     -20.070 -29.698  -7.502  1.00  0.00     0.277 HD
ATOM     17  H41 UNL     1     -19.024 -28.633  -7.936  1.00  0.00     0.277 HD
HETATM   18  C6  UNL     1     -18.779 -30.803  -5.403  1.00  0.00     0.152 C 
ENDBRANCH   4  11
BRANCH   1  19
HETATM   19  N1  UNL     1     -21.273 -31.101  -0.263  1.00  0.00    -0.234 N 
ATOM     20  H12 UNL     1     -21.246 -30.217   0.245  1.00  0.00     0.174 HD
ATOM     21  H11 UNL     1     -21.184 -31.981   0.244  1.00  0.00     0.174 HD
ENDBRANCH   1  19
TORSDOF 2
ENDMDL
MODEL 5
REMARK VINA RESULT: -6.358576925      0.977      1.574
REMARK  2 active torsions:
REMARK  status: ('A' for Active; 'I' for Inactive)
REMARK    1  A    between atoms: N1_1  and  C1_4 
REMARK    2  A    between atoms: C2_7  and  N3_8 
ROOT
HETATM    1  C1  UNL     1     -18.142 -30.238  -5.336  1.00  0.00     0.680 A 
HETATM    2  N2  UNL     1     -18.850 -30.609  -4.234  1.00  0.00    -0.175 N 
ATOM      3  H2  UNL     1     -18.678 -31.520  -3.808  1.00  0.00     0.186 HD
HETATM    4  C2  UNL     1     -19.774 -29.789  -3.697  1.00  0.00     0.149 A 
HETATM    5  C7  UNL     1     -19.974 -28.571  -4.307  1.00  0.00     0.159 A 
HETATM    6  N5  UNL     1     -20.965 -27.692  -3.741  1.00  0.00    -0.092 NA
HETATM    7  C8  UNL     1     -19.274 -28.170  -5.423  1.00  0.00     0.287 A 
HETATM    8  O1  UNL     1     -19.487 -27.048  -5.951  1.00  0.00    -0.265 OA
HETATM    9  N6  UNL     1     -18.367 -29.040  -5.903  1.00  0.00    -0.155 N 
ATOM     10  H6  UNL     1     -17.829 -28.781  -6.730  1.00  0.00     0.187 HD
ENDROOT
BRANCH   4  11
HETATM   11  N3  UNL     1     -20.525 -30.127  -2.554  1.00  0.00    -0.362 N 
HETATM   12  C3  UNL     1     -21.664 -31.001  -2.747  1.00  0.00     0.152 C 
HETATM   13  C4  UNL     1     -22.908 -30.265  -2.280  1.00  0.00     0.252 C 
HETATM   14  N4  UNL     1     -22.687 -29.453  -1.122  1.00  0.00    -0.072 N 
HETATM   15  C5  UNL     1     -21.508 -29.845  -0.381  1.00  0.00     0.252 C 
ATOM     16  H42 UNL     1     -22.652 -28.465  -1.370  1.00  0.00     0.277 HD
ATOM     17  H41 UNL     1     -23.511 -29.443  -0.520  1.00  0.00     0.277 HD
HETATM   18  C6  UNL     1     -20.247 -29.682  -1.206  1.00  0.00     0.152 C 
ENDBRANCH   4  11
BRANCH   1  19
HETATM   19  N1  UNL     1     -17.240 -31.014  -5.852  1.00  0.00    -0.234 N 
ATOM     20  H12 UNL     1     -16.740 -31.659  -5.241  1.00  0.00     0.174 HD
ATOM     21  H11 UNL     1     -17.032 -30.995  -6.850  1.00  0.00     0.174 HD
ENDBRANCH   1  19
TORSDOF 2
ENDMDL
