MODEL 1
REMARK VINA RESULT: -7.486360459      0.000      0.000
REMARK  4 active torsions:
REMARK  status: ('A' for Active; 'I' for Inactive)
REMARK    1  A    between atoms: N1_1  and  C1_4 
REMARK    2  A    between atoms: C2_7  and  N3_8 
REMARK    3  A    between atoms: N4_11  and  C3_12 
REMARK    4  A    between atoms: C3_12  and  C4_13 
ROOT
HETATM    1  C1  UNL     1     -29.934 -12.765 -17.724  1.00  0.00     0.145 A 
HETATM    2  N2  UNL     1     -31.086 -12.132 -17.980  1.00  0.00    -0.174 N 
ATOM      3  H2  UNL     1     -31.357 -11.334 -17.405  1.00  0.00     0.186 HD
HETATM    4  C2  UNL     1     -31.891 -12.529 -18.979  1.00  0.00     0.685 A 
HETATM    5  N4  UNL     1     -31.564 -13.591 -19.765  1.00  0.00    -0.138 N 
HETATM    6  C5  UNL     1     -30.414 -14.232 -19.520  1.00  0.00     0.163 A 
HETATM    7  N5  UNL     1     -29.829 -15.296 -20.114  1.00  0.00    -0.292 N 
ATOM      8  H5  UNL     1     -30.205 -15.815 -20.907  1.00  0.00     0.172 HD
HETATM    9  C6  UNL     1     -28.656 -15.560 -19.480  1.00  0.00     0.326 A 
HETATM   10  O2  UNL     1     -27.863 -16.498 -19.795  1.00  0.00    -0.247 OA
HETATM   11  N6  UNL     1     -28.483 -14.677 -18.489  1.00  0.00    -0.302 N 
ATOM     12  H6  UNL     1     -27.691 -14.634 -17.847  1.00  0.00     0.171 HD
HETATM   13  C7  UNL     1     -29.544 -13.861 -18.497  1.00  0.00     0.126 A 
ENDROOT
BRANCH   1  14
HETATM   14  N1  UNL     1     -29.126 -12.412 -16.767  1.00  0.00    -0.383 N 
ATOM     15  H12 UNL     1     -29.507 -12.425 -15.822  1.00  0.00     0.157 HD
ATOM     16  H11 UNL     1     -28.158 -12.133 -16.930  1.00  0.00     0.157 HD
ENDBRANCH   1  14
BRANCH   4  17
HETATM   17  N3  UNL     1     -33.003 -11.928 -19.235  1.00  0.00    -0.234 N 
ATOM     18  H32 UNL     1     -33.095 -11.487 -20.151  1.00  0.00     0.174 HD
ATOM     19  H31 UNL     1     -33.763 -11.891 -18.557  1.00  0.00     0.174 HD
ENDBRANCH   4  17
BRANCH   5  20
HETATM   20  C3  UNL     1     -32.394 -14.034 -20.828  1.00  0.00     0.158 C 
BRANCH  20  21
HETATM   21  C4  UNL     1     -32.778 -15.278 -20.934  1.00  0.00     0.276 C 
HETATM   22  O1  UNL     1     -32.746 -16.536 -20.948  1.00  0.00    -0.301 OA
ENDBRANCH  20  21
ENDBRANCH   5  20
TORSDOF 4
ENDMDL
MODEL 2
REMARK VINA RESULT: -7.214828463      0.902      3.568
REMARK  4 active torsions:
REMARK  status: ('A' for Active; 'I' for Inactive)
REMARK    1  A    between atoms: N1_1  and  C1_4 
REMARK    2  A    between atoms: C2_7  and  N3_8 
REMARK    3  A    between atoms: N4_11  and  C3_12 
REMARK    4  A    between atoms: C3_12  and  C4_13 
ROOT
HETATM    1  C1  UNL     1     -32.028 -12.478 -19.114  1.00  0.00     0.145 A 
HETATM    2  N2  UNL     1     -31.170 -11.983 -18.212  1.00  0.00    -0.174 N 
ATOM      3  H2  UNL     1     -31.397 -11.115 -17.728  1.00  0.00     0.186 HD
HETATM    4  C2  UNL     1     -30.015 -12.612 -17.933  1.00  0.00     0.685 A 
HETATM    5  N4  UNL     1     -29.678 -13.772 -18.560  1.00  0.00    -0.138 N 
HETATM    6  C5  UNL     1     -30.528 -14.276 -19.464  1.00  0.00     0.163 A 
HETATM    7  N5  UNL     1     -30.474 -15.387 -20.233  1.00  0.00    -0.292 N 
ATOM      8  H5  UNL     1     -29.714 -16.067 -20.242  1.00  0.00     0.172 HD
HETATM    9  C6  UNL     1     -31.599 -15.447 -20.992  1.00  0.00     0.326 A 
HETATM   10  O2  UNL     1     -31.858 -16.369 -21.823  1.00  0.00    -0.247 OA
HETATM   11  N6  UNL     1     -32.374 -14.390 -20.717  1.00  0.00    -0.302 N 
ATOM     12  H6  UNL     1     -33.279 -14.177 -21.136  1.00  0.00     0.171 HD
HETATM   13  C7  UNL     1     -31.737 -13.665 -19.789  1.00  0.00     0.126 A 
ENDROOT
BRANCH   1  14
HETATM   14  N1  UNL     1     -33.156 -11.902 -19.412  1.00  0.00    -0.383 N 
ATOM     15  H12 UNL     1     -33.105 -10.926 -19.704  1.00  0.00     0.157 HD
ATOM     16  H11 UNL     1     -34.056 -12.380 -19.363  1.00  0.00     0.157 HD
ENDBRANCH   1  14
BRANCH   4  17
HETATM   17  N3  UNL     1     -29.181 -12.146 -17.067  1.00  0.00    -0.234 N 
ATOM     18  H32 UNL     1     -29.330 -11.190 -16.743  1.00  0.00     0.174 HD
ATOM     19  H31 UNL     1     -28.404 -12.705 -16.715  1.00  0.00     0.174 HD
ENDBRANCH   4  17
BRANCH   5  20
HETATM   20  C3  UNL     1     -28.466 -14.458 -18.287  1.00  0.00     0.158 C 
BRANCH  20  21
HETATM   21  C4  UNL     1     -27.974 -15.348 -19.107  1.00  0.00     0.276 C 
HETATM   22  O1  UNL     1     -27.856 -16.393 -19.797  1.00  0.00    -0.301 OA
ENDBRANCH  20  21
ENDBRANCH   5  20
TORSDOF 4
ENDMDL
MODEL 3
REMARK VINA RESULT: -7.044939726      2.240      3.341
REMARK  4 active torsions:
REMARK  status: ('A' for Active; 'I' for Inactive)
REMARK    1  A    between atoms: N1_1  and  C1_4 
REMARK    2  A    between atoms: C2_7  and  N3_8 
REMARK    3  A    between atoms: N4_11  and  C3_12 
REMARK    4  A    between atoms: C3_12  and  C4_13 
ROOT
HETATM    1  C1  UNL     1     -32.587 -13.415 -20.406  1.00  0.00     0.145 A 
HETATM    2  N2  UNL     1     -33.495 -14.169 -21.039  1.00  0.00    -0.174 N 
ATOM      3  H2  UNL     1     -34.401 -13.766 -21.279  1.00  0.00     0.186 HD
HETATM    4  C2  UNL     1     -33.235 -15.446 -21.364  1.00  0.00     0.685 A 
HETATM    5  N4  UNL     1     -32.037 -16.018 -21.059  1.00  0.00    -0.138 N 
HETATM    6  C5  UNL     1     -31.121 -15.275 -20.426  1.00  0.00     0.163 A 
HETATM    7  N5  UNL     1     -29.869 -15.554 -20.000  1.00  0.00    -0.292 N 
ATOM      8  H5  UNL     1     -29.391 -16.449 -20.105  1.00  0.00     0.172 HD
HETATM    9  C6  UNL     1     -29.351 -14.446 -19.409  1.00  0.00     0.326 A 
HETATM   10  O2  UNL     1     -28.190 -14.376 -18.902  1.00  0.00    -0.247 OA
HETATM   11  N6  UNL     1     -30.256 -13.460 -19.452  1.00  0.00    -0.302 N 
ATOM     12  H6  UNL     1     -30.141 -12.515 -19.085  1.00  0.00     0.171 HD
HETATM   13  C7  UNL     1     -31.341 -13.946 -20.067  1.00  0.00     0.126 A 
ENDROOT
BRANCH   1  14
HETATM   14  N1  UNL     1     -32.799 -12.175 -20.075  1.00  0.00    -0.383 N 
ATOM     15  H12 UNL     1     -32.926 -11.985 -19.081  1.00  0.00     0.157 HD
ATOM     16  H11 UNL     1     -32.841 -11.416 -20.754  1.00  0.00     0.157 HD
ENDBRANCH   1  14
BRANCH   4  17
HETATM   17  N3  UNL     1     -34.101 -16.183 -21.974  1.00  0.00    -0.234 N 
ATOM     18  H32 UNL     1     -33.788 -17.098 -22.299  1.00  0.00     0.174 HD
ATOM     19  H31 UNL     1     -35.059 -15.870 -22.126  1.00  0.00     0.174 HD
ENDBRANCH   4  17
BRANCH   5  20
HETATM   20  C3  UNL     1     -31.733 -17.365 -21.389  1.00  0.00     0.158 C 
BRANCH  20  21
HETATM   21  C4  UNL     1     -30.870 -17.671 -22.320  1.00  0.00     0.276 C 
HETATM   22  O1  UNL     1     -29.781 -17.806 -22.935  1.00  0.00    -0.301 OA
ENDBRANCH  20  21
ENDBRANCH   5  20
TORSDOF 4
ENDMDL
MODEL 4
REMARK VINA RESULT: -6.990518801      2.059      3.122
REMARK  4 active torsions:
REMARK  status: ('A' for Active; 'I' for Inactive)
REMARK    1  A    between atoms: N1_1  and  C1_4 
REMARK    2  A    between atoms: C2_7  and  N3_8 
REMARK    3  A    between atoms: N4_11  and  C3_12 
REMARK    4  A    between atoms: C3_12  and  C4_13 
ROOT
HETATM    1  C1  UNL     1     -32.373 -13.432 -20.217  1.00  0.00     0.145 A 
HETATM    2  N2  UNL     1     -33.242 -14.092 -20.993  1.00  0.00    -0.174 N 
ATOM      3  H2  UNL     1     -34.149 -13.673 -21.199  1.00  0.00     0.186 HD
HETATM    4  C2  UNL     1     -32.941 -15.298 -21.504  1.00  0.00     0.685 A 
HETATM    5  N4  UNL     1     -31.742 -15.890 -21.249  1.00  0.00    -0.138 N 
HETATM    6  C5  UNL     1     -30.864 -15.239 -20.474  1.00  0.00     0.163 A 
HETATM    7  N5  UNL     1     -29.621 -15.560 -20.052  1.00  0.00    -0.292 N 
ATOM      8  H5  UNL     1     -29.120 -16.419 -20.278  1.00  0.00     0.172 HD
HETATM    9  C6  UNL     1     -29.149 -14.550 -19.276  1.00  0.00     0.326 A 
HETATM   10  O2  UNL     1     -28.008 -14.540 -18.723  1.00  0.00    -0.247 OA
HETATM   11  N6  UNL     1     -30.075 -13.585 -19.197  1.00  0.00    -0.302 N 
ATOM     12  H6  UNL     1     -29.993 -12.708 -18.683  1.00  0.00     0.171 HD
HETATM   13  C7  UNL     1     -31.127 -13.987 -19.920  1.00  0.00     0.126 A 
ENDROOT
BRANCH   1  14
HETATM   14  N1  UNL     1     -32.624 -12.263 -19.703  1.00  0.00    -0.383 N 
ATOM     15  H12 UNL     1     -31.854 -11.594 -19.694  1.00  0.00     0.157 HD
ATOM     16  H11 UNL     1     -33.535 -12.006 -19.322  1.00  0.00     0.157 HD
ENDBRANCH   1  14
BRANCH   4  17
HETATM   17  N3  UNL     1     -33.769 -15.945 -22.252  1.00  0.00    -0.234 N 
ATOM     18  H32 UNL     1     -33.422 -16.786 -22.712  1.00  0.00     0.174 HD
ATOM     19  H31 UNL     1     -34.732 -15.634 -22.382  1.00  0.00     0.174 HD
ENDBRANCH   4  17
BRANCH   5  20
HETATM   20  C3  UNL     1     -31.396 -17.163 -21.774  1.00  0.00     0.158 C 
BRANCH  20  21
HETATM   21  C4  UNL     1     -31.631 -18.268 -21.119  1.00  0.00     0.276 C 
HETATM   22  O1  UNL     1     -32.087 -19.072 -20.266  1.00  0.00    -0.301 OA
ENDBRANCH  20  21
ENDBRANCH   5  20
TORSDOF 4
ENDMDL
MODEL 5
REMARK VINA RESULT: -6.961683118      2.289      3.955
REMARK  4 active torsions:
REMARK  status: ('A' for Active; 'I' for Inactive)
REMARK    1  A    between atoms: N1_1  and  C1_4 
REMARK    2  A    between atoms: C2_7  and  N3_8 
REMARK    3  A    between atoms: N4_11  and  C3_12 
REMARK    4  A    between atoms: C3_12  and  C4_13 
ROOT
HETATM    1  C1  UNL     1     -33.164 -15.145 -21.524  1.00  0.00     0.145 A 
HETATM    2  N2  UNL     1     -33.398 -13.951 -20.964  1.00  0.00    -0.174 N 
ATOM      3  H2  UNL     1     -34.291 -13.487 -21.128  1.00  0.00     0.186 HD
HETATM    4  C2  UNL     1     -32.477 -13.354 -20.189  1.00  0.00     0.685 A 
HETATM    5  N4  UNL     1     -31.273 -13.943 -19.949  1.00  0.00    -0.138 N 
HETATM    6  C5  UNL     1     -31.027 -15.137 -20.503  1.00  0.00     0.163 A 
HETATM    7  N5  UNL     1     -29.951 -15.953 -20.451  1.00  0.00    -0.292 N 
ATOM      8  H5  UNL     1     -29.090 -15.769 -19.937  1.00  0.00     0.172 HD
HETATM    9  C6  UNL     1     -30.206 -17.060 -21.196  1.00  0.00     0.326 A 
HETATM   10  O2  UNL     1     -29.397 -18.024 -21.352  1.00  0.00    -0.247 OA
HETATM   11  N6  UNL     1     -31.433 -16.964 -21.724  1.00  0.00    -0.302 N 
ATOM     12  H6  UNL     1     -31.889 -17.649 -22.325  1.00  0.00     0.171 HD
HETATM   13  C7  UNL     1     -31.949 -15.798 -21.314  1.00  0.00     0.126 A 
ENDROOT
BRANCH   1  14
HETATM   14  N1  UNL     1     -34.029 -15.757 -22.279  1.00  0.00    -0.383 N 
ATOM     15  H12 UNL     1     -33.772 -15.880 -23.258  1.00  0.00     0.157 HD
ATOM     16  H11 UNL     1     -34.924 -16.104 -21.933  1.00  0.00     0.157 HD
ENDBRANCH   1  14
BRANCH   4  17
HETATM   17  N3  UNL     1     -32.689 -12.205 -19.644  1.00  0.00    -0.234 N 
ATOM     18  H32 UNL     1     -32.268 -11.391 -20.093  1.00  0.00     0.174 HD
ATOM     19  H31 UNL     1     -33.253 -12.106 -18.800  1.00  0.00     0.174 HD
ENDBRANCH   4  17
BRANCH   5  20
HETATM   20  C3  UNL     1     -30.280 -13.337 -19.135  1.00  0.00     0.158 C 
BRANCH  20  21
HETATM   21  C4  UNL     1     -30.281 -13.459 -17.835  1.00  0.00     0.276 C 
HETATM   22  O1  UNL     1     -30.690 -13.559 -16.650  1.00  0.00    -0.301 OA
ENDBRANCH  20  21
ENDBRANCH   5  20
TORSDOF 4
ENDMDL
