MODEL 1
REMARK VINA RESULT: -7.701046747      0.000      0.000
REMARK  3 active torsions:
REMARK  status: ('A' for Active; 'I' for Inactive)
REMARK    1  A    between atoms: N1_1  and  C1_4 
REMARK    2  A    between atoms: C5_15  and  N5_16 
REMARK    3  A    between atoms: N6_19  and  C6_20 
ROOT
HETATM    1  C1  UNL     1     -29.439 -13.021 -18.837  1.00  0.00     0.680 A 
HETATM    2  N2  UNL     1     -28.549 -14.015 -18.983  1.00  0.00    -0.154 N 
ATOM      3  H2  UNL     1     -27.627 -13.934 -18.555  1.00  0.00     0.187 HD
HETATM    4  C2  UNL     1     -28.868 -15.135 -19.699  1.00  0.00     0.291 A 
HETATM    5  O1  UNL     1     -28.028 -16.057 -19.827  1.00  0.00    -0.265 OA
HETATM    6  C3  UNL     1     -30.130 -15.190 -20.253  1.00  0.00     0.172 A 
HETATM    7  C4  UNL     1     -31.034 -14.162 -20.096  1.00  0.00     0.170 A 
HETATM    8  N3  UNL     1     -30.665 -13.086 -19.383  1.00  0.00    -0.174 N 
ATOM      9  H3  UNL     1     -31.318 -12.314 -19.254  1.00  0.00     0.186 HD
HETATM   10  N4  UNL     1     -32.184 -14.426 -20.712  1.00  0.00    -0.173 N 
ATOM     11  H4  UNL     1     -33.013 -13.832 -20.749  1.00  0.00     0.186 HD
HETATM   12  C5  UNL     1     -32.025 -15.661 -21.288  1.00  0.00     0.687 A 
HETATM   13  N6  UNL     1     -30.787 -16.116 -21.008  1.00  0.00    -0.114 N 
ENDROOT
BRANCH   1  14
HETATM   14  N1  UNL     1     -29.119 -11.953 -18.149  1.00  0.00    -0.234 N 
ATOM     15  H12 UNL     1     -28.255 -11.965 -17.607  1.00  0.00     0.174 HD
ATOM     16  H11 UNL     1     -29.730 -11.136 -18.163  1.00  0.00     0.174 HD
ENDBRANCH   1  14
BRANCH  13  17
HETATM   17  C6  UNL     1     -30.233 -17.344 -21.416  1.00  0.00     0.377 C 
HETATM   18  O2  UNL     1     -30.003 -17.635 -22.635  1.00  0.00    -0.282 OA
ENDBRANCH  13  17
BRANCH  12  19
HETATM   19  N5  UNL     1     -32.965 -16.205 -21.963  1.00  0.00    -0.234 N 
ATOM     20  H52 UNL     1     -33.971 -16.046 -21.927  1.00  0.00     0.174 HD
ATOM     21  H51 UNL     1     -32.767 -16.918 -22.665  1.00  0.00     0.174 HD
ENDBRANCH  12  19
TORSDOF 3
ENDMDL
MODEL 2
REMARK VINA RESULT: -7.309181590      1.509      4.339
REMARK  3 active torsions:
REMARK  status: ('A' for Active; 'I' for Inactive)
REMARK    1  A    between atoms: N1_1  and  C1_4 
REMARK    2  A    between atoms: C5_15  and  N5_16 
REMARK    3  A    between atoms: N6_19  and  C6_20 
ROOT
HETATM    1  C1  UNL     1     -31.975 -15.640 -21.260  1.00  0.00     0.680 A 
HETATM    2  N2  UNL     1     -30.693 -15.992 -21.079  1.00  0.00    -0.154 N 
ATOM      3  H2  UNL     1     -30.316 -16.801 -21.573  1.00  0.00     0.187 HD
HETATM    4  C2  UNL     1     -29.887 -15.276 -20.237  1.00  0.00     0.291 A 
HETATM    5  O1  UNL     1     -28.690 -15.614 -20.077  1.00  0.00    -0.265 OA
HETATM    6  C3  UNL     1     -30.451 -14.191 -19.597  1.00  0.00     0.172 A 
HETATM    7  C4  UNL     1     -31.769 -13.841 -19.793  1.00  0.00     0.170 A 
HETATM    8  N3  UNL     1     -32.512 -14.582 -20.630  1.00  0.00    -0.174 N 
ATOM      9  H3  UNL     1     -33.490 -14.341 -20.789  1.00  0.00     0.186 HD
HETATM   10  N4  UNL     1     -32.099 -12.767 -19.078  1.00  0.00    -0.173 N 
ATOM     11  H4  UNL     1     -33.009 -12.307 -19.044  1.00  0.00     0.186 HD
HETATM   12  C5  UNL     1     -30.963 -12.408 -18.398  1.00  0.00     0.687 A 
HETATM   13  N6  UNL     1     -29.974 -13.268 -18.714  1.00  0.00    -0.114 N 
ENDROOT
BRANCH   1  14
HETATM   14  N1  UNL     1     -32.736 -16.336 -22.069  1.00  0.00    -0.234 N 
ATOM     15  H12 UNL     1     -33.652 -15.962 -22.316  1.00  0.00     0.174 HD
ATOM     16  H11 UNL     1     -32.406 -17.230 -22.433  1.00  0.00     0.174 HD
ENDBRANCH   1  14
BRANCH  13  17
HETATM   17  C6  UNL     1     -28.655 -13.243 -18.227  1.00  0.00     0.377 C 
HETATM   18  O2  UNL     1     -28.337 -12.755 -17.094  1.00  0.00    -0.282 OA
ENDBRANCH  13  17
BRANCH  12  19
HETATM   19  N5  UNL     1     -30.952 -11.399 -17.612  1.00  0.00    -0.234 N 
ATOM     20  H52 UNL     1     -30.804 -10.411 -17.820  1.00  0.00     0.174 HD
ATOM     21  H51 UNL     1     -31.104 -11.507 -16.609  1.00  0.00     0.174 HD
ENDBRANCH  12  19
TORSDOF 3
ENDMDL
MODEL 3
REMARK VINA RESULT: -7.243879806      1.331      4.001
REMARK  3 active torsions:
REMARK  status: ('A' for Active; 'I' for Inactive)
REMARK    1  A    between atoms: N1_1  and  C1_4 
REMARK    2  A    between atoms: C5_15  and  N5_16 
REMARK    3  A    between atoms: N6_19  and  C6_20 
ROOT
HETATM    1  C1  UNL     1     -32.861 -14.291 -20.906  1.00  0.00     0.680 A 
HETATM    2  N2  UNL     1     -32.012 -15.266 -21.263  1.00  0.00    -0.154 N 
ATOM      3  H2  UNL     1     -32.277 -15.924 -21.996  1.00  0.00     0.187 HD
HETATM    4  C2  UNL     1     -30.794 -15.387 -20.653  1.00  0.00     0.291 A 
HETATM    5  O1  UNL     1     -30.009 -16.302 -20.996  1.00  0.00    -0.265 OA
HETATM    6  C3  UNL     1     -30.489 -14.468 -19.669  1.00  0.00     0.172 A 
HETATM    7  C4  UNL     1     -31.371 -13.471 -19.312  1.00  0.00     0.170 A 
HETATM    8  N3  UNL     1     -32.553 -13.403 -19.946  1.00  0.00    -0.174 N 
ATOM      9  H3  UNL     1     -33.220 -12.674 -19.697  1.00  0.00     0.186 HD
HETATM   10  N4  UNL     1     -30.873 -12.703 -18.346  1.00  0.00    -0.173 N 
ATOM     11  H4  UNL     1     -31.321 -11.899 -17.906  1.00  0.00     0.186 HD
HETATM   12  C5  UNL     1     -29.631 -13.213 -18.066  1.00  0.00     0.687 A 
HETATM   13  N6  UNL     1     -29.405 -14.275 -18.865  1.00  0.00    -0.114 N 
ENDROOT
BRANCH   1  14
HETATM   14  N1  UNL     1     -34.025 -14.188 -21.499  1.00  0.00    -0.234 N 
ATOM     15  H12 UNL     1     -34.175 -14.704 -22.366  1.00  0.00     0.174 HD
ATOM     16  H11 UNL     1     -34.754 -13.603 -21.091  1.00  0.00     0.174 HD
ENDBRANCH   1  14
BRANCH  13  17
HETATM   17  C6  UNL     1     -28.248 -15.076 -18.888  1.00  0.00     0.377 C 
HETATM   18  O2  UNL     1     -27.387 -15.031 -19.826  1.00  0.00    -0.282 OA
ENDBRANCH  13  17
BRANCH  12  19
HETATM   19  N5  UNL     1     -28.885 -12.690 -17.169  1.00  0.00    -0.234 N 
ATOM     20  H52 UNL     1     -29.122 -12.043 -16.417  1.00  0.00     0.174 HD
ATOM     21  H51 UNL     1     -27.886 -12.895 -17.125  1.00  0.00     0.174 HD
ENDBRANCH  12  19
TORSDOF 3
ENDMDL
MODEL 4
REMARK VINA RESULT: -7.073998078      2.466      4.855
REMARK  3 active torsions:
REMARK  status: ('A' for Active; 'I' for Inactive)
REMARK    1  A    between atoms: N1_1  and  C1_4 
REMARK    2  A    between atoms: C5_15  and  N5_16 
REMARK    3  A    between atoms: N6_19  and  C6_20 
ROOT
HETATM    1  C1  UNL     1     -32.652 -15.168 -21.302  1.00  0.00     0.680 A 
HETATM    2  N2  UNL     1     -33.027 -14.035 -20.689  1.00  0.00    -0.154 N 
ATOM      3  H2  UNL     1     -33.954 -13.649 -20.864  1.00  0.00     0.187 HD
HETATM    4  C2  UNL     1     -32.176 -13.394 -19.831  1.00  0.00     0.291 A 
HETATM    5  O1  UNL     1     -32.538 -12.336 -19.264  1.00  0.00    -0.265 OA
HETATM    6  C3  UNL     1     -30.935 -13.963 -19.632  1.00  0.00     0.172 A 
HETATM    7  C4  UNL     1     -30.563 -15.128 -20.269  1.00  0.00     0.170 A 
HETATM    8  N3  UNL     1     -31.440 -15.712 -21.100  1.00  0.00    -0.174 N 
ATOM      9  H3  UNL     1     -31.185 -16.575 -21.582  1.00  0.00     0.186 HD
HETATM   10  N4  UNL     1     -29.329 -15.495 -19.931  1.00  0.00    -0.173 N 
ATOM     11  H4  UNL     1     -28.819 -16.315 -20.260  1.00  0.00     0.186 HD
HETATM   12  C5  UNL     1     -28.884 -14.542 -19.050  1.00  0.00     0.687 A 
HETATM   13  N6  UNL     1     -29.854 -13.623 -18.873  1.00  0.00    -0.114 N 
ENDROOT
BRANCH   1  14
HETATM   14  N1  UNL     1     -33.477 -15.772 -22.121  1.00  0.00    -0.234 N 
ATOM     15  H12 UNL     1     -33.132 -16.051 -23.040  1.00  0.00     0.174 HD
ATOM     16  H11 UNL     1     -34.439 -15.950 -21.834  1.00  0.00     0.174 HD
ENDBRANCH   1  14
BRANCH  13  17
HETATM   17  C6  UNL     1     -29.792 -12.486 -18.048  1.00  0.00     0.377 C 
HETATM   18  O2  UNL     1     -28.836 -12.266 -17.234  1.00  0.00    -0.282 OA
ENDBRANCH  13  17
BRANCH  12  19
HETATM   19  N5  UNL     1     -27.715 -14.609 -18.534  1.00  0.00    -0.234 N 
ATOM     20  H52 UNL     1     -26.804 -14.435 -18.957  1.00  0.00     0.174 HD
ATOM     21  H51 UNL     1     -27.583 -14.869 -17.557  1.00  0.00     0.174 HD
ENDBRANCH  12  19
TORSDOF 3
ENDMDL
MODEL 5
REMARK VINA RESULT: -7.037201682      2.530      3.156
REMARK  3 active torsions:
REMARK  status: ('A' for Active; 'I' for Inactive)
REMARK    1  A    between atoms: N1_1  and  C1_4 
REMARK    2  A    between atoms: C5_15  and  N5_16 
REMARK    3  A    between atoms: N6_19  and  C6_20 
ROOT
HETATM    1  C1  UNL     1     -29.824 -12.875 -17.810  1.00  0.00     0.680 A 
HETATM    2  N2  UNL     1     -30.973 -12.200 -17.974  1.00  0.00    -0.154 N 
ATOM      3  H2  UNL     1     -31.155 -11.369 -17.412  1.00  0.00     0.187 HD
HETATM    4  C2  UNL     1     -31.901 -12.618 -18.888  1.00  0.00     0.291 A 
HETATM    5  O1  UNL     1     -32.970 -11.979 -19.032  1.00  0.00    -0.265 OA
HETATM    6  C3  UNL     1     -31.599 -13.748 -19.621  1.00  0.00     0.172 A 
HETATM    7  C4  UNL     1     -30.415 -14.430 -19.442  1.00  0.00     0.170 A 
HETATM    8  N3  UNL     1     -29.543 -13.974 -18.530  1.00  0.00    -0.174 N 
ATOM      9  H3  UNL     1     -28.661 -14.464 -18.381  1.00  0.00     0.186 HD
HETATM   10  N4  UNL     1     -30.334 -15.485 -20.251  1.00  0.00    -0.173 N 
ATOM     11  H4  UNL     1     -29.565 -16.152 -20.317  1.00  0.00     0.186 HD
HETATM   12  C5  UNL     1     -31.499 -15.489 -20.977  1.00  0.00     0.687 A 
HETATM   13  N6  UNL     1     -32.255 -14.441 -20.594  1.00  0.00    -0.114 N 
ENDROOT
BRANCH   1  14
HETATM   14  N1  UNL     1     -28.945 -12.464 -16.930  1.00  0.00    -0.234 N 
ATOM     15  H12 UNL     1     -28.411 -13.163 -16.414  1.00  0.00     0.174 HD
ATOM     16  H11 UNL     1     -28.809 -11.465 -16.775  1.00  0.00     0.174 HD
ENDBRANCH   1  14
BRANCH  13  17
HETATM   17  C6  UNL     1     -33.522 -14.094 -21.097  1.00  0.00     0.377 C 
HETATM   18  O2  UNL     1     -34.301 -14.928 -21.664  1.00  0.00    -0.282 OA
ENDBRANCH  13  17
BRANCH  12  19
HETATM   19  N5  UNL     1     -31.730 -16.390 -21.854  1.00  0.00    -0.234 N 
ATOM     20  H52 UNL     1     -31.144 -17.163 -22.167  1.00  0.00     0.174 HD
ATOM     21  H51 UNL     1     -32.611 -16.413 -22.368  1.00  0.00     0.174 HD
ENDBRANCH  12  19
TORSDOF 3
ENDMDL
