MODEL 1
REMARK VINA RESULT: -6.832354339      0.000      0.000
REMARK  12 active torsions:
REMARK  status: ('A' for Active; 'I' for Inactive)
REMARK    1  A    between atoms: N1_1  and  C1_5 
REMARK    2  A    between atoms: C1_5  and  C2_6 
REMARK       I    between atoms: C2_6  and  N2_8 
REMARK    3  A    between atoms: N2_8  and  C3_10 
REMARK    4  A    between atoms: C3_10  and  O2_11 
REMARK    5  A    between atoms: C3_10  and  C4_13 
REMARK    6  A    between atoms: C4_13  and  C5_14 
REMARK    7  A    between atoms: C5_14  and  N3_15 
REMARK    8  A    between atoms: C5_14  and  C6_19 
REMARK       I    between atoms: C6_19  and  N4_21 
REMARK    9  A    between atoms: N4_21  and  C7_23 
REMARK   10  A    between atoms: C7_23  and  C8_24 
REMARK   11  A    between atoms: C8_24  and  C9_25 
REMARK   12  A    between atoms: C9_25  and  O4_26 
ROOT
HETATM    1  C5  UNL     1       3.513  18.272  -9.717  1.00  0.00     0.282 C 
ENDROOT
BRANCH   1   2
HETATM    2  C4  UNL     1       2.684  18.957 -10.845  1.00  0.00     0.126 C 
BRANCH   2   3
HETATM    3  C3  UNL     1       3.585  19.259 -11.941  1.00  0.00     0.120 C 
BRANCH   3   4
HETATM    4  N2  UNL     1       3.546  20.428 -12.718  1.00  0.00    -0.310 N 
HETATM    5  C2  UNL     1       4.179  21.629 -12.463  1.00  0.00     0.248 C 
HETATM    6  O1  UNL     1       4.026  22.560 -13.345  1.00  0.00    -0.271 OA
ATOM      7  H2  UNL     1       2.985  20.385 -13.569  1.00  0.00     0.170 HD
BRANCH   5   8
HETATM    8  C1  UNL     1       4.997  21.930 -11.293  1.00  0.00     0.332 C 
BRANCH   8   9
HETATM    9  N1  UNL     1       6.166  21.025 -11.277  1.00  0.00    -0.071 N 
ATOM     10  H13 UNL     1       6.373  20.641 -12.200  1.00  0.00     0.274 HD
ATOM     11  H12 UNL     1       7.043  21.526 -11.133  1.00  0.00     0.274 HD
ATOM     12  H11 UNL     1       6.014  20.299 -10.578  1.00  0.00     0.274 HD
ENDBRANCH   8   9
ENDBRANCH   5   8
ENDBRANCH   3   4
BRANCH   3  13
HETATM   13  O2  UNL     1       4.514  18.379 -12.234  1.00  0.00    -0.349 OA
ATOM     14  H2  UNL     1       4.322  17.469 -12.042  1.00  0.00     0.219 HD
ENDBRANCH   3  13
ENDBRANCH   2   3
ENDBRANCH   1   2
BRANCH   1  15
HETATM   15  N3  UNL     1       2.754  17.200  -9.203  1.00  0.00    -0.066 N 
ATOM     16  H33 UNL     1       3.214  16.731  -8.424  1.00  0.00     0.275 HD
ATOM     17  H32 UNL     1       1.921  17.512  -8.704  1.00  0.00     0.275 HD
ATOM     18  H31 UNL     1       2.538  16.566  -9.973  1.00  0.00     0.275 HD
ENDBRANCH   1  15
BRANCH   1  19
HETATM   19  C6  UNL     1       3.931  19.335  -8.800  1.00  0.00     0.248 C 
HETATM   20  O3  UNL     1       5.197  19.515  -8.714  1.00  0.00    -0.271 OA
HETATM   21  N4  UNL     1       3.067  20.134  -8.041  1.00  0.00    -0.359 N 
ATOM     22  H4  UNL     1       2.066  19.962  -8.128  1.00  0.00     0.162 HD
BRANCH  21  23
HETATM   23  C7  UNL     1       3.497  21.192  -7.137  1.00  0.00     0.125 C 
BRANCH  23  24
HETATM   24  C8  UNL     1       3.966  20.612  -5.847  1.00  0.00     0.046 C 
BRANCH  24  25
HETATM   25  C9  UNL     1       3.863  21.739  -4.807  1.00  0.00     0.165 C 
BRANCH  25  26
HETATM   26  O4  UNL     1       4.343  21.254  -3.592  1.00  0.00    -0.401 OA
ATOM     27  H4  UNL     1       3.616  21.213  -2.981  1.00  0.00     0.209 HD
ENDBRANCH  25  26
ENDBRANCH  24  25
ENDBRANCH  23  24
ENDBRANCH  21  23
ENDBRANCH   1  19
TORSDOF 12
ENDMDL
MODEL 2
REMARK VINA RESULT: -6.710711654      1.488      5.335
REMARK  12 active torsions:
REMARK  status: ('A' for Active; 'I' for Inactive)
REMARK    1  A    between atoms: N1_1  and  C1_5 
REMARK    2  A    between atoms: C1_5  and  C2_6 
REMARK       I    between atoms: C2_6  and  N2_8 
REMARK    3  A    between atoms: N2_8  and  C3_10 
REMARK    4  A    between atoms: C3_10  and  O2_11 
REMARK    5  A    between atoms: C3_10  and  C4_13 
REMARK    6  A    between atoms: C4_13  and  C5_14 
REMARK    7  A    between atoms: C5_14  and  N3_15 
REMARK    8  A    between atoms: C5_14  and  C6_19 
REMARK       I    between atoms: C6_19  and  N4_21 
REMARK    9  A    between atoms: N4_21  and  C7_23 
REMARK   10  A    between atoms: C7_23  and  C8_24 
REMARK   11  A    between atoms: C8_24  and  C9_25 
REMARK   12  A    between atoms: C9_25  and  O4_26 
ROOT
HETATM    1  C5  UNL     1       2.921  18.332  -9.971  1.00  0.00     0.282 C 
ENDROOT
BRANCH   1   2
HETATM    2  C4  UNL     1       2.721  19.443  -8.897  1.00  0.00     0.126 C 
BRANCH   2   3
HETATM    3  C3  UNL     1       3.982  19.629  -8.205  1.00  0.00     0.120 C 
BRANCH   3   4
HETATM    4  N2  UNL     1       4.142  19.646  -6.810  1.00  0.00    -0.310 N 
HETATM    5  C2  UNL     1       3.897  20.699  -5.948  1.00  0.00     0.248 C 
HETATM    6  O1  UNL     1       4.083  20.470  -4.691  1.00  0.00    -0.271 OA
ATOM      7  H2  UNL     1       4.476  18.783  -6.383  1.00  0.00     0.170 HD
BRANCH   5   8
HETATM    8  C1  UNL     1       3.453  22.034  -6.338  1.00  0.00     0.332 C 
BRANCH   8   9
HETATM    9  N1  UNL     1       3.162  22.818  -5.119  1.00  0.00    -0.071 N 
ATOM     10  H13 UNL     1       3.318  22.282  -4.265  1.00  0.00     0.274 HD
ATOM     11  H12 UNL     1       3.852  23.550  -4.955  1.00  0.00     0.274 HD
ATOM     12  H11 UNL     1       2.213  23.186  -5.180  1.00  0.00     0.274 HD
ENDBRANCH   8   9
ENDBRANCH   5   8
ENDBRANCH   3   4
BRANCH   3  13
HETATM   13  O2  UNL     1       5.064  19.792  -8.930  1.00  0.00    -0.349 OA
ATOM     14  H2  UNL     1       5.593  20.560  -8.749  1.00  0.00     0.219 HD
ENDBRANCH   3  13
ENDBRANCH   2   3
ENDBRANCH   1   2
BRANCH   1  15
HETATM   15  N3  UNL     1       3.617  17.262  -9.372  1.00  0.00    -0.066 N 
ATOM     16  H33 UNL     1       4.251  17.569  -8.635  1.00  0.00     0.275 HD
ATOM     17  H32 UNL     1       3.014  16.673  -8.798  1.00  0.00     0.275 HD
ATOM     18  H31 UNL     1       4.092  16.741 -10.109  1.00  0.00     0.275 HD
ENDBRANCH   1  15
BRANCH   1  19
HETATM   19  C6  UNL     1       3.514  18.984 -11.142  1.00  0.00     0.248 C 
HETATM   20  O3  UNL     1       4.435  18.314 -11.731  1.00  0.00    -0.271 OA
HETATM   21  N4  UNL     1       3.152  20.242 -11.636  1.00  0.00    -0.359 N 
ATOM     22  H4  UNL     1       2.420  20.751 -11.141  1.00  0.00     0.162 HD
BRANCH  21  23
HETATM   23  C7  UNL     1       3.746  20.876 -12.805  1.00  0.00     0.125 C 
BRANCH  23  24
HETATM   24  C8  UNL     1       3.965  22.328 -12.552  1.00  0.00     0.046 C 
BRANCH  24  25
HETATM   25  C9  UNL     1       4.798  22.419 -11.264  1.00  0.00     0.165 C 
BRANCH  25  26
HETATM   26  O4  UNL     1       5.831  21.486 -11.348  1.00  0.00    -0.401 OA
ATOM     27  H4  UNL     1       5.656  20.794 -10.722  1.00  0.00     0.209 HD
ENDBRANCH  25  26
ENDBRANCH  24  25
ENDBRANCH  23  24
ENDBRANCH  21  23
ENDBRANCH   1  19
TORSDOF 12
ENDMDL
MODEL 3
REMARK VINA RESULT: -6.665431031      1.226      1.346
REMARK  12 active torsions:
REMARK  status: ('A' for Active; 'I' for Inactive)
REMARK    1  A    between atoms: N1_1  and  C1_5 
REMARK    2  A    between atoms: C1_5  and  C2_6 
REMARK       I    between atoms: C2_6  and  N2_8 
REMARK    3  A    between atoms: N2_8  and  C3_10 
REMARK    4  A    between atoms: C3_10  and  O2_11 
REMARK    5  A    between atoms: C3_10  and  C4_13 
REMARK    6  A    between atoms: C4_13  and  C5_14 
REMARK    7  A    between atoms: C5_14  and  N3_15 
REMARK    8  A    between atoms: C5_14  and  C6_19 
REMARK       I    between atoms: C6_19  and  N4_21 
REMARK    9  A    between atoms: N4_21  and  C7_23 
REMARK   10  A    between atoms: C7_23  and  C8_24 
REMARK   11  A    between atoms: C8_24  and  C9_25 
REMARK   12  A    between atoms: C9_25  and  O4_26 
ROOT
HETATM    1  C5  UNL     1       3.491  18.223  -9.645  1.00  0.00     0.282 C 
ENDROOT
BRANCH   1   2
HETATM    2  C4  UNL     1       2.955  18.945 -10.917  1.00  0.00     0.126 C 
BRANCH   2   3
HETATM    3  C3  UNL     1       3.981  18.873 -11.939  1.00  0.00     0.120 C 
BRANCH   3   4
HETATM    4  N2  UNL     1       5.254  19.459 -11.846  1.00  0.00    -0.310 N 
HETATM    5  C2  UNL     1       5.554  20.778 -11.562  1.00  0.00     0.248 C 
HETATM    6  O1  UNL     1       6.807  21.082 -11.494  1.00  0.00    -0.271 OA
ATOM      7  H2  UNL     1       6.049  18.840 -12.007  1.00  0.00     0.170 HD
BRANCH   5   8
HETATM    8  C1  UNL     1       4.584  21.843 -11.336  1.00  0.00     0.332 C 
BRANCH   8   9
HETATM    9  N1  UNL     1       4.391  22.593 -12.595  1.00  0.00    -0.071 N 
ATOM     10  H13 UNL     1       5.257  22.694 -13.125  1.00  0.00     0.274 HD
ATOM     11  H12 UNL     1       3.862  22.062 -13.287  1.00  0.00     0.274 HD
ATOM     12  H11 UNL     1       3.958  23.492 -12.383  1.00  0.00     0.274 HD
ENDBRANCH   8   9
ENDBRANCH   5   8
ENDBRANCH   3   4
BRANCH   3  13
HETATM   13  O2  UNL     1       3.710  18.209 -13.039  1.00  0.00    -0.349 OA
ATOM     14  H2  UNL     1       3.005  17.574 -12.996  1.00  0.00     0.219 HD
ENDBRANCH   3  13
ENDBRANCH   2   3
ENDBRANCH   1   2
BRANCH   1  15
HETATM   15  N3  UNL     1       2.520  17.290  -9.227  1.00  0.00    -0.066 N 
ATOM     16  H33 UNL     1       1.568  17.597  -9.427  1.00  0.00     0.275 HD
ATOM     17  H32 UNL     1       2.515  16.445  -9.797  1.00  0.00     0.275 HD
ATOM     18  H31 UNL     1       2.671  17.097  -8.237  1.00  0.00     0.275 HD
ENDBRANCH   1  15
BRANCH   1  19
HETATM   19  C6  UNL     1       3.901  19.273  -8.709  1.00  0.00     0.248 C 
HETATM   20  O3  UNL     1       5.166  19.376  -8.526  1.00  0.00    -0.271 OA
HETATM   21  N4  UNL     1       3.033  20.133  -8.029  1.00  0.00    -0.359 N 
ATOM     22  H4  UNL     1       2.032  20.021  -8.192  1.00  0.00     0.162 HD
BRANCH  21  23
HETATM   23  C7  UNL     1       3.454  21.177  -7.105  1.00  0.00     0.125 C 
BRANCH  23  24
HETATM   24  C8  UNL     1       3.909  20.578  -5.818  1.00  0.00     0.046 C 
BRANCH  24  25
HETATM   25  C9  UNL     1       3.883  21.712  -4.783  1.00  0.00     0.165 C 
BRANCH  25  26
HETATM   26  O4  UNL     1       4.347  21.205  -3.570  1.00  0.00    -0.401 OA
ATOM     27  H4  UNL     1       5.242  21.499  -3.449  1.00  0.00     0.209 HD
ENDBRANCH  25  26
ENDBRANCH  24  25
ENDBRANCH  23  24
ENDBRANCH  21  23
ENDBRANCH   1  19
TORSDOF 12
ENDMDL
MODEL 4
REMARK VINA RESULT: -6.602312895      2.075      3.225
REMARK  12 active torsions:
REMARK  status: ('A' for Active; 'I' for Inactive)
REMARK    1  A    between atoms: N1_1  and  C1_5 
REMARK    2  A    between atoms: C1_5  and  C2_6 
REMARK       I    between atoms: C2_6  and  N2_8 
REMARK    3  A    between atoms: N2_8  and  C3_10 
REMARK    4  A    between atoms: C3_10  and  O2_11 
REMARK    5  A    between atoms: C3_10  and  C4_13 
REMARK    6  A    between atoms: C4_13  and  C5_14 
REMARK    7  A    between atoms: C5_14  and  N3_15 
REMARK    8  A    between atoms: C5_14  and  C6_19 
REMARK       I    between atoms: C6_19  and  N4_21 
REMARK    9  A    between atoms: N4_21  and  C7_23 
REMARK   10  A    between atoms: C7_23  and  C8_24 
REMARK   11  A    between atoms: C8_24  and  C9_25 
REMARK   12  A    between atoms: C9_25  and  O4_26 
ROOT
HETATM    1  C5  UNL     1       4.849  20.864 -11.075  1.00  0.00     0.282 C 
ENDROOT
BRANCH   1   2
HETATM    2  C4  UNL     1       4.136  20.215 -12.299  1.00  0.00     0.126 C 
BRANCH   2   3
HETATM    3  C3  UNL     1       3.733  21.279 -13.198  1.00  0.00     0.120 C 
BRANCH   3   4
HETATM    4  N2  UNL     1       2.699  21.187 -14.145  1.00  0.00    -0.310 N 
HETATM    5  C2  UNL     1       2.589  20.284 -15.185  1.00  0.00     0.248 C 
HETATM    6  O1  UNL     1       1.525  20.368 -15.911  1.00  0.00    -0.271 OA
ATOM      7  H2  UNL     1       1.943  21.865 -14.054  1.00  0.00     0.170 HD
BRANCH   5   8
HETATM    8  C1  UNL     1       3.566  19.255 -15.528  1.00  0.00     0.332 C 
BRANCH   8   9
HETATM    9  N1  UNL     1       2.895  17.938 -15.532  1.00  0.00    -0.071 N 
ATOM     10  H13 UNL     1       2.136  17.886 -14.853  1.00  0.00     0.274 HD
ATOM     11  H12 UNL     1       2.343  17.786 -16.375  1.00  0.00     0.274 HD
ATOM     12  H11 UNL     1       3.594  17.210 -15.389  1.00  0.00     0.274 HD
ENDBRANCH   8   9
ENDBRANCH   5   8
ENDBRANCH   3   4
BRANCH   3  13
HETATM   13  O2  UNL     1       4.377  22.421 -13.128  1.00  0.00    -0.349 OA
ATOM     14  H2  UNL     1       5.016  22.598 -13.808  1.00  0.00     0.219 HD
ENDBRANCH   3  13
ENDBRANCH   2   3
ENDBRANCH   1   2
BRANCH   1  15
HETATM   15  N3  UNL     1       6.234  20.884 -11.333  1.00  0.00    -0.066 N 
ATOM     16  H33 UNL     1       6.786  21.103 -10.504  1.00  0.00     0.275 HD
ATOM     17  H32 UNL     1       6.615  19.954 -11.509  1.00  0.00     0.275 HD
ATOM     18  H31 UNL     1       6.405  21.532 -12.102  1.00  0.00     0.275 HD
ENDBRANCH   1  15
BRANCH   1  19
HETATM   19  C6  UNL     1       4.368  20.155  -9.886  1.00  0.00     0.248 C 
HETATM   20  O3  UNL     1       4.394  18.875  -9.968  1.00  0.00    -0.271 OA
HETATM   21  N4  UNL     1       3.901  20.763  -8.716  1.00  0.00    -0.359 N 
ATOM     22  H4  UNL     1       3.888  21.782  -8.686  1.00  0.00     0.162 HD
BRANCH  21  23
HETATM   23  C7  UNL     1       3.431  20.045  -7.539  1.00  0.00     0.125 C 
BRANCH  23  24
HETATM   24  C8  UNL     1       4.385  20.225  -6.408  1.00  0.00     0.046 C 
BRANCH  24  25
HETATM   25  C9  UNL     1       3.806  21.347  -5.533  1.00  0.00     0.165 C 
BRANCH  25  26
HETATM   26  O4  UNL     1       4.302  21.189  -4.239  1.00  0.00    -0.401 OA
ATOM     27  H4  UNL     1       3.665  21.548  -3.632  1.00  0.00     0.209 HD
ENDBRANCH  25  26
ENDBRANCH  24  25
ENDBRANCH  23  24
ENDBRANCH  21  23
ENDBRANCH   1  19
TORSDOF 12
ENDMDL
MODEL 5
REMARK VINA RESULT: -6.532049871      1.239      1.746
REMARK  12 active torsions:
REMARK  status: ('A' for Active; 'I' for Inactive)
REMARK    1  A    between atoms: N1_1  and  C1_5 
REMARK    2  A    between atoms: C1_5  and  C2_6 
REMARK       I    between atoms: C2_6  and  N2_8 
REMARK    3  A    between atoms: N2_8  and  C3_10 
REMARK    4  A    between atoms: C3_10  and  O2_11 
REMARK    5  A    between atoms: C3_10  and  C4_13 
REMARK    6  A    between atoms: C4_13  and  C5_14 
REMARK    7  A    between atoms: C5_14  and  N3_15 
REMARK    8  A    between atoms: C5_14  and  C6_19 
REMARK       I    between atoms: C6_19  and  N4_21 
REMARK    9  A    between atoms: N4_21  and  C7_23 
REMARK   10  A    between atoms: C7_23  and  C8_24 
REMARK   11  A    between atoms: C8_24  and  C9_25 
REMARK   12  A    between atoms: C9_25  and  O4_26 
ROOT
HETATM    1  C5  UNL     1       3.849  18.095  -9.595  1.00  0.00     0.282 C 
ENDROOT
BRANCH   1   2
HETATM    2  C4  UNL     1       4.045  18.667 -11.032  1.00  0.00     0.126 C 
BRANCH   2   3
HETATM    3  C3  UNL     1       3.185  19.826 -11.174  1.00  0.00     0.120 C 
BRANCH   3   4
HETATM    4  N2  UNL     1       3.595  21.082 -11.650  1.00  0.00    -0.310 N 
HETATM    5  C2  UNL     1       3.927  21.421 -12.948  1.00  0.00     0.248 C 
HETATM    6  O1  UNL     1       4.243  22.656 -13.158  1.00  0.00    -0.271 OA
ATOM      7  H2  UNL     1       3.655  21.829 -10.959  1.00  0.00     0.170 HD
BRANCH   5   8
HETATM    8  C1  UNL     1       3.951  20.511 -14.088  1.00  0.00     0.332 C 
BRANCH   8   9
HETATM    9  N1  UNL     1       2.629  20.533 -14.749  1.00  0.00    -0.071 N 
ATOM     10  H13 UNL     1       1.987  21.194 -14.311  1.00  0.00     0.274 HD
ATOM     11  H12 UNL     1       2.664  20.960 -15.674  1.00  0.00     0.274 HD
ATOM     12  H11 UNL     1       2.254  19.584 -14.773  1.00  0.00     0.274 HD
ENDBRANCH   8   9
ENDBRANCH   5   8
ENDBRANCH   3   4
BRANCH   3  13
HETATM   13  O2  UNL     1       1.923  19.700 -10.835  1.00  0.00    -0.349 OA
ATOM     14  H2  UNL     1       1.535  18.839 -10.929  1.00  0.00     0.219 HD
ENDBRANCH   3  13
ENDBRANCH   2   3
ENDBRANCH   1   2
BRANCH   1  15
HETATM   15  N3  UNL     1       2.599  17.446  -9.547  1.00  0.00    -0.066 N 
ATOM     16  H33 UNL     1       2.681  16.448  -9.356  1.00  0.00     0.275 HD
ATOM     17  H32 UNL     1       2.055  17.700  -8.723  1.00  0.00     0.275 HD
ATOM     18  H31 UNL     1       2.107  17.640 -10.419  1.00  0.00     0.275 HD
ENDBRANCH   1  15
BRANCH   1  19
HETATM   19  C6  UNL     1       4.099  19.201  -8.667  1.00  0.00     0.248 C 
HETATM   20  O3  UNL     1       5.336  19.472  -8.462  1.00  0.00    -0.271 OA
HETATM   21  N4  UNL     1       3.112  19.948  -8.016  1.00  0.00    -0.359 N 
ATOM     22  H4  UNL     1       2.138  19.704  -8.196  1.00  0.00     0.162 HD
BRANCH  21  23
HETATM   23  C7  UNL     1       3.374  21.049  -7.099  1.00  0.00     0.125 C 
BRANCH  23  24
HETATM   24  C8  UNL     1       3.888  20.531  -5.800  1.00  0.00     0.046 C 
BRANCH  24  25
HETATM   25  C9  UNL     1       3.872  21.719  -4.827  1.00  0.00     0.165 C 
BRANCH  25  26
HETATM   26  O4  UNL     1       4.369  21.283  -3.600  1.00  0.00    -0.401 OA
ATOM     27  H4  UNL     1       4.158  21.938  -2.945  1.00  0.00     0.209 HD
ENDBRANCH  25  26
ENDBRANCH  24  25
ENDBRANCH  23  24
ENDBRANCH  21  23
ENDBRANCH   1  19
TORSDOF 12
ENDMDL
