MODEL 1
REMARK VINA RESULT: -7.148452893      0.000      0.000
REMARK  8 active torsions:
REMARK  status: ('A' for Active; 'I' for Inactive)
REMARK    1  A    between atoms: O1_2  and  C2_3 
REMARK    2  A    between atoms: C2_3  and  C3_4 
REMARK    3  A    between atoms: C2_3  and  C9_16 
REMARK    4  A    between atoms: C3_4  and  O2_5 
REMARK    5  A    between atoms: O2_5  and  C4_6 
REMARK    6  A    between atoms: C4_6  and  C5_7 
REMARK       I    between atoms: C5_7  and  N1_9 
REMARK    7  A    between atoms: N1_9  and  C6_11 
REMARK    8  A    between atoms: C6_11  and  C7_12 
ROOT
HETATM    1  C4  UNL     1       3.910  21.044 -11.291  1.00  0.00     0.270 C 
ENDROOT
BRANCH   1   2
HETATM    2  O2  UNL     1       4.450  19.875 -10.878  1.00  0.00    -0.379 OA
BRANCH   2   3
HETATM    3  C3  UNL     1       4.520  19.604  -9.554  1.00  0.00     0.209 C 
BRANCH   3   4
HETATM    4  C2  UNL     1       3.178  19.487  -8.873  1.00  0.00     0.233 C 
BRANCH   4   5
HETATM    5  O1  UNL     1       3.304  19.238  -7.520  1.00  0.00    -0.380 OA
HETATM    6  C1  UNL     1       3.892  20.261  -6.822  1.00  0.00     0.202 C 
ENDBRANCH   4   5
BRANCH   4   7
HETATM    7  C9  UNL     1       2.308  18.467  -9.471  1.00  0.00     0.262 C 
HETATM    8  N4  UNL     1       2.603  17.099  -9.255  1.00  0.00    -0.060 NA
HETATM    9  O4  UNL     1       1.297  18.718 -10.177  1.00  0.00    -0.274 OA
ENDBRANCH   4   7
ENDBRANCH   3   4
ENDBRANCH   2   3
ENDBRANCH   1   2
BRANCH   1  10
HETATM   10  C5  UNL     1       3.931  21.313 -12.746  1.00  0.00     0.241 C 
HETATM   11  O3  UNL     1       4.182  22.398 -13.290  1.00  0.00    -0.271 OA
HETATM   12  N1  UNL     1       3.629  20.202 -13.616  1.00  0.00    -0.354 N 
ATOM     13  H1  UNL     1       3.416  19.289 -13.216  1.00  0.00     0.162 HD
BRANCH  12  14
HETATM   14  C6  UNL     1       3.626  20.375 -15.044  1.00  0.00     0.177 C 
BRANCH  14  15
HETATM   15  C7  UNL     1       2.722  19.396 -15.664  1.00  0.00     0.055 C 
HETATM   16  N2  UNL     1       2.837  18.009 -15.370  1.00  0.00    -0.104 NA
HETATM   17  C8  UNL     1       1.788  19.796 -16.503  1.00  0.00     0.123 C 
HETATM   18  N3  UNL     1       0.886  18.882 -17.130  1.00  0.00    -0.113 NA
ENDBRANCH  14  15
ENDBRANCH  12  14
ENDBRANCH   1  10
TORSDOF 8
ENDMDL
MODEL 2
REMARK VINA RESULT: -7.027688393      3.062      7.007
REMARK  8 active torsions:
REMARK  status: ('A' for Active; 'I' for Inactive)
REMARK    1  A    between atoms: O1_2  and  C2_3 
REMARK    2  A    between atoms: C2_3  and  C3_4 
REMARK    3  A    between atoms: C2_3  and  C9_16 
REMARK    4  A    between atoms: C3_4  and  O2_5 
REMARK    5  A    between atoms: O2_5  and  C4_6 
REMARK    6  A    between atoms: C4_6  and  C5_7 
REMARK       I    between atoms: C5_7  and  N1_9 
REMARK    7  A    between atoms: N1_9  and  C6_11 
REMARK    8  A    between atoms: C6_11  and  C7_12 
ROOT
HETATM    1  C4  UNL     1       2.884  18.415 -10.491  1.00  0.00     0.270 C 
ENDROOT
BRANCH   1   2
HETATM    2  O2  UNL     1       3.973  18.121 -11.236  1.00  0.00    -0.379 OA
BRANCH   2   3
HETATM    3  C3  UNL     1       4.331  18.946 -12.248  1.00  0.00     0.209 C 
BRANCH   3   4
HETATM    4  C2  UNL     1       4.004  20.400 -12.008  1.00  0.00     0.233 C 
BRANCH   4   5
HETATM    5  O1  UNL     1       3.387  20.979 -13.100  1.00  0.00    -0.380 OA
HETATM    6  C1  UNL     1       3.690  20.374 -14.291  1.00  0.00     0.202 C 
ENDBRANCH   4   5
BRANCH   4   7
HETATM    7  C9  UNL     1       5.173  21.205 -11.633  1.00  0.00     0.262 C 
HETATM    8  N4  UNL     1       6.395  20.551 -11.341  1.00  0.00    -0.060 NA
HETATM    9  O4  UNL     1       5.175  22.461 -11.548  1.00  0.00    -0.274 OA
ENDBRANCH   4   7
ENDBRANCH   3   4
ENDBRANCH   2   3
ENDBRANCH   1   2
BRANCH   1  10
HETATM   10  C5  UNL     1       3.061  18.424  -9.022  1.00  0.00     0.241 C 
HETATM   11  O3  UNL     1       2.388  17.790  -8.196  1.00  0.00    -0.271 OA
HETATM   12  N1  UNL     1       4.122  19.252  -8.502  1.00  0.00    -0.354 N 
ATOM     13  H1  UNL     1       4.703  19.793  -9.142  1.00  0.00     0.162 HD
BRANCH  12  14
HETATM   14  C6  UNL     1       4.364  19.321  -7.086  1.00  0.00     0.177 C 
BRANCH  14  15
HETATM   15  C7  UNL     1       3.977  20.644  -6.576  1.00  0.00     0.055 C 
HETATM   16  N2  UNL     1       3.584  21.682  -7.466  1.00  0.00    -0.104 NA
HETATM   17  C8  UNL     1       3.989  20.884  -5.280  1.00  0.00     0.123 C 
HETATM   18  N3  UNL     1       3.621  22.154  -4.738  1.00  0.00    -0.113 NA
ENDBRANCH  14  15
ENDBRANCH  12  14
ENDBRANCH   1  10
TORSDOF 8
ENDMDL
MODEL 3
REMARK VINA RESULT: -6.957493572      1.486      1.668
REMARK  8 active torsions:
REMARK  status: ('A' for Active; 'I' for Inactive)
REMARK    1  A    between atoms: O1_2  and  C2_3 
REMARK    2  A    between atoms: C2_3  and  C3_4 
REMARK    3  A    between atoms: C2_3  and  C9_16 
REMARK    4  A    between atoms: C3_4  and  O2_5 
REMARK    5  A    between atoms: O2_5  and  C4_6 
REMARK    6  A    between atoms: C4_6  and  C5_7 
REMARK       I    between atoms: C5_7  and  N1_9 
REMARK    7  A    between atoms: N1_9  and  C6_11 
REMARK    8  A    between atoms: C6_11  and  C7_12 
ROOT
HETATM    1  C4  UNL     1       4.059  20.401 -11.553  1.00  0.00     0.270 C 
ENDROOT
BRANCH   1   2
HETATM    2  O2  UNL     1       5.023  20.117 -10.649  1.00  0.00    -0.379 OA
BRANCH   2   3
HETATM    3  C3  UNL     1       4.686  19.923  -9.352  1.00  0.00     0.209 C 
BRANCH   3   4
HETATM    4  C2  UNL     1       3.318  19.318  -9.151  1.00  0.00     0.233 C 
BRANCH   4   5
HETATM    5  O1  UNL     1       2.829  19.553  -7.880  1.00  0.00    -0.380 OA
HETATM    6  C1  UNL     1       3.598  20.416  -7.144  1.00  0.00     0.202 C 
ENDBRANCH   4   5
BRANCH   4   7
HETATM    7  C9  UNL     1       3.273  17.876  -9.424  1.00  0.00     0.262 C 
HETATM    8  N4  UNL     1       2.033  17.275  -9.749  1.00  0.00    -0.060 NA
HETATM    9  O4  UNL     1       4.274  17.114  -9.392  1.00  0.00    -0.274 OA
ENDBRANCH   4   7
ENDBRANCH   3   4
ENDBRANCH   2   3
ENDBRANCH   1   2
BRANCH   1  10
HETATM   10  C5  UNL     1       4.007  19.552 -12.764  1.00  0.00     0.241 C 
HETATM   11  O3  UNL     1       4.026  18.313 -12.795  1.00  0.00    -0.271 OA
HETATM   12  N1  UNL     1       3.925  20.235 -14.032  1.00  0.00    -0.354 N 
ATOM     13  H1  UNL     1       3.906  21.254 -14.058  1.00  0.00     0.162 HD
BRANCH  12  14
HETATM   14  C6  UNL     1       3.870  19.487 -15.259  1.00  0.00     0.177 C 
BRANCH  14  15
HETATM   15  C7  UNL     1       2.536  19.616 -15.863  1.00  0.00     0.055 C 
HETATM   16  N2  UNL     1       1.700  20.725 -15.555  1.00  0.00    -0.104 NA
HETATM   17  C8  UNL     1       2.098  18.698 -16.702  1.00  0.00     0.123 C 
HETATM   18  N3  UNL     1       0.809  18.780 -17.315  1.00  0.00    -0.113 NA
ENDBRANCH  14  15
ENDBRANCH  12  14
ENDBRANCH   1  10
TORSDOF 8
ENDMDL
MODEL 4
REMARK VINA RESULT: -6.876962899      2.301      5.889
REMARK  8 active torsions:
REMARK  status: ('A' for Active; 'I' for Inactive)
REMARK    1  A    between atoms: O1_2  and  C2_3 
REMARK    2  A    between atoms: C2_3  and  C3_4 
REMARK    3  A    between atoms: C2_3  and  C9_16 
REMARK    4  A    between atoms: C3_4  and  O2_5 
REMARK    5  A    between atoms: O2_5  and  C4_6 
REMARK    6  A    between atoms: C4_6  and  C5_7 
REMARK       I    between atoms: C5_7  and  N1_9 
REMARK    7  A    between atoms: N1_9  and  C6_11 
REMARK    8  A    between atoms: C6_11  and  C7_12 
ROOT
HETATM    1  C4  UNL     1       4.351  21.902 -12.630  1.00  0.00     0.270 C 
ENDROOT
BRANCH   1   2
HETATM    2  O2  UNL     1       3.589  21.378 -13.617  1.00  0.00    -0.379 OA
BRANCH   2   3
HETATM    3  C3  UNL     1       3.875  20.146 -14.097  1.00  0.00     0.209 C 
BRANCH   3   4
HETATM    4  C2  UNL     1       3.243  19.838 -15.433  1.00  0.00     0.233 C 
BRANCH   4   5
HETATM    5  O1  UNL     1       1.987  20.401 -15.553  1.00  0.00    -0.380 OA
HETATM    6  C1  UNL     1       1.781  21.043 -16.746  1.00  0.00     0.202 C 
ENDBRANCH   4   5
BRANCH   4   7
HETATM    7  C9  UNL     1       3.155  18.401 -15.718  1.00  0.00     0.262 C 
HETATM    8  N4  UNL     1       2.957  17.497 -14.646  1.00  0.00    -0.060 NA
HETATM    9  O4  UNL     1       3.244  17.897 -16.868  1.00  0.00    -0.274 OA
ENDBRANCH   4   7
ENDBRANCH   3   4
ENDBRANCH   2   3
ENDBRANCH   1   2
BRANCH   1  10
HETATM   10  C5  UNL     1       4.797  20.974 -11.566  1.00  0.00     0.241 C 
HETATM   11  O3  UNL     1       5.909  20.434 -11.479  1.00  0.00    -0.271 OA
HETATM   12  N1  UNL     1       3.842  20.671 -10.528  1.00  0.00    -0.354 N 
ATOM     13  H1  UNL     1       2.913  21.091 -10.555  1.00  0.00     0.162 HD
BRANCH  12  14
HETATM   14  C6  UNL     1       4.192  19.779  -9.455  1.00  0.00     0.177 C 
BRANCH  14  15
HETATM   15  C7  UNL     1       3.537  18.478  -9.654  1.00  0.00     0.055 C 
HETATM   16  N2  UNL     1       4.194  17.268  -9.295  1.00  0.00    -0.104 NA
HETATM   17  C8  UNL     1       2.326  18.418 -10.171  1.00  0.00     0.123 C 
HETATM   18  N3  UNL     1       1.649  17.178 -10.383  1.00  0.00    -0.113 NA
ENDBRANCH  14  15
ENDBRANCH  12  14
ENDBRANCH   1  10
TORSDOF 8
ENDMDL
MODEL 5
REMARK VINA RESULT: -6.581751045      2.300      6.172
REMARK  8 active torsions:
REMARK  status: ('A' for Active; 'I' for Inactive)
REMARK    1  A    between atoms: O1_2  and  C2_3 
REMARK    2  A    between atoms: C2_3  and  C3_4 
REMARK    3  A    between atoms: C2_3  and  C9_16 
REMARK    4  A    between atoms: C3_4  and  O2_5 
REMARK    5  A    between atoms: O2_5  and  C4_6 
REMARK    6  A    between atoms: C4_6  and  C5_7 
REMARK       I    between atoms: C5_7  and  N1_9 
REMARK    7  A    between atoms: N1_9  and  C6_11 
REMARK    8  A    between atoms: C6_11  and  C7_12 
ROOT
HETATM    1  C4  UNL     1       4.078  21.360 -13.240  1.00  0.00     0.270 C 
ENDROOT
BRANCH   1   2
HETATM    2  O2  UNL     1       3.111  20.862 -14.044  1.00  0.00    -0.379 OA
BRANCH   2   3
HETATM    3  C3  UNL     1       3.458  20.152 -15.143  1.00  0.00     0.209 C 
BRANCH   3   4
HETATM    4  C2  UNL     1       2.349  19.295 -15.704  1.00  0.00     0.233 C 
BRANCH   4   5
HETATM    5  O1  UNL     1       2.748  17.984 -15.882  1.00  0.00    -0.380 OA
HETATM    6  C1  UNL     1       2.991  17.316 -14.711  1.00  0.00     0.202 C 
ENDBRANCH   4   5
BRANCH   4   7
HETATM    7  C9  UNL     1       1.799  19.806 -16.965  1.00  0.00     0.262 C 
HETATM    8  N4  UNL     1       1.250  18.892 -17.897  1.00  0.00    -0.060 NA
HETATM    9  O4  UNL     1       1.778  21.021 -17.292  1.00  0.00    -0.274 OA
ENDBRANCH   4   7
ENDBRANCH   3   4
ENDBRANCH   2   3
ENDBRANCH   1   2
BRANCH   1  10
HETATM   10  C5  UNL     1       4.543  20.490 -12.137  1.00  0.00     0.241 C 
HETATM   11  O3  UNL     1       5.461  19.658 -12.194  1.00  0.00    -0.271 OA
HETATM   12  N1  UNL     1       3.863  20.626 -10.872  1.00  0.00    -0.354 N 
ATOM     13  H1  UNL     1       3.102  21.297 -10.776  1.00  0.00     0.162 HD
BRANCH  12  14
HETATM   14  C6  UNL     1       4.252  19.819  -9.746  1.00  0.00     0.177 C 
BRANCH  14  15
HETATM   15  C7  UNL     1       3.560  18.524  -9.798  1.00  0.00     0.055 C 
HETATM   16  N2  UNL     1       4.199  17.336  -9.346  1.00  0.00    -0.104 NA
HETATM   17  C8  UNL     1       2.330  18.448 -10.267  1.00  0.00     0.123 C 
HETATM   18  N3  UNL     1       1.616  17.212 -10.336  1.00  0.00    -0.113 NA
ENDBRANCH  14  15
ENDBRANCH  12  14
ENDBRANCH   1  10
TORSDOF 8
ENDMDL
