MODEL 1
REMARK VINA RESULT: -6.464265481      0.000      0.000
REMARK  10 active torsions:
REMARK  status: ('A' for Active; 'I' for Inactive)
REMARK    1  A    between atoms: C2_2  and  C3_3 
REMARK    2  A    between atoms: C3_3  and  O1_4 
REMARK    3  A    between atoms: C3_3  and  C4_8 
REMARK    4  A    between atoms: O1_4  and  N1_5 
REMARK    5  A    between atoms: C4_8  and  C5_9 
REMARK    6  A    between atoms: C4_8  and  N2_12 
REMARK    7  A    between atoms: C4_8  and  C9_20 
REMARK    8  A    between atoms: C5_9  and  O2_10 
REMARK    9  A    between atoms: N2_12  and  C6_14 
REMARK   10  A    between atoms: C6_14  and  C7_15 
REMARK       I    between atoms: C7_15  and  N3_17 
ROOT
HETATM    1  C4  UNL     1       3.462  19.005  -9.558  1.00  0.00     0.159 C 
ENDROOT
BRANCH   1   2
HETATM    2  C3  UNL     1       3.833  19.732 -10.856  1.00  0.00     0.190 C 
BRANCH   2   3
HETATM    3  C2  UNL     1       4.636  20.958 -10.766  1.00  0.00     0.033 C 
HETATM    4  C1  UNL     1       4.315  22.090 -11.682  1.00  0.00     0.007 C 
ENDBRANCH   2   3
BRANCH   2   5
HETATM    5  O1  UNL     1       4.577  18.789 -11.654  1.00  0.00    -0.279 OA
BRANCH   5   6
HETATM    6  N1  UNL     1       3.840  18.233 -12.608  1.00  0.00    -0.311 N 
ATOM      7  H12 UNL     1       3.158  18.757 -13.155  1.00  0.00     0.184 HD
ATOM      8  H11 UNL     1       4.035  17.238 -12.725  1.00  0.00     0.184 HD
ENDBRANCH   5   6
ENDBRANCH   2   5
ENDBRANCH   1   2
BRANCH   1   9
HETATM    9  C5  UNL     1       4.417  17.978  -9.112  1.00  0.00     0.207 C 
BRANCH   9  10
HETATM   10  O2  UNL     1       4.197  16.713  -9.720  1.00  0.00    -0.398 OA
ATOM     11  H2  UNL     1       3.588  16.169  -9.235  1.00  0.00     0.209 HD
ENDBRANCH   9  10
ENDBRANCH   1   9
BRANCH   1  12
HETATM   12  N2  UNL     1       3.449  20.136  -8.605  1.00  0.00    -0.373 N 
ATOM     13  H2  UNL     1       2.887  20.970  -8.778  1.00  0.00     0.160 HD
BRANCH  12  14
HETATM   14  C6  UNL     1       4.237  20.016  -7.462  1.00  0.00     0.159 C 
BRANCH  14  15
HETATM   15  C7  UNL     1       3.871  21.148  -6.522  1.00  0.00     0.256 C 
HETATM   16  O3  UNL     1       3.419  22.207  -6.979  1.00  0.00    -0.267 OA
HETATM   17  N3  UNL     1       4.059  20.958  -5.117  1.00  0.00    -0.361 N 
HETATM   18  C8  UNL     1       3.709  22.031  -4.229  1.00  0.00     0.149 C 
ATOM     19  H3  UNL     1       4.432  20.081  -4.755  1.00  0.00     0.162 HD
ENDBRANCH  14  15
ENDBRANCH  12  14
ENDBRANCH   1  12
BRANCH   1  20
HETATM   20  C9  UNL     1       2.063  18.562  -9.676  1.00  0.00     0.264 C 
HETATM   21  N4  UNL     1       1.608  17.477 -10.474  1.00  0.00    -0.060 NA
HETATM   22  O4  UNL     1       1.162  19.153  -9.047  1.00  0.00    -0.274 OA
ENDBRANCH   1  20
TORSDOF 10
ENDMDL
MODEL 2
REMARK VINA RESULT: -5.828107383      3.149      6.564
REMARK  10 active torsions:
REMARK  status: ('A' for Active; 'I' for Inactive)
REMARK    1  A    between atoms: C2_2  and  C3_3 
REMARK    2  A    between atoms: C3_3  and  O1_4 
REMARK    3  A    between atoms: C3_3  and  C4_8 
REMARK    4  A    between atoms: O1_4  and  N1_5 
REMARK    5  A    between atoms: C4_8  and  C5_9 
REMARK    6  A    between atoms: C4_8  and  N2_12 
REMARK    7  A    between atoms: C4_8  and  C9_20 
REMARK    8  A    between atoms: C5_9  and  O2_10 
REMARK    9  A    between atoms: N2_12  and  C6_14 
REMARK   10  A    between atoms: C6_14  and  C7_15 
REMARK       I    between atoms: C7_15  and  N3_17 
ROOT
HETATM    1  C4  UNL     1       4.437  20.621 -11.923  1.00  0.00     0.159 C 
ENDROOT
BRANCH   1   2
HETATM    2  C3  UNL     1       3.722  20.080 -10.679  1.00  0.00     0.190 C 
BRANCH   2   3
HETATM    3  C2  UNL     1       3.449  18.639 -10.600  1.00  0.00     0.033 C 
HETATM    4  C1  UNL     1       2.176  18.188  -9.968  1.00  0.00     0.007 C 
ENDBRANCH   2   3
BRANCH   2   5
HETATM    5  O1  UNL     1       4.551  20.423  -9.551  1.00  0.00    -0.279 OA
BRANCH   5   6
HETATM    6  N1  UNL     1       3.849  20.875  -8.519  1.00  0.00    -0.311 N 
ATOM      7  H12 UNL     1       2.878  21.175  -8.600  1.00  0.00     0.184 HD
ATOM      8  H11 UNL     1       4.388  20.888  -7.653  1.00  0.00     0.184 HD
ENDBRANCH   5   6
ENDBRANCH   2   5
ENDBRANCH   1   2
BRANCH   1   9
HETATM    9  C5  UNL     1       5.728  19.987 -12.237  1.00  0.00     0.207 C 
BRANCH   9  10
HETATM   10  O2  UNL     1       6.766  20.371 -11.345  1.00  0.00    -0.398 OA
ATOM     11  H2  UNL     1       7.336  21.040 -11.706  1.00  0.00     0.209 HD
ENDBRANCH   9  10
ENDBRANCH   1   9
BRANCH   1  12
HETATM   12  N2  UNL     1       3.444  20.298 -12.971  1.00  0.00    -0.373 N 
ATOM     13  H2  UNL     1       2.507  19.971 -12.732  1.00  0.00     0.160 HD
BRANCH  12  14
HETATM   14  C6  UNL     1       3.841  20.458 -14.297  1.00  0.00     0.159 C 
BRANCH  14  15
HETATM   15  C7  UNL     1       3.078  19.454 -15.137  1.00  0.00     0.256 C 
HETATM   16  O3  UNL     1       3.066  18.259 -14.811  1.00  0.00    -0.267 OA
HETATM   17  N3  UNL     1       2.383  19.920 -16.298  1.00  0.00    -0.361 N 
HETATM   18  C8  UNL     1       1.660  18.966 -17.091  1.00  0.00     0.149 C 
ATOM     19  H3  UNL     1       2.402  20.906 -16.556  1.00  0.00     0.162 HD
ENDBRANCH  14  15
ENDBRANCH  12  14
ENDBRANCH   1  12
BRANCH   1  20
HETATM   20  C9  UNL     1       4.457  22.089 -11.826  1.00  0.00     0.264 C 
HETATM   21  N4  UNL     1       5.586  22.875 -11.464  1.00  0.00    -0.060 NA
HETATM   22  O4  UNL     1       3.426  22.749 -12.069  1.00  0.00    -0.274 OA
ENDBRANCH   1  20
TORSDOF 10
ENDMDL
MODEL 3
REMARK VINA RESULT: -5.600192598      2.942      6.293
REMARK  10 active torsions:
REMARK  status: ('A' for Active; 'I' for Inactive)
REMARK    1  A    between atoms: C2_2  and  C3_3 
REMARK    2  A    between atoms: C3_3  and  O1_4 
REMARK    3  A    between atoms: C3_3  and  C4_8 
REMARK    4  A    between atoms: O1_4  and  N1_5 
REMARK    5  A    between atoms: C4_8  and  C5_9 
REMARK    6  A    between atoms: C4_8  and  N2_12 
REMARK    7  A    between atoms: C4_8  and  C9_20 
REMARK    8  A    between atoms: C5_9  and  O2_10 
REMARK    9  A    between atoms: N2_12  and  C6_14 
REMARK   10  A    between atoms: C6_14  and  C7_15 
REMARK       I    between atoms: C7_15  and  N3_17 
ROOT
HETATM    1  C4  UNL     1       4.171  19.867 -11.706  1.00  0.00     0.159 C 
ENDROOT
BRANCH   1   2
HETATM    2  C3  UNL     1       3.318  19.873 -10.432  1.00  0.00     0.190 C 
BRANCH   2   3
HETATM    3  C2  UNL     1       2.451  18.718 -10.164  1.00  0.00     0.033 C 
HETATM    4  C1  UNL     1       2.834  17.777  -9.073  1.00  0.00     0.007 C 
ENDBRANCH   2   3
BRANCH   2   5
HETATM    5  O1  UNL     1       4.237  19.986  -9.326  1.00  0.00    -0.279 OA
BRANCH   5   6
HETATM    6  N1  UNL     1       3.898  20.947  -8.476  1.00  0.00    -0.311 N 
ATOM      7  H12 UNL     1       2.945  21.075  -8.138  1.00  0.00     0.184 HD
ATOM      8  H11 UNL     1       4.691  21.531  -8.208  1.00  0.00     0.184 HD
ENDBRANCH   5   6
ENDBRANCH   2   5
ENDBRANCH   1   2
BRANCH   1   9
HETATM    9  C5  UNL     1       4.585  18.538 -12.184  1.00  0.00     0.207 C 
BRANCH   9  10
HETATM   10  O2  UNL     1       3.557  17.857 -12.892  1.00  0.00    -0.398 OA
ATOM     11  H2  UNL     1       3.893  17.255 -13.545  1.00  0.00     0.209 HD
ENDBRANCH   9  10
ENDBRANCH   1   9
BRANCH   1  12
HETATM   12  N2  UNL     1       3.230  20.482 -12.667  1.00  0.00    -0.373 N 
ATOM     13  H2  UNL     1       2.245  20.613 -12.436  1.00  0.00     0.160 HD
BRANCH  12  14
HETATM   14  C6  UNL     1       3.745  20.876 -13.901  1.00  0.00     0.159 C 
BRANCH  14  15
HETATM   15  C7  UNL     1       2.867  20.282 -14.984  1.00  0.00     0.256 C 
HETATM   16  O3  UNL     1       1.879  20.908 -15.389  1.00  0.00    -0.267 OA
HETATM   17  N3  UNL     1       3.209  18.997 -15.514  1.00  0.00    -0.361 N 
HETATM   18  C8  UNL     1       2.376  18.437 -16.541  1.00  0.00     0.149 C 
ATOM     19  H3  UNL     1       4.025  18.492 -15.170  1.00  0.00     0.162 HD
ENDBRANCH  14  15
ENDBRANCH  12  14
ENDBRANCH   1  12
BRANCH   1  20
HETATM   20  C9  UNL     1       5.256  20.843 -11.523  1.00  0.00     0.264 C 
HETATM   21  N4  UNL     1       5.083  22.245 -11.358  1.00  0.00    -0.060 NA
HETATM   22  O4  UNL     1       6.445  20.465 -11.506  1.00  0.00    -0.274 OA
ENDBRANCH   1  20
TORSDOF 10
ENDMDL
MODEL 4
REMARK VINA RESULT: -5.560696086      2.820      6.023
REMARK  10 active torsions:
REMARK  status: ('A' for Active; 'I' for Inactive)
REMARK    1  A    between atoms: C2_2  and  C3_3 
REMARK    2  A    between atoms: C3_3  and  O1_4 
REMARK    3  A    between atoms: C3_3  and  C4_8 
REMARK    4  A    between atoms: O1_4  and  N1_5 
REMARK    5  A    between atoms: C4_8  and  C5_9 
REMARK    6  A    between atoms: C4_8  and  N2_12 
REMARK    7  A    between atoms: C4_8  and  C9_20 
REMARK    8  A    between atoms: C5_9  and  O2_10 
REMARK    9  A    between atoms: N2_12  and  C6_14 
REMARK   10  A    between atoms: C6_14  and  C7_15 
REMARK       I    between atoms: C7_15  and  N3_17 
ROOT
HETATM    1  C4  UNL     1       4.311  19.735 -11.731  1.00  0.00     0.159 C 
ENDROOT
BRANCH   1   2
HETATM    2  C3  UNL     1       3.707  19.382 -10.367  1.00  0.00     0.190 C 
BRANCH   2   3
HETATM    3  C2  UNL     1       3.802  20.369  -9.283  1.00  0.00     0.033 C 
HETATM    4  C1  UNL     1       4.257  19.910  -7.939  1.00  0.00     0.007 C 
ENDBRANCH   2   3
BRANCH   2   5
HETATM    5  O1  UNL     1       2.306  19.127 -10.594  1.00  0.00    -0.279 OA
BRANCH   5   6
HETATM    6  N1  UNL     1       1.974  17.862 -10.373  1.00  0.00    -0.311 N 
ATOM      7  H12 UNL     1       2.567  17.218  -9.850  1.00  0.00     0.184 HD
ATOM      8  H11 UNL     1       1.072  17.616 -10.782  1.00  0.00     0.184 HD
ENDBRANCH   5   6
ENDBRANCH   2   5
ENDBRANCH   1   2
BRANCH   1   9
HETATM    9  C5  UNL     1       4.671  18.588 -12.580  1.00  0.00     0.207 C 
BRANCH   9  10
HETATM   10  O2  UNL     1       3.545  17.818 -12.979  1.00  0.00    -0.398 OA
ATOM     11  H2  UNL     1       3.521  16.959 -12.575  1.00  0.00     0.209 HD
ENDBRANCH   9  10
ENDBRANCH   1   9
BRANCH   1  12
HETATM   12  N2  UNL     1       3.191  20.486 -12.339  1.00  0.00    -0.373 N 
ATOM     13  H2  UNL     1       2.237  20.390 -11.991  1.00  0.00     0.160 HD
BRANCH  12  14
HETATM   14  C6  UNL     1       3.493  21.330 -13.406  1.00  0.00     0.159 C 
BRANCH  14  15
HETATM   15  C7  UNL     1       3.215  20.575 -14.690  1.00  0.00     0.256 C 
HETATM   16  O3  UNL     1       4.132  19.968 -15.260  1.00  0.00    -0.267 OA
HETATM   17  N3  UNL     1       1.884  20.586 -15.215  1.00  0.00    -0.361 N 
HETATM   18  C8  UNL     1       1.623  19.869 -16.432  1.00  0.00     0.149 C 
ATOM     19  H3  UNL     1       1.139  21.091 -14.737  1.00  0.00     0.162 HD
ENDBRANCH  14  15
ENDBRANCH  12  14
ENDBRANCH   1  12
BRANCH   1  20
HETATM   20  C9  UNL     1       5.382  20.719 -11.506  1.00  0.00     0.264 C 
HETATM   21  N4  UNL     1       5.192  22.121 -11.358  1.00  0.00    -0.060 NA
HETATM   22  O4  UNL     1       6.571  20.349 -11.432  1.00  0.00    -0.274 OA
ENDBRANCH   1  20
TORSDOF 10
ENDMDL
MODEL 5
REMARK VINA RESULT: -5.471429206      3.142      6.441
REMARK  10 active torsions:
REMARK  status: ('A' for Active; 'I' for Inactive)
REMARK    1  A    between atoms: C2_2  and  C3_3 
REMARK    2  A    between atoms: C3_3  and  O1_4 
REMARK    3  A    between atoms: C3_3  and  C4_8 
REMARK    4  A    between atoms: O1_4  and  N1_5 
REMARK    5  A    between atoms: C4_8  and  C5_9 
REMARK    6  A    between atoms: C4_8  and  N2_12 
REMARK    7  A    between atoms: C4_8  and  C9_20 
REMARK    8  A    between atoms: C5_9  and  O2_10 
REMARK    9  A    between atoms: N2_12  and  C6_14 
REMARK   10  A    between atoms: C6_14  and  C7_15 
REMARK       I    between atoms: C7_15  and  N3_17 
ROOT
HETATM    1  C4  UNL     1       4.528  20.363 -11.930  1.00  0.00     0.159 C 
ENDROOT
BRANCH   1   2
HETATM    2  C3  UNL     1       3.842  19.722 -10.718  1.00  0.00     0.190 C 
BRANCH   2   3
HETATM    3  C2  UNL     1       3.983  20.372  -9.408  1.00  0.00     0.033 C 
HETATM    4  C1  UNL     1       4.626  19.609  -8.300  1.00  0.00     0.007 C 
ENDBRANCH   2   3
BRANCH   2   5
HETATM    5  O1  UNL     1       2.433  19.675 -11.024  1.00  0.00    -0.279 OA
BRANCH   5   6
HETATM    6  N1  UNL     1       1.740  18.975 -10.135  1.00  0.00    -0.311 N 
ATOM      7  H12 UNL     1       2.038  18.863  -9.166  1.00  0.00     0.184 HD
ATOM      8  H11 UNL     1       0.890  18.571 -10.529  1.00  0.00     0.184 HD
ENDBRANCH   5   6
ENDBRANCH   2   5
ENDBRANCH   1   2
BRANCH   1   9
HETATM    9  C5  UNL     1       5.817  19.769 -12.317  1.00  0.00     0.207 C 
BRANCH   9  10
HETATM   10  O2  UNL     1       6.890  20.175 -11.478  1.00  0.00    -0.398 OA
ATOM     11  H2  UNL     1       7.271  19.457 -10.988  1.00  0.00     0.209 HD
ENDBRANCH   9  10
ENDBRANCH   1   9
BRANCH   1  12
HETATM   12  N2  UNL     1       3.517  20.113 -12.980  1.00  0.00    -0.373 N 
ATOM     13  H2  UNL     1       2.570  19.814 -12.745  1.00  0.00     0.160 HD
BRANCH  12  14
HETATM   14  C6  UNL     1       3.910  20.302 -14.303  1.00  0.00     0.159 C 
BRANCH  14  15
HETATM   15  C7  UNL     1       3.100  19.361 -15.170  1.00  0.00     0.256 C 
HETATM   16  O3  UNL     1       3.013  18.163 -14.866  1.00  0.00    -0.267 OA
HETATM   17  N3  UNL     1       2.450  19.887 -16.331  1.00  0.00    -0.361 N 
HETATM   18  C8  UNL     1       1.681  18.993 -17.150  1.00  0.00     0.149 C 
ATOM     19  H3  UNL     1       2.531  20.875 -16.570  1.00  0.00     0.162 HD
ENDBRANCH  14  15
ENDBRANCH  12  14
ENDBRANCH   1  12
BRANCH   1  20
HETATM   20  C9  UNL     1       4.538  21.820 -11.719  1.00  0.00     0.264 C 
HETATM   21  N4  UNL     1       3.468  22.704 -12.030  1.00  0.00    -0.060 NA
HETATM   22  O4  UNL     1       5.542  22.378 -11.233  1.00  0.00    -0.274 OA
ENDBRANCH   1  20
TORSDOF 10
ENDMDL
