MODEL 1
REMARK VINA RESULT: -7.209025302      0.000      0.000
REMARK  10 active torsions:
REMARK  status: ('A' for Active; 'I' for Inactive)
REMARK    1  A    between atoms: C1_2  and  O2_4 
REMARK    2  A    between atoms: O2_4  and  C2_5 
REMARK    3  A    between atoms: C2_5  and  C3_6 
REMARK    4  A    between atoms: C3_6  and  C4_7 
REMARK    5  A    between atoms: C4_7  and  N3_12 
REMARK    6  A    between atoms: C5_8  and  C6_9 
REMARK    7  A    between atoms: N3_12  and  C7_14 
REMARK    8  A    between atoms: C7_14  and  C8_15 
REMARK    9  A    between atoms: C8_15  and  C9_17 
REMARK   10  A    between atoms: C9_17  and  N4_18 
ROOT
HETATM    1  C4  UNL     1       3.916  19.821  -8.528  1.00  0.00     0.012 C 
HETATM    2  C5  UNL     1       2.790  19.172  -8.425  1.00  0.00     0.095 C 
ENDROOT
BRANCH   1   3
HETATM    3  C3  UNL     1       4.812  19.903  -9.697  1.00  0.00     0.083 C 
BRANCH   3   4
HETATM    4  C2  UNL     1       4.427  21.042 -10.622  1.00  0.00     0.186 C 
BRANCH   4   5
HETATM    5  O2  UNL     1       3.934  20.615 -11.862  1.00  0.00    -0.306 OA
BRANCH   5   6
HETATM    6  C1  UNL     1       3.802  21.369 -13.006  1.00  0.00     0.372 C 
HETATM    7  N1  UNL     1       4.302  22.721 -13.083  1.00  0.00    -0.032 NA
HETATM    8  O1  UNL     1       3.232  20.849 -13.994  1.00  0.00    -0.242 OA
ENDBRANCH   5   6
ENDBRANCH   4   5
ENDBRANCH   3   4
ENDBRANCH   1   3
BRANCH   1   9
HETATM    9  N3  UNL     1       4.354  20.565  -7.350  1.00  0.00    -0.386 N 
ATOM     10  H3  UNL     1       4.948  21.386  -7.462  1.00  0.00     0.159 HD
BRANCH   9  11
HETATM   11  C7  UNL     1       3.954  20.149  -6.033  1.00  0.00     0.199 C 
BRANCH  11  12
HETATM   12  C8  UNL     1       3.874  21.302  -5.108  1.00  0.00     0.169 C 
HETATM   13  O4  UNL     1       4.228  21.158  -3.958  1.00  0.00    -0.294 OA
BRANCH  12  14
HETATM   14  C9  UNL     1       3.374  22.627  -5.540  1.00  0.00     0.309 C 
BRANCH  14  15
HETATM   15  N4  UNL     1       2.812  23.353  -4.445  1.00  0.00    -0.073 N 
ATOM     16  H43 UNL     1       2.366  24.215  -4.758  1.00  0.00     0.274 HD
ATOM     17  H42 UNL     1       1.992  22.880  -4.065  1.00  0.00     0.274 HD
ATOM     18  H41 UNL     1       3.509  23.532  -3.722  1.00  0.00     0.274 HD
ENDBRANCH  14  15
ENDBRANCH  12  14
ENDBRANCH  11  12
ENDBRANCH   9  11
ENDBRANCH   1   9
BRANCH   2  19
HETATM   19  C6  UNL     1       2.123  18.363  -9.417  1.00  0.00     0.256 C 
HETATM   20  N2  UNL     1       2.290  16.926  -9.408  1.00  0.00    -0.058 NA
HETATM   21  O3  UNL     1       1.385  18.790 -10.321  1.00  0.00    -0.272 OA
ENDBRANCH   2  19
TORSDOF 10
ENDMDL
MODEL 2
REMARK VINA RESULT: -7.029496151      1.131      1.131
REMARK  10 active torsions:
REMARK  status: ('A' for Active; 'I' for Inactive)
REMARK    1  A    between atoms: C1_2  and  O2_4 
REMARK    2  A    between atoms: O2_4  and  C2_5 
REMARK    3  A    between atoms: C2_5  and  C3_6 
REMARK    4  A    between atoms: C3_6  and  C4_7 
REMARK    5  A    between atoms: C4_7  and  N3_12 
REMARK    6  A    between atoms: C5_8  and  C6_9 
REMARK    7  A    between atoms: N3_12  and  C7_14 
REMARK    8  A    between atoms: C7_14  and  C8_15 
REMARK    9  A    between atoms: C8_15  and  C9_17 
REMARK   10  A    between atoms: C9_17  and  N4_18 
ROOT
HETATM    1  C4  UNL     1       3.931  19.752  -8.509  1.00  0.00     0.012 C 
HETATM    2  C5  UNL     1       2.897  18.969  -8.378  1.00  0.00     0.095 C 
ENDROOT
BRANCH   1   3
HETATM    3  C3  UNL     1       4.810  19.904  -9.683  1.00  0.00     0.083 C 
BRANCH   3   4
HETATM    4  C2  UNL     1       4.305  20.977 -10.629  1.00  0.00     0.186 C 
BRANCH   4   5
HETATM    5  O2  UNL     1       4.271  20.573 -11.970  1.00  0.00    -0.306 OA
BRANCH   5   6
HETATM    6  C1  UNL     1       3.902  21.332 -13.056  1.00  0.00     0.372 C 
HETATM    7  N1  UNL     1       3.189  20.758 -14.174  1.00  0.00    -0.032 NA
HETATM    8  O1  UNL     1       4.199  22.550 -13.055  1.00  0.00    -0.242 OA
ENDBRANCH   5   6
ENDBRANCH   4   5
ENDBRANCH   3   4
ENDBRANCH   1   3
BRANCH   1   9
HETATM    9  N3  UNL     1       4.268  20.589  -7.361  1.00  0.00    -0.386 N 
ATOM     10  H3  UNL     1       4.748  21.478  -7.506  1.00  0.00     0.159 HD
BRANCH   9  11
HETATM   11  C7  UNL     1       3.930  20.171  -6.027  1.00  0.00     0.199 C 
BRANCH  11  12
HETATM   12  C8  UNL     1       3.861  21.326  -5.105  1.00  0.00     0.169 C 
HETATM   13  O4  UNL     1       4.237  21.189  -3.961  1.00  0.00    -0.294 OA
BRANCH  12  14
HETATM   14  C9  UNL     1       3.345  22.647  -5.532  1.00  0.00     0.309 C 
BRANCH  14  15
HETATM   15  N4  UNL     1       2.831  23.388  -4.423  1.00  0.00    -0.073 N 
ATOM     16  H43 UNL     1       3.470  24.132  -4.143  1.00  0.00     0.274 HD
ATOM     17  H42 UNL     1       2.031  23.960  -4.694  1.00  0.00     0.274 HD
ATOM     18  H41 UNL     1       2.605  22.774  -3.640  1.00  0.00     0.274 HD
ENDBRANCH  14  15
ENDBRANCH  12  14
ENDBRANCH  11  12
ENDBRANCH   9  11
ENDBRANCH   1   9
BRANCH   2  19
HETATM   19  C6  UNL     1       2.341  18.044  -9.336  1.00  0.00     0.256 C 
HETATM   20  N2  UNL     1       1.560  18.541 -10.449  1.00  0.00    -0.058 NA
HETATM   21  O3  UNL     1       2.466  16.809  -9.308  1.00  0.00    -0.272 OA
ENDBRANCH   2  19
TORSDOF 10
ENDMDL
MODEL 3
REMARK VINA RESULT: -6.997974397      1.712      6.113
REMARK  10 active torsions:
REMARK  status: ('A' for Active; 'I' for Inactive)
REMARK    1  A    between atoms: C1_2  and  O2_4 
REMARK    2  A    between atoms: O2_4  and  C2_5 
REMARK    3  A    between atoms: C2_5  and  C3_6 
REMARK    4  A    between atoms: C3_6  and  C4_7 
REMARK    5  A    between atoms: C4_7  and  N3_12 
REMARK    6  A    between atoms: C5_8  and  C6_9 
REMARK    7  A    between atoms: N3_12  and  C7_14 
REMARK    8  A    between atoms: C7_14  and  C8_15 
REMARK    9  A    between atoms: C8_15  and  C9_17 
REMARK   10  A    between atoms: C9_17  and  N4_18 
ROOT
HETATM    1  C4  UNL     1       4.236  19.702  -9.726  1.00  0.00     0.012 C 
HETATM    2  C5  UNL     1       3.215  19.108 -10.278  1.00  0.00     0.095 C 
ENDROOT
BRANCH   1   3
HETATM    3  C3  UNL     1       4.641  19.677  -8.308  1.00  0.00     0.083 C 
BRANCH   3   4
HETATM    4  C2  UNL     1       3.906  20.726  -7.495  1.00  0.00     0.186 C 
BRANCH   4   5
HETATM    5  O2  UNL     1       3.902  20.467  -6.118  1.00  0.00    -0.306 OA
BRANCH   5   6
HETATM    6  C1  UNL     1       3.825  21.390  -5.100  1.00  0.00     0.372 C 
HETATM    7  N1  UNL     1       3.319  22.724  -5.325  1.00  0.00    -0.032 NA
HETATM    8  O1  UNL     1       4.205  21.043  -3.957  1.00  0.00    -0.242 OA
ENDBRANCH   5   6
ENDBRANCH   4   5
ENDBRANCH   3   4
ENDBRANCH   1   3
BRANCH   1   9
HETATM    9  N3  UNL     1       5.091  20.489 -10.609  1.00  0.00    -0.386 N 
ATOM     10  H3  UNL     1       5.994  20.116 -10.903  1.00  0.00     0.159 HD
BRANCH   9  11
HETATM   11  C7  UNL     1       4.672  21.785 -11.068  1.00  0.00     0.199 C 
BRANCH  11  12
HETATM   12  C8  UNL     1       4.362  21.766 -12.516  1.00  0.00     0.169 C 
HETATM   13  O4  UNL     1       4.295  22.817 -13.117  1.00  0.00    -0.294 OA
BRANCH  12  14
HETATM   14  C9  UNL     1       4.128  20.506 -13.256  1.00  0.00     0.309 C 
BRANCH  14  15
HETATM   15  N4  UNL     1       3.117  20.668 -14.253  1.00  0.00    -0.073 N 
ATOM     16  H43 UNL     1       3.217  19.983 -15.002  1.00  0.00     0.274 HD
ATOM     17  H42 UNL     1       2.200  20.389 -13.905  1.00  0.00     0.274 HD
ATOM     18  H41 UNL     1       3.105  21.621 -14.617  1.00  0.00     0.274 HD
ENDBRANCH  14  15
ENDBRANCH  12  14
ENDBRANCH  11  12
ENDBRANCH   9  11
ENDBRANCH   1   9
BRANCH   2  19
HETATM   19  C6  UNL     1       2.213  18.276  -9.655  1.00  0.00     0.256 C 
HETATM   20  N2  UNL     1       1.100  18.883  -8.959  1.00  0.00    -0.058 NA
HETATM   21  O3  UNL     1       2.204  17.033  -9.654  1.00  0.00    -0.272 OA
ENDBRANCH   2  19
TORSDOF 10
ENDMDL
MODEL 4
REMARK VINA RESULT: -6.956034997      1.338      6.014
REMARK  10 active torsions:
REMARK  status: ('A' for Active; 'I' for Inactive)
REMARK    1  A    between atoms: C1_2  and  O2_4 
REMARK    2  A    between atoms: O2_4  and  C2_5 
REMARK    3  A    between atoms: C2_5  and  C3_6 
REMARK    4  A    between atoms: C3_6  and  C4_7 
REMARK    5  A    between atoms: C4_7  and  N3_12 
REMARK    6  A    between atoms: C5_8  and  C6_9 
REMARK    7  A    between atoms: N3_12  and  C7_14 
REMARK    8  A    between atoms: C7_14  and  C8_15 
REMARK    9  A    between atoms: C8_15  and  C9_17 
REMARK   10  A    between atoms: C9_17  and  N4_18 
ROOT
HETATM    1  C4  UNL     1       4.211  19.743  -9.608  1.00  0.00     0.012 C 
HETATM    2  C5  UNL     1       3.164  19.169 -10.130  1.00  0.00     0.095 C 
ENDROOT
BRANCH   1   3
HETATM    3  C3  UNL     1       4.639  19.738  -8.197  1.00  0.00     0.083 C 
BRANCH   3   4
HETATM    4  C2  UNL     1       3.876  20.759  -7.374  1.00  0.00     0.186 C 
BRANCH   4   5
HETATM    5  O2  UNL     1       3.856  20.473  -6.003  1.00  0.00    -0.306 OA
BRANCH   5   6
HETATM    6  C1  UNL     1       3.821  21.379  -4.967  1.00  0.00     0.372 C 
HETATM    7  N1  UNL     1       3.336  22.726  -5.155  1.00  0.00    -0.032 NA
HETATM    8  O1  UNL     1       4.222  21.003  -3.840  1.00  0.00    -0.242 OA
ENDBRANCH   5   6
ENDBRANCH   4   5
ENDBRANCH   3   4
ENDBRANCH   1   3
BRANCH   1   9
HETATM    9  N3  UNL     1       5.076  20.483 -10.522  1.00  0.00    -0.386 N 
ATOM     10  H3  UNL     1       5.536  21.337 -10.204  1.00  0.00     0.159 HD
BRANCH   9  11
HETATM   11  C7  UNL     1       5.285  20.020 -11.867  1.00  0.00     0.199 C 
BRANCH  11  12
HETATM   12  C8  UNL     1       4.202  20.478 -12.766  1.00  0.00     0.169 C 
HETATM   13  O4  UNL     1       3.790  19.725 -13.622  1.00  0.00    -0.294 OA
BRANCH  12  14
HETATM   14  C9  UNL     1       3.604  21.828 -12.656  1.00  0.00     0.309 C 
BRANCH  14  15
HETATM   15  N4  UNL     1       4.560  22.847 -12.955  1.00  0.00    -0.073 N 
ATOM     16  H43 UNL     1       4.227  23.768 -12.669  1.00  0.00     0.274 HD
ATOM     17  H42 UNL     1       5.379  22.781 -12.350  1.00  0.00     0.274 HD
ATOM     18  H41 UNL     1       4.821  22.833 -13.941  1.00  0.00     0.274 HD
ENDBRANCH  14  15
ENDBRANCH  12  14
ENDBRANCH  11  12
ENDBRANCH   9  11
ENDBRANCH   1   9
BRANCH   2  19
HETATM   19  C6  UNL     1       2.148  18.381  -9.474  1.00  0.00     0.256 C 
HETATM   20  N2  UNL     1       2.332  16.955  -9.312  1.00  0.00    -0.058 NA
HETATM   21  O3  UNL     1       1.081  18.818  -9.011  1.00  0.00    -0.272 OA
ENDBRANCH   2  19
TORSDOF 10
ENDMDL
MODEL 5
REMARK VINA RESULT: -6.924740580      1.586      5.478
REMARK  10 active torsions:
REMARK  status: ('A' for Active; 'I' for Inactive)
REMARK    1  A    between atoms: C1_2  and  O2_4 
REMARK    2  A    between atoms: O2_4  and  C2_5 
REMARK    3  A    between atoms: C2_5  and  C3_6 
REMARK    4  A    between atoms: C3_6  and  C4_7 
REMARK    5  A    between atoms: C4_7  and  N3_12 
REMARK    6  A    between atoms: C5_8  and  C6_9 
REMARK    7  A    between atoms: N3_12  and  C7_14 
REMARK    8  A    between atoms: C7_14  and  C8_15 
REMARK    9  A    between atoms: C8_15  and  C9_17 
REMARK   10  A    between atoms: C9_17  and  N4_18 
ROOT
HETATM    1  C4  UNL     1       4.175  20.528  -8.408  1.00  0.00     0.012 C 
HETATM    2  C5  UNL     1       3.663  21.263  -7.461  1.00  0.00     0.095 C 
ENDROOT
BRANCH   1   3
HETATM    3  C3  UNL     1       4.964  19.290  -8.270  1.00  0.00     0.083 C 
BRANCH   3   4
HETATM    4  C2  UNL     1       4.089  18.053  -8.356  1.00  0.00     0.186 C 
BRANCH   4   5
HETATM    5  O2  UNL     1       3.544  17.840  -9.629  1.00  0.00    -0.306 OA
BRANCH   5   6
HETATM    6  C1  UNL     1       2.210  17.821  -9.967  1.00  0.00     0.372 C 
HETATM    7  N1  UNL     1       1.436  19.036 -10.063  1.00  0.00    -0.032 NA
HETATM    8  O1  UNL     1       1.675  16.711 -10.195  1.00  0.00    -0.242 OA
ENDBRANCH   5   6
ENDBRANCH   4   5
ENDBRANCH   3   4
ENDBRANCH   1   3
BRANCH   1   9
HETATM    9  N3  UNL     1       3.945  20.975  -9.779  1.00  0.00    -0.386 N 
ATOM     10  H3  UNL     1       3.097  21.493 -10.007  1.00  0.00     0.159 HD
BRANCH   9  11
HETATM   11  C7  UNL     1       4.905  20.690 -10.811  1.00  0.00     0.199 C 
BRANCH  11  12
HETATM   12  C8  UNL     1       4.240  20.468 -12.115  1.00  0.00     0.169 C 
HETATM   13  O4  UNL     1       4.029  19.332 -12.482  1.00  0.00    -0.294 OA
BRANCH  12  14
HETATM   14  C9  UNL     1       3.824  21.588 -12.989  1.00  0.00     0.309 C 
BRANCH  14  15
HETATM   15  N4  UNL     1       4.564  22.777 -12.699  1.00  0.00    -0.073 N 
ATOM     16  H43 UNL     1       5.157  22.657 -11.878  1.00  0.00     0.274 HD
ATOM     17  H42 UNL     1       5.290  22.945 -13.396  1.00  0.00     0.274 HD
ATOM     18  H41 UNL     1       3.946  23.583 -12.600  1.00  0.00     0.274 HD
ENDBRANCH  14  15
ENDBRANCH  12  14
ENDBRANCH  11  12
ENDBRANCH   9  11
ENDBRANCH   1   9
BRANCH   2  19
HETATM   19  C6  UNL     1       3.731  21.065  -6.032  1.00  0.00     0.256 C 
HETATM   20  N2  UNL     1       3.593  22.195  -5.139  1.00  0.00    -0.058 NA
HETATM   21  O3  UNL     1       3.902  19.975  -5.460  1.00  0.00    -0.272 OA
ENDBRANCH   2  19
TORSDOF 10
ENDMDL
