MODEL 1
REMARK VINA RESULT: -6.339851306      0.000      0.000
REMARK  8 active torsions:
REMARK  status: ('A' for Active; 'I' for Inactive)
REMARK    1  A    between atoms: N1_3  and  S1_5 
REMARK    2  A    between atoms: S1_5  and  N2_6 
REMARK    3  A    between atoms: S1_5  and  C3_10 
REMARK    4  A    between atoms: C3_10  and  C4_11 
REMARK    5  A    between atoms: C4_11  and  C5_12 
REMARK    6  A    between atoms: C5_12  and  C6_13 
REMARK    7  A    between atoms: C6_13  and  C7_14 
REMARK    8  A    between atoms: C7_14  and  N3_15 
ROOT
HETATM    1  C1  UNL     1      20.229  -7.433  -5.182  1.00  0.00     0.037 C 
HETATM    2  C2  UNL     1      19.503  -6.635  -4.637  1.00  0.00     0.008 C 
HETATM    3  N1  UNL     1      18.669  -5.694  -4.019  1.00  0.00    -0.260 N 
ATOM      4  H1  UNL     1      18.410  -4.824  -4.485  1.00  0.00     0.187 HD
ENDROOT
BRANCH   3   5
HETATM    5  S1  UNL     1      18.152  -6.038  -2.580  1.00  0.00     0.111 S 
HETATM    6  O1  UNL     1      17.092  -5.038  -2.238  1.00  0.00    -0.228 OA
BRANCH   5   7
HETATM    7  N2  UNL     1      17.490  -7.642  -2.665  1.00  0.00    -0.344 N 
ATOM      8  H22 UNL     1      17.507  -8.338  -1.920  1.00  0.00     0.167 HD
ATOM      9  H21 UNL     1      17.089  -7.742  -3.598  1.00  0.00     0.167 HD
ENDBRANCH   5   7
BRANCH   5  10
HETATM   10  C3  UNL     1      19.465  -6.049  -1.395  1.00  0.00     0.140 C 
BRANCH  10  11
HETATM   11  C4  UNL     1      18.958  -5.864   0.012  1.00  0.00     0.015 C 
BRANCH  11  12
HETATM   12  C5  UNL     1      18.908  -7.227   0.661  1.00  0.00     0.002 C 
BRANCH  12  13
HETATM   13  C6  UNL     1      17.622  -7.391   1.479  1.00  0.00     0.020 C 
BRANCH  13  14
HETATM   14  C7  UNL     1      17.942  -8.275   2.677  1.00  0.00     0.122 C 
BRANCH  14  15
HETATM   15  N3  UNL     1      17.057  -7.982   3.775  1.00  0.00    -0.367 N 
HETATM   16  C8  UNL     1      17.405  -8.108   5.003  1.00  0.00     0.196 C 
HETATM   17  N4  UNL     1      18.698  -8.548   5.388  1.00  0.00    -0.067 NA
HETATM   18  N5  UNL     1      16.471  -7.799   6.017  1.00  0.00    -0.067 NA
ATOM     19  H3  UNL     1      16.111  -7.660   3.566  1.00  0.00     0.161 HD
ENDBRANCH  14  15
ENDBRANCH  13  14
ENDBRANCH  12  13
ENDBRANCH  11  12
ENDBRANCH  10  11
ENDBRANCH   5  10
ENDBRANCH   3   5
TORSDOF 8
ENDMDL
MODEL 2
REMARK VINA RESULT: -6.137877522      3.112      3.817
REMARK  8 active torsions:
REMARK  status: ('A' for Active; 'I' for Inactive)
REMARK    1  A    between atoms: N1_3  and  S1_5 
REMARK    2  A    between atoms: S1_5  and  N2_6 
REMARK    3  A    between atoms: S1_5  and  C3_10 
REMARK    4  A    between atoms: C3_10  and  C4_11 
REMARK    5  A    between atoms: C4_11  and  C5_12 
REMARK    6  A    between atoms: C5_12  and  C6_13 
REMARK    7  A    between atoms: C6_13  and  C7_14 
REMARK    8  A    between atoms: C7_14  and  N3_15 
ROOT
HETATM    1  C1  UNL     1      20.499  -7.777  -6.003  1.00  0.00     0.037 C 
HETATM    2  C2  UNL     1      20.262  -7.421  -4.873  1.00  0.00     0.008 C 
HETATM    3  N1  UNL     1      19.995  -7.029  -3.555  1.00  0.00    -0.260 N 
ATOM      4  H1  UNL     1      20.395  -7.527  -2.759  1.00  0.00     0.187 HD
ENDROOT
BRANCH   3   5
HETATM    5  S1  UNL     1      19.056  -5.790  -3.358  1.00  0.00     0.111 S 
HETATM    6  O1  UNL     1      19.448  -5.134  -2.071  1.00  0.00    -0.228 OA
BRANCH   5   7
HETATM    7  N2  UNL     1      19.342  -4.734  -4.708  1.00  0.00    -0.344 N 
ATOM      8  H22 UNL     1      19.512  -5.025  -5.671  1.00  0.00     0.167 HD
ATOM      9  H21 UNL     1      19.306  -3.782  -4.344  1.00  0.00     0.167 HD
ENDBRANCH   5   7
BRANCH   5  10
HETATM   10  C3  UNL     1      17.348  -6.251  -3.376  1.00  0.00     0.140 C 
BRANCH  10  11
HETATM   11  C4  UNL     1      16.727  -6.174  -2.006  1.00  0.00     0.015 C 
BRANCH  11  12
HETATM   12  C5  UNL     1      17.258  -7.336  -1.199  1.00  0.00     0.002 C 
BRANCH  12  13
HETATM   13  C6  UNL     1      17.465  -6.930   0.264  1.00  0.00     0.020 C 
BRANCH  13  14
HETATM   14  C7  UNL     1      18.776  -7.545   0.736  1.00  0.00     0.122 C 
BRANCH  14  15
HETATM   15  N3  UNL     1      19.871  -7.105  -0.089  1.00  0.00    -0.367 N 
HETATM   16  C8  UNL     1      21.082  -7.053   0.331  1.00  0.00     0.196 C 
HETATM   17  N4  UNL     1      21.449  -7.428   1.649  1.00  0.00    -0.067 NA
HETATM   18  N5  UNL     1      22.095  -6.608  -0.548  1.00  0.00    -0.067 NA
ATOM     19  H3  UNL     1      19.674  -6.821  -1.049  1.00  0.00     0.161 HD
ENDBRANCH  14  15
ENDBRANCH  13  14
ENDBRANCH  12  13
ENDBRANCH  11  12
ENDBRANCH  10  11
ENDBRANCH   5  10
ENDBRANCH   3   5
TORSDOF 8
ENDMDL
MODEL 3
REMARK VINA RESULT: -6.088944788      2.130      2.577
REMARK  8 active torsions:
REMARK  status: ('A' for Active; 'I' for Inactive)
REMARK    1  A    between atoms: N1_3  and  S1_5 
REMARK    2  A    between atoms: S1_5  and  N2_6 
REMARK    3  A    between atoms: S1_5  and  C3_10 
REMARK    4  A    between atoms: C3_10  and  C4_11 
REMARK    5  A    between atoms: C4_11  and  C5_12 
REMARK    6  A    between atoms: C5_12  and  C6_13 
REMARK    7  A    between atoms: C6_13  and  C7_14 
REMARK    8  A    between atoms: C7_14  and  N3_15 
ROOT
HETATM    1  C1  UNL     1      20.214  -7.338  -5.844  1.00  0.00     0.037 C 
HETATM    2  C2  UNL     1      19.395  -6.690  -5.236  1.00  0.00     0.008 C 
HETATM    3  N1  UNL     1      18.445  -5.923  -4.549  1.00  0.00    -0.260 N 
ATOM      4  H1  UNL     1      17.877  -5.224  -5.028  1.00  0.00     0.187 HD
ENDROOT
BRANCH   3   5
HETATM    5  S1  UNL     1      18.295  -6.188  -3.012  1.00  0.00     0.111 S 
HETATM    6  O1  UNL     1      17.439  -5.094  -2.454  1.00  0.00    -0.228 OA
BRANCH   5   7
HETATM    7  N2  UNL     1      17.514  -7.732  -2.851  1.00  0.00    -0.344 N 
ATOM      8  H22 UNL     1      16.603  -7.901  -2.426  1.00  0.00     0.167 HD
ATOM      9  H21 UNL     1      18.145  -8.420  -3.262  1.00  0.00     0.167 HD
ENDBRANCH   5   7
BRANCH   5  10
HETATM   10  C3  UNL     1      19.866  -6.282  -2.204  1.00  0.00     0.140 C 
BRANCH  10  11
HETATM   11  C4  UNL     1      19.806  -5.770  -0.789  1.00  0.00     0.015 C 
BRANCH  11  12
HETATM   12  C5  UNL     1      20.752  -6.608   0.039  1.00  0.00     0.002 C 
BRANCH  12  13
HETATM   13  C6  UNL     1      20.050  -7.136   1.295  1.00  0.00     0.020 C 
BRANCH  13  14
HETATM   14  C7  UNL     1      18.750  -7.800   0.857  1.00  0.00     0.122 C 
BRANCH  14  15
HETATM   15  N3  UNL     1      17.641  -7.302   1.629  1.00  0.00    -0.367 N 
HETATM   16  C8  UNL     1      16.492  -7.052   1.115  1.00  0.00     0.196 C 
HETATM   17  N4  UNL     1      16.214  -7.247  -0.262  1.00  0.00    -0.067 NA
HETATM   18  N5  UNL     1      15.459  -6.566   1.947  1.00  0.00    -0.067 NA
ATOM     19  H3  UNL     1      17.775  -7.141   2.627  1.00  0.00     0.161 HD
ENDBRANCH  14  15
ENDBRANCH  13  14
ENDBRANCH  12  13
ENDBRANCH  11  12
ENDBRANCH  10  11
ENDBRANCH   5  10
ENDBRANCH   3   5
TORSDOF 8
ENDMDL
MODEL 4
REMARK VINA RESULT: -5.968408457      1.052      1.052
REMARK  8 active torsions:
REMARK  status: ('A' for Active; 'I' for Inactive)
REMARK    1  A    between atoms: N1_3  and  S1_5 
REMARK    2  A    between atoms: S1_5  and  N2_6 
REMARK    3  A    between atoms: S1_5  and  C3_10 
REMARK    4  A    between atoms: C3_10  and  C4_11 
REMARK    5  A    between atoms: C4_11  and  C5_12 
REMARK    6  A    between atoms: C5_12  and  C6_13 
REMARK    7  A    between atoms: C6_13  and  C7_14 
REMARK    8  A    between atoms: C7_14  and  N3_15 
ROOT
HETATM    1  C1  UNL     1      20.214  -7.287  -5.656  1.00  0.00     0.037 C 
HETATM    2  C2  UNL     1      19.515  -7.222  -4.672  1.00  0.00     0.008 C 
HETATM    3  N1  UNL     1      18.690  -7.161  -3.541  1.00  0.00    -0.260 N 
ATOM      4  H1  UNL     1      18.001  -7.887  -3.345  1.00  0.00     0.187 HD
ENDROOT
BRANCH   3   5
HETATM    5  S1  UNL     1      18.874  -5.928  -2.592  1.00  0.00     0.111 S 
HETATM    6  O1  UNL     1      19.219  -4.753  -3.452  1.00  0.00    -0.228 OA
BRANCH   5   7
HETATM    7  N2  UNL     1      17.350  -5.689  -1.793  1.00  0.00    -0.344 N 
ATOM      8  H22 UNL     1      16.893  -6.349  -1.164  1.00  0.00     0.167 HD
ATOM      9  H21 UNL     1      17.014  -4.769  -2.078  1.00  0.00     0.167 HD
ENDBRANCH   5   7
BRANCH   5  10
HETATM   10  C3  UNL     1      20.101  -6.230  -1.353  1.00  0.00     0.140 C 
BRANCH  10  11
HETATM   11  C4  UNL     1      19.611  -5.871   0.026  1.00  0.00     0.015 C 
BRANCH  11  12
HETATM   12  C5  UNL     1      19.647  -7.128   0.863  1.00  0.00     0.002 C 
BRANCH  12  13
HETATM   13  C6  UNL     1      18.254  -7.454   1.412  1.00  0.00     0.020 C 
BRANCH  13  14
HETATM   14  C7  UNL     1      18.434  -8.317   2.655  1.00  0.00     0.122 C 
BRANCH  14  15
HETATM   15  N3  UNL     1      17.407  -8.032   3.623  1.00  0.00    -0.367 N 
HETATM   16  C8  UNL     1      17.582  -8.172   4.886  1.00  0.00     0.196 C 
HETATM   17  N4  UNL     1      18.809  -8.620   5.441  1.00  0.00    -0.067 NA
HETATM   18  N5  UNL     1      16.519  -7.869   5.766  1.00  0.00    -0.067 NA
ATOM     19  H3  UNL     1      16.499  -7.704   3.290  1.00  0.00     0.161 HD
ENDBRANCH  14  15
ENDBRANCH  13  14
ENDBRANCH  12  13
ENDBRANCH  11  12
ENDBRANCH  10  11
ENDBRANCH   5  10
ENDBRANCH   3   5
TORSDOF 8
ENDMDL
MODEL 5
REMARK VINA RESULT: -5.933907945      2.943      5.832
REMARK  8 active torsions:
REMARK  status: ('A' for Active; 'I' for Inactive)
REMARK    1  A    between atoms: N1_3  and  S1_5 
REMARK    2  A    between atoms: S1_5  and  N2_6 
REMARK    3  A    between atoms: S1_5  and  C3_10 
REMARK    4  A    between atoms: C3_10  and  C4_11 
REMARK    5  A    between atoms: C4_11  and  C5_12 
REMARK    6  A    between atoms: C5_12  and  C6_13 
REMARK    7  A    between atoms: C6_13  and  C7_14 
REMARK    8  A    between atoms: C7_14  and  N3_15 
ROOT
HETATM    1  C1  UNL     1      18.301  -8.184   3.404  1.00  0.00     0.037 C 
HETATM    2  C2  UNL     1      18.320  -7.971   2.215  1.00  0.00     0.008 C 
HETATM    3  N1  UNL     1      18.365  -7.732   0.835  1.00  0.00    -0.260 N 
ATOM      4  H1  UNL     1      19.096  -8.133   0.248  1.00  0.00     0.187 HD
ENDROOT
BRANCH   3   5
HETATM    5  S1  UNL     1      17.241  -6.819   0.235  1.00  0.00     0.111 S 
HETATM    6  O1  UNL     1      16.035  -6.965   1.111  1.00  0.00    -0.228 OA
BRANCH   5   7
HETATM    7  N2  UNL     1      17.849  -5.193   0.280  1.00  0.00    -0.344 N 
ATOM      8  H22 UNL     1      18.544  -4.830   0.933  1.00  0.00     0.167 HD
ATOM      9  H21 UNL     1      17.377  -4.686  -0.469  1.00  0.00     0.167 HD
ENDBRANCH   5   7
BRANCH   5  10
HETATM   10  C3  UNL     1      16.893  -7.228  -1.451  1.00  0.00     0.140 C 
BRANCH  10  11
HETATM   11  C4  UNL     1      17.160  -6.072  -2.379  1.00  0.00     0.015 C 
BRANCH  11  12
HETATM   12  C5  UNL     1      17.589  -6.646  -3.709  1.00  0.00     0.002 C 
BRANCH  12  13
HETATM   13  C6  UNL     1      19.117  -6.682  -3.815  1.00  0.00     0.020 C 
BRANCH  13  14
HETATM   14  C7  UNL     1      19.682  -5.806  -2.704  1.00  0.00     0.122 C 
BRANCH  14  15
HETATM   15  N3  UNL     1      20.434  -6.598  -1.765  1.00  0.00    -0.367 N 
HETATM   16  C8  UNL     1      20.950  -6.109  -0.698  1.00  0.00     0.196 C 
HETATM   17  N4  UNL     1      20.825  -4.739  -0.348  1.00  0.00    -0.067 NA
HETATM   18  N5  UNL     1      21.672  -6.960   0.169  1.00  0.00    -0.067 NA
ATOM     19  H3  UNL     1      20.561  -7.592  -1.958  1.00  0.00     0.161 HD
ENDBRANCH  14  15
ENDBRANCH  13  14
ENDBRANCH  12  13
ENDBRANCH  11  12
ENDBRANCH  10  11
ENDBRANCH   5  10
ENDBRANCH   3   5
TORSDOF 8
ENDMDL
