MODEL 1
REMARK VINA RESULT: -5.449871723      0.000      0.000
REMARK  7 active torsions:
REMARK  status: ('A' for Active; 'I' for Inactive)
REMARK       I    between atoms: C1_4  and  N3_6 
REMARK    1  A    between atoms: N4_9  and  C4_10 
REMARK    2  A    between atoms: C4_10  and  C5_11 
REMARK    3  A    between atoms: C5_11  and  N5_12 
REMARK    4  A    between atoms: N5_12  and  C6_15 
REMARK    5  A    between atoms: C6_15  and  C7_16 
REMARK    6  A    between atoms: C7_16  and  C8_17 
REMARK    7  A    between atoms: C8_17  and  N6_18 
ROOT
HETATM    1  C4  UNL     1      17.620  -6.839  -0.799  1.00  0.00     0.149 C 
ENDROOT
BRANCH   1   2
HETATM    2  N4  UNL     1      17.630  -6.906   0.615  1.00  0.00    -0.389 N 
HETATM    3  C3  UNL     1      16.470  -7.160   1.301  1.00  0.00     0.078 C 
HETATM    4  C2  UNL     1      16.539  -8.066   2.500  1.00  0.00     0.169 C 
HETATM    5  N3  UNL     1      17.763  -7.869   3.216  1.00  0.00    -0.350 N 
HETATM    6  C1  UNL     1      17.743  -7.866   4.667  1.00  0.00     0.184 C 
HETATM    7  C10 UNL     1      18.990  -7.694   2.501  1.00  0.00     0.145 C 
HETATM    8  N1  UNL     1      18.643  -8.577   5.279  1.00  0.00    -0.374 N 
HETATM    9  N2  UNL     1      16.779  -7.117   5.389  1.00  0.00    -0.064 NA
ATOM     10  H12 UNL     1      18.629  -8.575   6.299  1.00  0.00     0.158 HD
ATOM     11  H11 UNL     1      19.336  -9.116   4.761  1.00  0.00     0.158 HD
HETATM   12  C9  UNL     1      18.868  -7.457   1.044  1.00  0.00     0.141 C 
ENDBRANCH   1   2
BRANCH   1  13
HETATM   13  C5  UNL     1      18.697  -6.054  -1.435  1.00  0.00     0.252 C 
BRANCH  13  14
HETATM   14  N5  UNL     1      19.243  -6.481  -2.661  1.00  0.00    -0.074 N 
ATOM     15  H52 UNL     1      20.246  -6.642  -2.565  1.00  0.00     0.277 HD
ATOM     16  H51 UNL     1      18.932  -7.428  -2.876  1.00  0.00     0.277 HD
BRANCH  14  17
HETATM   17  C6  UNL     1      18.980  -5.599  -3.777  1.00  0.00     0.234 C 
BRANCH  17  18
HETATM   18  C7  UNL     1      19.339  -6.328  -5.050  1.00  0.00     0.055 C 
BRANCH  18  19
HETATM   19  C8  UNL     1      20.297  -7.474  -4.767  1.00  0.00     0.231 C 
BRANCH  19  20
HETATM   20  N6  UNL     1      20.712  -8.044  -6.026  1.00  0.00    -0.079 N 
ATOM     21  H63 UNL     1      20.457  -7.461  -6.822  1.00  0.00     0.274 HD
ATOM     22  H62 UNL     1      21.723  -8.019  -6.153  1.00  0.00     0.274 HD
ATOM     23  H61 UNL     1      20.331  -8.988  -6.094  1.00  0.00     0.274 HD
ENDBRANCH  19  20
ENDBRANCH  18  19
ENDBRANCH  17  18
ENDBRANCH  14  17
ENDBRANCH  13  14
ENDBRANCH   1  13
TORSDOF 7
ENDMDL
MODEL 2
REMARK VINA RESULT: -5.110372521      1.434      7.775
REMARK  7 active torsions:
REMARK  status: ('A' for Active; 'I' for Inactive)
REMARK       I    between atoms: C1_4  and  N3_6 
REMARK    1  A    between atoms: N4_9  and  C4_10 
REMARK    2  A    between atoms: C4_10  and  C5_11 
REMARK    3  A    between atoms: C5_11  and  N5_12 
REMARK    4  A    between atoms: N5_12  and  C6_15 
REMARK    5  A    between atoms: C6_15  and  C7_16 
REMARK    6  A    between atoms: C7_16  and  C8_17 
REMARK    7  A    between atoms: C8_17  and  N6_18 
ROOT
HETATM    1  C4  UNL     1      17.460  -7.005   0.709  1.00  0.00     0.149 C 
ENDROOT
BRANCH   1   2
HETATM    2  N4  UNL     1      17.788  -6.484  -0.567  1.00  0.00    -0.389 N 
HETATM    3  C3  UNL     1      18.993  -5.860  -0.767  1.00  0.00     0.078 C 
HETATM    4  C2  UNL     1      19.716  -6.113  -2.062  1.00  0.00     0.169 C 
HETATM    5  N3  UNL     1      18.789  -6.239  -3.145  1.00  0.00    -0.350 N 
HETATM    6  C1  UNL     1      19.108  -5.635  -4.425  1.00  0.00     0.184 C 
HETATM    7  C10 UNL     1      17.571  -6.968  -2.963  1.00  0.00     0.145 C 
HETATM    8  N1  UNL     1      18.940  -6.363  -5.489  1.00  0.00    -0.374 N 
HETATM    9  N2  UNL     1      19.584  -4.302  -4.512  1.00  0.00    -0.064 NA
ATOM     10  H12 UNL     1      19.164  -5.939  -6.389  1.00  0.00     0.158 HD
ATOM     11  H11 UNL     1      18.598  -7.322  -5.427  1.00  0.00     0.158 HD
HETATM   12  C9  UNL     1      17.224  -7.321  -1.567  1.00  0.00     0.141 C 
ENDBRANCH   1   2
BRANCH   1  13
HETATM   13  C5  UNL     1      18.484  -7.839   1.370  1.00  0.00     0.252 C 
BRANCH  13  14
HETATM   14  N5  UNL     1      18.649  -7.768   2.766  1.00  0.00    -0.074 N 
ATOM     15  H52 UNL     1      19.474  -8.295   3.053  1.00  0.00     0.277 HD
ATOM     16  H51 UNL     1      18.936  -6.829   3.042  1.00  0.00     0.277 HD
BRANCH  14  17
HETATM   17  C6  UNL     1      17.495  -8.186   3.531  1.00  0.00     0.234 C 
BRANCH  17  18
HETATM   18  C7  UNL     1      17.835  -8.077   4.998  1.00  0.00     0.055 C 
BRANCH  18  19
HETATM   19  C8  UNL     1      16.615  -7.668   5.809  1.00  0.00     0.231 C 
BRANCH  19  20
HETATM   20  N6  UNL     1      16.801  -6.310   6.260  1.00  0.00    -0.079 N 
ATOM     21  H63 UNL     1      16.854  -5.646   5.489  1.00  0.00     0.274 HD
ATOM     22  H62 UNL     1      15.970  -5.931   6.713  1.00  0.00     0.274 HD
ATOM     23  H61 UNL     1      17.624  -6.279   6.862  1.00  0.00     0.274 HD
ENDBRANCH  19  20
ENDBRANCH  18  19
ENDBRANCH  17  18
ENDBRANCH  14  17
ENDBRANCH  13  14
ENDBRANCH   1  13
TORSDOF 7
ENDMDL
MODEL 3
REMARK VINA RESULT: -5.035702231      1.035      1.122
REMARK  7 active torsions:
REMARK  status: ('A' for Active; 'I' for Inactive)
REMARK       I    between atoms: C1_4  and  N3_6 
REMARK    1  A    between atoms: N4_9  and  C4_10 
REMARK    2  A    between atoms: C4_10  and  C5_11 
REMARK    3  A    between atoms: C5_11  and  N5_12 
REMARK    4  A    between atoms: N5_12  and  C6_15 
REMARK    5  A    between atoms: C6_15  and  C7_16 
REMARK    6  A    between atoms: C7_16  and  C8_17 
REMARK    7  A    between atoms: C8_17  and  N6_18 
ROOT
HETATM    1  C4  UNL     1      18.966  -5.897  -1.265  1.00  0.00     0.149 C 
ENDROOT
BRANCH   1   2
HETATM    2  N4  UNL     1      18.721  -6.270   0.079  1.00  0.00    -0.389 N 
HETATM    3  C3  UNL     1      17.499  -6.777   0.441  1.00  0.00     0.078 C 
HETATM    4  C2  UNL     1      17.467  -7.912   1.428  1.00  0.00     0.169 C 
HETATM    5  N3  UNL     1      18.497  -7.760   2.411  1.00  0.00    -0.350 N 
HETATM    6  C1  UNL     1      18.207  -8.076   3.797  1.00  0.00     0.184 C 
HETATM    7  C10 UNL     1      19.800  -7.317   2.019  1.00  0.00     0.145 C 
HETATM    8  N1  UNL     1      19.066  -8.814   4.435  1.00  0.00    -0.374 N 
HETATM    9  N2  UNL     1      17.032  -7.597   4.430  1.00  0.00    -0.064 NA
ATOM     10  H12 UNL     1      18.862  -9.036   5.409  1.00  0.00     0.158 HD
ATOM     11  H11 UNL     1      19.911  -9.158   3.980  1.00  0.00     0.158 HD
HETATM   12  C9  UNL     1      19.921  -6.781   0.643  1.00  0.00     0.141 C 
ENDBRANCH   1   2
BRANCH   1  13
HETATM   13  C5  UNL     1      17.805  -5.901  -2.178  1.00  0.00     0.252 C 
BRANCH  13  14
HETATM   14  N5  UNL     1      17.981  -6.244  -3.532  1.00  0.00    -0.074 N 
ATOM     15  H52 UNL     1      18.111  -7.251  -3.629  1.00  0.00     0.277 HD
ATOM     16  H51 UNL     1      17.106  -6.129  -4.043  1.00  0.00     0.277 HD
BRANCH  14  17
HETATM   17  C6  UNL     1      19.050  -5.534  -4.200  1.00  0.00     0.234 C 
BRANCH  17  18
HETATM   18  C7  UNL     1      19.513  -6.368  -5.370  1.00  0.00     0.055 C 
BRANCH  18  19
HETATM   19  C8  UNL     1      20.210  -7.632  -4.893  1.00  0.00     0.231 C 
BRANCH  19  20
HETATM   20  N6  UNL     1      20.909  -8.218  -6.011  1.00  0.00    -0.079 N 
ATOM     21  H63 UNL     1      21.093  -7.544  -6.754  1.00  0.00     0.274 HD
ATOM     22  H62 UNL     1      21.877  -8.449  -5.790  1.00  0.00     0.274 HD
ATOM     23  H61 UNL     1      20.378  -9.026  -6.337  1.00  0.00     0.274 HD
ENDBRANCH  19  20
ENDBRANCH  18  19
ENDBRANCH  17  18
ENDBRANCH  14  17
ENDBRANCH  13  14
ENDBRANCH   1  13
TORSDOF 7
ENDMDL
MODEL 4
REMARK VINA RESULT: -4.970713307      0.606      1.597
REMARK  7 active torsions:
REMARK  status: ('A' for Active; 'I' for Inactive)
REMARK       I    between atoms: C1_4  and  N3_6 
REMARK    1  A    between atoms: N4_9  and  C4_10 
REMARK    2  A    between atoms: C4_10  and  C5_11 
REMARK    3  A    between atoms: C5_11  and  N5_12 
REMARK    4  A    between atoms: N5_12  and  C6_15 
REMARK    5  A    between atoms: C6_15  and  C7_16 
REMARK    6  A    between atoms: C7_16  and  C8_17 
REMARK    7  A    between atoms: C8_17  and  N6_18 
ROOT
HETATM    1  C4  UNL     1      17.855  -6.833  -1.126  1.00  0.00     0.149 C 
ENDROOT
BRANCH   1   2
HETATM    2  N4  UNL     1      17.974  -7.372   0.177  1.00  0.00    -0.389 N 
HETATM    3  C3  UNL     1      19.204  -7.456   0.778  1.00  0.00     0.078 C 
HETATM    4  C2  UNL     1      19.298  -7.143   2.247  1.00  0.00     0.169 C 
HETATM    5  N3  UNL     1      18.133  -7.602   2.940  1.00  0.00    -0.350 N 
HETATM    6  C1  UNL     1      18.280  -8.220   4.244  1.00  0.00     0.184 C 
HETATM    7  C10 UNL     1      16.839  -7.433   2.352  1.00  0.00     0.145 C 
HETATM    8  N1  UNL     1      17.484  -7.819   5.190  1.00  0.00    -0.374 N 
HETATM    9  N2  UNL     1      19.255  -9.224   4.477  1.00  0.00    -0.064 NA
ATOM     10  H12 UNL     1      17.588  -8.253   6.107  1.00  0.00     0.158 HD
ATOM     11  H11 UNL     1      16.783  -7.097   5.023  1.00  0.00     0.158 HD
HETATM   12  C9  UNL     1      16.816  -7.031   0.927  1.00  0.00     0.141 C 
ENDBRANCH   1   2
BRANCH   1  13
HETATM   13  C5  UNL     1      18.945  -5.946  -1.581  1.00  0.00     0.252 C 
BRANCH  13  14
HETATM   14  N5  UNL     1      19.610  -6.219  -2.792  1.00  0.00    -0.074 N 
ATOM     15  H52 UNL     1      20.610  -6.042  -2.695  1.00  0.00     0.277 HD
ATOM     16  H51 UNL     1      19.625  -7.224  -2.968  1.00  0.00     0.277 HD
BRANCH  14  17
HETATM   17  C6  UNL     1      19.084  -5.514  -3.940  1.00  0.00     0.234 C 
BRANCH  17  18
HETATM   18  C7  UNL     1      19.451  -6.293  -5.181  1.00  0.00     0.055 C 
BRANCH  18  19
HETATM   19  C8  UNL     1      20.210  -7.560  -4.822  1.00  0.00     0.231 C 
BRANCH  19  20
HETATM   20  N6  UNL     1      20.777  -8.111  -6.029  1.00  0.00    -0.079 N 
ATOM     21  H63 UNL     1      20.071  -8.514  -6.644  1.00  0.00     0.274 HD
ATOM     22  H62 UNL     1      21.120  -7.391  -6.664  1.00  0.00     0.274 HD
ATOM     23  H61 UNL     1      21.500  -8.781  -5.769  1.00  0.00     0.274 HD
ENDBRANCH  19  20
ENDBRANCH  18  19
ENDBRANCH  17  18
ENDBRANCH  14  17
ENDBRANCH  13  14
ENDBRANCH   1  13
TORSDOF 7
ENDMDL
MODEL 5
REMARK VINA RESULT: -4.849862169      1.562      7.591
REMARK  7 active torsions:
REMARK  status: ('A' for Active; 'I' for Inactive)
REMARK       I    between atoms: C1_4  and  N3_6 
REMARK    1  A    between atoms: N4_9  and  C4_10 
REMARK    2  A    between atoms: C4_10  and  C5_11 
REMARK    3  A    between atoms: C5_11  and  N5_12 
REMARK    4  A    between atoms: N5_12  and  C6_15 
REMARK    5  A    between atoms: C6_15  and  C7_16 
REMARK    6  A    between atoms: C7_16  and  C8_17 
REMARK    7  A    between atoms: C8_17  and  N6_18 
ROOT
HETATM    1  C4  UNL     1      18.507  -7.457   1.753  1.00  0.00     0.149 C 
ENDROOT
BRANCH   1   2
HETATM    2  N4  UNL     1      18.627  -7.199   0.366  1.00  0.00    -0.389 N 
HETATM    3  C3  UNL     1      17.517  -7.229  -0.438  1.00  0.00     0.078 C 
HETATM    4  C2  UNL     1      17.399  -6.192  -1.522  1.00  0.00     0.169 C 
HETATM    5  N3  UNL     1      18.681  -5.899  -2.086  1.00  0.00    -0.350 N 
HETATM    6  C1  UNL     1      18.798  -5.710  -3.520  1.00  0.00     0.184 C 
HETATM    7  C10 UNL     1      19.826  -5.778  -1.236  1.00  0.00     0.145 C 
HETATM    8  N1  UNL     1      19.471  -4.678  -3.935  1.00  0.00    -0.374 N 
HETATM    9  N2  UNL     1      18.203  -6.618  -4.433  1.00  0.00    -0.064 NA
ATOM     10  H12 UNL     1      19.553  -4.545  -4.943  1.00  0.00     0.158 HD
ATOM     11  H11 UNL     1      19.899  -4.026  -3.279  1.00  0.00     0.158 HD
HETATM   12  C9  UNL     1      19.652  -6.236   0.162  1.00  0.00     0.141 C 
ENDBRANCH   1   2
BRANCH   1  13
HETATM   13  C5  UNL     1      17.138  -7.617   2.284  1.00  0.00     0.252 C 
BRANCH  13  14
HETATM   14  N5  UNL     1      16.933  -8.313   3.491  1.00  0.00    -0.074 N 
ATOM     15  H52 UNL     1      16.081  -7.986   3.948  1.00  0.00     0.277 HD
ATOM     16  H51 UNL     1      16.671  -9.280   3.301  1.00  0.00     0.277 HD
BRANCH  14  17
HETATM   17  C6  UNL     1      18.047  -8.264   4.411  1.00  0.00     0.234 C 
BRANCH  17  18
HETATM   18  C7  UNL     1      17.517  -7.892   5.776  1.00  0.00     0.055 C 
BRANCH  18  19
HETATM   19  C8  UNL     1      16.428  -6.837   5.666  1.00  0.00     0.231 C 
BRANCH  19  20
HETATM   20  N6  UNL     1      16.854  -5.664   6.390  1.00  0.00    -0.079 N 
ATOM     21  H63 UNL     1      16.569  -5.684   7.369  1.00  0.00     0.274 HD
ATOM     22  H62 UNL     1      17.862  -5.640   6.539  1.00  0.00     0.274 HD
ATOM     23  H61 UNL     1      16.511  -4.839   5.899  1.00  0.00     0.274 HD
ENDBRANCH  19  20
ENDBRANCH  18  19
ENDBRANCH  17  18
ENDBRANCH  14  17
ENDBRANCH  13  14
ENDBRANCH   1  13
TORSDOF 7
ENDMDL
