MODEL 1
REMARK VINA RESULT: -6.609601282      0.000      0.000
REMARK  7 active torsions:
REMARK  status: ('A' for Active; 'I' for Inactive)
REMARK    1  A    between atoms: C2_3  and  C3_4 
REMARK    2  A    between atoms: C3_4  and  C4_5 
REMARK    3  A    between atoms: C4_5  and  N2_6 
REMARK    4  A    between atoms: N5_11  and  C6_13 
REMARK    5  A    between atoms: C6_13  and  C7_14 
REMARK    6  A    between atoms: C7_14  and  C8_15 
REMARK    7  A    between atoms: C8_15  and  N6_16 
ROOT
HETATM    1  N1  UNL     1      18.367  -8.475   4.693  1.00  0.00    -0.197 NA
HETATM    2  C1  UNL     1      17.973  -8.169   3.631  1.00  0.00     0.059 C 
HETATM    3  C2  UNL     1      17.457  -7.797   2.314  1.00  0.00     0.131 C 
ENDROOT
BRANCH   3   4
HETATM    4  C3  UNL     1      18.562  -7.762   1.276  1.00  0.00     0.090 C 
BRANCH   4   5
HETATM    5  C4  UNL     1      18.320  -6.773   0.206  1.00  0.00     0.079 C 
HETATM    6  N5  UNL     1      17.411  -6.961  -0.649  1.00  0.00    -0.380 N 
ATOM      7  H5  UNL     1      16.872  -7.820  -0.550  1.00  0.00     0.160 HD
BRANCH   5   8
HETATM    8  N2  UNL     1      19.124  -5.612   0.156  1.00  0.00    -0.323 N 
HETATM    9  C5  UNL     1      20.261  -5.556  -0.429  1.00  0.00     0.202 C 
HETATM   10  N3  UNL     1      20.796  -6.684  -1.078  1.00  0.00    -0.066 NA
HETATM   11  N4  UNL     1      20.979  -4.341  -0.416  1.00  0.00    -0.066 NA
ATOM     12  H2  UNL     1      18.778  -4.769   0.613  1.00  0.00     0.169 HD
ENDBRANCH   5   8
BRANCH   6  13
HETATM   13  C6  UNL     1      17.050  -6.112  -1.739  1.00  0.00     0.122 C 
BRANCH  13  14
HETATM   14  C7  UNL     1      17.406  -6.861  -3.028  1.00  0.00     0.039 C 
BRANCH  14  15
HETATM   15  C8  UNL     1      18.560  -6.155  -3.728  1.00  0.00     0.123 C 
BRANCH  15  16
HETATM   16  N6  UNL     1      19.587  -7.092  -4.101  1.00  0.00    -0.367 N 
HETATM   17  C9  UNL     1      19.981  -7.222  -5.328  1.00  0.00     0.196 C 
HETATM   18  N7  UNL     1      21.003  -8.172  -5.622  1.00  0.00    -0.067 NA
HETATM   19  N8  UNL     1      19.398  -6.430  -6.351  1.00  0.00    -0.067 NA
ATOM     20  H6  UNL     1      20.016  -7.671  -3.379  1.00  0.00     0.161 HD
ENDBRANCH  15  16
ENDBRANCH  14  15
ENDBRANCH  13  14
ENDBRANCH   6  13
ENDBRANCH   4   5
ENDBRANCH   3   4
TORSDOF 7
ENDMDL
MODEL 2
REMARK VINA RESULT: -6.543474103      0.925      1.210
REMARK  7 active torsions:
REMARK  status: ('A' for Active; 'I' for Inactive)
REMARK    1  A    between atoms: C2_3  and  C3_4 
REMARK    2  A    between atoms: C3_4  and  C4_5 
REMARK    3  A    between atoms: C4_5  and  N2_6 
REMARK    4  A    between atoms: N5_11  and  C6_13 
REMARK    5  A    between atoms: C6_13  and  C7_14 
REMARK    6  A    between atoms: C7_14  and  C8_15 
REMARK    7  A    between atoms: C8_15  and  N6_16 
ROOT
HETATM    1  N1  UNL     1      17.194  -8.184   4.993  1.00  0.00    -0.197 NA
HETATM    2  C1  UNL     1      17.632  -8.184   3.904  1.00  0.00     0.059 C 
HETATM    3  C2  UNL     1      18.200  -8.193   2.557  1.00  0.00     0.131 C 
ENDROOT
BRANCH   3   4
HETATM    4  C3  UNL     1      17.498  -7.198   1.653  1.00  0.00     0.090 C 
BRANCH   4   5
HETATM    5  C4  UNL     1      18.001  -7.224   0.264  1.00  0.00     0.079 C 
HETATM    6  N5  UNL     1      17.202  -7.142  -0.710  1.00  0.00    -0.380 N 
ATOM      7  H5  UNL     1      16.214  -7.058  -0.475  1.00  0.00     0.160 HD
BRANCH   5   8
HETATM    8  N2  UNL     1      19.392  -7.341   0.044  1.00  0.00    -0.323 N 
HETATM    9  C5  UNL     1      20.184  -6.343  -0.063  1.00  0.00     0.202 C 
HETATM   10  N3  UNL     1      19.703  -5.025   0.035  1.00  0.00    -0.066 NA
HETATM   11  N4  UNL     1      21.558  -6.579  -0.281  1.00  0.00    -0.066 NA
ATOM     12  H2  UNL     1      19.788  -8.278  -0.033  1.00  0.00     0.169 HD
ENDBRANCH   5   8
BRANCH   6  13
HETATM   13  C6  UNL     1      17.520  -7.152  -2.101  1.00  0.00     0.122 C 
BRANCH  13  14
HETATM   14  C7  UNL     1      17.309  -5.726  -2.621  1.00  0.00     0.039 C 
BRANCH  14  15
HETATM   15  C8  UNL     1      18.542  -5.273  -3.391  1.00  0.00     0.123 C 
BRANCH  15  16
HETATM   16  N6  UNL     1      19.433  -6.377  -3.634  1.00  0.00    -0.367 N 
HETATM   17  C9  UNL     1      19.696  -6.791  -4.832  1.00  0.00     0.196 C 
HETATM   18  N7  UNL     1      20.589  -7.892  -4.995  1.00  0.00    -0.067 NA
HETATM   19  N8  UNL     1      19.103  -6.155  -5.953  1.00  0.00    -0.067 NA
ATOM     20  H6  UNL     1      19.868  -6.846  -2.840  1.00  0.00     0.161 HD
ENDBRANCH  15  16
ENDBRANCH  14  15
ENDBRANCH  13  14
ENDBRANCH   6  13
ENDBRANCH   4   5
ENDBRANCH   3   4
TORSDOF 7
ENDMDL
MODEL 3
REMARK VINA RESULT: -6.537544038      1.279      6.794
REMARK  7 active torsions:
REMARK  status: ('A' for Active; 'I' for Inactive)
REMARK    1  A    between atoms: C2_3  and  C3_4 
REMARK    2  A    between atoms: C3_4  and  C4_5 
REMARK    3  A    between atoms: C4_5  and  N2_6 
REMARK    4  A    between atoms: N5_11  and  C6_13 
REMARK    5  A    between atoms: C6_13  and  C7_14 
REMARK    6  A    between atoms: C7_14  and  C8_15 
REMARK    7  A    between atoms: C8_15  and  N6_16 
ROOT
HETATM    1  N1  UNL     1      19.475  -6.663  -6.529  1.00  0.00    -0.197 NA
HETATM    2  C1  UNL     1      19.615  -6.721  -5.365  1.00  0.00     0.059 C 
HETATM    3  C2  UNL     1      19.800  -6.818  -3.918  1.00  0.00     0.131 C 
ENDROOT
BRANCH   3   4
HETATM    4  C3  UNL     1      18.803  -5.952  -3.172  1.00  0.00     0.090 C 
BRANCH   4   5
HETATM    5  C4  UNL     1      18.879  -6.112  -1.706  1.00  0.00     0.079 C 
HETATM    6  N5  UNL     1      17.912  -5.771  -0.971  1.00  0.00    -0.380 N 
ATOM      7  H5  UNL     1      17.097  -5.388  -1.450  1.00  0.00     0.160 HD
BRANCH   5   8
HETATM    8  N2  UNL     1      20.055  -6.654  -1.140  1.00  0.00    -0.323 N 
HETATM    9  C5  UNL     1      20.958  -5.954  -0.563  1.00  0.00     0.202 C 
HETATM   10  N3  UNL     1      20.829  -4.557  -0.455  1.00  0.00    -0.066 NA
HETATM   11  N4  UNL     1      22.092  -6.603  -0.032  1.00  0.00    -0.066 NA
ATOM     12  H2  UNL     1      20.193  -7.663  -1.194  1.00  0.00     0.169 HD
ENDBRANCH   5   8
BRANCH   6  13
HETATM   13  C6  UNL     1      17.824  -5.857   0.451  1.00  0.00     0.122 C 
BRANCH  13  14
HETATM   14  C7  UNL     1      17.113  -7.175   0.777  1.00  0.00     0.039 C 
BRANCH  14  15
HETATM   15  C8  UNL     1      17.809  -7.856   1.949  1.00  0.00     0.123 C 
BRANCH  15  16
HETATM   16  N6  UNL     1      16.948  -7.906   3.102  1.00  0.00    -0.367 N 
HETATM   17  C9  UNL     1      17.402  -8.178   4.283  1.00  0.00     0.196 C 
HETATM   18  N7  UNL     1      16.488  -8.210   5.377  1.00  0.00    -0.067 NA
HETATM   19  N8  UNL     1      18.784  -8.437   4.472  1.00  0.00    -0.067 NA
ATOM     20  H6  UNL     1      15.951  -7.722   2.984  1.00  0.00     0.161 HD
ENDBRANCH  15  16
ENDBRANCH  14  15
ENDBRANCH  13  14
ENDBRANCH   6  13
ENDBRANCH   4   5
ENDBRANCH   3   4
TORSDOF 7
ENDMDL
MODEL 4
REMARK VINA RESULT: -6.388724971      1.542      6.674
REMARK  7 active torsions:
REMARK  status: ('A' for Active; 'I' for Inactive)
REMARK    1  A    between atoms: C2_3  and  C3_4 
REMARK    2  A    between atoms: C3_4  and  C4_5 
REMARK    3  A    between atoms: C4_5  and  N2_6 
REMARK    4  A    between atoms: N5_11  and  C6_13 
REMARK    5  A    between atoms: C6_13  and  C7_14 
REMARK    6  A    between atoms: C7_14  and  C8_15 
REMARK    7  A    between atoms: C8_15  and  N6_16 
ROOT
HETATM    1  N1  UNL     1      19.488  -6.668  -7.111  1.00  0.00    -0.197 NA
HETATM    2  C1  UNL     1      19.641  -6.825  -5.958  1.00  0.00     0.059 C 
HETATM    3  C2  UNL     1      19.825  -7.047  -4.524  1.00  0.00     0.131 C 
ENDROOT
BRANCH   3   4
HETATM    4  C3  UNL     1      19.597  -5.773  -3.732  1.00  0.00     0.090 C 
BRANCH   4   5
HETATM    5  C4  UNL     1      19.379  -6.018  -2.292  1.00  0.00     0.079 C 
HETATM    6  N5  UNL     1      20.174  -5.547  -1.433  1.00  0.00    -0.380 N 
ATOM      7  H5  UNL     1      20.954  -5.000  -1.795  1.00  0.00     0.160 HD
BRANCH   5   8
HETATM    8  N2  UNL     1      18.265  -6.791  -1.893  1.00  0.00    -0.323 N 
HETATM    9  C5  UNL     1      17.065  -6.349  -1.863  1.00  0.00     0.202 C 
HETATM   10  N3  UNL     1      16.773  -5.026  -2.238  1.00  0.00    -0.066 NA
HETATM   11  N4  UNL     1      16.028  -7.211  -1.446  1.00  0.00    -0.066 NA
ATOM     12  H2  UNL     1      18.428  -7.758  -1.612  1.00  0.00     0.169 HD
ENDBRANCH   5   8
BRANCH   6  13
HETATM   13  C6  UNL     1      20.109  -5.689  -0.014  1.00  0.00     0.122 C 
BRANCH  13  14
HETATM   14  C7  UNL     1      20.859  -6.978   0.342  1.00  0.00     0.039 C 
BRANCH  14  15
HETATM   15  C8  UNL     1      20.096  -7.731   1.425  1.00  0.00     0.123 C 
BRANCH  15  16
HETATM   16  N6  UNL     1      18.679  -7.508   1.308  1.00  0.00    -0.367 N 
HETATM   17  C9  UNL     1      17.865  -7.755   2.285  1.00  0.00     0.196 C 
HETATM   18  N7  UNL     1      16.474  -7.510   2.095  1.00  0.00    -0.067 NA
HETATM   19  N8  UNL     1      18.361  -8.261   3.514  1.00  0.00    -0.067 NA
ATOM     20  H6  UNL     1      18.306  -7.145   0.431  1.00  0.00     0.161 HD
ENDBRANCH  15  16
ENDBRANCH  14  15
ENDBRANCH  13  14
ENDBRANCH   6  13
ENDBRANCH   4   5
ENDBRANCH   3   4
TORSDOF 7
ENDMDL
MODEL 5
REMARK VINA RESULT: -6.186229332      1.141      1.218
REMARK  7 active torsions:
REMARK  status: ('A' for Active; 'I' for Inactive)
REMARK    1  A    between atoms: C2_3  and  C3_4 
REMARK    2  A    between atoms: C3_4  and  C4_5 
REMARK    3  A    between atoms: C4_5  and  N2_6 
REMARK    4  A    between atoms: N5_11  and  C6_13 
REMARK    5  A    between atoms: C6_13  and  C7_14 
REMARK    6  A    between atoms: C7_14  and  C8_15 
REMARK    7  A    between atoms: C8_15  and  N6_16 
ROOT
HETATM    1  N1  UNL     1      15.611  -6.697   1.865  1.00  0.00    -0.197 NA
HETATM    2  C1  UNL     1      16.677  -7.170   2.004  1.00  0.00     0.059 C 
HETATM    3  C2  UNL     1      18.005  -7.748   2.203  1.00  0.00     0.131 C 
ENDROOT
BRANCH   3   4
HETATM    4  C3  UNL     1      18.760  -7.867   0.893  1.00  0.00     0.090 C 
BRANCH   4   5
HETATM    5  C4  UNL     1      18.436  -6.786  -0.061  1.00  0.00     0.079 C 
HETATM    6  N5  UNL     1      17.518  -6.936  -0.913  1.00  0.00    -0.380 N 
ATOM      7  H5  UNL     1      17.029  -7.830  -0.896  1.00  0.00     0.160 HD
BRANCH   5   8
HETATM    8  N2  UNL     1      19.173  -5.582  -0.003  1.00  0.00    -0.323 N 
HETATM    9  C5  UNL     1      20.345  -5.438  -0.496  1.00  0.00     0.202 C 
HETATM   10  N3  UNL     1      20.991  -6.505  -1.147  1.00  0.00    -0.066 NA
HETATM   11  N4  UNL     1      20.989  -4.188  -0.380  1.00  0.00    -0.066 NA
ATOM     12  H2  UNL     1      18.746  -4.780   0.459  1.00  0.00     0.169 HD
ENDBRANCH   5   8
BRANCH   6  13
HETATM   13  C6  UNL     1      17.082  -5.999  -1.899  1.00  0.00     0.122 C 
BRANCH  13  14
HETATM   14  C7  UNL     1      17.465  -6.577  -3.266  1.00  0.00     0.039 C 
BRANCH  14  15
HETATM   15  C8  UNL     1      18.757  -5.933  -3.752  1.00  0.00     0.123 C 
BRANCH  15  16
HETATM   16  N6  UNL     1      19.731  -6.932  -4.102  1.00  0.00    -0.367 N 
HETATM   17  C9  UNL     1      20.043  -7.181  -5.334  1.00  0.00     0.196 C 
HETATM   18  N7  UNL     1      21.017  -8.186  -5.605  1.00  0.00    -0.067 NA
HETATM   19  N8  UNL     1      19.420  -6.461  -6.386  1.00  0.00    -0.067 NA
ATOM     20  H6  UNL     1      20.189  -7.460  -3.359  1.00  0.00     0.161 HD
ENDBRANCH  15  16
ENDBRANCH  14  15
ENDBRANCH  13  14
ENDBRANCH   6  13
ENDBRANCH   4   5
ENDBRANCH   3   4
TORSDOF 7
ENDMDL
