MODEL 1
REMARK VINA RESULT: -6.985989275      0.000      0.000
REMARK  7 active torsions:
REMARK  status: ('A' for Active; 'I' for Inactive)
REMARK    1  A    between atoms: N1_1  and  S1_4 
REMARK    2  A    between atoms: S1_4  and  C1_6 
REMARK    3  A    between atoms: S1_4  and  N5_13 
REMARK    4  A    between atoms: C1_6  and  C2_7 
REMARK    5  A    between atoms: C2_7  and  N2_8 
REMARK    6  A    between atoms: N5_13  and  C4_15 
REMARK    7  A    between atoms: C4_15  and  C5_16 
ROOT
HETATM    1  S1  UNL     1      17.292  -6.979  -2.138  1.00  0.00     0.101 S 
HETATM    2  O1  UNL     1      16.830  -8.282  -2.714  1.00  0.00    -0.229 OA
ENDROOT
BRANCH   1   3
HETATM    3  N1  UNL     1      16.349  -5.821  -2.569  1.00  0.00    -0.345 N 
ATOM      4  H12 UNL     1      15.520  -5.950  -3.151  1.00  0.00     0.167 HD
ATOM      5  H11 UNL     1      16.674  -4.931  -2.192  1.00  0.00     0.167 HD
ENDBRANCH   1   3
BRANCH   1   6
HETATM    6  C1  UNL     1      17.277  -7.100  -0.366  1.00  0.00     0.158 C 
BRANCH   6   7
HETATM    7  C2  UNL     1      18.288  -6.183   0.246  1.00  0.00     0.137 C 
BRANCH   7   8
HETATM    8  N2  UNL     1      19.496  -6.844   0.642  1.00  0.00    -0.366 N 
HETATM    9  C3  UNL     1      20.632  -6.378   0.277  1.00  0.00     0.196 C 
HETATM   10  N3  UNL     1      20.692  -5.209  -0.517  1.00  0.00    -0.067 NA
HETATM   11  N4  UNL     1      21.856  -6.993   0.641  1.00  0.00    -0.067 NA
ATOM     12  H2  UNL     1      19.451  -7.686   1.215  1.00  0.00     0.161 HD
ENDBRANCH   7   8
ENDBRANCH   6   7
ENDBRANCH   1   6
BRANCH   1  13
HETATM   13  N5  UNL     1      18.874  -6.675  -2.732  1.00  0.00    -0.336 N 
ATOM     14  H5  UNL     1      19.746  -6.987  -2.303  1.00  0.00     0.170 HD
BRANCH  13  15
HETATM   15  C4  UNL     1      18.753  -5.897  -3.950  1.00  0.00     0.135 C 
BRANCH  15  16
HETATM   16  C5  UNL     1      19.873  -6.146  -4.913  1.00  0.00     0.004 A 
HETATM   17  C6  UNL     1      19.472  -6.608  -6.293  1.00  0.00     0.007 A 
HETATM   18  C7  UNL     1      20.202  -7.517  -5.375  1.00  0.00     0.007 A 
ENDBRANCH  15  16
ENDBRANCH  13  15
ENDBRANCH   1  13
TORSDOF 7
ENDMDL
MODEL 2
REMARK VINA RESULT: -6.849474202      2.107      3.669
REMARK  7 active torsions:
REMARK  status: ('A' for Active; 'I' for Inactive)
REMARK    1  A    between atoms: N1_1  and  S1_4 
REMARK    2  A    between atoms: S1_4  and  C1_6 
REMARK    3  A    between atoms: S1_4  and  N5_13 
REMARK    4  A    between atoms: C1_6  and  C2_7 
REMARK    5  A    between atoms: C2_7  and  N2_8 
REMARK    6  A    between atoms: N5_13  and  C4_15 
REMARK    7  A    between atoms: C4_15  and  C5_16 
ROOT
HETATM    1  S1  UNL     1      20.495  -6.166  -0.728  1.00  0.00     0.101 S 
HETATM    2  O1  UNL     1      20.186  -4.741  -1.072  1.00  0.00    -0.229 OA
ENDROOT
BRANCH   1   3
HETATM    3  N1  UNL     1      21.983  -6.320  -0.308  1.00  0.00    -0.345 N 
ATOM      4  H12 UNL     1      22.490  -5.631   0.250  1.00  0.00     0.167 HD
ATOM      5  H11 UNL     1      22.371  -7.194  -0.663  1.00  0.00     0.167 HD
ENDBRANCH   1   3
BRANCH   1   6
HETATM    6  C1  UNL     1      19.462  -6.662   0.629  1.00  0.00     0.158 C 
BRANCH   6   7
HETATM    7  C2  UNL     1      18.170  -7.236   0.142  1.00  0.00     0.137 C 
BRANCH   7   8
HETATM    8  N2  UNL     1      17.403  -6.327  -0.656  1.00  0.00    -0.366 N 
HETATM    9  C3  UNL     1      16.820  -6.739  -1.719  1.00  0.00     0.196 C 
HETATM   10  N3  UNL     1      16.933  -8.096  -2.104  1.00  0.00    -0.067 NA
HETATM   11  N4  UNL     1      16.049  -5.882  -2.544  1.00  0.00    -0.067 NA
ATOM     12  H2  UNL     1      17.321  -5.349  -0.377  1.00  0.00     0.161 HD
ENDBRANCH   7   8
ENDBRANCH   6   7
ENDBRANCH   1   6
BRANCH   1  13
HETATM   13  N5  UNL     1      20.196  -7.120  -2.124  1.00  0.00    -0.336 N 
ATOM     14  H5  UNL     1      20.249  -8.138  -2.177  1.00  0.00     0.170 HD
BRANCH  13  15
HETATM   15  C4  UNL     1      19.857  -6.225  -3.213  1.00  0.00     0.135 C 
BRANCH  15  16
HETATM   16  C5  UNL     1      19.329  -6.946  -4.416  1.00  0.00     0.004 A 
HETATM   17  C6  UNL     1      20.364  -7.560  -5.328  1.00  0.00     0.007 A 
HETATM   18  C7  UNL     1      19.537  -6.416  -5.786  1.00  0.00     0.007 A 
ENDBRANCH  15  16
ENDBRANCH  13  15
ENDBRANCH   1  13
TORSDOF 7
ENDMDL
MODEL 3
REMARK VINA RESULT: -6.791548986      0.728      1.044
REMARK  7 active torsions:
REMARK  status: ('A' for Active; 'I' for Inactive)
REMARK    1  A    between atoms: N1_1  and  S1_4 
REMARK    2  A    between atoms: S1_4  and  C1_6 
REMARK    3  A    between atoms: S1_4  and  N5_13 
REMARK    4  A    between atoms: C1_6  and  C2_7 
REMARK    5  A    between atoms: C2_7  and  N2_8 
REMARK    6  A    between atoms: N5_13  and  C4_15 
REMARK    7  A    between atoms: C4_15  and  C5_16 
ROOT
HETATM    1  S1  UNL     1      17.274  -7.005  -2.079  1.00  0.00     0.101 S 
HETATM    2  O1  UNL     1      16.735  -8.308  -2.583  1.00  0.00    -0.229 OA
ENDROOT
BRANCH   1   3
HETATM    3  N1  UNL     1      16.366  -5.825  -2.523  1.00  0.00    -0.345 N 
ATOM      4  H12 UNL     1      16.719  -4.957  -2.926  1.00  0.00     0.167 HD
ATOM      5  H11 UNL     1      15.383  -6.042  -2.355  1.00  0.00     0.167 HD
ENDBRANCH   1   3
BRANCH   1   6
HETATM    6  C1  UNL     1      17.322  -7.055  -0.304  1.00  0.00     0.158 C 
BRANCH   6   7
HETATM    7  C2  UNL     1      18.728  -6.994   0.200  1.00  0.00     0.137 C 
BRANCH   7   8
HETATM    8  N2  UNL     1      19.292  -5.678   0.167  1.00  0.00    -0.366 N 
HETATM    9  C3  UNL     1      20.473  -5.496  -0.296  1.00  0.00     0.196 C 
HETATM   10  N3  UNL     1      21.219  -6.597  -0.777  1.00  0.00    -0.067 NA
HETATM   11  N4  UNL     1      21.078  -4.215  -0.351  1.00  0.00    -0.067 NA
ATOM     12  H2  UNL     1      18.753  -4.884   0.514  1.00  0.00     0.161 HD
ENDBRANCH   7   8
ENDBRANCH   6   7
ENDBRANCH   1   6
BRANCH   1  13
HETATM   13  N5  UNL     1      18.844  -6.795  -2.741  1.00  0.00    -0.336 N 
ATOM     14  H5  UNL     1      19.713  -7.160  -2.352  1.00  0.00     0.170 HD
BRANCH  13  15
HETATM   15  C4  UNL     1      18.716  -6.008  -3.953  1.00  0.00     0.135 C 
BRANCH  15  16
HETATM   16  C5  UNL     1      19.862  -6.205  -4.898  1.00  0.00     0.004 A 
HETATM   17  C6  UNL     1      19.499  -6.621  -6.303  1.00  0.00     0.007 A 
HETATM   18  C7  UNL     1      20.221  -7.554  -5.403  1.00  0.00     0.007 A 
ENDBRANCH  15  16
ENDBRANCH  13  15
ENDBRANCH   1  13
TORSDOF 7
ENDMDL
MODEL 4
REMARK VINA RESULT: -6.496775748      2.506      3.612
REMARK  7 active torsions:
REMARK  status: ('A' for Active; 'I' for Inactive)
REMARK    1  A    between atoms: N1_1  and  S1_4 
REMARK    2  A    between atoms: S1_4  and  C1_6 
REMARK    3  A    between atoms: S1_4  and  N5_13 
REMARK    4  A    between atoms: C1_6  and  C2_7 
REMARK    5  A    between atoms: C2_7  and  N2_8 
REMARK    6  A    between atoms: N5_13  and  C4_15 
REMARK    7  A    between atoms: C4_15  and  C5_16 
ROOT
HETATM    1  S1  UNL     1      20.395  -6.264  -0.597  1.00  0.00     0.101 S 
HETATM    2  O1  UNL     1      20.674  -4.794  -0.553  1.00  0.00    -0.229 OA
ENDROOT
BRANCH   1   3
HETATM    3  N1  UNL     1      21.653  -7.049  -1.068  1.00  0.00    -0.345 N 
ATOM      4  H12 UNL     1      22.073  -7.816  -0.542  1.00  0.00     0.167 HD
ATOM      5  H11 UNL     1      21.989  -6.690  -1.961  1.00  0.00     0.167 HD
ENDBRANCH   1   3
BRANCH   1   6
HETATM    6  C1  UNL     1      19.956  -6.812   1.034  1.00  0.00     0.158 C 
BRANCH   6   7
HETATM    7  C2  UNL     1      18.858  -7.825   0.986  1.00  0.00     0.137 C 
BRANCH   7   8
HETATM    8  N2  UNL     1      17.686  -7.437   1.713  1.00  0.00    -0.366 N 
HETATM    9  C3  UNL     1      16.629  -7.080   1.085  1.00  0.00     0.196 C 
HETATM   10  N3  UNL     1      16.618  -7.071  -0.329  1.00  0.00    -0.067 NA
HETATM   11  N4  UNL     1      15.444  -6.686   1.756  1.00  0.00    -0.067 NA
ATOM     12  H2  UNL     1      17.695  -7.445   2.734  1.00  0.00     0.161 HD
ENDBRANCH   7   8
ENDBRANCH   6   7
ENDBRANCH   1   6
BRANCH   1  13
HETATM   13  N5  UNL     1      19.115  -6.523  -1.710  1.00  0.00    -0.336 N 
ATOM     14  H5  UNL     1      18.235  -7.002  -1.513  1.00  0.00     0.170 HD
BRANCH  13  15
HETATM   15  C4  UNL     1      19.502  -5.941  -2.981  1.00  0.00     0.135 C 
BRANCH  15  16
HETATM   16  C5  UNL     1      19.109  -6.788  -4.153  1.00  0.00     0.004 A 
HETATM   17  C6  UNL     1      20.242  -7.431  -4.916  1.00  0.00     0.007 A 
HETATM   18  C7  UNL     1      19.416  -6.370  -5.544  1.00  0.00     0.007 A 
ENDBRANCH  15  16
ENDBRANCH  13  15
ENDBRANCH   1  13
TORSDOF 7
ENDMDL
MODEL 5
REMARK VINA RESULT: -6.184109328      2.151      4.789
REMARK  7 active torsions:
REMARK  status: ('A' for Active; 'I' for Inactive)
REMARK    1  A    between atoms: N1_1  and  S1_4 
REMARK    2  A    between atoms: S1_4  and  C1_6 
REMARK    3  A    between atoms: S1_4  and  N5_13 
REMARK    4  A    between atoms: C1_6  and  C2_7 
REMARK    5  A    between atoms: C2_7  and  N2_8 
REMARK    6  A    between atoms: N5_13  and  C4_15 
REMARK    7  A    between atoms: C4_15  and  C5_16 
ROOT
HETATM    1  S1  UNL     1      16.985  -6.581  -2.009  1.00  0.00     0.101 S 
HETATM    2  O1  UNL     1      15.523  -6.366  -2.254  1.00  0.00    -0.229 OA
ENDROOT
BRANCH   1   3
HETATM    3  N1  UNL     1      17.470  -7.893  -2.687  1.00  0.00    -0.345 N 
ATOM      4  H12 UNL     1      16.887  -8.723  -2.799  1.00  0.00     0.167 HD
ATOM      5  H11 UNL     1      18.437  -7.803  -2.997  1.00  0.00     0.167 HD
ENDBRANCH   1   3
BRANCH   1   6
HETATM    6  C1  UNL     1      17.885  -5.214  -2.700  1.00  0.00     0.158 C 
BRANCH   6   7
HETATM    7  C2  UNL     1      19.158  -5.673  -3.337  1.00  0.00     0.137 C 
BRANCH   7   8
HETATM    8  N2  UNL     1      19.145  -5.588  -4.767  1.00  0.00    -0.366 N 
HETATM    9  C3  UNL     1      19.582  -6.565  -5.472  1.00  0.00     0.196 C 
HETATM   10  N3  UNL     1      20.075  -7.728  -4.836  1.00  0.00    -0.067 NA
HETATM   11  N4  UNL     1      19.592  -6.533  -6.890  1.00  0.00    -0.067 NA
ATOM     12  H2  UNL     1      18.788  -4.749  -5.225  1.00  0.00     0.161 HD
ENDBRANCH   7   8
ENDBRANCH   6   7
ENDBRANCH   1   6
BRANCH   1  13
HETATM   13  N5  UNL     1      17.223  -6.694  -0.313  1.00  0.00    -0.336 N 
ATOM     14  H5  UNL     1      16.617  -6.298   0.406  1.00  0.00     0.170 HD
BRANCH  13  15
HETATM   15  C4  UNL     1      18.438  -7.452  -0.082  1.00  0.00     0.135 C 
BRANCH  15  16
HETATM   16  C5  UNL     1      19.570  -6.601   0.406  1.00  0.00     0.004 A 
HETATM   17  C6  UNL     1      20.874  -6.737  -0.345  1.00  0.00     0.007 A 
HETATM   18  C7  UNL     1      20.760  -7.201   1.060  1.00  0.00     0.007 A 
ENDBRANCH  15  16
ENDBRANCH  13  15
ENDBRANCH   1  13
TORSDOF 7
ENDMDL
