MODEL 1
REMARK VINA RESULT: -5.760917474      0.000      0.000
REMARK  6 active torsions:
REMARK  status: ('A' for Active; 'I' for Inactive)
REMARK       I    between atoms: C2_5  and  N4_7 
REMARK    1  A    between atoms: N4_7  and  C3_9 
REMARK    2  A    between atoms: C3_9  and  C4_10 
REMARK    3  A    between atoms: C4_10  and  S1_11 
REMARK    4  A    between atoms: S1_11  and  C5_12 
REMARK    5  A    between atoms: C5_12  and  C6_13 
REMARK    6  A    between atoms: C6_13  and  N5_14 
ROOT
HETATM    1  N1  UNL     1      16.474  -7.721   6.390  1.00  0.00    -0.172 NA
HETATM    2  C1  UNL     1      17.325  -7.836   5.600  1.00  0.00     0.184 C 
HETATM    3  N2  UNL     1      18.344  -7.993   4.642  1.00  0.00    -0.268 N 
ATOM      4  H2  UNL     1      19.322  -8.020   4.932  1.00  0.00     0.180 HD
HETATM    5  C2  UNL     1      18.033  -8.102   3.392  1.00  0.00     0.197 C 
HETATM    6  N3  UNL     1      16.673  -8.066   2.953  1.00  0.00    -0.063 NA
HETATM    7  N4  UNL     1      19.073  -8.261   2.422  1.00  0.00    -0.363 N 
ATOM      8  H4  UNL     1      19.814  -8.952   2.537  1.00  0.00     0.162 HD
ENDROOT
BRANCH   7   9
HETATM    9  C3  UNL     1      19.015  -7.395   1.278  1.00  0.00     0.132 C 
BRANCH   9  10
HETATM   10  C4  UNL     1      20.347  -6.929   0.785  1.00  0.00     0.093 C 
BRANCH  10  11
HETATM   11  S1  UNL     1      20.213  -5.590  -0.400  1.00  0.00    -0.166 SA
BRANCH  11  12
HETATM   12  C5  UNL     1      19.897  -6.222  -2.047  1.00  0.00     0.093 C 
BRANCH  12  13
HETATM   13  C6  UNL     1      18.540  -5.792  -2.562  1.00  0.00     0.132 C 
BRANCH  13  14
HETATM   14  N5  UNL     1      17.571  -5.981  -1.513  1.00  0.00    -0.366 N 
HETATM   15  C7  UNL     1      16.791  -6.993  -1.553  1.00  0.00     0.196 C 
HETATM   16  N6  UNL     1      16.904  -7.900  -2.632  1.00  0.00    -0.067 NA
HETATM   17  N7  UNL     1      15.837  -7.174  -0.516  1.00  0.00    -0.067 NA
ATOM     18  H5  UNL     1      17.507  -5.312  -0.744  1.00  0.00     0.161 HD
ENDBRANCH  13  14
ENDBRANCH  12  13
ENDBRANCH  11  12
ENDBRANCH  10  11
ENDBRANCH   9  10
ENDBRANCH   7   9
TORSDOF 6
ENDMDL
MODEL 2
REMARK VINA RESULT: -5.625039570      2.323      7.292
REMARK  6 active torsions:
REMARK  status: ('A' for Active; 'I' for Inactive)
REMARK       I    between atoms: C2_5  and  N4_7 
REMARK    1  A    between atoms: N4_7  and  C3_9 
REMARK    2  A    between atoms: C3_9  and  C4_10 
REMARK    3  A    between atoms: C4_10  and  S1_11 
REMARK    4  A    between atoms: S1_11  and  C5_12 
REMARK    5  A    between atoms: C5_12  and  C6_13 
REMARK    6  A    between atoms: C6_13  and  N5_14 
ROOT
HETATM    1  N1  UNL     1      19.486  -6.691  -6.334  1.00  0.00    -0.172 NA
HETATM    2  C1  UNL     1      19.641  -6.881  -5.193  1.00  0.00     0.184 C 
HETATM    3  N2  UNL     1      19.842  -7.095  -3.816  1.00  0.00    -0.268 N 
ATOM      4  H2  UNL     1      20.187  -7.995  -3.481  1.00  0.00     0.180 HD
HETATM    5  C2  UNL     1      19.585  -6.144  -2.979  1.00  0.00     0.197 C 
HETATM    6  N3  UNL     1      19.099  -4.872  -3.415  1.00  0.00    -0.063 NA
HETATM    7  N4  UNL     1      19.791  -6.367  -1.581  1.00  0.00    -0.363 N 
ATOM      8  H4  UNL     1      20.660  -6.764  -1.221  1.00  0.00     0.162 HD
ENDROOT
BRANCH   7   9
HETATM    9  C3  UNL     1      18.708  -6.001  -0.711  1.00  0.00     0.132 C 
BRANCH   9  10
HETATM   10  C4  UNL     1      17.629  -7.030  -0.598  1.00  0.00     0.093 C 
BRANCH  10  11
HETATM   11  S1  UNL     1      16.950  -7.137   1.057  1.00  0.00    -0.166 SA
BRANCH  11  12
HETATM   12  C5  UNL     1      18.211  -7.622   2.236  1.00  0.00     0.093 C 
BRANCH  12  13
HETATM   13  C6  UNL     1      17.664  -8.566   3.286  1.00  0.00     0.132 C 
BRANCH  13  14
HETATM   14  N5  UNL     1      16.870  -7.805   4.217  1.00  0.00    -0.366 N 
HETATM   15  C7  UNL     1      17.227  -7.746   5.443  1.00  0.00     0.196 C 
HETATM   16  N6  UNL     1      18.393  -8.434   5.850  1.00  0.00    -0.067 NA
HETATM   17  N7  UNL     1      16.439  -6.994   6.357  1.00  0.00    -0.067 NA
ATOM     18  H5  UNL     1      16.032  -7.318   3.900  1.00  0.00     0.161 HD
ENDBRANCH  13  14
ENDBRANCH  12  13
ENDBRANCH  11  12
ENDBRANCH  10  11
ENDBRANCH   9  10
ENDBRANCH   7   9
TORSDOF 6
ENDMDL
MODEL 3
REMARK VINA RESULT: -5.561256475      2.179      3.607
REMARK  6 active torsions:
REMARK  status: ('A' for Active; 'I' for Inactive)
REMARK       I    between atoms: C2_5  and  N4_7 
REMARK    1  A    between atoms: N4_7  and  C3_9 
REMARK    2  A    between atoms: C3_9  and  C4_10 
REMARK    3  A    between atoms: C4_10  and  S1_11 
REMARK    4  A    between atoms: S1_11  and  C5_12 
REMARK    5  A    between atoms: C5_12  and  C6_13 
REMARK    6  A    between atoms: C6_13  and  N5_14 
ROOT
HETATM    1  N1  UNL     1      17.692  -8.492   4.583  1.00  0.00    -0.172 NA
HETATM    2  C1  UNL     1      17.180  -8.007   3.653  1.00  0.00     0.184 C 
HETATM    3  N2  UNL     1      16.577  -7.409   2.531  1.00  0.00    -0.268 N 
ATOM      4  H2  UNL     1      15.606  -7.096   2.576  1.00  0.00     0.180 HD
HETATM    5  C2  UNL     1      17.260  -7.257   1.444  1.00  0.00     0.197 C 
HETATM    6  N3  UNL     1      18.621  -7.685   1.349  1.00  0.00    -0.063 NA
HETATM    7  N4  UNL     1      16.642  -6.648   0.307  1.00  0.00    -0.363 N 
ATOM      8  H4  UNL     1      16.127  -5.770   0.380  1.00  0.00     0.162 HD
ENDROOT
BRANCH   7   9
HETATM    9  C3  UNL     1      16.787  -7.339  -0.944  1.00  0.00     0.132 C 
BRANCH   9  10
HETATM   10  C4  UNL     1      16.612  -6.476  -2.152  1.00  0.00     0.093 C 
BRANCH  10  11
HETATM   11  S1  UNL     1      17.550  -7.066  -3.561  1.00  0.00    -0.166 SA
BRANCH  11  12
HETATM   12  C5  UNL     1      19.212  -6.396  -3.550  1.00  0.00     0.093 C 
BRANCH  12  13
HETATM   13  C6  UNL     1      19.517  -5.672  -2.256  1.00  0.00     0.132 C 
BRANCH  13  14
HETATM   14  N5  UNL     1      20.311  -6.538  -1.423  1.00  0.00    -0.366 N 
HETATM   15  C7  UNL     1      21.041  -6.029  -0.505  1.00  0.00     0.196 C 
HETATM   16  N6  UNL     1      21.047  -4.625  -0.336  1.00  0.00    -0.067 NA
HETATM   17  N7  UNL     1      21.823  -6.888   0.314  1.00  0.00    -0.067 NA
ATOM     18  H5  UNL     1      20.291  -7.549  -1.564  1.00  0.00     0.161 HD
ENDBRANCH  13  14
ENDBRANCH  12  13
ENDBRANCH  11  12
ENDBRANCH  10  11
ENDBRANCH   9  10
ENDBRANCH   7   9
TORSDOF 6
ENDMDL
MODEL 4
REMARK VINA RESULT: -5.557651149      1.515      6.008
REMARK  6 active torsions:
REMARK  status: ('A' for Active; 'I' for Inactive)
REMARK       I    between atoms: C2_5  and  N4_7 
REMARK    1  A    between atoms: N4_7  and  C3_9 
REMARK    2  A    between atoms: C3_9  and  C4_10 
REMARK    3  A    between atoms: C4_10  and  S1_11 
REMARK    4  A    between atoms: S1_11  and  C5_12 
REMARK    5  A    between atoms: C5_12  and  C6_13 
REMARK    6  A    between atoms: C6_13  and  N5_14 
ROOT
HETATM    1  N1  UNL     1      15.728  -6.357  -2.251  1.00  0.00    -0.172 NA
HETATM    2  C1  UNL     1      16.879  -6.538  -2.309  1.00  0.00     0.184 C 
HETATM    3  N2  UNL     1      18.271  -6.737  -2.384  1.00  0.00    -0.268 N 
ATOM      4  H2  UNL     1      18.661  -7.387  -3.066  1.00  0.00     0.180 HD
HETATM    5  C2  UNL     1      19.051  -6.090  -1.580  1.00  0.00     0.197 C 
HETATM    6  N3  UNL     1      18.536  -5.174  -0.611  1.00  0.00    -0.063 NA
HETATM    7  N4  UNL     1      20.465  -6.296  -1.660  1.00  0.00    -0.363 N 
ATOM      8  H4  UNL     1      20.965  -6.259  -2.549  1.00  0.00     0.162 HD
ENDROOT
BRANCH   7   9
HETATM    9  C3  UNL     1      21.141  -6.558  -0.420  1.00  0.00     0.132 C 
BRANCH   9  10
HETATM   10  C4  UNL     1      20.645  -7.762   0.314  1.00  0.00     0.093 C 
BRANCH  10  11
HETATM   11  S1  UNL     1      19.894  -7.347   1.888  1.00  0.00    -0.166 SA
BRANCH  11  12
HETATM   12  C5  UNL     1      18.141  -7.721   1.880  1.00  0.00     0.093 C 
BRANCH  12  13
HETATM   13  C6  UNL     1      17.755  -8.626   3.031  1.00  0.00     0.132 C 
BRANCH  13  14
HETATM   14  N5  UNL     1      16.927  -7.879   3.943  1.00  0.00    -0.366 N 
HETATM   15  C7  UNL     1      17.279  -7.776   5.168  1.00  0.00     0.196 C 
HETATM   16  N6  UNL     1      18.473  -8.404   5.591  1.00  0.00    -0.067 NA
HETATM   17  N7  UNL     1      16.458  -7.038   6.064  1.00  0.00    -0.067 NA
ATOM     18  H5  UNL     1      16.069  -7.435   3.615  1.00  0.00     0.161 HD
ENDBRANCH  13  14
ENDBRANCH  12  13
ENDBRANCH  11  12
ENDBRANCH  10  11
ENDBRANCH   9  10
ENDBRANCH   7   9
TORSDOF 6
ENDMDL
MODEL 5
REMARK VINA RESULT: -5.550923903      0.730      1.001
REMARK  6 active torsions:
REMARK  status: ('A' for Active; 'I' for Inactive)
REMARK       I    between atoms: C2_5  and  N4_7 
REMARK    1  A    between atoms: N4_7  and  C3_9 
REMARK    2  A    between atoms: C3_9  and  C4_10 
REMARK    3  A    between atoms: C4_10  and  S1_11 
REMARK    4  A    between atoms: S1_11  and  C5_12 
REMARK    5  A    between atoms: C5_12  and  C6_13 
REMARK    6  A    between atoms: C6_13  and  N5_14 
ROOT
HETATM    1  N1  UNL     1      16.583  -7.763   6.302  1.00  0.00    -0.172 NA
HETATM    2  C1  UNL     1      17.330  -7.964   5.428  1.00  0.00     0.184 C 
HETATM    3  N2  UNL     1      18.220  -8.220   4.368  1.00  0.00    -0.268 N 
ATOM      4  H2  UNL     1      19.175  -8.523   4.560  1.00  0.00     0.180 HD
HETATM    5  C2  UNL     1      17.818  -8.067   3.148  1.00  0.00     0.197 C 
HETATM    6  N3  UNL     1      16.488  -7.642   2.845  1.00  0.00    -0.063 NA
HETATM    7  N4  UNL     1      18.726  -8.329   2.074  1.00  0.00    -0.363 N 
ATOM      8  H4  UNL     1      19.276  -9.188   2.031  1.00  0.00     0.162 HD
ENDROOT
BRANCH   7   9
HETATM    9  C3  UNL     1      18.821  -7.317   1.059  1.00  0.00     0.132 C 
BRANCH   9  10
HETATM   10  C4  UNL     1      20.217  -6.881   0.748  1.00  0.00     0.093 C 
BRANCH  10  11
HETATM   11  S1  UNL     1      20.286  -5.715  -0.613  1.00  0.00    -0.166 SA
BRANCH  11  12
HETATM   12  C5  UNL     1      20.333  -6.570  -2.187  1.00  0.00     0.093 C 
BRANCH  12  13
HETATM   13  C6  UNL     1      19.103  -6.279  -3.021  1.00  0.00     0.132 C 
BRANCH  13  14
HETATM   14  N5  UNL     1      17.980  -6.967  -2.438  1.00  0.00    -0.366 N 
HETATM   15  C7  UNL     1      16.951  -6.298  -2.081  1.00  0.00     0.196 C 
HETATM   16  N6  UNL     1      16.948  -4.897  -2.269  1.00  0.00    -0.067 NA
HETATM   17  N7  UNL     1      15.846  -6.983  -1.505  1.00  0.00    -0.067 NA
ATOM     18  H5  UNL     1      18.006  -7.980  -2.311  1.00  0.00     0.161 HD
ENDBRANCH  13  14
ENDBRANCH  12  13
ENDBRANCH  11  12
ENDBRANCH  10  11
ENDBRANCH   9  10
ENDBRANCH   7   9
TORSDOF 6
ENDMDL
