MODEL 1
REMARK VINA RESULT: -6.868262677      0.000      0.000
REMARK  9 active torsions:
REMARK  status: ('A' for Active; 'I' for Inactive)
REMARK    1  A    between atoms: C1_4  and  O1_6 
REMARK    2  A    between atoms: O1_6  and  C2_7 
REMARK    3  A    between atoms: C2_7  and  C3_8 
REMARK    4  A    between atoms: C4_9  and  O2_10 
REMARK    5  A    between atoms: C6_13  and  C7_14 
REMARK    6  A    between atoms: C7_14  and  C8_15 
REMARK    7  A    between atoms: C9_16  and  C10_17 
REMARK    8  A    between atoms: C10_17  and  C11_18 
REMARK    9  A    between atoms: N3_19  and  N4_21 
ROOT
HETATM    1  C3  UNL     1      19.344  -6.899   1.146  1.00  0.00     0.043 C 
HETATM    2  C4  UNL     1      20.593  -7.396   0.517  1.00  0.00     0.125 C 
HETATM    3  C5  UNL     1      20.449  -6.191  -0.472  1.00  0.00     0.037 C 
HETATM    4  C6  UNL     1      18.957  -6.304  -0.190  1.00  0.00    -0.000 C 
ENDROOT
BRANCH   4   5
HETATM    5  C7  UNL     1      18.312  -7.238  -1.179  1.00  0.00     0.032 C 
BRANCH   5   6
HETATM    6  C8  UNL     1      17.387  -6.407  -1.988  1.00  0.00    -0.030 C 
HETATM    7  C9  UNL     1      17.715  -5.672  -3.003  1.00  0.00    -0.026 C 
BRANCH   7   8
HETATM    8  C10 UNL     1      19.070  -5.531  -3.533  1.00  0.00     0.073 C 
BRANCH   8   9
HETATM    9  C11 UNL     1      19.281  -6.505  -4.647  1.00  0.00     0.083 C 
HETATM   10  N3  UNL     1      20.306  -7.279  -4.611  1.00  0.00    -0.322 N 
ATOM     11  H3  UNL     1      20.958  -7.218  -3.828  1.00  0.00     0.185 HD
BRANCH  10  12
HETATM   12  N4  UNL     1      20.535  -8.200  -5.632  1.00  0.00    -0.346 N 
ATOM     13  H42 UNL     1      21.496  -8.476  -5.836  1.00  0.00     0.176 HD
ATOM     14  H41 UNL     1      19.757  -8.590  -6.164  1.00  0.00     0.176 HD
ENDBRANCH  10  12
ENDBRANCH   8   9
ENDBRANCH   7   8
ENDBRANCH   5   6
ENDBRANCH   4   5
BRANCH   1  15
HETATM   15  C2  UNL     1      18.394  -7.817   1.781  1.00  0.00     0.186 C 
BRANCH  15  16
HETATM   16  O1  UNL     1      18.619  -8.009   3.127  1.00  0.00    -0.324 OA
BRANCH  16  17
HETATM   17  C1  UNL     1      17.706  -8.283   4.095  1.00  0.00     0.225 C 
HETATM   18  N1  UNL     1      16.503  -8.532   3.707  1.00  0.00    -0.368 N 
ATOM     19  H12 UNL     1      15.817  -8.737   4.433  1.00  0.00     0.159 HD
ATOM     20  H11 UNL     1      16.267  -8.522   2.715  1.00  0.00     0.159 HD
HETATM   21  N2  UNL     1      18.041  -8.296   5.504  1.00  0.00    -0.057 NA
ENDBRANCH  16  17
ENDBRANCH  15  16
ENDBRANCH   1  15
BRANCH   2  22
HETATM   22  O2  UNL     1      21.795  -7.160   1.210  1.00  0.00    -0.395 OA
ATOM     23  H2  UNL     1      22.502  -7.780   1.072  1.00  0.00     0.210 HD
ENDBRANCH   2  22
TORSDOF 9
ENDMDL
MODEL 2
REMARK VINA RESULT: -6.725888393      1.868      2.279
REMARK  9 active torsions:
REMARK  status: ('A' for Active; 'I' for Inactive)
REMARK    1  A    between atoms: C1_4  and  O1_6 
REMARK    2  A    between atoms: O1_6  and  C2_7 
REMARK    3  A    between atoms: C2_7  and  C3_8 
REMARK    4  A    between atoms: C4_9  and  O2_10 
REMARK    5  A    between atoms: C6_13  and  C7_14 
REMARK    6  A    between atoms: C7_14  and  C8_15 
REMARK    7  A    between atoms: C9_16  and  C10_17 
REMARK    8  A    between atoms: C10_17  and  C11_18 
REMARK    9  A    between atoms: N3_19  and  N4_21 
ROOT
HETATM    1  C3  UNL     1      19.630  -6.780   0.648  1.00  0.00     0.043 C 
HETATM    2  C4  UNL     1      20.984  -7.131   0.153  1.00  0.00     0.125 C 
HETATM    3  C5  UNL     1      21.006  -5.703  -0.486  1.00  0.00     0.037 C 
HETATM    4  C6  UNL     1      19.490  -5.837  -0.527  1.00  0.00    -0.000 C 
ENDROOT
BRANCH   4   5
HETATM    5  C7  UNL     1      19.060  -6.453  -1.832  1.00  0.00     0.032 C 
BRANCH   5   6
HETATM    6  C8  UNL     1      19.207  -5.391  -2.857  1.00  0.00    -0.030 C 
HETATM    7  C9  UNL     1      19.194  -5.565  -4.141  1.00  0.00    -0.026 C 
BRANCH   7   8
HETATM    8  C10 UNL     1      19.032  -6.855  -4.811  1.00  0.00     0.073 C 
BRANCH   8   9
HETATM    9  C11 UNL     1      20.364  -7.513  -4.969  1.00  0.00     0.083 C 
HETATM   10  N3  UNL     1      20.607  -8.176  -6.042  1.00  0.00    -0.322 N 
ATOM     11  H3  UNL     1      19.892  -8.244  -6.767  1.00  0.00     0.185 HD
BRANCH  10  12
HETATM   12  N4  UNL     1      21.839  -8.804  -6.225  1.00  0.00    -0.346 N 
ATOM     13  H42 UNL     1      22.242  -9.328  -5.448  1.00  0.00     0.176 HD
ATOM     14  H41 UNL     1      22.327  -8.740  -7.118  1.00  0.00     0.176 HD
ENDBRANCH  10  12
ENDBRANCH   8   9
ENDBRANCH   7   8
ENDBRANCH   5   6
ENDBRANCH   4   5
BRANCH   1  15
HETATM   15  C2  UNL     1      18.595  -7.802   0.826  1.00  0.00     0.186 C 
BRANCH  15  16
HETATM   16  O1  UNL     1      17.502  -7.370   1.546  1.00  0.00    -0.324 OA
BRANCH  16  17
HETATM   17  C1  UNL     1      16.257  -7.084   1.082  1.00  0.00     0.225 C 
HETATM   18  N1  UNL     1      15.395  -6.670   1.945  1.00  0.00    -0.368 N 
ATOM     19  H12 UNL     1      14.461  -6.455   1.597  1.00  0.00     0.159 HD
ATOM     20  H11 UNL     1      15.654  -6.566   2.926  1.00  0.00     0.159 HD
HETATM   21  N2  UNL     1      15.890  -7.232  -0.311  1.00  0.00    -0.057 NA
ENDBRANCH  16  17
ENDBRANCH  15  16
ENDBRANCH   1  15
BRANCH   2  22
HETATM   22  O2  UNL     1      22.030  -7.128   1.096  1.00  0.00    -0.395 OA
ATOM     23  H2  UNL     1      22.751  -6.530   0.938  1.00  0.00     0.210 HD
ENDBRANCH   2  22
TORSDOF 9
ENDMDL
MODEL 3
REMARK VINA RESULT: -6.720711540      2.376      7.359
REMARK  9 active torsions:
REMARK  status: ('A' for Active; 'I' for Inactive)
REMARK    1  A    between atoms: C1_4  and  O1_6 
REMARK    2  A    between atoms: O1_6  and  C2_7 
REMARK    3  A    between atoms: C2_7  and  C3_8 
REMARK    4  A    between atoms: C4_9  and  O2_10 
REMARK    5  A    between atoms: C6_13  and  C7_14 
REMARK    6  A    between atoms: C7_14  and  C8_15 
REMARK    7  A    between atoms: C9_16  and  C10_17 
REMARK    8  A    between atoms: C10_17  and  C11_18 
REMARK    9  A    between atoms: N3_19  and  N4_21 
ROOT
HETATM    1  C3  UNL     1      18.215  -5.934  -1.618  1.00  0.00     0.043 C 
HETATM    2  C4  UNL     1      17.113  -6.913  -1.784  1.00  0.00     0.125 C 
HETATM    3  C5  UNL     1      16.810  -6.669  -0.268  1.00  0.00     0.037 C 
HETATM    4  C6  UNL     1      18.290  -6.326  -0.159  1.00  0.00    -0.000 C 
ENDROOT
BRANCH   4   5
HETATM    5  C7  UNL     1      19.086  -7.564   0.163  1.00  0.00     0.032 C 
BRANCH   5   6
HETATM    6  C8  UNL     1      19.764  -7.293   1.454  1.00  0.00    -0.030 C 
HETATM    7  C9  UNL     1      19.310  -7.595   2.629  1.00  0.00    -0.026 C 
BRANCH   7   8
HETATM    8  C10 UNL     1      18.035  -8.262   2.890  1.00  0.00     0.073 C 
BRANCH   8   9
HETATM    9  C11 UNL     1      17.716  -8.189   4.349  1.00  0.00     0.083 C 
HETATM   10  N3  UNL     1      16.571  -7.735   4.713  1.00  0.00    -0.322 N 
ATOM     11  H3  UNL     1      15.899  -7.433   4.007  1.00  0.00     0.185 HD
BRANCH  10  12
HETATM   12  N4  UNL     1      16.239  -7.651   6.064  1.00  0.00    -0.346 N 
ATOM     13  H42 UNL     1      16.779  -7.029   6.665  1.00  0.00     0.176 HD
ATOM     14  H41 UNL     1      15.469  -8.203   6.445  1.00  0.00     0.176 HD
ENDBRANCH  10  12
ENDBRANCH   8   9
ENDBRANCH   7   8
ENDBRANCH   5   6
ENDBRANCH   4   5
BRANCH   1  15
HETATM   15  C2  UNL     1      19.445  -6.029  -2.410  1.00  0.00     0.186 C 
BRANCH  15  16
HETATM   16  O1  UNL     1      19.253  -5.845  -3.763  1.00  0.00    -0.324 OA
BRANCH  16  17
HETATM   17  C1  UNL     1      19.545  -6.707  -4.772  1.00  0.00     0.225 C 
HETATM   18  N1  UNL     1      20.040  -7.848  -4.438  1.00  0.00    -0.368 N 
ATOM     19  H12 UNL     1      20.259  -8.495  -5.195  1.00  0.00     0.159 HD
ATOM     20  H11 UNL     1      20.196  -8.077  -3.456  1.00  0.00     0.159 HD
HETATM   21  N2  UNL     1      19.324  -6.381  -6.166  1.00  0.00    -0.057 NA
ENDBRANCH  16  17
ENDBRANCH  15  16
ENDBRANCH   1  15
BRANCH   2  22
HETATM   22  O2  UNL     1      15.963  -6.471  -2.464  1.00  0.00    -0.395 OA
ATOM     23  H2  UNL     1      15.494  -5.735  -2.087  1.00  0.00     0.210 HD
ENDBRANCH   2  22
TORSDOF 9
ENDMDL
MODEL 4
REMARK VINA RESULT: -6.310095183      0.976      1.208
REMARK  9 active torsions:
REMARK  status: ('A' for Active; 'I' for Inactive)
REMARK    1  A    between atoms: C1_4  and  O1_6 
REMARK    2  A    between atoms: O1_6  and  C2_7 
REMARK    3  A    between atoms: C2_7  and  C3_8 
REMARK    4  A    between atoms: C4_9  and  O2_10 
REMARK    5  A    between atoms: C6_13  and  C7_14 
REMARK    6  A    between atoms: C7_14  and  C8_15 
REMARK    7  A    between atoms: C9_16  and  C10_17 
REMARK    8  A    between atoms: C10_17  and  C11_18 
REMARK    9  A    between atoms: N3_19  and  N4_21 
ROOT
HETATM    1  C3  UNL     1      19.527  -6.576   0.748  1.00  0.00     0.043 C 
HETATM    2  C4  UNL     1      20.777  -7.248   0.314  1.00  0.00     0.125 C 
HETATM    3  C5  UNL     1      21.121  -5.907  -0.414  1.00  0.00     0.037 C 
HETATM    4  C6  UNL     1      19.613  -5.709  -0.489  1.00  0.00    -0.000 C 
ENDROOT
BRANCH   4   5
HETATM    5  C7  UNL     1      19.074  -6.304  -1.763  1.00  0.00     0.032 C 
BRANCH   5   6
HETATM    6  C8  UNL     1      19.209  -5.251  -2.798  1.00  0.00    -0.030 C 
HETATM    7  C9  UNL     1      19.089  -5.421  -4.077  1.00  0.00    -0.026 C 
BRANCH   7   8
HETATM    8  C10 UNL     1      18.798  -6.698  -4.729  1.00  0.00     0.073 C 
BRANCH   8   9
HETATM    9  C11 UNL     1      19.940  -7.085  -5.614  1.00  0.00     0.083 C 
HETATM   10  N3  UNL     1      20.515  -8.217  -5.428  1.00  0.00    -0.322 N 
ATOM     11  H3  UNL     1      20.188  -8.834  -4.684  1.00  0.00     0.185 HD
BRANCH  10  12
HETATM   12  N4  UNL     1      21.583  -8.612  -6.233  1.00  0.00    -0.346 N 
ATOM     13  H42 UNL     1      21.404  -9.255  -7.005  1.00  0.00     0.176 HD
ATOM     14  H41 UNL     1      22.525  -8.264  -6.054  1.00  0.00     0.176 HD
ENDBRANCH  10  12
ENDBRANCH   8   9
ENDBRANCH   7   8
ENDBRANCH   5   6
ENDBRANCH   4   5
BRANCH   1  15
HETATM   15  C2  UNL     1      18.290  -7.332   0.963  1.00  0.00     0.186 C 
BRANCH  15  16
HETATM   16  O1  UNL     1      18.351  -8.213   2.022  1.00  0.00    -0.324 OA
BRANCH  16  17
HETATM   17  C1  UNL     1      17.717  -8.123   3.220  1.00  0.00     0.225 C 
HETATM   18  N1  UNL     1      16.459  -7.849   3.193  1.00  0.00    -0.368 N 
ATOM     19  H12 UNL     1      15.982  -7.782   4.092  1.00  0.00     0.159 HD
ATOM     20  H11 UNL     1      15.978  -7.713   2.304  1.00  0.00     0.159 HD
HETATM   21  N2  UNL     1      18.400  -8.316   4.482  1.00  0.00    -0.057 NA
ENDBRANCH  16  17
ENDBRANCH  15  16
ENDBRANCH   1  15
BRANCH   2  22
HETATM   22  O2  UNL     1      21.785  -7.410   1.283  1.00  0.00    -0.395 OA
ATOM     23  H2  UNL     1      22.677  -7.226   1.011  1.00  0.00     0.210 HD
ENDBRANCH   2  22
TORSDOF 9
ENDMDL
MODEL 5
REMARK VINA RESULT: -6.229257883      1.148      1.320
REMARK  9 active torsions:
REMARK  status: ('A' for Active; 'I' for Inactive)
REMARK    1  A    between atoms: C1_4  and  O1_6 
REMARK    2  A    between atoms: O1_6  and  C2_7 
REMARK    3  A    between atoms: C2_7  and  C3_8 
REMARK    4  A    between atoms: C4_9  and  O2_10 
REMARK    5  A    between atoms: C6_13  and  C7_14 
REMARK    6  A    between atoms: C7_14  and  C8_15 
REMARK    7  A    between atoms: C9_16  and  C10_17 
REMARK    8  A    between atoms: C10_17  and  C11_18 
REMARK    9  A    between atoms: N3_19  and  N4_21 
ROOT
HETATM    1  C3  UNL     1      19.676  -6.839   0.758  1.00  0.00     0.043 C 
HETATM    2  C4  UNL     1      21.010  -7.304   0.306  1.00  0.00     0.125 C 
HETATM    3  C5  UNL     1      21.013  -6.051  -0.631  1.00  0.00     0.037 C 
HETATM    4  C6  UNL     1      19.496  -6.176  -0.590  1.00  0.00    -0.000 C 
ENDROOT
BRANCH   4   5
HETATM    5  C7  UNL     1      19.019  -7.058  -1.713  1.00  0.00     0.032 C 
BRANCH   5   6
HETATM    6  C8  UNL     1      17.890  -6.338  -2.352  1.00  0.00    -0.030 C 
HETATM    7  C9  UNL     1      17.962  -5.599  -3.413  1.00  0.00    -0.026 C 
BRANCH   7   8
HETATM    8  C10 UNL     1      19.184  -5.343  -4.175  1.00  0.00     0.073 C 
BRANCH   8   9
HETATM    9  C11 UNL     1      19.396  -6.435  -5.173  1.00  0.00     0.083 C 
HETATM   10  N3  UNL     1      20.398  -7.225  -5.028  1.00  0.00    -0.322 N 
ATOM     11  H3  UNL     1      21.033  -7.096  -4.239  1.00  0.00     0.185 HD
BRANCH  10  12
HETATM   12  N4  UNL     1      20.628  -8.255  -5.939  1.00  0.00    -0.346 N 
ATOM     13  H42 UNL     1      19.826  -8.728  -6.356  1.00  0.00     0.176 HD
ATOM     14  H41 UNL     1      21.580  -8.530  -6.183  1.00  0.00     0.176 HD
ENDBRANCH  10  12
ENDBRANCH   8   9
ENDBRANCH   7   8
ENDBRANCH   5   6
ENDBRANCH   4   5
BRANCH   1  15
HETATM   15  C2  UNL     1      18.644  -7.786   1.191  1.00  0.00     0.186 C 
BRANCH  15  16
HETATM   16  O1  UNL     1      17.372  -7.256   1.211  1.00  0.00    -0.324 OA
BRANCH  16  17
HETATM   17  C1  UNL     1      16.482  -7.261   2.237  1.00  0.00     0.225 C 
HETATM   18  N1  UNL     1      15.378  -6.625   2.054  1.00  0.00    -0.368 N 
ATOM     19  H12 UNL     1      14.710  -6.630   2.825  1.00  0.00     0.159 HD
ATOM     20  H11 UNL     1      15.197  -6.147   1.172  1.00  0.00     0.159 HD
HETATM   21  N2  UNL     1      16.740  -7.941   3.491  1.00  0.00    -0.057 NA
ENDBRANCH  16  17
ENDBRANCH  15  16
ENDBRANCH   1  15
BRANCH   2  22
HETATM   22  O2  UNL     1      22.089  -7.106   1.189  1.00  0.00    -0.395 OA
ATOM     23  H2  UNL     1      22.370  -6.209   1.332  1.00  0.00     0.210 HD
ENDBRANCH   2  22
TORSDOF 9
ENDMDL
