MODEL 1
REMARK VINA RESULT: -5.258199719      0.000      0.000
REMARK  8 active torsions:
REMARK  status: ('A' for Active; 'I' for Inactive)
REMARK    1  A    between atoms: N1_1  and  C1_5 
REMARK    2  A    between atoms: C1_5  and  C2_6 
REMARK    3  A    between atoms: C2_6  and  N2_7 
REMARK    4  A    between atoms: N2_7  and  C3_9 
REMARK    5  A    between atoms: C3_9  and  N3_11 
REMARK    6  A    between atoms: N3_11  and  C4_13 
REMARK    7  A    between atoms: C4_13  and  C5_14 
REMARK    8  A    between atoms: C5_14  and  N4_15 
ROOT
HETATM    1  N3  UNL     1      17.033  -6.419  -2.749  1.00  0.00    -0.366 N 
ATOM      2  H3  UNL     1      16.204  -5.986  -3.158  1.00  0.00     0.161 HD
ENDROOT
BRANCH   1   3
HETATM    3  C3  UNL     1      18.225  -6.397  -3.473  1.00  0.00     0.167 C 
HETATM    4  S1  UNL     1      18.839  -4.896  -3.834  1.00  0.00    -0.041 SA
BRANCH   3   5
HETATM    5  N2  UNL     1      18.961  -7.514  -3.929  1.00  0.00    -0.366 N 
ATOM      6  H2  UNL     1      18.580  -8.458  -3.857  1.00  0.00     0.161 HD
BRANCH   5   7
HETATM    7  C2  UNL     1      20.283  -7.280  -4.505  1.00  0.00     0.149 C 
BRANCH   7   8
HETATM    8  C1  UNL     1      20.373  -7.700  -5.934  1.00  0.00     0.249 C 
BRANCH   8   9
HETATM    9  N1  UNL     1      19.800  -6.599  -6.728  1.00  0.00    -0.078 N 
ATOM     10  H13 UNL     1      18.780  -6.576  -6.709  1.00  0.00     0.274 HD
ATOM     11  H12 UNL     1      19.955  -5.680  -6.314  1.00  0.00     0.274 HD
ATOM     12  H11 UNL     1      20.187  -6.691  -7.667  1.00  0.00     0.274 HD
ENDBRANCH   8   9
ENDBRANCH   7   8
ENDBRANCH   5   7
ENDBRANCH   3   5
ENDBRANCH   1   3
BRANCH   1  13
HETATM   13  C4  UNL     1      16.922  -7.026  -1.448  1.00  0.00     0.141 C 
BRANCH  13  14
HETATM   14  C5  UNL     1      17.698  -6.225  -0.460  1.00  0.00     0.136 C 
BRANCH  14  15
HETATM   15  N4  UNL     1      19.018  -6.731  -0.183  1.00  0.00    -0.408 N 
HETATM   16  C6  UNL     1      19.158  -7.462   1.029  1.00  0.00     0.144 C 
HETATM   17  C7  UNL     1      20.646  -7.391   1.405  1.00  0.00     0.251 C 
HETATM   18  N5  UNL     1      21.427  -7.713   0.202  1.00  0.00    -0.072 N 
HETATM   19  C8  UNL     1      21.341  -6.587  -0.706  1.00  0.00     0.251 C 
ATOM     20  H52 UNL     1      22.390  -7.973   0.417  1.00  0.00     0.277 HD
ATOM     21  H51 UNL     1      21.141  -8.592  -0.230  1.00  0.00     0.277 HD
HETATM   22  C9  UNL     1      20.063  -5.799  -0.468  1.00  0.00     0.144 C 
ENDBRANCH  14  15
ENDBRANCH  13  14
ENDBRANCH   1  13
TORSDOF 8
ENDMDL
MODEL 2
REMARK VINA RESULT: -5.188617123      2.098      3.126
REMARK  8 active torsions:
REMARK  status: ('A' for Active; 'I' for Inactive)
REMARK    1  A    between atoms: N1_1  and  C1_5 
REMARK    2  A    between atoms: C1_5  and  C2_6 
REMARK    3  A    between atoms: C2_6  and  N2_7 
REMARK    4  A    between atoms: N2_7  and  C3_9 
REMARK    5  A    between atoms: C3_9  and  N3_11 
REMARK    6  A    between atoms: N3_11  and  C4_13 
REMARK    7  A    between atoms: C4_13  and  C5_14 
REMARK    8  A    between atoms: C5_14  and  N4_15 
ROOT
HETATM    1  N3  UNL     1      20.013  -5.742  -1.362  1.00  0.00    -0.366 N 
ATOM      2  H3  UNL     1      20.967  -5.405  -1.499  1.00  0.00     0.161 HD
ENDROOT
BRANCH   1   3
HETATM    3  C3  UNL     1      19.257  -6.080  -2.485  1.00  0.00     0.167 C 
HETATM    4  S1  UNL     1      17.643  -5.689  -2.429  1.00  0.00    -0.041 SA
BRANCH   3   5
HETATM    5  N2  UNL     1      19.719  -6.718  -3.658  1.00  0.00    -0.366 N 
ATOM      6  H2  UNL     1      20.478  -7.399  -3.621  1.00  0.00     0.161 HD
BRANCH   5   7
HETATM    7  C2  UNL     1      19.081  -6.375  -4.926  1.00  0.00     0.149 C 
BRANCH   7   8
HETATM    8  C1  UNL     1      19.841  -6.872  -6.111  1.00  0.00     0.249 C 
BRANCH   8   9
HETATM    9  N1  UNL     1      20.675  -7.987  -5.631  1.00  0.00    -0.078 N 
ATOM     10  H13 UNL     1      21.652  -7.912  -5.913  1.00  0.00     0.274 HD
ATOM     11  H12 UNL     1      20.832  -7.970  -4.623  1.00  0.00     0.274 HD
ATOM     12  H11 UNL     1      20.224  -8.843  -5.955  1.00  0.00     0.274 HD
ENDBRANCH   8   9
ENDBRANCH   7   8
ENDBRANCH   5   7
ENDBRANCH   3   5
ENDBRANCH   1   3
BRANCH   1  13
HETATM   13  C4  UNL     1      19.505  -5.848  -0.019  1.00  0.00     0.141 C 
BRANCH  13  14
HETATM   14  C5  UNL     1      19.492  -7.280   0.393  1.00  0.00     0.136 C 
BRANCH  14  15
HETATM   15  N4  UNL     1      18.461  -7.621   1.340  1.00  0.00    -0.408 N 
HETATM   16  C6  UNL     1      17.157  -7.140   1.035  1.00  0.00     0.144 C 
HETATM   17  C7  UNL     1      16.393  -7.092   2.366  1.00  0.00     0.251 C 
HETATM   18  N5  UNL     1      16.614  -8.372   3.056  1.00  0.00    -0.072 N 
HETATM   19  C8  UNL     1      17.978  -8.391   3.547  1.00  0.00     0.251 C 
ATOM     20  H52 UNL     1      15.928  -8.546   3.792  1.00  0.00     0.277 HD
ATOM     21  H51 UNL     1      16.394  -9.178   2.471  1.00  0.00     0.277 HD
HETATM   22  C9  UNL     1      18.865  -7.488   2.705  1.00  0.00     0.144 C 
ENDBRANCH  14  15
ENDBRANCH  13  14
ENDBRANCH   1  13
TORSDOF 8
ENDMDL
MODEL 3
REMARK VINA RESULT: -5.007079457      2.026      3.081
REMARK  8 active torsions:
REMARK  status: ('A' for Active; 'I' for Inactive)
REMARK    1  A    between atoms: N1_1  and  C1_5 
REMARK    2  A    between atoms: C1_5  and  C2_6 
REMARK    3  A    between atoms: C2_6  and  N2_7 
REMARK    4  A    between atoms: N2_7  and  C3_9 
REMARK    5  A    between atoms: C3_9  and  N3_11 
REMARK    6  A    between atoms: N3_11  and  C4_13 
REMARK    7  A    between atoms: C4_13  and  C5_14 
REMARK    8  A    between atoms: C5_14  and  N4_15 
ROOT
HETATM    1  N3  UNL     1      20.283  -6.038  -1.374  1.00  0.00    -0.366 N 
ATOM      2  H3  UNL     1      21.290  -6.162  -1.483  1.00  0.00     0.161 HD
ENDROOT
BRANCH   1   3
HETATM    3  C3  UNL     1      19.463  -6.221  -2.487  1.00  0.00     0.167 C 
HETATM    4  S1  UNL     1      17.896  -5.690  -2.342  1.00  0.00    -0.041 SA
BRANCH   3   5
HETATM    5  N2  UNL     1      19.826  -6.808  -3.721  1.00  0.00    -0.366 N 
ATOM      6  H2  UNL     1      20.567  -7.507  -3.771  1.00  0.00     0.161 HD
BRANCH   5   7
HETATM    7  C2  UNL     1      19.110  -6.386  -4.922  1.00  0.00     0.149 C 
BRANCH   7   8
HETATM    8  C1  UNL     1      19.781  -6.828  -6.181  1.00  0.00     0.249 C 
BRANCH   8   9
HETATM    9  N1  UNL     1      20.650  -7.958  -5.814  1.00  0.00    -0.078 N 
ATOM     10  H13 UNL     1      21.622  -7.688  -5.660  1.00  0.00     0.274 HD
ATOM     11  H12 UNL     1      20.469  -8.320  -4.877  1.00  0.00     0.274 HD
ATOM     12  H11 UNL     1      20.535  -8.659  -6.547  1.00  0.00     0.274 HD
ENDBRANCH   8   9
ENDBRANCH   7   8
ENDBRANCH   5   7
ENDBRANCH   3   5
ENDBRANCH   1   3
BRANCH   1  13
HETATM   13  C4  UNL     1      19.768  -5.683  -0.076  1.00  0.00     0.141 C 
BRANCH  13  14
HETATM   14  C5  UNL     1      19.816  -6.874   0.818  1.00  0.00     0.136 C 
BRANCH  14  15
HETATM   15  N4  UNL     1      18.623  -7.085   1.598  1.00  0.00    -0.408 N 
HETATM   16  C6  UNL     1      18.782  -7.879   2.767  1.00  0.00     0.144 C 
HETATM   17  C7  UNL     1      17.393  -8.446   3.095  1.00  0.00     0.251 C 
HETATM   18  N5  UNL     1      16.428  -7.338   3.025  1.00  0.00    -0.072 N 
HETATM   19  C8  UNL     1      16.239  -6.991   1.631  1.00  0.00     0.251 C 
ATOM     20  H52 UNL     1      15.551  -7.550   3.501  1.00  0.00     0.277 HD
ATOM     21  H51 UNL     1      16.705  -6.539   3.596  1.00  0.00     0.277 HD
HETATM   22  C9  UNL     1      17.464  -7.367   0.812  1.00  0.00     0.144 C 
ENDBRANCH  14  15
ENDBRANCH  13  14
ENDBRANCH   1  13
TORSDOF 8
ENDMDL
MODEL 4
REMARK VINA RESULT: -5.001297260      1.879      4.941
REMARK  8 active torsions:
REMARK  status: ('A' for Active; 'I' for Inactive)
REMARK    1  A    between atoms: N1_1  and  C1_5 
REMARK    2  A    between atoms: C1_5  and  C2_6 
REMARK    3  A    between atoms: C2_6  and  N2_7 
REMARK    4  A    between atoms: N2_7  and  C3_9 
REMARK    5  A    between atoms: C3_9  and  N3_11 
REMARK    6  A    between atoms: N3_11  and  C4_13 
REMARK    7  A    between atoms: C4_13  and  C5_14 
REMARK    8  A    between atoms: C5_14  and  N4_15 
ROOT
HETATM    1  N3  UNL     1      17.491  -5.936  -0.963  1.00  0.00    -0.366 N 
ATOM      2  H3  UNL     1      16.952  -5.073  -0.895  1.00  0.00     0.161 HD
ENDROOT
BRANCH   1   3
HETATM    3  C3  UNL     1      18.418  -6.225   0.038  1.00  0.00     0.167 C 
HETATM    4  S1  UNL     1      18.024  -7.466   1.071  1.00  0.00    -0.041 SA
BRANCH   3   5
HETATM    5  N2  UNL     1      19.653  -5.575   0.265  1.00  0.00    -0.366 N 
ATOM      6  H2  UNL     1      19.786  -4.970   1.075  1.00  0.00     0.161 HD
BRANCH   5   7
HETATM    7  C2  UNL     1      20.733  -5.793  -0.694  1.00  0.00     0.149 C 
BRANCH   7   8
HETATM    8  C1  UNL     1      21.480  -7.061  -0.445  1.00  0.00     0.249 C 
BRANCH   8   9
HETATM    9  N1  UNL     1      21.786  -7.088   0.995  1.00  0.00    -0.078 N 
ATOM     10  H13 UNL     1      22.780  -6.982   1.199  1.00  0.00     0.274 HD
ATOM     11  H12 UNL     1      21.466  -6.256   1.491  1.00  0.00     0.274 HD
ATOM     12  H11 UNL     1      21.388  -7.954   1.357  1.00  0.00     0.274 HD
ENDBRANCH   8   9
ENDBRANCH   7   8
ENDBRANCH   5   7
ENDBRANCH   3   5
ENDBRANCH   1   3
BRANCH   1  13
HETATM   13  C4  UNL     1      17.263  -6.806  -2.088  1.00  0.00     0.141 C 
BRANCH  13  14
HETATM   14  C5  UNL     1      17.403  -6.028  -3.351  1.00  0.00     0.136 C 
BRANCH  14  15
HETATM   15  N4  UNL     1      18.379  -6.553  -4.272  1.00  0.00    -0.408 N 
HETATM   16  C6  UNL     1      19.267  -7.529  -3.741  1.00  0.00     0.144 C 
HETATM   17  C7  UNL     1      20.515  -7.508  -4.638  1.00  0.00     0.251 C 
HETATM   18  N5  UNL     1      20.062  -7.540  -6.036  1.00  0.00    -0.072 N 
HETATM   19  C8  UNL     1      19.497  -6.243  -6.357  1.00  0.00     0.251 C 
ATOM     20  H52 UNL     1      20.800  -7.818  -6.683  1.00  0.00     0.277 HD
ATOM     21  H51 UNL     1      19.417  -8.308  -6.225  1.00  0.00     0.277 HD
HETATM   22  C9  UNL     1      18.979  -5.557  -5.103  1.00  0.00     0.144 C 
ENDBRANCH  14  15
ENDBRANCH  13  14
ENDBRANCH   1  13
TORSDOF 8
ENDMDL
MODEL 5
REMARK VINA RESULT: -4.961298824      0.499      1.325
REMARK  8 active torsions:
REMARK  status: ('A' for Active; 'I' for Inactive)
REMARK    1  A    between atoms: N1_1  and  C1_5 
REMARK    2  A    between atoms: C1_5  and  C2_6 
REMARK    3  A    between atoms: C2_6  and  N2_7 
REMARK    4  A    between atoms: N2_7  and  C3_9 
REMARK    5  A    between atoms: C3_9  and  N3_11 
REMARK    6  A    between atoms: N3_11  and  C4_13 
REMARK    7  A    between atoms: C4_13  and  C5_14 
REMARK    8  A    between atoms: C5_14  and  N4_15 
ROOT
HETATM    1  N3  UNL     1      17.177  -6.413  -2.440  1.00  0.00    -0.366 N 
ATOM      2  H3  UNL     1      16.255  -6.146  -2.786  1.00  0.00     0.161 HD
ENDROOT
BRANCH   1   3
HETATM    3  C3  UNL     1      18.255  -6.386  -3.324  1.00  0.00     0.167 C 
HETATM    4  S1  UNL     1      18.800  -4.883  -3.775  1.00  0.00    -0.041 SA
BRANCH   3   5
HETATM    5  N2  UNL     1      18.930  -7.501  -3.872  1.00  0.00    -0.366 N 
ATOM      6  H2  UNL     1      18.515  -8.432  -3.844  1.00  0.00     0.161 HD
BRANCH   5   7
HETATM    7  C2  UNL     1      20.240  -7.282  -4.481  1.00  0.00     0.149 C 
BRANCH   7   8
HETATM    8  C1  UNL     1      20.287  -7.693  -5.915  1.00  0.00     0.249 C 
BRANCH   8   9
HETATM    9  N1  UNL     1      19.848  -6.525  -6.697  1.00  0.00    -0.078 N 
ATOM     10  H13 UNL     1      19.199  -5.921  -6.192  1.00  0.00     0.274 HD
ATOM     11  H12 UNL     1      20.584  -5.832  -6.836  1.00  0.00     0.274 HD
ATOM     12  H11 UNL     1      19.466  -6.890  -7.570  1.00  0.00     0.274 HD
ENDBRANCH   8   9
ENDBRANCH   7   8
ENDBRANCH   5   7
ENDBRANCH   3   5
ENDBRANCH   1   3
BRANCH   1  13
HETATM   13  C4  UNL     1      17.309  -6.800  -1.059  1.00  0.00     0.141 C 
BRANCH  13  14
HETATM   14  C5  UNL     1      18.120  -5.780  -0.335  1.00  0.00     0.136 C 
BRANCH  14  15
HETATM   15  N4  UNL     1      19.395  -6.254   0.138  1.00  0.00    -0.408 N 
HETATM   16  C6  UNL     1      20.504  -6.000  -0.715  1.00  0.00     0.144 C 
HETATM   17  C7  UNL     1      21.576  -7.038  -0.349  1.00  0.00     0.251 C 
HETATM   18  N5  UNL     1      21.703  -7.054   1.115  1.00  0.00    -0.072 N 
HETATM   19  C8  UNL     1      20.526  -7.700   1.663  1.00  0.00     0.251 C 
ATOM     20  H52 UNL     1      22.572  -7.486   1.430  1.00  0.00     0.277 HD
ATOM     21  H51 UNL     1      21.861  -6.125   1.507  1.00  0.00     0.277 HD
HETATM   22  C9  UNL     1      19.346  -7.561   0.715  1.00  0.00     0.144 C 
ENDBRANCH  14  15
ENDBRANCH  13  14
ENDBRANCH   1  13
TORSDOF 8
ENDMDL
