MODEL 1
REMARK VINA RESULT: -5.552999058      0.000      0.000
REMARK  6 active torsions:
REMARK  status: ('A' for Active; 'I' for Inactive)
REMARK    1  A    between atoms: C3_3  and  N1_4 
REMARK    2  A    between atoms: N1_4  and  C4_5 
REMARK    3  A    between atoms: N1_4  and  C6_9 
REMARK    4  A    between atoms: C4_5  and  C5_6 
REMARK    5  A    between atoms: C5_6  and  O1_7 
REMARK    6  A    between atoms: C9_12  and  N2_13 
ROOT
HETATM    1  C1  UNL     1      17.233  -7.817   4.939  1.00  0.00     0.018 C 
HETATM    2  C2  UNL     1      17.576  -8.147   3.827  1.00  0.00    -0.072 C 
HETATM    3  C3  UNL     1      17.967  -8.568   2.474  1.00  0.00     0.150 C 
ENDROOT
BRANCH   3   4
HETATM    4  N1  UNL     1      17.895  -7.522   1.566  1.00  0.00    -0.376 N 
BRANCH   4   5
HETATM    5  C4  UNL     1      16.734  -6.712   1.526  1.00  0.00     0.149 C 
BRANCH   5   6
HETATM    6  C5  UNL     1      15.468  -7.413   1.106  1.00  0.00     0.183 C 
BRANCH   6   7
HETATM    7  O1  UNL     1      15.315  -7.416  -0.271  1.00  0.00    -0.399 OA
ATOM      8  H1  UNL     1      14.603  -7.982  -0.546  1.00  0.00     0.209 HD
ENDBRANCH   6   7
ENDBRANCH   5   6
ENDBRANCH   4   5
BRANCH   4   9
HETATM    9  C6  UNL     1      18.845  -7.325   0.581  1.00  0.00     0.086 C 
HETATM   10  C7  UNL     1      20.203  -6.777   1.055  1.00  0.00     0.027 C 
HETATM   11  C8  UNL     1      20.897  -6.824  -0.324  1.00  0.00     0.027 C 
HETATM   12  C9  UNL     1      19.866  -6.114  -1.186  1.00  0.00     0.085 C 
HETATM   13  C11 UNL     1      18.523  -6.266  -0.440  1.00  0.00     0.050 C 
BRANCH  12  14
HETATM   14  N2  UNL     1      19.804  -6.769  -2.458  1.00  0.00    -0.362 N 
HETATM   15  C10 UNL     1      19.455  -6.123  -3.501  1.00  0.00     0.197 C 
HETATM   16  N3  UNL     1      19.399  -6.793  -4.761  1.00  0.00    -0.067 NA
HETATM   17  N4  UNL     1      19.119  -4.738  -3.469  1.00  0.00    -0.067 NA
ATOM     18  H2  UNL     1      20.041  -7.758  -2.531  1.00  0.00     0.162 HD
ENDBRANCH  12  14
ENDBRANCH   4   9
ENDBRANCH   3   4
TORSDOF 6
ENDMDL
MODEL 2
REMARK VINA RESULT: -5.182274372      1.883      2.887
REMARK  6 active torsions:
REMARK  status: ('A' for Active; 'I' for Inactive)
REMARK    1  A    between atoms: C3_3  and  N1_4 
REMARK    2  A    between atoms: N1_4  and  C4_5 
REMARK    3  A    between atoms: N1_4  and  C6_9 
REMARK    4  A    between atoms: C4_5  and  C5_6 
REMARK    5  A    between atoms: C5_6  and  O1_7 
REMARK    6  A    between atoms: C9_12  and  N2_13 
ROOT
HETATM    1  C1  UNL     1      20.996  -7.355   0.606  1.00  0.00     0.018 C 
HETATM    2  C2  UNL     1      19.802  -7.395   0.798  1.00  0.00    -0.072 C 
HETATM    3  C3  UNL     1      18.355  -7.418   1.055  1.00  0.00     0.150 C 
ENDROOT
BRANCH   3   4
HETATM    4  N1  UNL     1      17.626  -7.043  -0.064  1.00  0.00    -0.376 N 
BRANCH   4   5
HETATM    5  C4  UNL     1      16.212  -7.110  -0.030  1.00  0.00     0.149 C 
BRANCH   5   6
HETATM    6  C5  UNL     1      15.598  -7.142   1.346  1.00  0.00     0.183 C 
BRANCH   6   7
HETATM    7  O1  UNL     1      14.267  -7.526   1.305  1.00  0.00    -0.399 OA
ATOM      8  H1  UNL     1      14.097  -8.268   1.874  1.00  0.00     0.209 HD
ENDBRANCH   6   7
ENDBRANCH   5   6
ENDBRANCH   4   5
BRANCH   4   9
HETATM    9  C6  UNL     1      18.223  -6.751  -1.278  1.00  0.00     0.086 C 
HETATM   10  C7  UNL     1      17.975  -5.334  -1.826  1.00  0.00     0.027 C 
HETATM   11  C8  UNL     1      18.876  -5.476  -3.073  1.00  0.00     0.027 C 
HETATM   12  C9  UNL     1      18.368  -6.788  -3.645  1.00  0.00     0.085 C 
HETATM   13  C11 UNL     1      17.724  -7.539  -2.460  1.00  0.00     0.050 C 
BRANCH  12  14
HETATM   14  N2  UNL     1      19.484  -7.528  -4.153  1.00  0.00    -0.362 N 
HETATM   15  C10 UNL     1      19.900  -7.336  -5.344  1.00  0.00     0.197 C 
HETATM   16  N3  UNL     1      21.013  -8.084  -5.833  1.00  0.00    -0.067 NA
HETATM   17  N4  UNL     1      19.297  -6.388  -6.222  1.00  0.00    -0.067 NA
ATOM     18  H2  UNL     1      19.949  -8.214  -3.560  1.00  0.00     0.162 HD
ENDBRANCH  12  14
ENDBRANCH   4   9
ENDBRANCH   3   4
TORSDOF 6
ENDMDL
MODEL 3
REMARK VINA RESULT: -5.057432838      1.654      5.789
REMARK  6 active torsions:
REMARK  status: ('A' for Active; 'I' for Inactive)
REMARK    1  A    between atoms: C3_3  and  N1_4 
REMARK    2  A    between atoms: N1_4  and  C4_5 
REMARK    3  A    between atoms: N1_4  and  C6_9 
REMARK    4  A    between atoms: C4_5  and  C5_6 
REMARK    5  A    between atoms: C5_6  and  O1_7 
REMARK    6  A    between atoms: C9_12  and  N2_13 
ROOT
HETATM    1  C1  UNL     1      19.123  -6.348  -5.407  1.00  0.00     0.018 C 
HETATM    2  C2  UNL     1      19.457  -6.378  -4.245  1.00  0.00    -0.072 C 
HETATM    3  C3  UNL     1      19.882  -6.387  -2.838  1.00  0.00     0.150 C 
ENDROOT
BRANCH   3   4
HETATM    4  N1  UNL     1      18.823  -6.146  -1.976  1.00  0.00    -0.376 N 
BRANCH   4   5
HETATM    5  C4  UNL     1      17.681  -5.456  -2.450  1.00  0.00     0.149 C 
BRANCH   5   6
HETATM    6  C5  UNL     1      16.533  -6.327  -2.890  1.00  0.00     0.183 C 
BRANCH   6   7
HETATM    7  O1  UNL     1      15.618  -6.526  -1.868  1.00  0.00    -0.399 OA
ATOM      8  H1  UNL     1      15.103  -7.313  -2.004  1.00  0.00     0.209 HD
ENDBRANCH   6   7
ENDBRANCH   5   6
ENDBRANCH   4   5
BRANCH   4   9
HETATM    9  C6  UNL     1      18.892  -6.412  -0.620  1.00  0.00     0.086 C 
HETATM   10  C7  UNL     1      20.307  -6.485  -0.020  1.00  0.00     0.027 C 
HETATM   11  C8  UNL     1      19.861  -6.697   1.443  1.00  0.00     0.027 C 
HETATM   12  C9  UNL     1      18.869  -7.836   1.277  1.00  0.00     0.085 C 
HETATM   13  C11 UNL     1      18.398  -7.768  -0.191  1.00  0.00     0.050 C 
BRANCH  12  14
HETATM   14  N2  UNL     1      17.766  -7.616   2.163  1.00  0.00    -0.362 N 
HETATM   15  C10 UNL     1      17.773  -8.107   3.340  1.00  0.00     0.197 C 
HETATM   16  N3  UNL     1      16.664  -7.878   4.208  1.00  0.00    -0.067 NA
HETATM   17  N4  UNL     1      18.860  -8.884   3.839  1.00  0.00    -0.067 NA
ATOM     18  H2  UNL     1      16.968  -7.062   1.851  1.00  0.00     0.162 HD
ENDBRANCH  12  14
ENDBRANCH   4   9
ENDBRANCH   3   4
TORSDOF 6
ENDMDL
MODEL 4
REMARK VINA RESULT: -4.894138012      1.305      2.306
REMARK  6 active torsions:
REMARK  status: ('A' for Active; 'I' for Inactive)
REMARK    1  A    between atoms: C3_3  and  N1_4 
REMARK    2  A    between atoms: N1_4  and  C4_5 
REMARK    3  A    between atoms: N1_4  and  C6_9 
REMARK    4  A    between atoms: C4_5  and  C5_6 
REMARK    5  A    between atoms: C5_6  and  O1_7 
REMARK    6  A    between atoms: C9_12  and  N2_13 
ROOT
HETATM    1  C1  UNL     1      14.472  -7.619   1.100  1.00  0.00     0.018 C 
HETATM    2  C2  UNL     1      15.549  -7.153   1.395  1.00  0.00    -0.072 C 
HETATM    3  C3  UNL     1      16.847  -6.583   1.785  1.00  0.00     0.150 C 
ENDROOT
BRANCH   3   4
HETATM    4  N1  UNL     1      17.880  -7.495   1.623  1.00  0.00    -0.376 N 
BRANCH   4   5
HETATM    5  C4  UNL     1      18.041  -8.541   2.564  1.00  0.00     0.149 C 
BRANCH   5   6
HETATM    6  C5  UNL     1      17.778  -8.167   4.000  1.00  0.00     0.183 C 
BRANCH   6   7
HETATM    7  O1  UNL     1      16.566  -8.669   4.447  1.00  0.00    -0.399 OA
ATOM      8  H1  UNL     1      16.453  -8.536   5.381  1.00  0.00     0.209 HD
ENDBRANCH   6   7
ENDBRANCH   5   6
ENDBRANCH   4   5
BRANCH   4   9
HETATM    9  C6  UNL     1      18.867  -7.338   0.666  1.00  0.00     0.086 C 
HETATM   10  C7  UNL     1      20.226  -6.827   1.177  1.00  0.00     0.027 C 
HETATM   11  C8  UNL     1      20.959  -6.910  -0.180  1.00  0.00     0.027 C 
HETATM   12  C9  UNL     1      19.978  -6.178  -1.079  1.00  0.00     0.085 C 
HETATM   13  C11 UNL     1      18.609  -6.281  -0.375  1.00  0.00     0.050 C 
BRANCH  12  14
HETATM   14  N2  UNL     1      19.935  -6.844  -2.347  1.00  0.00    -0.362 N 
HETATM   15  C10 UNL     1      19.533  -6.228  -3.388  1.00  0.00     0.197 C 
HETATM   16  N3  UNL     1      19.496  -6.908  -4.642  1.00  0.00    -0.067 NA
HETATM   17  N4  UNL     1      19.116  -4.864  -3.359  1.00  0.00    -0.067 NA
ATOM     18  H2  UNL     1      20.229  -7.818  -2.417  1.00  0.00     0.162 HD
ENDBRANCH  12  14
ENDBRANCH   4   9
ENDBRANCH   3   4
TORSDOF 6
ENDMDL
MODEL 5
REMARK VINA RESULT: -4.574828884      2.241      6.008
REMARK  6 active torsions:
REMARK  status: ('A' for Active; 'I' for Inactive)
REMARK    1  A    between atoms: C3_3  and  N1_4 
REMARK    2  A    between atoms: N1_4  and  C4_5 
REMARK    3  A    between atoms: N1_4  and  C6_9 
REMARK    4  A    between atoms: C4_5  and  C5_6 
REMARK    5  A    between atoms: C5_6  and  O1_7 
REMARK    6  A    between atoms: C9_12  and  N2_13 
ROOT
HETATM    1  C1  UNL     1      21.667  -6.910  -0.359  1.00  0.00     0.018 C 
HETATM    2  C2  UNL     1      20.542  -6.466  -0.356  1.00  0.00    -0.072 C 
HETATM    3  C3  UNL     1      19.176  -5.926  -0.387  1.00  0.00     0.150 C 
ENDROOT
BRANCH   3   4
HETATM    4  N1  UNL     1      18.244  -6.849   0.065  1.00  0.00    -0.376 N 
BRANCH   4   5
HETATM    5  C4  UNL     1      17.325  -7.418  -0.850  1.00  0.00     0.149 C 
BRANCH   5   6
HETATM    6  C5  UNL     1      17.078  -6.617  -2.102  1.00  0.00     0.183 C 
BRANCH   6   7
HETATM    7  O1  UNL     1      15.739  -6.293  -2.248  1.00  0.00    -0.399 OA
ATOM      8  H1  UNL     1      15.441  -5.706  -1.562  1.00  0.00     0.209 HD
ENDBRANCH   6   7
ENDBRANCH   5   6
ENDBRANCH   4   5
BRANCH   4   9
HETATM    9  C6  UNL     1      18.064  -7.127   1.408  1.00  0.00     0.086 C 
HETATM   10  C7  UNL     1      18.751  -8.403   1.929  1.00  0.00     0.027 C 
HETATM   11  C8  UNL     1      18.346  -8.221   3.409  1.00  0.00     0.027 C 
HETATM   12  C9  UNL     1      16.854  -7.969   3.267  1.00  0.00     0.085 C 
HETATM   13  C11 UNL     1      16.654  -7.446   1.829  1.00  0.00     0.050 C 
BRANCH  12  14
HETATM   14  N2  UNL     1      16.467  -6.969   4.217  1.00  0.00    -0.362 N 
HETATM   15  C10 UNL     1      16.711  -7.127   5.459  1.00  0.00     0.197 C 
HETATM   16  N3  UNL     1      16.316  -6.120   6.390  1.00  0.00    -0.067 NA
HETATM   17  N4  UNL     1      17.377  -8.281   5.968  1.00  0.00    -0.067 NA
ATOM     18  H2  UNL     1      15.992  -6.125   3.898  1.00  0.00     0.162 HD
ENDBRANCH  12  14
ENDBRANCH   4   9
ENDBRANCH   3   4
TORSDOF 6
ENDMDL
