MODEL 1
REMARK VINA RESULT: -6.495186859      0.000      0.000
REMARK  7 active torsions:
REMARK  status: ('A' for Active; 'I' for Inactive)
REMARK    1  A    between atoms: N3_10  and  C5_11 
REMARK    2  A    between atoms: C5_11  and  C6_12 
REMARK    3  A    between atoms: C6_12  and  O1_13 
REMARK    4  A    between atoms: O1_13  and  C7_14 
REMARK    5  A    between atoms: C7_14  and  C8_15 
REMARK    6  A    between atoms: C8_15  and  N4_16 
REMARK    7  A    between atoms: N4_16  and  N5_17 
ROOT
HETATM    1  N1  UNL     1       1.990  16.707 -14.457  1.00  0.00    -0.234 N 
ATOM      2  H11 UNL     1       2.292  16.704 -13.483  1.00  0.00     0.174 HD
ATOM      3  H12 UNL     1       1.700  15.845 -14.919  1.00  0.00     0.174 HD
HETATM    4  C1  UNL     1       1.987  17.828 -15.093  1.00  0.00     0.677 A 
HETATM    5  N2  UNL     1       1.578  17.833 -16.408  1.00  0.00    -0.202 N 
ATOM      6  H2  UNL     1       1.295  16.956 -16.845  1.00  0.00     0.183 HD
HETATM    7  C2  UNL     1       1.542  18.963 -17.128  1.00  0.00     0.107 A 
HETATM    8  C3  UNL     1       1.927  20.129 -16.522  1.00  0.00     0.035 A 
HETATM    9  C4  UNL     1       2.334  20.113 -15.210  1.00  0.00     0.110 A 
HETATM   10  N3  UNL     1       2.365  18.954 -14.489  1.00  0.00    -0.192 N 
ENDROOT
BRANCH  10  11
HETATM   11  C5  UNL     1       2.811  18.982 -13.111  1.00  0.00     0.173 C 
BRANCH  11  12
HETATM   12  C6  UNL     1       4.177  19.620 -12.985  1.00  0.00     0.188 C 
BRANCH  12  13
HETATM   13  O1  UNL     1       4.762  19.290 -11.808  1.00  0.00    -0.388 OA
BRANCH  13  14
HETATM   14  C7  UNL     1       4.599  20.243 -10.850  1.00  0.00     0.185 C 
BRANCH  14  15
HETATM   15  C8  UNL     1       4.265  19.611  -9.483  1.00  0.00     0.160 C 
BRANCH  15  16
HETATM   16  N4  UNL     1       4.178  18.176  -9.725  1.00  0.00    -0.146 NA
BRANCH  16  17
HETATM   17  N5  UNL     1       2.878  17.723  -9.826  1.00  0.00    -0.348 N 
ATOM     18  H52 UNL     1       2.087  18.231  -9.432  1.00  0.00     0.172 HD
ATOM     19  H51 UNL     1       2.801  16.839 -10.331  1.00  0.00     0.172 HD
ENDBRANCH  16  17
ENDBRANCH  15  16
ENDBRANCH  14  15
ENDBRANCH  13  14
ENDBRANCH  12  13
ENDBRANCH  11  12
ENDBRANCH  10  11
TORSDOF 7
ENDMDL
MODEL 2
REMARK VINA RESULT: -6.365086636      2.096      6.074
REMARK  7 active torsions:
REMARK  status: ('A' for Active; 'I' for Inactive)
REMARK    1  A    between atoms: N3_10  and  C5_11 
REMARK    2  A    between atoms: C5_11  and  C6_12 
REMARK    3  A    between atoms: C6_12  and  O1_13 
REMARK    4  A    between atoms: O1_13  and  C7_14 
REMARK    5  A    between atoms: C7_14  and  C8_15 
REMARK    6  A    between atoms: C8_15  and  N4_16 
REMARK    7  A    between atoms: N4_16  and  N5_17 
ROOT
HETATM    1  N1  UNL     1       5.408  20.850 -11.878  1.00  0.00    -0.234 N 
ATOM      2  H11 UNL     1       5.337  20.911 -12.893  1.00  0.00     0.174 HD
ATOM      3  H12 UNL     1       6.154  21.331 -11.375  1.00  0.00     0.174 HD
HETATM    4  C1  UNL     1       4.535  20.146 -11.244  1.00  0.00     0.677 A 
HETATM    5  N2  UNL     1       4.630  20.064  -9.872  1.00  0.00    -0.202 N 
ATOM      6  H2  UNL     1       5.387  20.553  -9.396  1.00  0.00     0.183 HD
HETATM    7  C2  UNL     1       3.752  19.356  -9.149  1.00  0.00     0.107 A 
HETATM    8  C3  UNL     1       2.744  18.706  -9.809  1.00  0.00     0.035 A 
HETATM    9  C4  UNL     1       2.658  18.793 -11.177  1.00  0.00     0.110 A 
HETATM   10  N3  UNL     1       3.560  19.519 -11.901  1.00  0.00    -0.192 N 
ENDROOT
BRANCH  10  11
HETATM   11  C5  UNL     1       3.437  19.575 -13.344  1.00  0.00     0.173 C 
BRANCH  11  12
HETATM   12  C6  UNL     1       2.796  18.321 -13.894  1.00  0.00     0.188 C 
BRANCH  12  13
HETATM   13  O1  UNL     1       2.021  18.601 -14.969  1.00  0.00    -0.388 OA
BRANCH  13  14
HETATM   14  C7  UNL     1       2.711  19.201 -15.978  1.00  0.00     0.185 C 
BRANCH  14  15
HETATM   15  C8  UNL     1       1.787  20.089 -16.838  1.00  0.00     0.160 C 
BRANCH  15  16
HETATM   16  N4  UNL     1       1.264  19.215 -17.882  1.00  0.00    -0.146 NA
BRANCH  16  17
HETATM   17  N5  UNL     1       0.437  18.224 -17.393  1.00  0.00    -0.348 N 
ATOM     18  H52 UNL     1       0.720  17.246 -17.345  1.00  0.00     0.172 HD
ATOM     19  H51 UNL     1      -0.472  18.575 -17.091  1.00  0.00     0.172 HD
ENDBRANCH  16  17
ENDBRANCH  15  16
ENDBRANCH  14  15
ENDBRANCH  13  14
ENDBRANCH  12  13
ENDBRANCH  11  12
ENDBRANCH  10  11
TORSDOF 7
ENDMDL
MODEL 3
REMARK VINA RESULT: -6.349997422      2.462      3.562
REMARK  7 active torsions:
REMARK  status: ('A' for Active; 'I' for Inactive)
REMARK    1  A    between atoms: N3_10  and  C5_11 
REMARK    2  A    between atoms: C5_11  and  C6_12 
REMARK    3  A    between atoms: C6_12  and  O1_13 
REMARK    4  A    between atoms: O1_13  and  C7_14 
REMARK    5  A    between atoms: C7_14  and  C8_15 
REMARK    6  A    between atoms: C8_15  and  N4_16 
REMARK    7  A    between atoms: N4_16  and  N5_17 
ROOT
HETATM    1  N1  UNL     1       4.097  22.298 -13.422  1.00  0.00    -0.234 N 
ATOM      2  H11 UNL     1       4.609  22.534 -12.572  1.00  0.00     0.174 HD
ATOM      3  H12 UNL     1       3.925  22.999 -14.142  1.00  0.00     0.174 HD
HETATM    4  C1  UNL     1       3.668  21.091 -13.563  1.00  0.00     0.677 A 
HETATM    5  N2  UNL     1       2.977  20.771 -14.711  1.00  0.00    -0.202 N 
ATOM      6  H2  UNL     1       2.818  21.493 -15.413  1.00  0.00     0.183 HD
HETATM    7  C2  UNL     1       2.509  19.535 -14.927  1.00  0.00     0.107 A 
HETATM    8  C3  UNL     1       2.733  18.581 -13.971  1.00  0.00     0.035 A 
HETATM    9  C4  UNL     1       3.422  18.910 -12.828  1.00  0.00     0.110 A 
HETATM   10  N3  UNL     1       3.894  20.174 -12.622  1.00  0.00    -0.192 N 
ENDROOT
BRANCH  10  11
HETATM   11  C5  UNL     1       4.607  20.480 -11.398  1.00  0.00     0.173 C 
BRANCH  11  12
HETATM   12  C6  UNL     1       4.051  19.703 -10.226  1.00  0.00     0.188 C 
BRANCH  12  13
HETATM   13  O1  UNL     1       5.023  19.417  -9.326  1.00  0.00    -0.388 OA
BRANCH  13  14
HETATM   14  C7  UNL     1       4.585  19.468  -8.038  1.00  0.00     0.185 C 
BRANCH  14  15
HETATM   15  C8  UNL     1       3.529  20.578  -7.849  1.00  0.00     0.160 C 
BRANCH  15  16
HETATM   16  N4  UNL     1       3.823  21.183  -6.556  1.00  0.00    -0.146 NA
BRANCH  16  17
HETATM   17  N5  UNL     1       4.323  20.281  -5.638  1.00  0.00    -0.348 N 
ATOM     18  H52 UNL     1       3.839  19.417  -5.398  1.00  0.00     0.172 HD
ATOM     19  H51 UNL     1       5.214  20.573  -5.236  1.00  0.00     0.172 HD
ENDBRANCH  16  17
ENDBRANCH  15  16
ENDBRANCH  14  15
ENDBRANCH  13  14
ENDBRANCH  12  13
ENDBRANCH  11  12
ENDBRANCH  10  11
TORSDOF 7
ENDMDL
MODEL 4
REMARK VINA RESULT: -6.168956545      1.107      1.196
REMARK  7 active torsions:
REMARK  status: ('A' for Active; 'I' for Inactive)
REMARK    1  A    between atoms: N3_10  and  C5_11 
REMARK    2  A    between atoms: C5_11  and  C6_12 
REMARK    3  A    between atoms: C6_12  and  O1_13 
REMARK    4  A    between atoms: O1_13  and  C7_14 
REMARK    5  A    between atoms: C7_14  and  C8_15 
REMARK    6  A    between atoms: C8_15  and  N4_16 
REMARK    7  A    between atoms: N4_16  and  N5_17 
ROOT
HETATM    1  N1  UNL     1       1.933  16.655 -14.355  1.00  0.00    -0.234 N 
ATOM      2  H11 UNL     1       2.184  16.625 -13.367  1.00  0.00     0.174 HD
ATOM      3  H12 UNL     1       1.629  15.812 -14.844  1.00  0.00     0.174 HD
HETATM    4  C1  UNL     1       2.014  17.782 -14.974  1.00  0.00     0.677 A 
HETATM    5  N2  UNL     1       1.675  17.821 -16.309  1.00  0.00    -0.202 N 
ATOM      6  H2  UNL     1       1.377  16.964 -16.772  1.00  0.00     0.183 HD
HETATM    7  C2  UNL     1       1.728  18.960 -17.013  1.00  0.00     0.107 A 
HETATM    8  C3  UNL     1       2.133  20.100 -16.372  1.00  0.00     0.035 A 
HETATM    9  C4  UNL     1       2.470  20.050 -15.040  1.00  0.00     0.110 A 
HETATM   10  N3  UNL     1       2.410  18.882 -14.336  1.00  0.00    -0.192 N 
ENDROOT
BRANCH  10  11
HETATM   11  C5  UNL     1       2.785  18.873 -12.936  1.00  0.00     0.173 C 
BRANCH  11  12
HETATM   12  C6  UNL     1       4.212  19.334 -12.743  1.00  0.00     0.188 C 
BRANCH  12  13
HETATM   13  O1  UNL     1       4.613  19.154 -11.461  1.00  0.00    -0.388 OA
BRANCH  13  14
HETATM   14  C7  UNL     1       3.582  18.867 -10.618  1.00  0.00     0.185 C 
BRANCH  14  15
HETATM   15  C8  UNL     1       4.095  18.502  -9.210  1.00  0.00     0.160 C 
BRANCH  15  16
HETATM   16  N4  UNL     1       4.578  19.750  -8.632  1.00  0.00    -0.146 NA
BRANCH  16  17
HETATM   17  N5  UNL     1       3.793  20.837  -8.960  1.00  0.00    -0.348 N 
ATOM     18  H52 UNL     1       2.923  20.748  -9.483  1.00  0.00     0.172 HD
ATOM     19  H51 UNL     1       4.175  21.722  -8.624  1.00  0.00     0.172 HD
ENDBRANCH  16  17
ENDBRANCH  15  16
ENDBRANCH  14  15
ENDBRANCH  13  14
ENDBRANCH  12  13
ENDBRANCH  11  12
ENDBRANCH  10  11
TORSDOF 7
ENDMDL
MODEL 5
REMARK VINA RESULT: -6.167976578      2.032      5.753
REMARK  7 active torsions:
REMARK  status: ('A' for Active; 'I' for Inactive)
REMARK    1  A    between atoms: N3_10  and  C5_11 
REMARK    2  A    between atoms: C5_11  and  C6_12 
REMARK    3  A    between atoms: C6_12  and  O1_13 
REMARK    4  A    between atoms: O1_13  and  C7_14 
REMARK    5  A    between atoms: C7_14  and  C8_15 
REMARK    6  A    between atoms: C8_15  and  N4_16 
REMARK    7  A    between atoms: N4_16  and  N5_17 
ROOT
HETATM    1  N1  UNL     1       2.027  17.987 -11.388  1.00  0.00    -0.234 N 
ATOM      2  H11 UNL     1       1.649  17.572 -12.240  1.00  0.00     0.174 HD
ATOM      3  H12 UNL     1       1.712  17.676 -10.469  1.00  0.00     0.174 HD
HETATM    4  C1  UNL     1       2.911  18.918 -11.501  1.00  0.00     0.677 A 
HETATM    5  N2  UNL     1       3.422  19.478 -10.351  1.00  0.00    -0.202 N 
ATOM      6  H2  UNL     1       3.087  19.150  -9.446  1.00  0.00     0.183 HD
HETATM    7  C2  UNL     1       4.348  20.445 -10.393  1.00  0.00     0.107 A 
HETATM    8  C3  UNL     1       4.783  20.872 -11.619  1.00  0.00     0.035 A 
HETATM    9  C4  UNL     1       4.267  20.308 -12.760  1.00  0.00     0.110 A 
HETATM   10  N3  UNL     1       3.324  19.323 -12.702  1.00  0.00    -0.192 N 
ENDROOT
BRANCH  10  11
HETATM   11  C5  UNL     1       2.799  18.763 -13.931  1.00  0.00     0.173 C 
BRANCH  11  12
HETATM   12  C6  UNL     1       2.448  19.846 -14.926  1.00  0.00     0.188 C 
BRANCH  12  13
HETATM   13  O1  UNL     1       2.839  19.503 -16.177  1.00  0.00    -0.388 OA
BRANCH  13  14
HETATM   14  C7  UNL     1       2.628  18.187 -16.457  1.00  0.00     0.185 C 
BRANCH  14  15
HETATM   15  C8  UNL     1       2.342  17.973 -17.958  1.00  0.00     0.160 C 
BRANCH  15  16
HETATM   16  N4  UNL     1       1.033  18.569 -18.197  1.00  0.00    -0.146 NA
BRANCH  16  17
HETATM   17  N5  UNL     1       0.121  18.289 -17.200  1.00  0.00    -0.348 N 
ATOM     18  H52 UNL     1       0.160  17.436 -16.644  1.00  0.00     0.172 HD
ATOM     19  H51 UNL     1      -0.582  19.020 -17.084  1.00  0.00     0.172 HD
ENDBRANCH  16  17
ENDBRANCH  15  16
ENDBRANCH  14  15
ENDBRANCH  13  14
ENDBRANCH  12  13
ENDBRANCH  11  12
ENDBRANCH  10  11
TORSDOF 7
ENDMDL
