MODEL 1
REMARK VINA RESULT: -6.745359388      0.000      0.000
REMARK  8 active torsions:
REMARK  status: ('A' for Active; 'I' for Inactive)
REMARK    1  A    between atoms: O1_1  and  N1_3 
REMARK    2  A    between atoms: C1_5  and  N2_6 
REMARK    3  A    between atoms: N2_6  and  C2_8 
REMARK    4  A    between atoms: C2_8  and  C3_9 
REMARK    5  A    between atoms: C3_9  and  N3_10 
REMARK    6  A    between atoms: N3_10  and  C4_13 
REMARK    7  A    between atoms: C4_13  and  C5_14 
REMARK    8  A    between atoms: C5_14  and  N4_15 
ROOT
HETATM    1  N3  UNL     1       3.825  18.588 -11.775  1.00  0.00    -0.072 N 
ATOM      2  H31 UNL     1       4.807  18.730 -12.012  1.00  0.00     0.277 HD
ATOM      3  H32 UNL     1       3.816  17.579 -11.918  1.00  0.00     0.277 HD
ENDROOT
BRANCH   1   4
HETATM    4  C3  UNL     1       2.890  19.321 -12.644  1.00  0.00     0.251 C 
BRANCH   4   5
HETATM    5  C2  UNL     1       2.699  18.720 -13.976  1.00  0.00     0.148 C 
BRANCH   5   6
HETATM    6  N2  UNL     1       2.293  19.678 -14.968  1.00  0.00    -0.383 N 
ATOM      7  H2  UNL     1       2.398  20.670 -14.756  1.00  0.00     0.160 HD
BRANCH   6   8
HETATM    8  C1  UNL     1       1.761  19.316 -16.213  1.00  0.00     0.199 C 
HETATM    9  N1  UNL     1       0.711  18.601 -16.371  1.00  0.00    -0.265 N 
ATOM     10  H1  UNL     1       0.216  18.269 -15.544  1.00  0.00     0.194 HD
BRANCH   9  11
HETATM   11  O1  UNL     1       0.221  18.263 -17.619  1.00  0.00    -0.289 OA
ATOM     12  H1  UNL     1       0.327  17.396 -17.992  1.00  0.00     0.244 HD
ENDBRANCH   9  11
ENDBRANCH   6   8
ENDBRANCH   5   6
ENDBRANCH   4   5
ENDBRANCH   1   4
BRANCH   1  13
HETATM   13  C4  UNL     1       3.482  18.994 -10.424  1.00  0.00     0.252 C 
BRANCH  13  14
HETATM   14  C5  UNL     1       4.219  20.146  -9.872  1.00  0.00     0.156 C 
BRANCH  14  15
HETATM   15  N4  UNL     1       4.067  20.409  -8.470  1.00  0.00    -0.350 N 
HETATM   16  C6  UNL     1       4.536  19.532  -7.516  1.00  0.00     0.108 A 
HETATM   17  C7  UNL     1       4.255  20.053  -6.280  1.00  0.00     0.106 A 
HETATM   18  N5  UNL     1       3.628  21.220  -6.443  1.00  0.00    -0.361 N 
HETATM   19  C8  UNL     1       3.531  21.403  -7.793  1.00  0.00     0.182 A 
ATOM     20  H5  UNL     1       3.291  21.846  -5.710  1.00  0.00     0.166 HD
ENDBRANCH  14  15
ENDBRANCH  13  14
ENDBRANCH   1  13
TORSDOF 8
ENDMDL
MODEL 2
REMARK VINA RESULT: -6.634217997      0.656      1.081
REMARK  8 active torsions:
REMARK  status: ('A' for Active; 'I' for Inactive)
REMARK    1  A    between atoms: O1_1  and  N1_3 
REMARK    2  A    between atoms: C1_5  and  N2_6 
REMARK    3  A    between atoms: N2_6  and  C2_8 
REMARK    4  A    between atoms: C2_8  and  C3_9 
REMARK    5  A    between atoms: C3_9  and  N3_10 
REMARK    6  A    between atoms: N3_10  and  C4_13 
REMARK    7  A    between atoms: C4_13  and  C5_14 
REMARK    8  A    between atoms: C5_14  and  N4_15 
ROOT
HETATM    1  N3  UNL     1       3.794  18.570 -11.549  1.00  0.00    -0.072 N 
ATOM      2  H31 UNL     1       4.794  18.765 -11.605  1.00  0.00     0.277 HD
ATOM      3  H32 UNL     1       3.857  17.575 -11.762  1.00  0.00     0.277 HD
ENDROOT
BRANCH   1   4
HETATM    4  C3  UNL     1       2.982  19.334 -12.510  1.00  0.00     0.251 C 
BRANCH   4   5
HETATM    5  C2  UNL     1       2.749  18.645 -13.792  1.00  0.00     0.148 C 
BRANCH   5   6
HETATM    6  N2  UNL     1       2.373  19.544 -14.849  1.00  0.00    -0.383 N 
ATOM      7  H2  UNL     1       2.465  20.547 -14.688  1.00  0.00     0.160 HD
BRANCH   6   8
HETATM    8  C1  UNL     1       1.886  19.110 -16.089  1.00  0.00     0.199 C 
HETATM    9  N1  UNL     1       0.698  18.677 -16.289  1.00  0.00    -0.265 N 
ATOM     10  H1  UNL     1       0.050  18.644 -15.503  1.00  0.00     0.194 HD
BRANCH   9  11
HETATM   11  O1  UNL     1       0.258  18.254 -17.531  1.00  0.00    -0.289 OA
ATOM     12  H1  UNL     1       0.841  18.159 -18.274  1.00  0.00     0.244 HD
ENDBRANCH   9  11
ENDBRANCH   6   8
ENDBRANCH   5   6
ENDBRANCH   4   5
ENDBRANCH   1   4
BRANCH   1  13
HETATM   13  C4  UNL     1       3.211  18.858 -10.250  1.00  0.00     0.252 C 
BRANCH  13  14
HETATM   14  C5  UNL     1       4.081  18.662  -9.076  1.00  0.00     0.156 C 
BRANCH  14  15
HETATM   15  N4  UNL     1       3.986  19.631  -8.022  1.00  0.00    -0.350 N 
HETATM   16  C6  UNL     1       3.548  20.916  -8.260  1.00  0.00     0.108 A 
HETATM   17  C7  UNL     1       3.558  21.599  -7.071  1.00  0.00     0.106 A 
HETATM   18  N5  UNL     1       3.989  20.777  -6.112  1.00  0.00    -0.361 N 
HETATM   19  C8  UNL     1       4.242  19.585  -6.731  1.00  0.00     0.182 A 
ATOM     20  H5  UNL     1       4.106  20.994  -5.122  1.00  0.00     0.166 HD
ENDBRANCH  14  15
ENDBRANCH  13  14
ENDBRANCH   1  13
TORSDOF 8
ENDMDL
MODEL 3
REMARK VINA RESULT: -6.629556885      3.653      7.980
REMARK  8 active torsions:
REMARK  status: ('A' for Active; 'I' for Inactive)
REMARK    1  A    between atoms: O1_1  and  N1_3 
REMARK    2  A    between atoms: C1_5  and  N2_6 
REMARK    3  A    between atoms: N2_6  and  C2_8 
REMARK    4  A    between atoms: C2_8  and  C3_9 
REMARK    5  A    between atoms: C3_9  and  N3_10 
REMARK    6  A    between atoms: N3_10  and  C4_13 
REMARK    7  A    between atoms: C4_13  and  C5_14 
REMARK    8  A    between atoms: C5_14  and  N4_15 
ROOT
HETATM    1  N3  UNL     1       2.747  19.343 -11.773  1.00  0.00    -0.072 N 
ATOM      2  H31 UNL     1       2.128  20.146 -11.656  1.00  0.00     0.277 HD
ATOM      3  H32 UNL     1       2.017  18.665 -11.993  1.00  0.00     0.277 HD
ENDROOT
BRANCH   1   4
HETATM    4  C3  UNL     1       3.526  19.009 -10.570  1.00  0.00     0.251 C 
BRANCH   4   5
HETATM    5  C2  UNL     1       4.270  20.144  -9.994  1.00  0.00     0.148 C 
BRANCH   5   6
HETATM    6  N2  UNL     1       3.719  20.597  -8.746  1.00  0.00    -0.383 N 
ATOM      7  H2  UNL     1       3.012  21.332  -8.767  1.00  0.00     0.160 HD
BRANCH   6   8
HETATM    8  C1  UNL     1       4.106  20.080  -7.502  1.00  0.00     0.199 C 
HETATM    9  N1  UNL     1       3.982  20.702  -6.390  1.00  0.00    -0.265 N 
ATOM     10  H1  UNL     1       3.572  21.635  -6.393  1.00  0.00     0.194 HD
BRANCH   9  11
HETATM   11  O1  UNL     1       4.382  20.156  -5.183  1.00  0.00    -0.289 OA
ATOM     12  H1  UNL     1       4.245  20.596  -4.353  1.00  0.00     0.244 HD
ENDBRANCH   9  11
ENDBRANCH   6   8
ENDBRANCH   5   6
ENDBRANCH   4   5
ENDBRANCH   1   4
BRANCH   1  13
HETATM   13  C4  UNL     1       3.732  19.509 -12.826  1.00  0.00     0.252 C 
BRANCH  13  14
HETATM   14  C5  UNL     1       3.282  20.196 -14.052  1.00  0.00     0.156 C 
BRANCH  14  15
HETATM   15  N4  UNL     1       2.579  19.408 -15.022  1.00  0.00    -0.350 N 
HETATM   16  C6  UNL     1       1.975  19.984 -16.119  1.00  0.00     0.108 A 
HETATM   17  C7  UNL     1       1.395  18.988 -16.861  1.00  0.00     0.106 A 
HETATM   18  N5  UNL     1       1.621  17.820 -16.256  1.00  0.00    -0.361 N 
HETATM   19  C8  UNL     1       2.346  18.117 -15.137  1.00  0.00     0.182 A 
ATOM     20  H5  UNL     1       1.317  16.897 -16.566  1.00  0.00     0.166 HD
ENDBRANCH  14  15
ENDBRANCH  13  14
ENDBRANCH   1  13
TORSDOF 8
ENDMDL
MODEL 4
REMARK VINA RESULT: -6.574717663      3.763      7.660
REMARK  8 active torsions:
REMARK  status: ('A' for Active; 'I' for Inactive)
REMARK    1  A    between atoms: O1_1  and  N1_3 
REMARK    2  A    between atoms: C1_5  and  N2_6 
REMARK    3  A    between atoms: N2_6  and  C2_8 
REMARK    4  A    between atoms: C2_8  and  C3_9 
REMARK    5  A    between atoms: C3_9  and  N3_10 
REMARK    6  A    between atoms: N3_10  and  C4_13 
REMARK    7  A    between atoms: C4_13  and  C5_14 
REMARK    8  A    between atoms: C5_14  and  N4_15 
ROOT
HETATM    1  N3  UNL     1       4.108  20.772 -11.507  1.00  0.00    -0.072 N 
ATOM      2  H31 UNL     1       4.880  21.330 -11.143  1.00  0.00     0.277 HD
ATOM      3  H32 UNL     1       3.378  21.466 -11.351  1.00  0.00     0.277 HD
ENDROOT
BRANCH   1   4
HETATM    4  C3  UNL     1       3.893  19.507 -10.785  1.00  0.00     0.251 C 
BRANCH   4   5
HETATM    5  C2  UNL     1       4.282  19.545  -9.364  1.00  0.00     0.148 C 
BRANCH   5   6
HETATM    6  N2  UNL     1       3.736  20.676  -8.665  1.00  0.00    -0.383 N 
ATOM      7  H2  UNL     1       3.294  21.416  -9.211  1.00  0.00     0.160 HD
BRANCH   6   8
HETATM    8  C1  UNL     1       3.779  20.813  -7.271  1.00  0.00     0.199 C 
HETATM    9  N1  UNL     1       4.380  20.002  -6.483  1.00  0.00    -0.265 N 
ATOM     10  H1  UNL     1       4.866  19.200  -6.883  1.00  0.00     0.194 HD
BRANCH   9  11
HETATM   11  O1  UNL     1       4.394  20.171  -5.110  1.00  0.00    -0.289 OA
ATOM     12  H1  UNL     1       3.996  19.548  -4.515  1.00  0.00     0.244 HD
ENDBRANCH   9  11
ENDBRANCH   6   8
ENDBRANCH   5   6
ENDBRANCH   4   5
ENDBRANCH   1   4
BRANCH   1  13
HETATM   13  C4  UNL     1       4.266  20.388 -12.899  1.00  0.00     0.252 C 
BRANCH  13  14
HETATM   14  C5  UNL     1       3.103  20.603 -13.781  1.00  0.00     0.156 C 
BRANCH  14  15
HETATM   15  N4  UNL     1       2.587  19.459 -14.475  1.00  0.00    -0.350 N 
HETATM   16  C6  UNL     1       2.706  18.187 -13.958  1.00  0.00     0.108 A 
HETATM   17  C7  UNL     1       2.117  17.312 -14.834  1.00  0.00     0.106 A 
HETATM   18  N5  UNL     1       1.642  18.004 -15.872  1.00  0.00    -0.361 N 
HETATM   19  C8  UNL     1       1.949  19.311 -15.618  1.00  0.00     0.182 A 
ATOM     20  H5  UNL     1       1.152  17.633 -16.686  1.00  0.00     0.166 HD
ENDBRANCH  14  15
ENDBRANCH  13  14
ENDBRANCH   1  13
TORSDOF 8
ENDMDL
MODEL 5
REMARK VINA RESULT: -6.546116572      3.709      8.120
REMARK  8 active torsions:
REMARK  status: ('A' for Active; 'I' for Inactive)
REMARK    1  A    between atoms: O1_1  and  N1_3 
REMARK    2  A    between atoms: C1_5  and  N2_6 
REMARK    3  A    between atoms: N2_6  and  C2_8 
REMARK    4  A    between atoms: C2_8  and  C3_9 
REMARK    5  A    between atoms: C3_9  and  N3_10 
REMARK    6  A    between atoms: N3_10  and  C4_13 
REMARK    7  A    between atoms: C4_13  and  C5_14 
REMARK    8  A    between atoms: C5_14  and  N4_15 
ROOT
HETATM    1  N3  UNL     1       2.979  19.683 -11.565  1.00  0.00    -0.072 N 
ATOM      2  H31 UNL     1       2.231  20.324 -11.296  1.00  0.00     0.277 HD
ATOM      3  H32 UNL     1       2.521  18.830 -11.244  1.00  0.00     0.277 HD
ENDROOT
BRANCH   1   4
HETATM    4  C3  UNL     1       4.264  19.955 -10.902  1.00  0.00     0.251 C 
BRANCH   4   5
HETATM    5  C2  UNL     1       4.263  19.707  -9.449  1.00  0.00     0.148 C 
BRANCH   5   6
HETATM    6  N2  UNL     1       3.687  20.790  -8.698  1.00  0.00    -0.383 N 
ATOM      7  H2  UNL     1       3.187  21.519  -9.205  1.00  0.00     0.160 HD
BRANCH   6   8
HETATM    8  C1  UNL     1       3.778  20.892  -7.303  1.00  0.00     0.199 C 
HETATM    9  N1  UNL     1       4.339  20.022  -6.549  1.00  0.00    -0.265 N 
ATOM     10  H1  UNL     1       4.755  19.196  -6.979  1.00  0.00     0.194 HD
BRANCH   9  11
HETATM   11  O1  UNL     1       4.403  20.159  -5.174  1.00  0.00    -0.289 OA
ATOM     12  H1  UNL     1       5.065  19.727  -4.648  1.00  0.00     0.244 HD
ENDBRANCH   9  11
ENDBRANCH   6   8
ENDBRANCH   5   6
ENDBRANCH   4   5
ENDBRANCH   1   4
BRANCH   1  13
HETATM   13  C4  UNL     1       3.278  19.692 -12.986  1.00  0.00     0.252 C 
BRANCH  13  14
HETATM   14  C5  UNL     1       2.726  18.583 -13.786  1.00  0.00     0.156 C 
BRANCH  14  15
HETATM   15  N4  UNL     1       2.431  18.853 -15.163  1.00  0.00    -0.350 N 
HETATM   16  C6  UNL     1       2.386  17.846 -16.102  1.00  0.00     0.108 A 
HETATM   17  C7  UNL     1       2.076  18.405 -17.316  1.00  0.00     0.106 A 
HETATM   18  N5  UNL     1       1.932  19.721 -17.152  1.00  0.00    -0.361 N 
HETATM   19  C8  UNL     1       2.157  19.958 -15.825  1.00  0.00     0.182 A 
ATOM     20  H5  UNL     1       1.701  20.409 -17.870  1.00  0.00     0.166 HD
ENDBRANCH  14  15
ENDBRANCH  13  14
ENDBRANCH   1  13
TORSDOF 8
ENDMDL
