MODEL 1
REMARK VINA RESULT: -6.886764349      0.000      0.000
REMARK  7 active torsions:
REMARK  status: ('A' for Active; 'I' for Inactive)
REMARK    1  A    between atoms: N2_4  and  N3_6 
REMARK    2  A    between atoms: C1_8  and  N4_9 
REMARK    3  A    between atoms: N4_9  and  C2_11 
REMARK    4  A    between atoms: C2_11  and  C3_12 
REMARK    5  A    between atoms: C5_17  and  C6_18 
REMARK    6  A    between atoms: C6_18  and  N6_19 
REMARK    7  A    between atoms: N6_19  and  C7_21 
ROOT
HETATM    1  C3  UNL     1       3.055  18.846 -12.306  1.00  0.00     0.120 C 
HETATM    2  C4  UNL     1       2.475  18.638 -10.958  1.00  0.00     0.225 C 
HETATM    3  O1  UNL     1       1.418  18.757 -10.313  1.00  0.00    -0.273 OA
HETATM    4  N5  UNL     1       3.756  18.171 -10.569  1.00  0.00    -0.354 N 
ATOM      5  H5  UNL     1       4.120  17.481  -9.912  1.00  0.00     0.163 HD
HETATM    6  C5  UNL     1       4.320  19.115 -11.525  1.00  0.00     0.116 C 
ENDROOT
BRANCH   1   7
HETATM    7  C2  UNL     1       2.489  19.949 -13.123  1.00  0.00     0.136 C 
BRANCH   7   8
HETATM    8  N4  UNL     1       2.989  19.982 -14.482  1.00  0.00    -0.384 N 
ATOM      9  H4  UNL     1       3.977  20.200 -14.617  1.00  0.00     0.160 HD
BRANCH   8  10
HETATM   10  C1  UNL     1       2.214  19.739 -15.629  1.00  0.00     0.194 C 
HETATM   11  N3  UNL     1       1.415  18.747 -15.776  1.00  0.00    -0.283 N 
ATOM     12  H3  UNL     1       1.319  18.074 -15.015  1.00  0.00     0.189 HD
BRANCH  11  13
HETATM   13  N2  UNL     1       0.672  18.558 -16.940  1.00  0.00    -0.248 N 
HETATM   14  N1  UNL     1       1.112  17.854 -17.899  1.00  0.00    -0.331 N 
ATOM     15  H12 UNL     1       2.032  17.423 -17.800  1.00  0.00     0.178 HD
ATOM     16  H11 UNL     1       0.568  17.715 -18.750  1.00  0.00     0.178 HD
ATOM     17  H2  UNL     1      -0.246  18.995 -17.022  1.00  0.00     0.207 HD
ENDBRANCH  11  13
ENDBRANCH   8  10
ENDBRANCH   7   8
ENDBRANCH   1   7
BRANCH   6  18
HETATM   18  C6  UNL     1       4.390  20.479 -10.889  1.00  0.00     0.148 C 
BRANCH  18  19
HETATM   19  N6  UNL     1       5.308  21.316 -11.661  1.00  0.00    -0.366 N 
ATOM     20  H6  UNL     1       6.278  21.026 -11.786  1.00  0.00     0.161 HD
BRANCH  19  21
HETATM   21  C7  UNL     1       4.857  22.520 -12.229  1.00  0.00     0.348 C 
HETATM   22  O2  UNL     1       4.416  22.669 -13.382  1.00  0.00    -0.284 OA
ENDBRANCH  19  21
ENDBRANCH  18  19
ENDBRANCH   6  18
TORSDOF 7
ENDMDL
MODEL 2
REMARK VINA RESULT: -6.832389074      2.308      3.252
REMARK  7 active torsions:
REMARK  status: ('A' for Active; 'I' for Inactive)
REMARK    1  A    between atoms: N2_4  and  N3_6 
REMARK    2  A    between atoms: C1_8  and  N4_9 
REMARK    3  A    between atoms: N4_9  and  C2_11 
REMARK    4  A    between atoms: C2_11  and  C3_12 
REMARK    5  A    between atoms: C5_17  and  C6_18 
REMARK    6  A    between atoms: C6_18  and  N6_19 
REMARK    7  A    between atoms: N6_19  and  C7_21 
ROOT
HETATM    1  C3  UNL     1       3.856  20.350 -12.293  1.00  0.00     0.120 C 
HETATM    2  C4  UNL     1       5.306  20.044 -12.265  1.00  0.00     0.225 C 
HETATM    3  O1  UNL     1       6.135  19.179 -12.603  1.00  0.00    -0.273 OA
HETATM    4  N5  UNL     1       5.472  21.287 -11.605  1.00  0.00    -0.354 N 
ATOM      5  H5  UNL     1       6.189  22.011 -11.569  1.00  0.00     0.163 HD
HETATM    6  C5  UNL     1       4.164  21.069 -11.001  1.00  0.00     0.116 C 
ENDROOT
BRANCH   1   7
HETATM    7  C2  UNL     1       2.920  19.199 -12.249  1.00  0.00     0.136 C 
BRANCH   7   8
HETATM    8  N4  UNL     1       3.072  18.280 -13.358  1.00  0.00    -0.384 N 
ATOM      9  H4  UNL     1       3.602  17.425 -13.193  1.00  0.00     0.160 HD
BRANCH   8  10
HETATM   10  C1  UNL     1       2.544  18.481 -14.644  1.00  0.00     0.194 C 
HETATM   11  N3  UNL     1       1.989  17.572 -15.358  1.00  0.00    -0.283 N 
ATOM     12  H3  UNL     1       1.915  16.626 -14.982  1.00  0.00     0.189 HD
BRANCH  11  13
HETATM   13  N2  UNL     1       1.483  17.832 -16.630  1.00  0.00    -0.248 N 
HETATM   14  N1  UNL     1       0.371  18.419 -16.793  1.00  0.00    -0.331 N 
ATOM     15  H12 UNL     1      -0.153  18.701 -15.964  1.00  0.00     0.178 HD
ATOM     16  H11 UNL     1      -0.000  18.609 -17.724  1.00  0.00     0.178 HD
ATOM     17  H2  UNL     1       2.019  17.543 -17.449  1.00  0.00     0.207 HD
ENDBRANCH  11  13
ENDBRANCH   8  10
ENDBRANCH   7   8
ENDBRANCH   1   7
BRANCH   6  18
HETATM   18  C6  UNL     1       4.318  20.171  -9.801  1.00  0.00     0.148 C 
BRANCH  18  19
HETATM   19  N6  UNL     1       3.352  20.573  -8.780  1.00  0.00    -0.366 N 
ATOM     20  H6  UNL     1       2.359  20.625  -9.010  1.00  0.00     0.161 HD
BRANCH  19  21
HETATM   21  C7  UNL     1       3.788  20.888  -7.481  1.00  0.00     0.348 C 
HETATM   22  O2  UNL     1       3.464  21.890  -6.820  1.00  0.00    -0.284 OA
ENDBRANCH  19  21
ENDBRANCH  18  19
ENDBRANCH   6  18
TORSDOF 7
ENDMDL
MODEL 3
REMARK VINA RESULT: -6.708827535      1.762      3.453
REMARK  7 active torsions:
REMARK  status: ('A' for Active; 'I' for Inactive)
REMARK    1  A    between atoms: N2_4  and  N3_6 
REMARK    2  A    between atoms: C1_8  and  N4_9 
REMARK    3  A    between atoms: N4_9  and  C2_11 
REMARK    4  A    between atoms: C2_11  and  C3_12 
REMARK    5  A    between atoms: C5_17  and  C6_18 
REMARK    6  A    between atoms: C6_18  and  N6_19 
REMARK    7  A    between atoms: N6_19  and  C7_21 
ROOT
HETATM    1  C3  UNL     1       4.299  20.103 -12.378  1.00  0.00     0.120 C 
HETATM    2  C4  UNL     1       5.614  20.588 -11.898  1.00  0.00     0.225 C 
HETATM    3  O1  UNL     1       6.832  20.335 -11.942  1.00  0.00    -0.273 OA
HETATM    4  N5  UNL     1       4.902  21.628 -11.249  1.00  0.00    -0.354 N 
ATOM      5  H5  UNL     1       5.077  22.604 -11.013  1.00  0.00     0.163 HD
HETATM    6  C5  UNL     1       3.808  20.682 -11.072  1.00  0.00     0.116 C 
ENDROOT
BRANCH   1   7
HETATM    7  C2  UNL     1       4.154  18.641 -12.595  1.00  0.00     0.136 C 
BRANCH   7   8
HETATM    8  N4  UNL     1       2.855  18.253 -13.103  1.00  0.00    -0.384 N 
ATOM      9  H4  UNL     1       2.209  17.804 -12.454  1.00  0.00     0.160 HD
BRANCH   8  10
HETATM   10  C1  UNL     1       2.419  18.449 -14.425  1.00  0.00     0.194 C 
HETATM   11  N3  UNL     1       1.962  17.528 -15.190  1.00  0.00    -0.283 N 
ATOM     12  H3  UNL     1       1.903  16.574 -14.832  1.00  0.00     0.189 HD
BRANCH  11  13
HETATM   13  N2  UNL     1       1.545  17.785 -16.495  1.00  0.00    -0.248 N 
HETATM   14  N1  UNL     1       0.530  18.507 -16.735  1.00  0.00    -0.331 N 
ATOM     15  H12 UNL     1       0.019  18.900 -15.944  1.00  0.00     0.178 HD
ATOM     16  H11 UNL     1       0.224  18.695 -17.689  1.00  0.00     0.178 HD
ATOM     17  H2  UNL     1       2.067  17.383 -17.274  1.00  0.00     0.207 HD
ENDBRANCH  11  13
ENDBRANCH   8  10
ENDBRANCH   7   8
ENDBRANCH   1   7
BRANCH   6  18
HETATM   18  C6  UNL     1       4.085  19.829  -9.861  1.00  0.00     0.148 C 
BRANCH  18  19
HETATM   19  N6  UNL     1       2.829  19.592  -9.150  1.00  0.00    -0.366 N 
ATOM     20  H6  UNL     1       2.588  20.162  -8.339  1.00  0.00     0.161 HD
BRANCH  19  21
HETATM   21  C7  UNL     1       1.955  18.579  -9.581  1.00  0.00     0.348 C 
HETATM   22  O2  UNL     1       2.279  17.446  -9.976  1.00  0.00    -0.284 OA
ENDBRANCH  19  21
ENDBRANCH  18  19
ENDBRANCH   6  18
TORSDOF 7
ENDMDL
MODEL 4
REMARK VINA RESULT: -6.629106571      1.680      3.220
REMARK  7 active torsions:
REMARK  status: ('A' for Active; 'I' for Inactive)
REMARK    1  A    between atoms: N2_4  and  N3_6 
REMARK    2  A    between atoms: C1_8  and  N4_9 
REMARK    3  A    between atoms: N4_9  and  C2_11 
REMARK    4  A    between atoms: C2_11  and  C3_12 
REMARK    5  A    between atoms: C5_17  and  C6_18 
REMARK    6  A    between atoms: C6_18  and  N6_19 
REMARK    7  A    between atoms: N6_19  and  C7_21 
ROOT
HETATM    1  C3  UNL     1       3.884  20.638 -13.175  1.00  0.00     0.120 C 
HETATM    2  C4  UNL     1       5.004  20.203 -12.309  1.00  0.00     0.225 C 
HETATM    3  O1  UNL     1       6.113  19.637 -12.344  1.00  0.00    -0.273 OA
HETATM    4  N5  UNL     1       4.266  20.739 -11.224  1.00  0.00    -0.354 N 
ATOM      5  H5  UNL     1       4.485  21.190 -10.335  1.00  0.00     0.163 HD
HETATM    6  C5  UNL     1       3.057  20.359 -11.942  1.00  0.00     0.116 C 
ENDROOT
BRANCH   1   7
HETATM    7  C2  UNL     1       3.618  19.834 -14.393  1.00  0.00     0.136 C 
BRANCH   7   8
HETATM    8  N4  UNL     1       2.329  20.101 -14.998  1.00  0.00    -0.384 N 
ATOM      9  H4  UNL     1       1.729  20.790 -14.545  1.00  0.00     0.160 HD
BRANCH   8  10
HETATM   10  C1  UNL     1       1.845  19.481 -16.162  1.00  0.00     0.194 C 
HETATM   11  N3  UNL     1       0.805  18.733 -16.216  1.00  0.00    -0.283 N 
ATOM     12  H3  UNL     1       0.274  18.564 -15.361  1.00  0.00     0.189 HD
BRANCH  11  13
HETATM   13  N2  UNL     1       0.373  18.144 -17.403  1.00  0.00    -0.248 N 
HETATM   14  N1  UNL     1       1.194  17.785 -18.301  1.00  0.00    -0.331 N 
ATOM     15  H12 UNL     1       2.189  17.938 -18.134  1.00  0.00     0.178 HD
ATOM     16  H11 UNL     1       0.879  17.354 -19.169  1.00  0.00     0.178 HD
ATOM     17  H2  UNL     1      -0.625  17.999 -17.553  1.00  0.00     0.207 HD
ENDBRANCH  11  13
ENDBRANCH   8  10
ENDBRANCH   7   8
ENDBRANCH   1   7
BRANCH   6  18
HETATM   18  C6  UNL     1       2.771  18.901 -11.691  1.00  0.00     0.148 C 
BRANCH  18  19
HETATM   19  N6  UNL     1       2.257  18.745 -10.331  1.00  0.00    -0.366 N 
ATOM     20  H6  UNL     1       1.375  19.184 -10.067  1.00  0.00     0.161 HD
BRANCH  19  21
HETATM   21  C7  UNL     1       2.977  17.991  -9.387  1.00  0.00     0.348 C 
HETATM   22  O2  UNL     1       4.089  17.465  -9.560  1.00  0.00    -0.284 OA
ENDBRANCH  19  21
ENDBRANCH  18  19
ENDBRANCH   6  18
TORSDOF 7
ENDMDL
MODEL 5
REMARK VINA RESULT: -6.598278352      2.679      6.560
REMARK  7 active torsions:
REMARK  status: ('A' for Active; 'I' for Inactive)
REMARK    1  A    between atoms: N2_4  and  N3_6 
REMARK    2  A    between atoms: C1_8  and  N4_9 
REMARK    3  A    between atoms: N4_9  and  C2_11 
REMARK    4  A    between atoms: C2_11  and  C3_12 
REMARK    5  A    between atoms: C5_17  and  C6_18 
REMARK    6  A    between atoms: C6_18  and  N6_19 
REMARK    7  A    between atoms: N6_19  and  C7_21 
ROOT
HETATM    1  C3  UNL     1       4.753  20.643 -11.940  1.00  0.00     0.120 C 
HETATM    2  C4  UNL     1       4.192  21.490 -13.019  1.00  0.00     0.225 C 
HETATM    3  O1  UNL     1       3.728  22.624 -13.239  1.00  0.00    -0.273 OA
HETATM    4  N5  UNL     1       4.391  20.381 -13.880  1.00  0.00    -0.354 N 
ATOM      5  H5  UNL     1       4.620  20.245 -14.864  1.00  0.00     0.163 HD
HETATM    6  C5  UNL     1       4.122  19.524 -12.733  1.00  0.00     0.116 C 
ENDROOT
BRANCH   1   7
HETATM    7  C2  UNL     1       4.262  20.889 -10.561  1.00  0.00     0.136 C 
BRANCH   7   8
HETATM    8  N4  UNL     1       4.606  19.840  -9.623  1.00  0.00    -0.384 N 
ATOM      9  H4  UNL     1       4.984  18.973 -10.004  1.00  0.00     0.160 HD
BRANCH   8  10
HETATM   10  C1  UNL     1       4.457  19.929  -8.229  1.00  0.00     0.194 C 
HETATM   11  N3  UNL     1       3.932  20.921  -7.610  1.00  0.00    -0.283 N 
ATOM     12  H3  UNL     1       3.590  21.715  -8.151  1.00  0.00     0.189 HD
BRANCH  11  13
HETATM   13  N2  UNL     1       3.812  20.952  -6.222  1.00  0.00    -0.248 N 
HETATM   14  N1  UNL     1       4.332  20.054  -5.492  1.00  0.00    -0.331 N 
ATOM     15  H12 UNL     1       4.847  19.300  -5.948  1.00  0.00     0.178 HD
ATOM     16  H11 UNL     1       4.245  20.076  -4.477  1.00  0.00     0.178 HD
ATOM     17  H2  UNL     1       3.294  21.713  -5.783  1.00  0.00     0.207 HD
ENDBRANCH  11  13
ENDBRANCH   8  10
ENDBRANCH   7   8
ENDBRANCH   1   7
BRANCH   6  18
HETATM   18  C6  UNL     1       2.632  19.389 -12.556  1.00  0.00     0.148 C 
BRANCH  18  19
HETATM   19  N6  UNL     1       2.344  18.111 -11.906  1.00  0.00    -0.366 N 
ATOM     20  H6  UNL     1       2.396  17.244 -12.441  1.00  0.00     0.161 HD
BRANCH  19  21
HETATM   21  C7  UNL     1       1.996  18.074 -10.544  1.00  0.00     0.348 C 
HETATM   22  O2  UNL     1       2.468  17.310  -9.685  1.00  0.00    -0.284 OA
ENDBRANCH  19  21
ENDBRANCH  18  19
ENDBRANCH   6  18
TORSDOF 7
ENDMDL
