MODEL 1
REMARK VINA RESULT: -6.399272650      0.000      0.000
REMARK  7 active torsions:
REMARK  status: ('A' for Active; 'I' for Inactive)
REMARK    1  A    between atoms: C4_7  and  C5_8 
REMARK    2  A    between atoms: C5_8  and  N3_9 
REMARK    3  A    between atoms: N3_9  and  C6_12 
REMARK    4  A    between atoms: C6_12  and  C7_13 
REMARK    5  A    between atoms: C7_13  and  N4_14 
REMARK    6  A    between atoms: N4_14  and  C8_17 
REMARK    7  A    between atoms: C8_17  and  N5_18 
ROOT
HETATM    1  N3  UNL     1       2.391  18.965 -10.712  1.00  0.00    -0.068 N 
ATOM      2  H31 UNL     1       1.819  18.160 -10.968  1.00  0.00     0.277 HD
ATOM      3  H32 UNL     1       1.766  19.698 -11.045  1.00  0.00     0.277 HD
ENDROOT
BRANCH   1   4
HETATM    4  C5  UNL     1       3.689  18.975 -11.411  1.00  0.00     0.290 C 
BRANCH   4   5
HETATM    5  C4  UNL     1       3.932  20.254 -12.106  1.00  0.00     0.053 A 
HETATM    6  N1  UNL     1       3.427  20.711 -13.249  1.00  0.00    -0.348 N 
HETATM    7  C1  UNL     1       2.588  19.940 -14.116  1.00  0.00     0.157 C 
HETATM    8  C2  UNL     1       3.885  21.983 -13.391  1.00  0.00     0.182 A 
HETATM    9  N2  UNL     1       4.653  22.288 -12.339  1.00  0.00    -0.360 N 
HETATM   10  C3  UNL     1       4.723  21.251 -11.519  1.00  0.00     0.115 A 
ATOM     11  H2  UNL     1       5.116  23.184 -12.191  1.00  0.00     0.166 HD
ENDBRANCH   4   5
ENDBRANCH   1   4
BRANCH   1  12
HETATM   12  C6  UNL     1       2.618  19.044  -9.300  1.00  0.00     0.260 C 
BRANCH  12  13
HETATM   13  C7  UNL     1       3.967  18.566  -8.913  1.00  0.00     0.261 C 
BRANCH  13  14
HETATM   14  N4  UNL     1       4.647  19.559  -8.053  1.00  0.00    -0.057 N 
ATOM     15  H42 UNL     1       5.041  19.151  -7.206  1.00  0.00     0.279 HD
ATOM     16  H41 UNL     1       5.521  19.901  -8.454  1.00  0.00     0.279 HD
BRANCH  14  17
HETATM   17  C8  UNL     1       3.702  20.609  -7.784  1.00  0.00     0.370 C 
BRANCH  17  18
HETATM   18  N5  UNL     1       3.914  21.026  -6.410  1.00  0.00    -0.318 N 
HETATM   19  N6  UNL     1       4.295  20.160  -5.613  1.00  0.00    -0.348 N 
ATOM     20  H62 UNL     1       4.450  19.201  -5.925  1.00  0.00     0.176 HD
ATOM     21  H61 UNL     1       4.444  20.453  -4.647  1.00  0.00     0.176 HD
ATOM     22  H5  UNL     1       3.754  21.989  -6.114  1.00  0.00     0.181 HD
ENDBRANCH  17  18
ENDBRANCH  14  17
ENDBRANCH  13  14
ENDBRANCH  12  13
ENDBRANCH   1  12
TORSDOF 7
ENDMDL
MODEL 2
REMARK VINA RESULT: -6.295585812      1.000      1.981
REMARK  7 active torsions:
REMARK  status: ('A' for Active; 'I' for Inactive)
REMARK    1  A    between atoms: C4_7  and  C5_8 
REMARK    2  A    between atoms: C5_8  and  N3_9 
REMARK    3  A    between atoms: N3_9  and  C6_12 
REMARK    4  A    between atoms: C6_12  and  C7_13 
REMARK    5  A    between atoms: C7_13  and  N4_14 
REMARK    6  A    between atoms: N4_14  and  C8_17 
REMARK    7  A    between atoms: C8_17  and  N5_18 
ROOT
HETATM    1  N3  UNL     1       2.318  18.916 -10.654  1.00  0.00    -0.068 N 
ATOM      2  H31 UNL     1       1.834  18.090 -11.005  1.00  0.00     0.277 HD
ATOM      3  H32 UNL     1       1.558  19.587 -10.765  1.00  0.00     0.277 HD
ENDROOT
BRANCH   1   4
HETATM    4  C5  UNL     1       3.496  19.263 -11.470  1.00  0.00     0.290 C 
BRANCH   4   5
HETATM    5  C4  UNL     1       3.149  19.443 -12.892  1.00  0.00     0.053 A 
HETATM    6  N1  UNL     1       3.320  20.499 -13.683  1.00  0.00    -0.348 N 
HETATM    7  C1  UNL     1       3.803  21.768 -13.228  1.00  0.00     0.157 C 
HETATM    8  C2  UNL     1       2.934  20.115 -14.928  1.00  0.00     0.182 A 
HETATM    9  N2  UNL     1       2.540  18.837 -14.885  1.00  0.00    -0.360 N 
HETATM   10  C3  UNL     1       2.644  18.377 -13.649  1.00  0.00     0.115 A 
ATOM     11  H2  UNL     1       2.208  18.299 -15.685  1.00  0.00     0.166 HD
ENDBRANCH   4   5
ENDBRANCH   1   4
BRANCH   1  12
HETATM   12  C6  UNL     1       2.721  18.772  -9.287  1.00  0.00     0.260 C 
BRANCH  12  13
HETATM   13  C7  UNL     1       4.193  18.804  -9.121  1.00  0.00     0.261 C 
BRANCH  13  14
HETATM   14  N4  UNL     1       4.562  19.470  -7.852  1.00  0.00    -0.057 N 
ATOM     15  H42 UNL     1       4.473  18.860  -7.040  1.00  0.00     0.279 HD
ATOM     16  H41 UNL     1       5.562  19.651  -7.774  1.00  0.00     0.279 HD
BRANCH  14  17
HETATM   17  C8  UNL     1       3.765  20.662  -7.749  1.00  0.00     0.370 C 
BRANCH  17  18
HETATM   18  N5  UNL     1       3.842  21.104  -6.368  1.00  0.00    -0.318 N 
HETATM   19  N6  UNL     1       4.348  20.321  -5.556  1.00  0.00    -0.348 N 
ATOM     20  H62 UNL     1       4.691  19.409  -5.859  1.00  0.00     0.176 HD
ATOM     21  H61 UNL     1       4.403  20.632  -4.586  1.00  0.00     0.176 HD
ATOM     22  H5  UNL     1       3.495  22.020  -6.081  1.00  0.00     0.181 HD
ENDBRANCH  17  18
ENDBRANCH  14  17
ENDBRANCH  13  14
ENDBRANCH  12  13
ENDBRANCH   1  12
TORSDOF 7
ENDMDL
MODEL 3
REMARK VINA RESULT: -6.181209813      1.601      2.024
REMARK  7 active torsions:
REMARK  status: ('A' for Active; 'I' for Inactive)
REMARK    1  A    between atoms: C4_7  and  C5_8 
REMARK    2  A    between atoms: C5_8  and  N3_9 
REMARK    3  A    between atoms: N3_9  and  C6_12 
REMARK    4  A    between atoms: C6_12  and  C7_13 
REMARK    5  A    between atoms: C7_13  and  N4_14 
REMARK    6  A    between atoms: N4_14  and  C8_17 
REMARK    7  A    between atoms: C8_17  and  N5_18 
ROOT
HETATM    1  N3  UNL     1       3.839  18.596 -11.101  1.00  0.00    -0.068 N 
ATOM      2  H31 UNL     1       4.440  19.403 -11.269  1.00  0.00     0.277 HD
ATOM      3  H32 UNL     1       4.466  17.873 -11.455  1.00  0.00     0.277 HD
ENDROOT
BRANCH   1   4
HETATM    4  C5  UNL     1       2.580  18.667 -11.865  1.00  0.00     0.290 C 
BRANCH   4   5
HETATM    5  C4  UNL     1       2.794  19.161 -13.239  1.00  0.00     0.053 A 
HETATM    6  N1  UNL     1       2.540  18.572 -14.404  1.00  0.00    -0.348 N 
HETATM    7  C1  UNL     1       2.085  17.220 -14.534  1.00  0.00     0.157 C 
HETATM    8  C2  UNL     1       2.816  19.490 -15.368  1.00  0.00     0.182 A 
HETATM    9  N2  UNL     1       3.227  20.621 -14.785  1.00  0.00    -0.360 N 
HETATM   10  C3  UNL     1       3.240  20.469 -13.471  1.00  0.00     0.115 A 
ATOM     11  H2  UNL     1       3.490  21.473 -15.280  1.00  0.00     0.166 HD
ENDBRANCH   4   5
ENDBRANCH   1   4
BRANCH   1  12
HETATM   12  C6  UNL     1       3.536  18.422  -9.713  1.00  0.00     0.260 C 
BRANCH  12  13
HETATM   13  C7  UNL     1       4.295  19.351  -8.843  1.00  0.00     0.261 C 
BRANCH  13  14
HETATM   14  N4  UNL     1       3.670  20.692  -8.839  1.00  0.00    -0.057 N 
ATOM     15  H42 UNL     1       4.132  21.349  -9.467  1.00  0.00     0.279 HD
ATOM     16  H41 UNL     1       2.753  20.706  -9.284  1.00  0.00     0.279 HD
BRANCH  14  17
HETATM   17  C8  UNL     1       3.641  21.145  -7.474  1.00  0.00     0.370 C 
BRANCH  17  18
HETATM   18  N5  UNL     1       4.293  20.122  -6.676  1.00  0.00    -0.318 N 
HETATM   19  N6  UNL     1       4.323  20.300  -5.453  1.00  0.00    -0.348 N 
ATOM     20  H62 UNL     1       3.902  21.132  -5.039  1.00  0.00     0.176 HD
ATOM     21  H61 UNL     1       4.781  19.581  -4.892  1.00  0.00     0.176 HD
ATOM     22  H5  UNL     1       4.709  19.295  -7.106  1.00  0.00     0.181 HD
ENDBRANCH  17  18
ENDBRANCH  14  17
ENDBRANCH  13  14
ENDBRANCH  12  13
ENDBRANCH   1  12
TORSDOF 7
ENDMDL
MODEL 4
REMARK VINA RESULT: -6.058163199      3.384      7.111
REMARK  7 active torsions:
REMARK  status: ('A' for Active; 'I' for Inactive)
REMARK    1  A    between atoms: C4_7  and  C5_8 
REMARK    2  A    between atoms: C5_8  and  N3_9 
REMARK    3  A    between atoms: N3_9  and  C6_12 
REMARK    4  A    between atoms: C6_12  and  C7_13 
REMARK    5  A    between atoms: C7_13  and  N4_14 
REMARK    6  A    between atoms: N4_14  and  C8_17 
REMARK    7  A    between atoms: C8_17  and  N5_18 
ROOT
HETATM    1  N3  UNL     1       2.946  17.752 -13.786  1.00  0.00    -0.068 N 
ATOM      2  H31 UNL     1       2.703  17.062 -13.075  1.00  0.00     0.277 HD
ATOM      3  H32 UNL     1       3.952  17.584 -13.812  1.00  0.00     0.277 HD
ENDROOT
BRANCH   1   4
HETATM    4  C5  UNL     1       2.618  19.127 -13.366  1.00  0.00     0.290 C 
BRANCH   4   5
HETATM    5  C4  UNL     1       3.448  19.570 -12.230  1.00  0.00     0.053 A 
HETATM    6  N1  UNL     1       3.360  19.259 -10.939  1.00  0.00    -0.348 N 
HETATM    7  C1  UNL     1       2.302  18.474 -10.377  1.00  0.00     0.157 C 
HETATM    8  C2  UNL     1       4.425  19.842 -10.329  1.00  0.00     0.182 A 
HETATM    9  N2  UNL     1       5.149  20.492 -11.246  1.00  0.00    -0.360 N 
HETATM   10  C3  UNL     1       4.584  20.364 -12.436  1.00  0.00     0.115 A 
ATOM     11  H2  UNL     1       6.007  21.010 -11.057  1.00  0.00     0.166 HD
ENDBRANCH   4   5
ENDBRANCH   1   4
BRANCH   1  12
HETATM   12  C6  UNL     1       2.317  17.483 -15.043  1.00  0.00     0.260 C 
BRANCH  12  13
HETATM   13  C7  UNL     1       1.856  18.716 -15.725  1.00  0.00     0.261 C 
BRANCH  13  14
HETATM   14  N4  UNL     1       0.841  18.397 -16.754  1.00  0.00    -0.057 N 
ATOM     15  H42 UNL     1       0.572  17.414 -16.757  1.00  0.00     0.279 HD
ATOM     16  H41 UNL     1      -0.077  18.786 -16.540  1.00  0.00     0.279 HD
BRANCH  14  17
HETATM   17  C8  UNL     1       1.361  18.843 -18.018  1.00  0.00     0.370 C 
BRANCH  17  18
HETATM   18  N5  UNL     1       1.827  17.662 -18.723  1.00  0.00    -0.318 N 
HETATM   19  N6  UNL     1       3.023  17.631 -19.036  1.00  0.00    -0.348 N 
ATOM     20  H62 UNL     1       3.641  18.409 -18.802  1.00  0.00     0.176 HD
ATOM     21  H61 UNL     1       3.351  16.802 -19.531  1.00  0.00     0.176 HD
ATOM     22  H5  UNL     1       1.196  16.893 -18.950  1.00  0.00     0.181 HD
ENDBRANCH  17  18
ENDBRANCH  14  17
ENDBRANCH  13  14
ENDBRANCH  12  13
ENDBRANCH   1  12
TORSDOF 7
ENDMDL
MODEL 5
REMARK VINA RESULT: -6.026340741      1.987      3.273
REMARK  7 active torsions:
REMARK  status: ('A' for Active; 'I' for Inactive)
REMARK    1  A    between atoms: C4_7  and  C5_8 
REMARK    2  A    between atoms: C5_8  and  N3_9 
REMARK    3  A    between atoms: N3_9  and  C6_12 
REMARK    4  A    between atoms: C6_12  and  C7_13 
REMARK    5  A    between atoms: C7_13  and  N4_14 
REMARK    6  A    between atoms: N4_14  and  C8_17 
REMARK    7  A    between atoms: C8_17  and  N5_18 
ROOT
HETATM    1  N3  UNL     1       3.084  20.566 -12.548  1.00  0.00    -0.068 N 
ATOM      2  H31 UNL     1       2.440  19.844 -12.224  1.00  0.00     0.277 HD
ATOM      3  H32 UNL     1       2.517  21.381 -12.313  1.00  0.00     0.277 HD
ENDROOT
BRANCH   1   4
HETATM    4  C5  UNL     1       3.352  20.469 -13.994  1.00  0.00     0.290 C 
BRANCH   4   5
HETATM    5  C4  UNL     1       2.652  19.327 -14.611  1.00  0.00     0.053 A 
HETATM    6  N1  UNL     1       2.051  19.234 -15.794  1.00  0.00    -0.348 N 
HETATM    7  C1  UNL     1       1.871  20.339 -16.687  1.00  0.00     0.157 C 
HETATM    8  C2  UNL     1       1.660  17.939 -15.927  1.00  0.00     0.182 A 
HETATM    9  N2  UNL     1       2.029  17.260 -14.836  1.00  0.00    -0.360 N 
HETATM   10  C3  UNL     1       2.638  18.072 -13.987  1.00  0.00     0.115 A 
ATOM     11  H2  UNL     1       1.865  16.265 -14.682  1.00  0.00     0.166 HD
ENDBRANCH   4   5
ENDBRANCH   1   4
BRANCH   1  12
HETATM   12  C6  UNL     1       4.326  20.546 -11.838  1.00  0.00     0.260 C 
BRANCH  12  13
HETATM   13  C7  UNL     1       4.255  19.754 -10.587  1.00  0.00     0.261 C 
BRANCH  13  14
HETATM   14  N4  UNL     1       3.898  20.617  -9.440  1.00  0.00    -0.057 N 
ATOM     15  H42 UNL     1       4.391  21.510  -9.445  1.00  0.00     0.279 HD
ATOM     16  H41 UNL     1       2.950  20.989  -9.500  1.00  0.00     0.279 HD
BRANCH  14  17
HETATM   17  C8  UNL     1       4.129  19.854  -8.244  1.00  0.00     0.370 C 
BRANCH  17  18
HETATM   18  N5  UNL     1       3.914  20.751  -7.122  1.00  0.00    -0.318 N 
HETATM   19  N6  UNL     1       4.268  20.350  -6.007  1.00  0.00    -0.348 N 
ATOM     20  H62 UNL     1       4.690  19.428  -5.897  1.00  0.00     0.176 HD
ATOM     21  H61 UNL     1       4.116  20.981  -5.219  1.00  0.00     0.176 HD
ATOM     22  H5  UNL     1       3.489  21.670  -7.249  1.00  0.00     0.181 HD
ENDBRANCH  17  18
ENDBRANCH  14  17
ENDBRANCH  13  14
ENDBRANCH  12  13
ENDBRANCH   1  12
TORSDOF 7
ENDMDL
