MODEL 1
REMARK VINA RESULT: -5.199730046      0.000      0.000
REMARK  7 active torsions:
REMARK  status: ('A' for Active; 'I' for Inactive)
REMARK    1  A    between atoms: N1_2  and  C2_5 
REMARK    2  A    between atoms: C2_5  and  N2_6 
REMARK    3  A    between atoms: N2_6  and  C3_7 
REMARK    4  A    between atoms: C3_7  and  C4_8 
REMARK    5  A    between atoms: C4_8  and  N3_9 
REMARK    6  A    between atoms: N3_9  and  C5_11 
REMARK    7  A    between atoms: C5_11  and  N4_12 
ROOT
HETATM    1  N2  UNL     1     -41.835 -19.680  -1.250  1.00  0.00    -0.017 N 
HETATM    2  C6  UNL     1     -40.793 -19.489  -0.266  1.00  0.00     0.270 C 
HETATM    3  C7  UNL     1     -40.656 -18.111  -0.843  1.00  0.00     0.155 A 
HETATM    4  N6  UNL     1     -41.648 -17.153  -1.120  1.00  0.00    -0.384 N 
ATOM      5  H6  UNL     1     -41.836 -16.185  -1.381  1.00  0.00     0.155 HD
HETATM    6  C8  UNL     1     -42.187 -18.351  -0.815  1.00  0.00     0.311 A 
ENDROOT
BRANCH   1   7
HETATM    7  C2  UNL     1     -42.881 -20.613  -0.834  1.00  0.00     0.470 C 
BRANCH   7   8
HETATM    8  N1  UNL     1     -42.543 -21.992  -0.904  1.00  0.00    -0.055 N 
HETATM    9  C1  UNL     1     -42.693 -22.500   0.472  1.00  0.00     0.269 C 
ATOM     10  H12 UNL     1     -41.625 -22.170  -1.310  1.00  0.00     0.278 HD
ATOM     11  H11 UNL     1     -43.081 -22.513  -1.596  1.00  0.00     0.278 HD
ENDBRANCH   7   8
ENDBRANCH   1   7
BRANCH   1  12
HETATM   12  C3  UNL     1     -41.509 -19.839  -2.613  1.00  0.00     0.261 C 
BRANCH  12  13
HETATM   13  C4  UNL     1     -42.617 -19.769  -3.613  1.00  0.00     0.143 C 
BRANCH  13  14
HETATM   14  N3  UNL     1     -42.110 -19.094  -4.789  1.00  0.00    -0.403 N 
ATOM     15  H3  UNL     1     -42.697 -18.487  -5.361  1.00  0.00     0.154 HD
BRANCH  14  16
HETATM   16  C5  UNL     1     -40.737 -19.332  -5.096  1.00  0.00     0.255 C 
BRANCH  16  17
HETATM   17  N4  UNL     1     -40.522 -19.012  -6.487  1.00  0.00    -0.325 N 
HETATM   18  N5  UNL     1     -41.468 -19.115  -7.276  1.00  0.00    -0.348 N 
ATOM     19  H52 UNL     1     -42.378 -19.423  -6.934  1.00  0.00     0.176 HD
ATOM     20  H51 UNL     1     -41.315 -18.890  -8.259  1.00  0.00     0.176 HD
ATOM     21  H4  UNL     1     -39.604 -18.706  -6.814  1.00  0.00     0.181 HD
ENDBRANCH  16  17
ENDBRANCH  14  16
ENDBRANCH  13  14
ENDBRANCH  12  13
ENDBRANCH   1  12
TORSDOF 7
ENDMDL
MODEL 2
REMARK VINA RESULT: -5.159171132      0.958      1.135
REMARK  7 active torsions:
REMARK  status: ('A' for Active; 'I' for Inactive)
REMARK    1  A    between atoms: N1_2  and  C2_5 
REMARK    2  A    between atoms: C2_5  and  N2_6 
REMARK    3  A    between atoms: N2_6  and  C3_7 
REMARK    4  A    between atoms: C3_7  and  C4_8 
REMARK    5  A    between atoms: C4_8  and  N3_9 
REMARK    6  A    between atoms: N3_9  and  C5_11 
REMARK    7  A    between atoms: C5_11  and  N4_12 
ROOT
HETATM    1  N2  UNL     1     -41.780 -19.283  -1.665  1.00  0.00    -0.017 N 
HETATM    2  C6  UNL     1     -40.784 -19.402  -0.624  1.00  0.00     0.270 C 
HETATM    3  C7  UNL     1     -40.492 -17.956  -0.896  1.00  0.00     0.155 A 
HETATM    4  N6  UNL     1     -41.376 -16.867  -1.004  1.00  0.00    -0.384 N 
ATOM      5  H6  UNL     1     -41.462 -15.853  -1.064  1.00  0.00     0.155 HD
HETATM    6  C8  UNL     1     -42.037 -18.043  -0.976  1.00  0.00     0.311 A 
ENDROOT
BRANCH   1   7
HETATM    7  C2  UNL     1     -42.928 -20.173  -1.492  1.00  0.00     0.470 C 
BRANCH   7   8
HETATM    8  N1  UNL     1     -42.655 -21.420  -0.867  1.00  0.00    -0.055 N 
HETATM    9  C1  UNL     1     -42.647 -22.410  -1.959  1.00  0.00     0.269 C 
ATOM     10  H12 UNL     1     -43.297 -21.649  -0.109  1.00  0.00     0.278 HD
ATOM     11  H11 UNL     1     -41.803 -21.420  -0.305  1.00  0.00     0.278 HD
ENDBRANCH   7   8
ENDBRANCH   1   7
BRANCH   1  12
HETATM   12  C3  UNL     1     -41.392 -19.193  -3.018  1.00  0.00     0.261 C 
BRANCH  12  13
HETATM   13  C4  UNL     1     -42.424 -19.465  -4.064  1.00  0.00     0.143 C 
BRANCH  13  14
HETATM   14  N3  UNL     1     -41.767 -19.424  -5.354  1.00  0.00    -0.403 N 
ATOM     15  H3  UNL     1     -42.289 -19.449  -6.230  1.00  0.00     0.154 HD
BRANCH  14  16
HETATM   16  C5  UNL     1     -40.342 -19.350  -5.321  1.00  0.00     0.255 C 
BRANCH  16  17
HETATM   17  N4  UNL     1     -39.881 -18.910  -6.616  1.00  0.00    -0.325 N 
HETATM   18  N5  UNL     1     -38.667 -18.778  -6.803  1.00  0.00    -0.348 N 
ATOM     19  H52 UNL     1     -38.014 -18.979  -6.045  1.00  0.00     0.176 HD
ATOM     20  H51 UNL     1     -38.341 -18.467  -7.718  1.00  0.00     0.176 HD
ATOM     21  H4  UNL     1     -40.546 -18.713  -7.364  1.00  0.00     0.181 HD
ENDBRANCH  16  17
ENDBRANCH  14  16
ENDBRANCH  13  14
ENDBRANCH  12  13
ENDBRANCH   1  12
TORSDOF 7
ENDMDL
MODEL 3
REMARK VINA RESULT: -5.115410131      1.629      3.023
REMARK  7 active torsions:
REMARK  status: ('A' for Active; 'I' for Inactive)
REMARK    1  A    between atoms: N1_2  and  C2_5 
REMARK    2  A    between atoms: C2_5  and  N2_6 
REMARK    3  A    between atoms: N2_6  and  C3_7 
REMARK    4  A    between atoms: C3_7  and  C4_8 
REMARK    5  A    between atoms: C4_8  and  N3_9 
REMARK    6  A    between atoms: N3_9  and  C5_11 
REMARK    7  A    between atoms: C5_11  and  N4_12 
ROOT
HETATM    1  N2  UNL     1     -42.351 -20.089  -2.414  1.00  0.00    -0.017 N 
HETATM    2  C6  UNL     1     -43.570 -20.834  -2.637  1.00  0.00     0.270 C 
HETATM    3  C7  UNL     1     -42.742 -21.701  -3.538  1.00  0.00     0.155 A 
HETATM    4  N6  UNL     1     -41.494 -22.306  -3.302  1.00  0.00    -0.384 N 
ATOM      5  H6  UNL     1     -40.804 -22.975  -3.642  1.00  0.00     0.155 HD
HETATM    6  C8  UNL     1     -41.809 -21.423  -2.333  1.00  0.00     0.311 A 
ENDROOT
BRANCH   1   7
HETATM    7  C2  UNL     1     -42.272 -19.458  -1.097  1.00  0.00     0.470 C 
BRANCH   7   8
HETATM    8  N1  UNL     1     -41.181 -19.866  -0.282  1.00  0.00    -0.055 N 
HETATM    9  C1  UNL     1     -40.443 -18.627   0.028  1.00  0.00     0.269 C 
ATOM     10  H12 UNL     1     -40.604 -20.594  -0.701  1.00  0.00     0.278 HD
ATOM     11  H11 UNL     1     -41.460 -20.396   0.544  1.00  0.00     0.278 HD
ENDBRANCH   7   8
ENDBRANCH   1   7
BRANCH   1  12
HETATM   12  C3  UNL     1     -41.833 -19.251  -3.423  1.00  0.00     0.261 C 
BRANCH  12  13
HETATM   13  C4  UNL     1     -42.654 -19.047  -4.656  1.00  0.00     0.143 C 
BRANCH  13  14
HETATM   14  N3  UNL     1     -41.764 -19.122  -5.796  1.00  0.00    -0.403 N 
ATOM     15  H3  UNL     1     -42.112 -19.171  -6.754  1.00  0.00     0.154 HD
BRANCH  14  16
HETATM   16  C5  UNL     1     -40.369 -19.122  -5.495  1.00  0.00     0.255 C 
BRANCH  16  17
HETATM   17  N4  UNL     1     -39.637 -19.071  -6.738  1.00  0.00    -0.325 N 
HETATM   18  N5  UNL     1     -38.470 -18.663  -6.726  1.00  0.00    -0.348 N 
ATOM     19  H52 UNL     1     -38.047 -18.371  -5.844  1.00  0.00     0.176 HD
ATOM     20  H51 UNL     1     -37.953 -18.626  -7.604  1.00  0.00     0.176 HD
ATOM     21  H4  UNL     1     -40.075 -19.366  -7.611  1.00  0.00     0.181 HD
ENDBRANCH  16  17
ENDBRANCH  14  16
ENDBRANCH  13  14
ENDBRANCH  12  13
ENDBRANCH   1  12
TORSDOF 7
ENDMDL
MODEL 4
REMARK VINA RESULT: -4.991866925      1.879      5.286
REMARK  7 active torsions:
REMARK  status: ('A' for Active; 'I' for Inactive)
REMARK    1  A    between atoms: N1_2  and  C2_5 
REMARK    2  A    between atoms: C2_5  and  N2_6 
REMARK    3  A    between atoms: N2_6  and  C3_7 
REMARK    4  A    between atoms: C3_7  and  C4_8 
REMARK    5  A    between atoms: C4_8  and  N3_9 
REMARK    6  A    between atoms: N3_9  and  C5_11 
REMARK    7  A    between atoms: C5_11  and  N4_12 
ROOT
HETATM    1  N2  UNL     1     -41.890 -19.829  -3.101  1.00  0.00    -0.017 N 
HETATM    2  C6  UNL     1     -41.473 -21.212  -3.034  1.00  0.00     0.270 C 
HETATM    3  C7  UNL     1     -42.847 -21.482  -2.497  1.00  0.00     0.155 A 
HETATM    4  N6  UNL     1     -44.099 -21.071  -2.990  1.00  0.00    -0.384 N 
ATOM      5  H6  UNL     1     -45.111 -21.179  -2.917  1.00  0.00     0.155 HD
HETATM    6  C8  UNL     1     -43.087 -20.443  -3.621  1.00  0.00     0.311 A 
ENDROOT
BRANCH   1   7
HETATM    7  C2  UNL     1     -41.242 -19.065  -4.167  1.00  0.00     0.470 C 
BRANCH   7   8
HETATM    8  N1  UNL     1     -40.316 -19.785  -4.969  1.00  0.00    -0.055 N 
HETATM    9  C1  UNL     1     -40.286 -19.077  -6.261  1.00  0.00     0.269 C 
ATOM     10  H12 UNL     1     -40.529 -20.779  -5.050  1.00  0.00     0.278 HD
ATOM     11  H11 UNL     1     -39.398 -19.896  -4.539  1.00  0.00     0.278 HD
ENDBRANCH   7   8
ENDBRANCH   1   7
BRANCH   1  12
HETATM   12  C3  UNL     1     -42.024 -19.067  -1.922  1.00  0.00     0.261 C 
BRANCH  12  13
HETATM   13  C4  UNL     1     -40.851 -18.257  -1.473  1.00  0.00     0.143 C 
BRANCH  13  14
HETATM   14  N3  UNL     1     -40.204 -18.978  -0.396  1.00  0.00    -0.403 N 
ATOM     15  H3  UNL     1     -39.205 -19.183  -0.404  1.00  0.00     0.154 HD
BRANCH  14  16
HETATM   16  C5  UNL     1     -41.054 -19.382   0.677  1.00  0.00     0.255 C 
BRANCH  16  17
HETATM   17  N4  UNL     1     -40.969 -20.817   0.807  1.00  0.00    -0.325 N 
HETATM   18  N5  UNL     1     -40.942 -21.313   1.939  1.00  0.00    -0.348 N 
ATOM     19  H52 UNL     1     -40.980 -20.704   2.757  1.00  0.00     0.176 HD
ATOM     20  H51 UNL     1     -40.882 -22.326   2.030  1.00  0.00     0.176 HD
ATOM     21  H4  UNL     1     -40.931 -21.412  -0.021  1.00  0.00     0.181 HD
ENDBRANCH  16  17
ENDBRANCH  14  16
ENDBRANCH  13  14
ENDBRANCH  12  13
ENDBRANCH   1  12
TORSDOF 7
ENDMDL
MODEL 5
REMARK VINA RESULT: -4.981200892      1.411      4.814
REMARK  7 active torsions:
REMARK  status: ('A' for Active; 'I' for Inactive)
REMARK    1  A    between atoms: N1_2  and  C2_5 
REMARK    2  A    between atoms: C2_5  and  N2_6 
REMARK    3  A    between atoms: N2_6  and  C3_7 
REMARK    4  A    between atoms: C3_7  and  C4_8 
REMARK    5  A    between atoms: C4_8  and  N3_9 
REMARK    6  A    between atoms: N3_9  and  C5_11 
REMARK    7  A    between atoms: C5_11  and  N4_12 
ROOT
HETATM    1  N2  UNL     1     -41.610 -19.591  -4.252  1.00  0.00    -0.017 N 
HETATM    2  C6  UNL     1     -40.405 -19.045  -4.835  1.00  0.00     0.270 C 
HETATM    3  C7  UNL     1     -40.943 -19.551  -6.141  1.00  0.00     0.155 A 
HETATM    4  N6  UNL     1     -42.221 -19.391  -6.706  1.00  0.00    -0.384 N 
ATOM      5  H6  UNL     1     -42.795 -19.509  -7.541  1.00  0.00     0.155 HD
HETATM    6  C8  UNL     1     -42.192 -18.981  -5.422  1.00  0.00     0.311 A 
ENDROOT
BRANCH   1   7
HETATM    7  C2  UNL     1     -42.070 -18.877  -3.061  1.00  0.00     0.470 C 
BRANCH   7   8
HETATM    8  N1  UNL     1     -41.066 -18.560  -2.105  1.00  0.00    -0.055 N 
HETATM    9  C1  UNL     1     -41.797 -18.217  -0.872  1.00  0.00     0.269 C 
ATOM     10  H12 UNL     1     -40.419 -17.835  -2.414  1.00  0.00     0.278 HD
ATOM     11  H11 UNL     1     -40.370 -19.295  -1.980  1.00  0.00     0.278 HD
ENDBRANCH   7   8
ENDBRANCH   1   7
BRANCH   1  12
HETATM   12  C3  UNL     1     -41.768 -20.986  -4.115  1.00  0.00     0.261 C 
BRANCH  12  13
HETATM   13  C4  UNL     1     -43.157 -21.528  -4.006  1.00  0.00     0.143 C 
BRANCH  13  14
HETATM   14  N3  UNL     1     -43.385 -21.881  -2.620  1.00  0.00    -0.403 N 
ATOM     15  H3  UNL     1     -44.324 -21.977  -2.232  1.00  0.00     0.154 HD
BRANCH  14  16
HETATM   16  C5  UNL     1     -42.214 -22.083  -1.831  1.00  0.00     0.255 C 
BRANCH  16  17
HETATM   17  N4  UNL     1     -42.511 -21.701  -0.471  1.00  0.00    -0.325 N 
HETATM   18  N5  UNL     1     -42.862 -22.575   0.330  1.00  0.00    -0.348 N 
ATOM     19  H52 UNL     1     -42.936 -23.544   0.019  1.00  0.00     0.176 HD
ATOM     20  H51 UNL     1     -43.073 -22.305   1.291  1.00  0.00     0.176 HD
ATOM     21  H4  UNL     1     -42.433 -20.728  -0.176  1.00  0.00     0.181 HD
ENDBRANCH  16  17
ENDBRANCH  14  16
ENDBRANCH  13  14
ENDBRANCH  12  13
ENDBRANCH   1  12
TORSDOF 7
ENDMDL
