MODEL 1
REMARK VINA RESULT: -4.600729697      0.000      0.000
REMARK  7 active torsions:
REMARK  status: ('A' for Active; 'I' for Inactive)
REMARK    1  A    between atoms: N1_2  and  N2_3 
REMARK    2  A    between atoms: N2_3  and  C3_5 
REMARK    3  A    between atoms: N2_3  and  C7_12 
REMARK    4  A    between atoms: C4_6  and  C5_7 
REMARK    5  A    between atoms: C5_7  and  N3_8 
REMARK    6  A    between atoms: C7_12  and  C8_13 
REMARK    7  A    between atoms: C8_13  and  N5_14 
ROOT
HETATM    1  N2  UNL     1     -41.893 -20.176  -1.665  1.00  0.00     0.029 N 
HETATM    2  C2  UNL     1     -43.102 -19.811  -0.959  1.00  0.00     0.303 C 
ENDROOT
BRANCH   1   3
HETATM    3  N1  UNL     1     -41.077 -20.908  -0.797  1.00  0.00    -0.047 NA
HETATM    4  C1  UNL     1     -41.703 -21.267   0.433  1.00  0.00     0.167 C 
ENDBRANCH   1   3
BRANCH   1   5
HETATM    5  C3  UNL     1     -42.201 -20.998  -2.768  1.00  0.00     0.222 C 
HETATM    6  C4  UNL     1     -42.512 -20.654  -3.983  1.00  0.00     0.021 C 
BRANCH   6   7
HETATM    7  C5  UNL     1     -42.638 -19.316  -4.573  1.00  0.00     0.178 C 
BRANCH   7   8
HETATM    8  N3  UNL     1     -41.687 -19.198  -5.691  1.00  0.00    -0.282 N 
HETATM    9  C6  UNL     1     -40.401 -19.099  -6.068  1.00  0.00     0.217 A 
HETATM   10  N4  UNL     1     -41.379 -19.106  -7.052  1.00  0.00    -0.291 N 
ATOM     11  H4  UNL     1     -41.661 -19.070  -8.032  1.00  0.00     0.188 HD
ENDBRANCH   7   8
ENDBRANCH   6   7
ENDBRANCH   1   5
BRANCH   1  12
HETATM   12  C7  UNL     1     -41.138 -18.998  -2.029  1.00  0.00     0.293 C 
BRANCH  12  13
HETATM   13  C8  UNL     1     -41.087 -17.909  -1.029  1.00  0.00     0.259 C 
BRANCH  13  14
HETATM   14  N5  UNL     1     -40.014 -17.944  -0.084  1.00  0.00    -0.078 N 
ATOM     15  H53 UNL     1     -40.394 -17.911   0.862  1.00  0.00     0.274 HD
ATOM     16  H52 UNL     1     -39.590 -18.871  -0.085  1.00  0.00     0.274 HD
ATOM     17  H51 UNL     1     -39.287 -17.236  -0.182  1.00  0.00     0.274 HD
ENDBRANCH  13  14
ENDBRANCH  12  13
ENDBRANCH   1  12
TORSDOF 7
ENDMDL
MODEL 2
REMARK VINA RESULT: -4.071031541      2.081      5.633
REMARK  7 active torsions:
REMARK  status: ('A' for Active; 'I' for Inactive)
REMARK    1  A    between atoms: N1_2  and  N2_3 
REMARK    2  A    between atoms: N2_3  and  C3_5 
REMARK    3  A    between atoms: N2_3  and  C7_12 
REMARK    4  A    between atoms: C4_6  and  C5_7 
REMARK    5  A    between atoms: C5_7  and  N3_8 
REMARK    6  A    between atoms: C7_12  and  C8_13 
REMARK    7  A    between atoms: C8_13  and  N5_14 
ROOT
HETATM    1  N2  UNL     1     -41.907 -19.327  -1.384  1.00  0.00     0.029 N 
HETATM    2  C2  UNL     1     -42.585 -18.371  -0.534  1.00  0.00     0.303 C 
ENDROOT
BRANCH   1   3
HETATM    3  N1  UNL     1     -40.530 -19.093  -1.304  1.00  0.00    -0.047 NA
HETATM    4  C1  UNL     1     -40.182 -17.757  -0.945  1.00  0.00     0.167 C 
ENDBRANCH   1   3
BRANCH   1   5
HETATM    5  C3  UNL     1     -42.151 -20.640  -0.933  1.00  0.00     0.222 C 
HETATM    6  C4  UNL     1     -41.711 -21.232   0.137  1.00  0.00     0.021 C 
BRANCH   6   7
HETATM    7  C5  UNL     1     -40.833 -20.720   1.196  1.00  0.00     0.178 C 
BRANCH   7   8
HETATM    8  N3  UNL     1     -41.035 -21.524   2.413  1.00  0.00    -0.282 N 
HETATM    9  C6  UNL     1     -41.128 -21.533   3.753  1.00  0.00     0.217 A 
HETATM   10  N4  UNL     1     -41.260 -22.736   3.074  1.00  0.00    -0.291 N 
ATOM     11  H4  UNL     1     -41.409 -23.745   3.065  1.00  0.00     0.188 HD
ENDBRANCH   7   8
ENDBRANCH   6   7
ENDBRANCH   1   5
BRANCH   1  12
HETATM   12  C7  UNL     1     -42.269 -19.126  -2.769  1.00  0.00     0.293 C 
BRANCH  12  13
HETATM   13  C8  UNL     1     -41.813 -20.155  -3.728  1.00  0.00     0.259 C 
BRANCH  13  14
HETATM   14  N5  UNL     1     -40.700 -19.819  -4.562  1.00  0.00    -0.078 N 
ATOM     15  H53 UNL     1     -40.925 -18.991  -5.113  1.00  0.00     0.274 HD
ATOM     16  H52 UNL     1     -39.939 -19.461  -3.985  1.00  0.00     0.274 HD
ATOM     17  H51 UNL     1     -40.345 -20.551  -5.179  1.00  0.00     0.274 HD
ENDBRANCH  13  14
ENDBRANCH  12  13
ENDBRANCH   1  12
TORSDOF 7
ENDMDL
MODEL 3
REMARK VINA RESULT: -4.005011406      1.584      5.235
REMARK  7 active torsions:
REMARK  status: ('A' for Active; 'I' for Inactive)
REMARK    1  A    between atoms: N1_2  and  N2_3 
REMARK    2  A    between atoms: N2_3  and  C3_5 
REMARK    3  A    between atoms: N2_3  and  C7_12 
REMARK    4  A    between atoms: C4_6  and  C5_7 
REMARK    5  A    between atoms: C5_7  and  N3_8 
REMARK    6  A    between atoms: C7_12  and  C8_13 
REMARK    7  A    between atoms: C8_13  and  N5_14 
ROOT
HETATM    1  N2  UNL     1     -42.227 -19.899  -3.680  1.00  0.00     0.029 N 
HETATM    2  C2  UNL     1     -41.202 -20.913  -3.811  1.00  0.00     0.303 C 
ENDROOT
BRANCH   1   3
HETATM    3  N1  UNL     1     -43.460 -20.536  -3.503  1.00  0.00    -0.047 NA
HETATM    4  C1  UNL     1     -43.405 -21.957  -3.605  1.00  0.00     0.167 C 
ENDBRANCH   1   3
BRANCH   1   5
HETATM    5  C3  UNL     1     -41.983 -19.103  -2.543  1.00  0.00     0.222 C 
HETATM    6  C4  UNL     1     -41.880 -19.464  -1.298  1.00  0.00     0.021 C 
BRANCH   6   7
HETATM    7  C5  UNL     1     -41.986 -20.801  -0.700  1.00  0.00     0.178 C 
BRANCH   7   8
HETATM    8  N3  UNL     1     -41.367 -20.774   0.636  1.00  0.00    -0.282 N 
HETATM    9  C6  UNL     1     -40.737 -20.042   1.569  1.00  0.00     0.217 A 
HETATM   10  N4  UNL     1     -40.986 -21.380   1.838  1.00  0.00    -0.291 N 
ATOM     11  H4  UNL     1     -40.932 -22.193   2.451  1.00  0.00     0.188 HD
ENDBRANCH   7   8
ENDBRANCH   6   7
ENDBRANCH   1   5
BRANCH   1  12
HETATM   12  C7  UNL     1     -42.342 -19.129  -4.897  1.00  0.00     0.293 C 
BRANCH  12  13
HETATM   13  C8  UNL     1     -41.216 -19.225  -5.851  1.00  0.00     0.259 C 
BRANCH  13  14
HETATM   14  N5  UNL     1     -41.531 -19.129  -7.243  1.00  0.00    -0.078 N 
ATOM     15  H53 UNL     1     -42.463 -18.731  -7.353  1.00  0.00     0.274 HD
ATOM     16  H52 UNL     1     -40.962 -18.398  -7.671  1.00  0.00     0.274 HD
ATOM     17  H51 UNL     1     -41.459 -19.984  -7.795  1.00  0.00     0.274 HD
ENDBRANCH  13  14
ENDBRANCH  12  13
ENDBRANCH   1  12
TORSDOF 7
ENDMDL
MODEL 4
REMARK VINA RESULT: -3.994330655      1.718      4.597
REMARK  7 active torsions:
REMARK  status: ('A' for Active; 'I' for Inactive)
REMARK    1  A    between atoms: N1_2  and  N2_3 
REMARK    2  A    between atoms: N2_3  and  C3_5 
REMARK    3  A    between atoms: N2_3  and  C7_12 
REMARK    4  A    between atoms: C4_6  and  C5_7 
REMARK    5  A    between atoms: C5_7  and  N3_8 
REMARK    6  A    between atoms: C7_12  and  C8_13 
REMARK    7  A    between atoms: C8_13  and  N5_14 
ROOT
HETATM    1  N2  UNL     1     -42.586 -19.477  -4.177  1.00  0.00     0.029 N 
HETATM    2  C2  UNL     1     -43.248 -18.549  -5.069  1.00  0.00     0.303 C 
ENDROOT
BRANCH   1   3
HETATM    3  N1  UNL     1     -42.461 -18.872  -2.922  1.00  0.00    -0.047 NA
HETATM    4  C1  UNL     1     -41.113 -18.665  -2.503  1.00  0.00     0.167 C 
ENDBRANCH   1   3
BRANCH   1   5
HETATM    5  C3  UNL     1     -43.363 -20.642  -4.022  1.00  0.00     0.222 C 
HETATM    6  C4  UNL     1     -43.084 -21.730  -3.367  1.00  0.00     0.021 C 
BRANCH   6   7
HETATM    7  C5  UNL     1     -41.883 -22.076  -2.595  1.00  0.00     0.178 C 
BRANCH   7   8
HETATM    8  N3  UNL     1     -42.164 -21.873  -1.164  1.00  0.00    -0.282 N 
HETATM    9  C6  UNL     1     -41.953 -21.120  -0.072  1.00  0.00     0.217 A 
HETATM   10  N4  UNL     1     -42.775 -22.232   0.043  1.00  0.00    -0.291 N 
ATOM     11  H4  UNL     1     -43.374 -22.847   0.592  1.00  0.00     0.188 HD
ENDBRANCH   7   8
ENDBRANCH   6   7
ENDBRANCH   1   5
BRANCH   1  12
HETATM   12  C7  UNL     1     -41.240 -19.748  -4.629  1.00  0.00     0.293 C 
BRANCH  12  13
HETATM   13  C8  UNL     1     -40.900 -19.307  -5.999  1.00  0.00     0.259 C 
BRANCH  13  14
HETATM   14  N5  UNL     1     -39.540 -18.938  -6.245  1.00  0.00    -0.078 N 
ATOM     15  H53 UNL     1     -38.924 -19.695  -5.949  1.00  0.00     0.274 HD
ATOM     16  H52 UNL     1     -39.366 -18.934  -7.250  1.00  0.00     0.274 HD
ATOM     17  H51 UNL     1     -39.218 -18.060  -5.839  1.00  0.00     0.274 HD
ENDBRANCH  13  14
ENDBRANCH  12  13
ENDBRANCH   1  12
TORSDOF 7
ENDMDL
MODEL 5
REMARK VINA RESULT: -3.962630589      1.339      4.973
REMARK  7 active torsions:
REMARK  status: ('A' for Active; 'I' for Inactive)
REMARK    1  A    between atoms: N1_2  and  N2_3 
REMARK    2  A    between atoms: N2_3  and  C3_5 
REMARK    3  A    between atoms: N2_3  and  C7_12 
REMARK    4  A    between atoms: C4_6  and  C5_7 
REMARK    5  A    between atoms: C5_7  and  N3_8 
REMARK    6  A    between atoms: C7_12  and  C8_13 
REMARK    7  A    between atoms: C8_13  and  N5_14 
ROOT
HETATM    1  N2  UNL     1     -41.936 -19.739  -4.291  1.00  0.00     0.029 N 
HETATM    2  C2  UNL     1     -43.276 -19.203  -4.180  1.00  0.00     0.303 C 
ENDROOT
BRANCH   1   3
HETATM    3  N1  UNL     1     -41.543 -19.673  -5.632  1.00  0.00    -0.047 NA
HETATM    4  C1  UNL     1     -40.261 -19.082  -5.838  1.00  0.00     0.167 C 
ENDBRANCH   1   3
BRANCH   1   5
HETATM    5  C3  UNL     1     -41.036 -18.961  -3.536  1.00  0.00     0.222 C 
HETATM    6  C4  UNL     1     -41.100 -18.622  -2.282  1.00  0.00     0.021 C 
BRANCH   6   7
HETATM    7  C5  UNL     1     -42.122 -18.941  -1.278  1.00  0.00     0.178 C 
BRANCH   7   8
HETATM    8  N3  UNL     1     -41.490 -19.690  -0.178  1.00  0.00    -0.282 N 
HETATM    9  C6  UNL     1     -40.767 -19.632   0.952  1.00  0.00     0.217 A 
HETATM   10  N4  UNL     1     -41.170 -20.876   0.490  1.00  0.00    -0.291 N 
ATOM     11  H4  UNL     1     -41.206 -21.892   0.574  1.00  0.00     0.188 HD
ENDBRANCH   7   8
ENDBRANCH   6   7
ENDBRANCH   1   5
BRANCH   1  12
HETATM   12  C7  UNL     1     -41.915 -21.139  -3.934  1.00  0.00     0.293 C 
BRANCH  12  13
HETATM   13  C8  UNL     1     -43.162 -21.698  -3.369  1.00  0.00     0.259 C 
BRANCH  13  14
HETATM   14  N5  UNL     1     -43.072 -22.325  -2.087  1.00  0.00    -0.078 N 
ATOM     15  H53 UNL     1     -42.213 -22.030  -1.624  1.00  0.00     0.274 HD
ATOM     16  H52 UNL     1     -43.771 -21.923  -1.462  1.00  0.00     0.274 HD
ATOM     17  H51 UNL     1     -43.139 -23.343  -2.063  1.00  0.00     0.274 HD
ENDBRANCH  13  14
ENDBRANCH  12  13
ENDBRANCH   1  12
TORSDOF 7
ENDMDL
