MODEL 1
REMARK VINA RESULT: -6.017727242      0.000      0.000
REMARK  8 active torsions:
REMARK  status: ('A' for Active; 'I' for Inactive)
REMARK    1  A    between atoms: N2_4  and  N3_6 
REMARK    2  A    between atoms: C1_8  and  N4_9 
REMARK    3  A    between atoms: N4_9  and  C2_11 
REMARK    4  A    between atoms: C2_11  and  C3_12 
REMARK    5  A    between atoms: C3_12  and  N5_13 
REMARK    6  A    between atoms: C4_15  and  N6_16 
REMARK    7  A    between atoms: C6_18  and  C7_19 
REMARK    8  A    between atoms: C7_19  and  O1_20 
ROOT
HETATM    1  C2  UNL     1     -43.031 -21.462  -4.026  1.00  0.00     0.140 C 
ENDROOT
BRANCH   1   2
HETATM    2  N4  UNL     1     -42.811 -20.031  -3.951  1.00  0.00    -0.384 N 
ATOM      3  H4  UNL     1     -43.390 -19.452  -3.344  1.00  0.00     0.160 HD
BRANCH   2   4
HETATM    4  C1  UNL     1     -41.785 -19.451  -4.729  1.00  0.00     0.194 C 
HETATM    5  N3  UNL     1     -41.781 -19.589  -6.007  1.00  0.00    -0.283 N 
ATOM      6  H3  UNL     1     -42.531 -20.124  -6.446  1.00  0.00     0.189 HD
BRANCH   5   7
HETATM    7  N2  UNL     1     -40.801 -19.041  -6.807  1.00  0.00    -0.248 N 
HETATM    8  N1  UNL     1     -39.608 -18.965  -6.383  1.00  0.00    -0.331 N 
ATOM      9  H12 UNL     1     -39.391 -19.313  -5.449  1.00  0.00     0.178 HD
ATOM     10  H11 UNL     1     -38.883 -18.559  -6.975  1.00  0.00     0.178 HD
ATOM     11  H2  UNL     1     -41.034 -18.696  -7.738  1.00  0.00     0.207 HD
ENDBRANCH   5   7
ENDBRANCH   2   4
ENDBRANCH   1   2
BRANCH   1  12
HETATM   12  C3  UNL     1     -42.669 -22.048  -2.666  1.00  0.00     0.140 C 
BRANCH  12  13
HETATM   13  N5  UNL     1     -41.955 -21.073  -1.923  1.00  0.00    -0.385 N 
HETATM   14  C4  UNL     1     -41.932 -20.900  -0.657  1.00  0.00     0.174 C 
ATOM     15  H5  UNL     1     -41.386 -20.427  -2.470  1.00  0.00     0.160 HD
BRANCH  14  16
HETATM   16  N6  UNL     1     -41.158 -19.870  -0.083  1.00  0.00    -0.367 N 
HETATM   17  C5  UNL     1     -40.832 -19.086   1.178  1.00  0.00     0.151 A 
HETATM   18  C6  UNL     1     -40.156 -18.781  -0.053  1.00  0.00     0.126 A 
BRANCH  18  19
HETATM   19  C7  UNL     1     -40.464 -17.612  -0.932  1.00  0.00     0.191 C 
BRANCH  19  20
HETATM   20  O1  UNL     1     -41.789 -17.379  -1.161  1.00  0.00    -0.399 OA
ATOM     21  H1  UNL     1     -42.187 -16.708  -0.619  1.00  0.00     0.209 HD
ENDBRANCH  19  20
ENDBRANCH  18  19
ENDBRANCH  14  16
ENDBRANCH  12  13
ENDBRANCH   1  12
TORSDOF 8
ENDMDL
MODEL 2
REMARK VINA RESULT: -5.963497656      2.644      6.552
REMARK  8 active torsions:
REMARK  status: ('A' for Active; 'I' for Inactive)
REMARK    1  A    between atoms: N2_4  and  N3_6 
REMARK    2  A    between atoms: C1_8  and  N4_9 
REMARK    3  A    between atoms: N4_9  and  C2_11 
REMARK    4  A    between atoms: C2_11  and  C3_12 
REMARK    5  A    between atoms: C3_12  and  N5_13 
REMARK    6  A    between atoms: C4_15  and  N6_16 
REMARK    7  A    between atoms: C6_18  and  C7_19 
REMARK    8  A    between atoms: C7_19  and  O1_20 
ROOT
HETATM    1  C2  UNL     1     -40.753 -19.321   1.085  1.00  0.00     0.140 C 
ENDROOT
BRANCH   1   2
HETATM    2  N4  UNL     1     -40.962 -20.652   0.552  1.00  0.00    -0.384 N 
ATOM      3  H4  UNL     1     -40.785 -20.848  -0.433  1.00  0.00     0.160 HD
BRANCH   2   4
HETATM    4  C1  UNL     1     -41.413 -21.676   1.415  1.00  0.00     0.194 C 
HETATM    5  N3  UNL     1     -40.944 -21.774   2.608  1.00  0.00    -0.283 N 
ATOM      6  H3  UNL     1     -40.243 -21.100   2.918  1.00  0.00     0.189 HD
BRANCH   5   7
HETATM    7  N2  UNL     1     -41.355 -22.756   3.485  1.00  0.00    -0.248 N 
HETATM    8  N1  UNL     1     -42.064 -22.451   4.490  1.00  0.00    -0.331 N 
ATOM      9  H12 UNL     1     -42.321 -21.475   4.636  1.00  0.00     0.178 HD
ATOM     10  H11 UNL     1     -42.367 -23.178   5.138  1.00  0.00     0.178 HD
ATOM     11  H2  UNL     1     -41.088 -23.727   3.324  1.00  0.00     0.207 HD
ENDBRANCH   5   7
ENDBRANCH   2   4
ENDBRANCH   1   2
BRANCH   1  12
HETATM   12  C3  UNL     1     -40.352 -18.424  -0.081  1.00  0.00     0.140 C 
BRANCH  12  13
HETATM   13  N5  UNL     1     -40.779 -19.029  -1.291  1.00  0.00    -0.385 N 
HETATM   14  C4  UNL     1     -41.644 -18.602  -2.129  1.00  0.00     0.174 C 
ATOM     15  H5  UNL     1     -40.338 -19.919  -1.523  1.00  0.00     0.160 HD
BRANCH  14  16
HETATM   16  N6  UNL     1     -41.950 -19.340  -3.292  1.00  0.00    -0.367 N 
HETATM   17  C5  UNL     1     -42.361 -19.284  -4.753  1.00  0.00     0.151 A 
HETATM   18  C6  UNL     1     -42.146 -20.554  -4.116  1.00  0.00     0.126 A 
BRANCH  18  19
HETATM   19  C7  UNL     1     -43.229 -21.471  -3.646  1.00  0.00     0.191 C 
BRANCH  19  20
HETATM   20  O1  UNL     1     -44.200 -20.894  -2.880  1.00  0.00    -0.399 OA
ATOM     21  H1  UNL     1     -43.915 -20.173  -2.333  1.00  0.00     0.209 HD
ENDBRANCH  19  20
ENDBRANCH  18  19
ENDBRANCH  14  16
ENDBRANCH  12  13
ENDBRANCH   1  12
TORSDOF 8
ENDMDL
MODEL 3
REMARK VINA RESULT: -5.960637491      3.458      7.227
REMARK  8 active torsions:
REMARK  status: ('A' for Active; 'I' for Inactive)
REMARK    1  A    between atoms: N2_4  and  N3_6 
REMARK    2  A    between atoms: C1_8  and  N4_9 
REMARK    3  A    between atoms: N4_9  and  C2_11 
REMARK    4  A    between atoms: C2_11  and  C3_12 
REMARK    5  A    between atoms: C3_12  and  N5_13 
REMARK    6  A    between atoms: C4_15  and  N6_16 
REMARK    7  A    between atoms: C6_18  and  C7_19 
REMARK    8  A    between atoms: C7_19  and  O1_20 
ROOT
HETATM    1  C2  UNL     1     -41.134 -21.127   0.838  1.00  0.00     0.140 C 
ENDROOT
BRANCH   1   2
HETATM    2  N4  UNL     1     -40.665 -20.916   2.193  1.00  0.00    -0.384 N 
ATOM      3  H4  UNL     1     -39.823 -20.368   2.368  1.00  0.00     0.160 HD
BRANCH   2   4
HETATM    4  C1  UNL     1     -41.388 -21.481   3.268  1.00  0.00     0.194 C 
HETATM    5  N3  UNL     1     -41.026 -21.260   4.482  1.00  0.00    -0.283 N 
ATOM      6  H3  UNL     1     -40.211 -20.671   4.653  1.00  0.00     0.189 HD
BRANCH   5   7
HETATM    7  N2  UNL     1     -41.701 -21.789   5.561  1.00  0.00    -0.248 N 
HETATM    8  N1  UNL     1     -42.468 -22.785   5.401  1.00  0.00    -0.331 N 
ATOM      9  H12 UNL     1     -42.576 -23.183   4.468  1.00  0.00     0.178 HD
ATOM     10  H11 UNL     1     -42.967 -23.177   6.200  1.00  0.00     0.178 HD
ATOM     11  H2  UNL     1     -41.583 -21.380   6.488  1.00  0.00     0.207 HD
ENDBRANCH   5   7
ENDBRANCH   2   4
ENDBRANCH   1   2
BRANCH   1  12
HETATM   12  C3  UNL     1     -41.230 -19.759   0.174  1.00  0.00     0.140 C 
BRANCH  12  13
HETATM   13  N5  UNL     1     -41.453 -19.939  -1.215  1.00  0.00    -0.385 N 
HETATM   14  C4  UNL     1     -41.866 -19.084  -2.070  1.00  0.00     0.174 C 
ATOM     15  H5  UNL     1     -41.260 -20.872  -1.578  1.00  0.00     0.160 HD
BRANCH  14  16
HETATM   16  N6  UNL     1     -42.034 -19.439  -3.425  1.00  0.00    -0.367 N 
HETATM   17  C5  UNL     1     -42.574 -20.467  -4.406  1.00  0.00     0.151 A 
HETATM   18  C6  UNL     1     -41.920 -19.284  -4.892  1.00  0.00     0.126 A 
BRANCH  18  19
HETATM   19  C7  UNL     1     -40.522 -19.233  -5.419  1.00  0.00     0.191 C 
BRANCH  19  20
HETATM   20  O1  UNL     1     -40.403 -18.951  -6.749  1.00  0.00    -0.399 OA
ATOM     21  H1  UNL     1     -39.522 -18.997  -7.101  1.00  0.00     0.209 HD
ENDBRANCH  19  20
ENDBRANCH  18  19
ENDBRANCH  14  16
ENDBRANCH  12  13
ENDBRANCH   1  12
TORSDOF 8
ENDMDL
MODEL 4
REMARK VINA RESULT: -5.937608428      2.891      6.592
REMARK  8 active torsions:
REMARK  status: ('A' for Active; 'I' for Inactive)
REMARK    1  A    between atoms: N2_4  and  N3_6 
REMARK    2  A    between atoms: C1_8  and  N4_9 
REMARK    3  A    between atoms: N4_9  and  C2_11 
REMARK    4  A    between atoms: C2_11  and  C3_12 
REMARK    5  A    between atoms: C3_12  and  N5_13 
REMARK    6  A    between atoms: C4_15  and  N6_16 
REMARK    7  A    between atoms: C6_18  and  C7_19 
REMARK    8  A    between atoms: C7_19  and  O1_20 
ROOT
HETATM    1  C2  UNL     1     -41.145 -19.056   0.632  1.00  0.00     0.140 C 
ENDROOT
BRANCH   1   2
HETATM    2  N4  UNL     1     -40.546 -20.371   0.741  1.00  0.00    -0.384 N 
ATOM      3  H4  UNL     1     -39.653 -20.570   0.291  1.00  0.00     0.160 HD
BRANCH   2   4
HETATM    4  C1  UNL     1     -41.216 -21.374   1.478  1.00  0.00     0.194 C 
HETATM    5  N3  UNL     1     -40.778 -21.734   2.632  1.00  0.00    -0.283 N 
ATOM      6  H3  UNL     1     -39.941 -21.283   3.003  1.00  0.00     0.189 HD
BRANCH   5   7
HETATM    7  N2  UNL     1     -41.398 -22.707   3.386  1.00  0.00    -0.248 N 
HETATM    8  N1  UNL     1     -42.008 -22.390   4.451  1.00  0.00    -0.331 N 
ATOM      9  H12 UNL     1     -42.029 -21.410   4.736  1.00  0.00     0.178 HD
ATOM     10  H11 UNL     1     -42.466 -23.110   5.009  1.00  0.00     0.178 HD
ATOM     11  H2  UNL     1     -41.366 -23.682   3.087  1.00  0.00     0.207 HD
ENDBRANCH   5   7
ENDBRANCH   2   4
ENDBRANCH   1   2
BRANCH   1  12
HETATM   12  C3  UNL     1     -40.337 -18.274  -0.397  1.00  0.00     0.140 C 
BRANCH  12  13
HETATM   13  N5  UNL     1     -40.706 -18.710  -1.695  1.00  0.00    -0.385 N 
HETATM   14  C4  UNL     1     -41.875 -18.958  -2.147  1.00  0.00     0.174 C 
ATOM     15  H5  UNL     1     -39.938 -18.844  -2.354  1.00  0.00     0.160 HD
BRANCH  14  16
HETATM   16  N6  UNL     1     -42.060 -19.388  -3.478  1.00  0.00    -0.367 N 
HETATM   17  C5  UNL     1     -42.583 -20.484  -4.392  1.00  0.00     0.151 A 
HETATM   18  C6  UNL     1     -41.987 -19.303  -4.954  1.00  0.00     0.126 A 
BRANCH  18  19
HETATM   19  C7  UNL     1     -40.604 -19.226  -5.517  1.00  0.00     0.191 C 
BRANCH  19  20
HETATM   20  O1  UNL     1     -40.528 -19.001  -6.861  1.00  0.00    -0.399 OA
ATOM     21  H1  UNL     1     -40.364 -19.767  -7.397  1.00  0.00     0.209 HD
ENDBRANCH  19  20
ENDBRANCH  18  19
ENDBRANCH  14  16
ENDBRANCH  12  13
ENDBRANCH   1  12
TORSDOF 8
ENDMDL
MODEL 5
REMARK VINA RESULT: -5.904731296      2.599      5.879
REMARK  8 active torsions:
REMARK  status: ('A' for Active; 'I' for Inactive)
REMARK    1  A    between atoms: N2_4  and  N3_6 
REMARK    2  A    between atoms: C1_8  and  N4_9 
REMARK    3  A    between atoms: N4_9  and  C2_11 
REMARK    4  A    between atoms: C2_11  and  C3_12 
REMARK    5  A    between atoms: C3_12  and  N5_13 
REMARK    6  A    between atoms: C4_15  and  N6_16 
REMARK    7  A    between atoms: C6_18  and  C7_19 
REMARK    8  A    between atoms: C7_19  and  O1_20 
ROOT
HETATM    1  C2  UNL     1     -40.760 -19.162   0.553  1.00  0.00     0.140 C 
ENDROOT
BRANCH   1   2
HETATM    2  N4  UNL     1     -40.929 -20.479  -0.027  1.00  0.00    -0.384 N 
ATOM      3  H4  UNL     1     -40.563 -20.684  -0.957  1.00  0.00     0.160 HD
BRANCH   2   4
HETATM    4  C1  UNL     1     -41.608 -21.475   0.710  1.00  0.00     0.194 C 
HETATM    5  N3  UNL     1     -42.568 -22.140   0.173  1.00  0.00    -0.283 N 
ATOM      6  H3  UNL     1     -42.829 -21.935  -0.792  1.00  0.00     0.189 HD
BRANCH   5   7
HETATM    7  N2  UNL     1     -43.259 -23.120   0.855  1.00  0.00    -0.248 N 
HETATM    8  N1  UNL     1     -43.444 -24.253   0.317  1.00  0.00    -0.331 N 
ATOM      9  H12 UNL     1     -43.076 -24.423  -0.619  1.00  0.00     0.178 HD
ATOM     10  H11 UNL     1     -43.955 -24.977   0.822  1.00  0.00     0.178 HD
ATOM     11  H2  UNL     1     -43.620 -22.933   1.790  1.00  0.00     0.207 HD
ENDBRANCH   5   7
ENDBRANCH   2   4
ENDBRANCH   1   2
BRANCH   1  12
HETATM   12  C3  UNL     1     -40.432 -18.203  -0.586  1.00  0.00     0.140 C 
BRANCH  12  13
HETATM   13  N5  UNL     1     -40.815 -18.803  -1.813  1.00  0.00    -0.385 N 
HETATM   14  C4  UNL     1     -41.949 -18.758  -2.398  1.00  0.00     0.174 C 
ATOM     15  H5  UNL     1     -40.090 -19.340  -2.289  1.00  0.00     0.160 HD
BRANCH  14  16
HETATM   16  N6  UNL     1     -42.156 -19.420  -3.627  1.00  0.00    -0.367 N 
HETATM   17  C5  UNL     1     -42.434 -20.744  -4.319  1.00  0.00     0.151 A 
HETATM   18  C6  UNL     1     -42.288 -19.545  -5.096  1.00  0.00     0.126 A 
BRANCH  18  19
HETATM   19  C7  UNL     1     -41.069 -19.173  -5.877  1.00  0.00     0.191 C 
BRANCH  19  20
HETATM   20  O1  UNL     1     -41.241 -19.077  -7.227  1.00  0.00    -0.399 OA
ATOM     21  H1  UNL     1     -40.722 -18.410  -7.660  1.00  0.00     0.209 HD
ENDBRANCH  19  20
ENDBRANCH  18  19
ENDBRANCH  14  16
ENDBRANCH  12  13
ENDBRANCH   1  12
TORSDOF 8
ENDMDL
