MODEL 1
REMARK VINA RESULT: -6.546748626      0.000      0.000
REMARK  2 active torsions:
REMARK  status: ('A' for Active; 'I' for Inactive)
REMARK    1  A    between atoms: C2_2  and  O1_3 
REMARK    2  A    between atoms: C2_2  and  C3_5 
ROOT
HETATM    1  C3  UNL     1    -108.392-176.544 308.478  1.00  0.00     0.015 C 
HETATM    2  C4  UNL     1    -108.687-175.026 308.464  1.00  0.00     0.044 C 
HETATM    3  C5  UNL     1    -109.949-175.204 309.348  1.00  0.00     0.056 C 
HETATM    4 CL1  UNL     1    -110.889-173.836 309.591  1.00  0.00    -0.117 Cl
HETATM    5  C6  UNL     1    -109.116-175.695 310.557  1.00  0.00     0.033 C 
HETATM    6  C7  UNL     1    -108.705-177.006 309.851  1.00  0.00     0.004 C 
HETATM    7  C8  UNL     1    -110.149-177.550 309.780  1.00  0.00     0.029 C 
HETATM    8  C9  UNL     1    -110.619-176.453 308.798  1.00  0.00     0.041 C 
HETATM    9 BR1  UNL     1    -112.398-176.392 308.408  1.00  0.00    -0.083 Br
HETATM   10  C10 UNL     1    -109.661-176.888 307.665  1.00  0.00     0.040 C 
ENDROOT
BRANCH   1  11
HETATM   11  C2  UNL     1    -107.166-176.909 307.874  1.00  0.00     0.043 C 
HETATM   12  C1  UNL     1    -106.121-177.262 308.604  1.00  0.00     0.046 C 
BRANCH  11  13
HETATM   13  O1  UNL     1    -107.065-176.893 306.488  1.00  0.00    -0.365 OA
ATOM     14  H1  UNL     1    -107.831-176.699 305.961  1.00  0.00     0.217 HD
ENDBRANCH  11  13
ENDBRANCH   1  11
TORSDOF 2
ENDMDL
MODEL 2
REMARK VINA RESULT: -6.514685374      1.656      2.184
REMARK  2 active torsions:
REMARK  status: ('A' for Active; 'I' for Inactive)
REMARK    1  A    between atoms: C2_2  and  O1_3 
REMARK    2  A    between atoms: C2_2  and  C3_5 
ROOT
HETATM    1  C3  UNL     1    -108.831-175.565 307.695  1.00  0.00     0.015 C 
HETATM    2  C4  UNL     1    -109.337-175.020 306.339  1.00  0.00     0.044 C 
HETATM    3  C5  UNL     1    -110.517-174.273 307.012  1.00  0.00     0.056 C 
HETATM    4 CL1  UNL     1    -111.627-173.548 305.984  1.00  0.00    -0.117 Cl
HETATM    5  C6  UNL     1    -109.565-173.325 307.782  1.00  0.00     0.033 C 
HETATM    6  C7  UNL     1    -109.010-174.462 308.668  1.00  0.00     0.004 C 
HETATM    7  C8  UNL     1    -110.365-174.738 309.355  1.00  0.00     0.029 C 
HETATM    8  C9  UNL     1    -111.031-175.249 308.058  1.00  0.00     0.041 C 
HETATM    9 BR1  UNL     1    -112.818-175.600 308.124  1.00  0.00    -0.083 Br
HETATM   10  C10 UNL     1    -110.078-176.456 307.901  1.00  0.00     0.040 C 
ENDROOT
BRANCH   1  11
HETATM   11  C2  UNL     1    -107.598-176.254 307.626  1.00  0.00     0.043 C 
HETATM   12  C1  UNL     1    -106.892-176.502 308.717  1.00  0.00     0.046 C 
BRANCH  11  13
HETATM   13  O1  UNL     1    -107.126-176.674 306.389  1.00  0.00    -0.365 OA
ATOM     14  H1  UNL     1    -107.533-176.351 305.594  1.00  0.00     0.217 HD
ENDBRANCH  11  13
ENDBRANCH   1  11
TORSDOF 2
ENDMDL
MODEL 3
REMARK VINA RESULT: -6.504706982      2.839      3.993
REMARK  2 active torsions:
REMARK  status: ('A' for Active; 'I' for Inactive)
REMARK    1  A    between atoms: C2_2  and  O1_3 
REMARK    2  A    between atoms: C2_2  and  C3_5 
ROOT
HETATM    1  C3  UNL     1    -110.596-176.121 308.838  1.00  0.00     0.015 C 
HETATM    2  C4  UNL     1    -110.305-177.334 309.751  1.00  0.00     0.044 C 
HETATM    3  C5  UNL     1    -108.832-176.897 309.962  1.00  0.00     0.056 C 
HETATM    4 CL1  UNL     1    -107.850-177.964 310.804  1.00  0.00    -0.117 Cl
HETATM    5  C6  UNL     1    -109.251-175.606 310.706  1.00  0.00     0.033 C 
HETATM    6  C7  UNL     1    -109.874-174.976 309.441  1.00  0.00     0.004 C 
HETATM    7  C8  UNL     1    -108.530-174.895 308.684  1.00  0.00     0.029 C 
HETATM    8  C9  UNL     1    -108.380-176.430 308.587  1.00  0.00     0.041 C 
HETATM    9 BR1  UNL     1    -106.811-177.071 307.918  1.00  0.00    -0.083 Br
HETATM   10  C10 UNL     1    -109.648-176.620 307.724  1.00  0.00     0.040 C 
ENDROOT
BRANCH   1  11
HETATM   11  C2  UNL     1    -111.953-175.982 308.462  1.00  0.00     0.043 C 
HETATM   12  C1  UNL     1    -112.471-174.794 308.197  1.00  0.00     0.046 C 
BRANCH  11  13
HETATM   13  O1  UNL     1    -112.749-177.117 308.373  1.00  0.00    -0.365 OA
ATOM     14  H1  UNL     1    -112.433-177.879 307.902  1.00  0.00     0.217 HD
ENDBRANCH  11  13
ENDBRANCH   1  11
TORSDOF 2
ENDMDL
MODEL 4
REMARK VINA RESULT: -6.490716308      2.888      4.199
REMARK  2 active torsions:
REMARK  status: ('A' for Active; 'I' for Inactive)
REMARK    1  A    between atoms: C2_2  and  O1_3 
REMARK    2  A    between atoms: C2_2  and  C3_5 
ROOT
HETATM    1  C3  UNL     1    -110.983-175.375 308.060  1.00  0.00     0.015 C 
HETATM    2  C4  UNL     1    -110.253-175.194 309.412  1.00  0.00     0.044 C 
HETATM    3  C5  UNL     1    -108.917-174.839 308.710  1.00  0.00     0.056 C 
HETATM    4 CL1  UNL     1    -107.575-174.666 309.702  1.00  0.00    -0.117 Cl
HETATM    5  C6  UNL     1    -109.502-173.539 308.105  1.00  0.00     0.033 C 
HETATM    6  C7  UNL     1    -110.467-174.305 307.174  1.00  0.00     0.004 C 
HETATM    7  C8  UNL     1    -109.334-174.962 306.356  1.00  0.00     0.029 C 
HETATM    8  C9  UNL     1    -108.835-175.813 307.545  1.00  0.00     0.041 C 
HETATM    9 BR1  UNL     1    -107.296-176.759 307.304  1.00  0.00    -0.083 Br
HETATM   10  C10 UNL     1    -110.148-176.618 307.676  1.00  0.00     0.040 C 
ENDROOT
BRANCH   1  11
HETATM   11  C2  UNL     1    -112.376-175.591 308.170  1.00  0.00     0.043 C 
HETATM   12  C1  UNL     1    -113.234-174.588 308.070  1.00  0.00     0.046 C 
BRANCH  11  13
HETATM   13  O1  UNL     1    -112.846-176.881 308.387  1.00  0.00    -0.365 OA
ATOM     14  H1  UNL     1    -113.074-177.158 309.266  1.00  0.00     0.217 HD
ENDBRANCH  11  13
ENDBRANCH   1  11
TORSDOF 2
ENDMDL
MODEL 5
REMARK VINA RESULT: -6.325234824      3.114      4.228
REMARK  2 active torsions:
REMARK  status: ('A' for Active; 'I' for Inactive)
REMARK    1  A    between atoms: C2_2  and  O1_3 
REMARK    2  A    between atoms: C2_2  and  C3_5 
ROOT
HETATM    1  C3  UNL     1    -110.527-174.591 307.782  1.00  0.00     0.015 C 
HETATM    2  C4  UNL     1    -109.515-175.072 306.715  1.00  0.00     0.044 C 
HETATM    3  C5  UNL     1    -108.816-176.022 307.722  1.00  0.00     0.056 C 
HETATM    4 CL1  UNL     1    -107.423-176.787 307.183  1.00  0.00    -0.117 Cl
HETATM    5  C6  UNL     1    -110.079-176.906 307.868  1.00  0.00     0.033 C 
HETATM    6  C7  UNL     1    -110.882-175.792 308.574  1.00  0.00     0.004 C 
HETATM    7  C8  UNL     1    -109.956-175.755 309.810  1.00  0.00     0.029 C 
HETATM    8  C9  UNL     1    -108.747-175.218 309.011  1.00  0.00     0.041 C 
HETATM    9 BR1  UNL     1    -107.154-175.107 309.887  1.00  0.00    -0.083 Br
HETATM   10  C10 UNL     1    -109.438-173.890 308.626  1.00  0.00     0.040 C 
ENDROOT
BRANCH   1  11
HETATM   11  C2  UNL     1    -111.546-173.747 307.284  1.00  0.00     0.043 C 
HETATM   12  C1  UNL     1    -112.824-174.022 307.491  1.00  0.00     0.046 C 
BRANCH  11  13
HETATM   13  O1  UNL     1    -111.193-172.611 306.566  1.00  0.00    -0.365 OA
ATOM     14  H1  UNL     1    -111.864-171.997 306.293  1.00  0.00     0.217 HD
ENDBRANCH  11  13
ENDBRANCH   1  11
TORSDOF 2
ENDMDL
