MODEL 1
REMARK VINA RESULT: -6.707427296      0.000      0.000
REMARK  3 active torsions:
REMARK  status: ('A' for Active; 'I' for Inactive)
REMARK    1  A    between atoms: C4_5  and  C5_6 
REMARK       I    between atoms: C5_6  and  N2_8 
REMARK    2  A    between atoms: N2_8  and  C6_10 
REMARK    3  A    between atoms: C6_10  and  C7_11 
ROOT
HETATM    1  C1  UNL     1    -113.650-175.337 307.697  1.00  0.00     0.222 C 
HETATM    2  N1  UNL     1    -112.558-175.641 307.938  1.00  0.00    -0.458 NA
HETATM    3  C2  UNL     1    -111.253-176.032 308.238  1.00  0.00     0.123 A 
HETATM    4  C3  UNL     1    -111.070-177.493 308.603  1.00  0.00     0.057 C 
HETATM    5  C4  UNL     1    -110.157-175.382 307.545  1.00  0.00     0.148 A 
HETATM    6  C11 UNL     1    -110.347-175.101 309.013  1.00  0.00     0.087 A 
HETATM    7  C12 UNL     1    -110.989-173.859 309.524  1.00  0.00     0.037 C 
HETATM    8 CL1  UNL     1    -109.094-175.822 310.050  1.00  0.00    -0.115 Cl
ENDROOT
BRANCH   5   9
HETATM    9  C5  UNL     1    -110.357-174.133 306.697  1.00  0.00     0.231 C 
HETATM   10  O1  UNL     1    -109.715-173.101 307.033  1.00  0.00    -0.273 OA
HETATM   11  N2  UNL     1    -111.226-174.244 305.632  1.00  0.00    -0.340 N 
ATOM     12  H2  UNL     1    -111.664-175.160 305.537  1.00  0.00     0.167 HD
BRANCH  11  13
HETATM   13  C6  UNL     1    -111.607-173.317 304.662  1.00  0.00     0.072 C 
BRANCH  13  14
HETATM   14  C7  UNL     1    -111.355-173.588 303.251  1.00  0.00    -0.019 C 
HETATM   15  C8  UNL     1    -112.369-174.404 302.537  1.00  0.00     0.020 C 
HETATM   16  C9  UNL     1    -109.965-174.220 303.031  1.00  0.00     0.020 C 
HETATM   17  C10 UNL     1    -111.252-172.224 302.519  1.00  0.00     0.020 C 
ENDBRANCH  13  14
ENDBRANCH  11  13
ENDBRANCH   5   9
TORSDOF 3
ENDMDL
MODEL 2
REMARK VINA RESULT: -6.673829190      0.158      1.067
REMARK  3 active torsions:
REMARK  status: ('A' for Active; 'I' for Inactive)
REMARK    1  A    between atoms: C4_5  and  C5_6 
REMARK       I    between atoms: C5_6  and  N2_8 
REMARK    2  A    between atoms: N2_8  and  C6_10 
REMARK    3  A    between atoms: C6_10  and  C7_11 
ROOT
HETATM    1  C1  UNL     1    -113.726-175.204 307.668  1.00  0.00     0.222 C 
HETATM    2  N1  UNL     1    -112.652-175.566 307.910  1.00  0.00    -0.458 NA
HETATM    3  C2  UNL     1    -111.370-176.025 308.210  1.00  0.00     0.123 A 
HETATM    4  C3  UNL     1    -111.253-177.508 308.506  1.00  0.00     0.057 C 
HETATM    5  C4  UNL     1    -110.236-175.389 307.566  1.00  0.00     0.148 A 
HETATM    6  C11 UNL     1    -110.440-175.171 309.044  1.00  0.00     0.087 A 
HETATM    7  C12 UNL     1    -111.038-173.929 309.605  1.00  0.00     0.037 C 
HETATM    8 CL1  UNL     1    -109.235-175.994 310.063  1.00  0.00    -0.115 Cl
ENDROOT
BRANCH   5   9
HETATM    9  C5  UNL     1    -110.369-174.093 306.778  1.00  0.00     0.231 C 
HETATM   10  O1  UNL     1    -109.733-173.093 307.204  1.00  0.00    -0.273 OA
HETATM   11  N2  UNL     1    -111.179-174.132 305.663  1.00  0.00    -0.340 N 
ATOM     12  H2  UNL     1    -111.625-175.033 305.494  1.00  0.00     0.167 HD
BRANCH  11  13
HETATM   13  C6  UNL     1    -111.492-173.148 304.725  1.00  0.00     0.072 C 
BRANCH  13  14
HETATM   14  C7  UNL     1    -111.334-173.418 303.299  1.00  0.00    -0.019 C 
HETATM   15  C8  UNL     1    -111.271-172.239 302.400  1.00  0.00     0.020 C 
HETATM   16  C9  UNL     1    -112.421-174.381 302.779  1.00  0.00     0.020 C 
HETATM   17  C10 UNL     1    -110.020-174.221 303.113  1.00  0.00     0.020 C 
ENDBRANCH  13  14
ENDBRANCH  11  13
ENDBRANCH   5   9
TORSDOF 3
ENDMDL
MODEL 3
REMARK VINA RESULT: -6.068548554      3.042      5.823
REMARK  3 active torsions:
REMARK  status: ('A' for Active; 'I' for Inactive)
REMARK    1  A    between atoms: C4_5  and  C5_6 
REMARK       I    between atoms: C5_6  and  N2_8 
REMARK    2  A    between atoms: N2_8  and  C6_10 
REMARK    3  A    between atoms: C6_10  and  C7_11 
ROOT
HETATM    1  C1  UNL     1    -109.248-172.989 308.473  1.00  0.00     0.222 C 
HETATM    2  N1  UNL     1    -109.987-173.517 307.754  1.00  0.00    -0.458 NA
HETATM    3  C2  UNL     1    -110.878-174.130 306.873  1.00  0.00     0.123 A 
HETATM    4  C3  UNL     1    -111.086-173.423 305.547  1.00  0.00     0.057 C 
HETATM    5  C4  UNL     1    -110.965-175.578 306.869  1.00  0.00     0.148 A 
HETATM    6  C11 UNL     1    -112.131-174.789 307.406  1.00  0.00     0.087 A 
HETATM    7  C12 UNL     1    -112.385-174.605 308.861  1.00  0.00     0.037 C 
HETATM    8 CL1  UNL     1    -113.568-174.829 306.356  1.00  0.00    -0.115 Cl
ENDROOT
BRANCH   5   9
HETATM    9  C5  UNL     1    -110.316-176.435 307.948  1.00  0.00     0.231 C 
HETATM   10  O1  UNL     1    -111.046-177.286 308.524  1.00  0.00    -0.273 OA
HETATM   11  N2  UNL     1    -108.980-176.203 308.197  1.00  0.00    -0.340 N 
ATOM     12  H2  UNL     1    -108.568-175.456 307.637  1.00  0.00     0.167 HD
BRANCH  11  13
HETATM   13  C6  UNL     1    -108.095-176.816 309.084  1.00  0.00     0.072 C 
BRANCH  13  14
HETATM   14  C7  UNL     1    -107.901-176.267 310.422  1.00  0.00    -0.019 C 
HETATM   15  C8  UNL     1    -109.105-175.727 311.103  1.00  0.00     0.020 C 
HETATM   16  C9  UNL     1    -106.796-175.191 310.443  1.00  0.00     0.020 C 
HETATM   17  C10 UNL     1    -107.324-177.396 311.317  1.00  0.00     0.020 C 
ENDBRANCH  13  14
ENDBRANCH  11  13
ENDBRANCH   5   9
TORSDOF 3
ENDMDL
MODEL 4
REMARK VINA RESULT: -6.054472292      1.617      1.859
REMARK  3 active torsions:
REMARK  status: ('A' for Active; 'I' for Inactive)
REMARK    1  A    between atoms: C4_5  and  C5_6 
REMARK       I    between atoms: C5_6  and  N2_8 
REMARK    2  A    between atoms: N2_8  and  C6_10 
REMARK    3  A    between atoms: C6_10  and  C7_11 
ROOT
HETATM    1  C1  UNL     1    -111.432-174.104 309.050  1.00  0.00     0.222 C 
HETATM    2  N1  UNL     1    -110.822-175.076 308.886  1.00  0.00    -0.458 NA
HETATM    3  C2  UNL     1    -110.103-176.257 308.708  1.00  0.00     0.123 A 
HETATM    4  C3  UNL     1    -110.680-177.488 309.381  1.00  0.00     0.057 C 
HETATM    5  C4  UNL     1    -109.397-176.459 307.457  1.00  0.00     0.148 A 
HETATM    6  C11 UNL     1    -108.590-176.226 308.708  1.00  0.00     0.087 A 
HETATM    7  C12 UNL     1    -107.975-174.912 309.044  1.00  0.00     0.037 C 
HETATM    8 CL1  UNL     1    -107.723-177.669 309.282  1.00  0.00    -0.115 Cl
ENDROOT
BRANCH   5   9
HETATM    9  C5  UNL     1    -109.204-175.340 306.442  1.00  0.00     0.231 C 
HETATM   10  O1  UNL     1    -108.059-175.217 305.931  1.00  0.00    -0.273 OA
HETATM   11  N2  UNL     1    -110.308-174.559 306.170  1.00  0.00    -0.340 N 
ATOM     12  H2  UNL     1    -111.142-174.806 306.702  1.00  0.00     0.167 HD
BRANCH  11  13
HETATM   13  C6  UNL     1    -110.477-173.489 305.291  1.00  0.00     0.072 C 
BRANCH  13  14
HETATM   14  C7  UNL     1    -111.143-173.694 304.008  1.00  0.00    -0.019 C 
HETATM   15  C8  UNL     1    -112.469-174.359 304.043  1.00  0.00     0.020 C 
HETATM   16  C9  UNL     1    -110.237-174.444 303.010  1.00  0.00     0.020 C 
HETATM   17  C10 UNL     1    -111.333-172.303 303.348  1.00  0.00     0.020 C 
ENDBRANCH  13  14
ENDBRANCH  11  13
ENDBRANCH   5   9
TORSDOF 3
ENDMDL
MODEL 5
REMARK VINA RESULT: -6.053989449      3.337      4.975
REMARK  3 active torsions:
REMARK  status: ('A' for Active; 'I' for Inactive)
REMARK    1  A    between atoms: C4_5  and  C5_6 
REMARK       I    between atoms: C5_6  and  N2_8 
REMARK    2  A    between atoms: N2_8  and  C6_10 
REMARK    3  A    between atoms: C6_10  and  C7_11 
ROOT
HETATM    1  C1  UNL     1    -107.329-175.583 311.178  1.00  0.00     0.222 C 
HETATM    2  N1  UNL     1    -107.338-176.092 310.136  1.00  0.00    -0.458 NA
HETATM    3  C2  UNL     1    -107.321-176.706 308.884  1.00  0.00     0.123 A 
HETATM    4  C3  UNL     1    -106.001-177.331 308.474  1.00  0.00     0.057 C 
HETATM    5  C4  UNL     1    -108.532-177.348 308.409  1.00  0.00     0.148 A 
HETATM    6  C11 UNL     1    -108.075-176.083 307.730  1.00  0.00     0.087 A 
HETATM    7  C12 UNL     1    -108.682-174.751 308.003  1.00  0.00     0.037 C 
HETATM    8 CL1  UNL     1    -107.448-176.339 306.084  1.00  0.00    -0.115 Cl
ENDROOT
BRANCH   5   9
HETATM    9  C5  UNL     1    -109.875-177.166 309.103  1.00  0.00     0.231 C 
HETATM   10  O1  UNL     1    -109.907-177.338 310.350  1.00  0.00    -0.273 OA
HETATM   11  N2  UNL     1    -110.942-176.826 308.297  1.00  0.00    -0.340 N 
ATOM     12  H2  UNL     1    -110.717-176.752 307.305  1.00  0.00     0.167 HD
BRANCH  11  13
HETATM   13  C6  UNL     1    -112.277-176.566 308.609  1.00  0.00     0.072 C 
BRANCH  13  14
HETATM   14  C7  UNL     1    -112.854-175.256 308.322  1.00  0.00    -0.019 C 
HETATM   15  C8  UNL     1    -114.211-174.992 308.862  1.00  0.00     0.020 C 
HETATM   16  C9  UNL     1    -112.854-174.953 306.809  1.00  0.00     0.020 C 
HETATM   17  C10 UNL     1    -111.899-174.181 308.906  1.00  0.00     0.020 C 
ENDBRANCH  13  14
ENDBRANCH  11  13
ENDBRANCH   5   9
TORSDOF 3
ENDMDL
