MODEL 1
REMARK VINA RESULT: -5.640172596      0.000      0.000
REMARK  2 active torsions:
REMARK  status: ('A' for Active; 'I' for Inactive)
REMARK    1  A    between atoms: C2_2  and  C3_4 
REMARK    2  A    between atoms: C6_7  and  N1_9 
ROOT
HETATM    1  C3  UNL     1    -109.422-176.008 309.954  1.00  0.00     0.051 C 
HETATM    2  C4  UNL     1    -110.222-177.241 309.555  1.00  0.00     0.014 C 
HETATM    3  C5  UNL     1    -111.117-176.793 308.418  1.00  0.00     0.041 C 
HETATM    4  C6  UNL     1    -110.734-175.359 308.183  1.00  0.00     0.137 C 
HETATM    5  C7  UNL     1    -111.592-174.496 309.093  1.00  0.00     0.048 C 
HETATM    6  C8  UNL     1    -109.290-175.347 308.598  1.00  0.00     0.055 C 
HETATM    7  C9  UNL     1    -108.689-173.982 308.668  1.00  0.00     0.031 C 
HETATM    8 BR1  UNL     1    -108.292-176.481 307.427  1.00  0.00    -0.083 Br
ENDROOT
BRANCH   4   9
HETATM    9  N1  UNL     1    -110.936-174.927 306.822  1.00  0.00    -0.069 N 
ATOM     10  H13 UNL     1    -110.142-175.188 306.238  1.00  0.00     0.275 HD
ATOM     11  H12 UNL     1    -111.666-175.480 306.372  1.00  0.00     0.275 HD
ATOM     12  H11 UNL     1    -111.135-173.929 306.739  1.00  0.00     0.275 HD
ENDBRANCH   4   9
BRANCH   1  13
HETATM   13  C2  UNL     1    -108.147-176.370 310.581  1.00  0.00     0.008 C 
HETATM   14  C1  UNL     1    -107.921-177.591 310.995  1.00  0.00     0.032 C 
HETATM   15 CL1  UNL     1    -106.916-175.153 310.772  1.00  0.00    -0.089 Cl
ENDBRANCH   1  13
TORSDOF 2
ENDMDL
MODEL 2
REMARK VINA RESULT: -5.596580493      2.541      3.980
REMARK  2 active torsions:
REMARK  status: ('A' for Active; 'I' for Inactive)
REMARK    1  A    between atoms: C2_2  and  C3_4 
REMARK    2  A    between atoms: C6_7  and  N1_9 
ROOT
HETATM    1  C3  UNL     1    -109.804-174.887 308.965  1.00  0.00     0.051 C 
HETATM    2  C4  UNL     1    -108.417-174.262 309.026  1.00  0.00     0.014 C 
HETATM    3  C5  UNL     1    -107.502-175.355 309.538  1.00  0.00     0.041 C 
HETATM    4  C6  UNL     1    -108.394-176.557 309.673  1.00  0.00     0.137 C 
HETATM    5  C7  UNL     1    -109.003-176.526 311.064  1.00  0.00     0.048 C 
HETATM    6  C8  UNL     1    -109.422-176.308 308.605  1.00  0.00     0.055 C 
HETATM    7  C9  UNL     1    -110.577-177.253 308.641  1.00  0.00     0.031 C 
HETATM    8 BR1  UNL     1    -108.566-176.328 306.896  1.00  0.00    -0.083 Br
ENDROOT
BRANCH   4   9
HETATM    9  N1  UNL     1    -107.697-177.809 309.508  1.00  0.00    -0.069 N 
ATOM     10  H13 UNL     1    -107.925-178.234 308.609  1.00  0.00     0.275 HD
ATOM     11  H12 UNL     1    -106.698-177.651 309.372  1.00  0.00     0.275 HD
ATOM     12  H11 UNL     1    -107.860-178.466 310.271  1.00  0.00     0.275 HD
ENDBRANCH   4   9
BRANCH   1  13
HETATM   13  C2  UNL     1    -110.656-174.219 307.976  1.00  0.00     0.008 C 
HETATM   14  C1  UNL     1    -110.151-173.383 307.106  1.00  0.00     0.032 C 
HETATM   15 CL1  UNL     1    -112.366-174.550 307.963  1.00  0.00    -0.089 Cl
ENDBRANCH   1  13
TORSDOF 2
ENDMDL
MODEL 3
REMARK VINA RESULT: -5.492604631      2.751      4.000
REMARK  2 active torsions:
REMARK  status: ('A' for Active; 'I' for Inactive)
REMARK    1  A    between atoms: C2_2  and  C3_4 
REMARK    2  A    between atoms: C6_7  and  N1_9 
ROOT
HETATM    1  C3  UNL     1    -108.094-175.349 308.492  1.00  0.00     0.051 C 
HETATM    2  C4  UNL     1    -107.490-176.510 307.714  1.00  0.00     0.014 C 
HETATM    3  C5  UNL     1    -107.050-177.513 308.760  1.00  0.00     0.041 C 
HETATM    4  C6  UNL     1    -107.486-176.910 310.065  1.00  0.00     0.137 C 
HETATM    5  C7  UNL     1    -106.360-176.018 310.561  1.00  0.00     0.048 C 
HETATM    6  C8  UNL     1    -108.692-176.112 309.655  1.00  0.00     0.055 C 
HETATM    7  C9  UNL     1    -109.226-175.222 310.729  1.00  0.00     0.031 C 
HETATM    8 BR1  UNL     1    -110.041-177.305 309.013  1.00  0.00    -0.083 Br
ENDROOT
BRANCH   4   9
HETATM    9  N1  UNL     1    -107.773-177.890 311.082  1.00  0.00    -0.069 N 
ATOM     10  H13 UNL     1    -107.101-178.657 311.045  1.00  0.00     0.275 HD
ATOM     11  H12 UNL     1    -107.558-177.522 312.010  1.00  0.00     0.275 HD
ATOM     12  H11 UNL     1    -108.729-178.244 311.046  1.00  0.00     0.275 HD
ENDBRANCH   4   9
BRANCH   1  13
HETATM   13  C2  UNL     1    -109.069-174.607 307.686  1.00  0.00     0.008 C 
HETATM   14  C1  UNL     1    -109.434-175.035 306.506  1.00  0.00     0.032 C 
HETATM   15 CL1  UNL     1    -109.752-173.134 308.319  1.00  0.00    -0.089 Cl
ENDBRANCH   1  13
TORSDOF 2
ENDMDL
MODEL 4
REMARK VINA RESULT: -5.444440394      0.932      1.083
REMARK  2 active torsions:
REMARK  status: ('A' for Active; 'I' for Inactive)
REMARK    1  A    between atoms: C2_2  and  C3_4 
REMARK    2  A    between atoms: C6_7  and  N1_9 
ROOT
HETATM    1  C3  UNL     1    -109.370-175.886 310.004  1.00  0.00     0.051 C 
HETATM    2  C4  UNL     1    -110.143-177.145 309.634  1.00  0.00     0.014 C 
HETATM    3  C5  UNL     1    -111.020-176.752 308.463  1.00  0.00     0.041 C 
HETATM    4  C6  UNL     1    -110.653-175.322 308.183  1.00  0.00     0.137 C 
HETATM    5  C7  UNL     1    -111.542-174.440 309.042  1.00  0.00     0.048 C 
HETATM    6  C8  UNL     1    -109.219-175.273 308.627  1.00  0.00     0.055 C 
HETATM    7  C9  UNL     1    -108.639-173.897 308.658  1.00  0.00     0.031 C 
HETATM    8 BR1  UNL     1    -108.180-176.434 307.519  1.00  0.00    -0.083 Br
ENDROOT
BRANCH   4   9
HETATM    9  N1  UNL     1    -110.833-174.944 306.803  1.00  0.00    -0.069 N 
ATOM     10  H13 UNL     1    -110.299-175.557 306.187  1.00  0.00     0.275 HD
ATOM     11  H12 UNL     1    -111.777-175.168 306.487  1.00  0.00     0.275 HD
ATOM     12  H11 UNL     1    -110.613-173.964 306.619  1.00  0.00     0.275 HD
ENDBRANCH   4   9
BRANCH   1  13
HETATM   13  C2  UNL     1    -108.103-176.205 310.669  1.00  0.00     0.008 C 
HETATM   14  C1  UNL     1    -107.268-175.261 311.019  1.00  0.00     0.032 C 
HETATM   15 CL1  UNL     1    -107.712-177.870 311.002  1.00  0.00    -0.089 Cl
ENDBRANCH   1  13
TORSDOF 2
ENDMDL
MODEL 5
REMARK VINA RESULT: -5.412930498      2.799      3.985
REMARK  2 active torsions:
REMARK  status: ('A' for Active; 'I' for Inactive)
REMARK    1  A    between atoms: C2_2  and  C3_4 
REMARK    2  A    between atoms: C6_7  and  N1_9 
ROOT
HETATM    1  C3  UNL     1    -108.763-174.867 307.723  1.00  0.00     0.051 C 
HETATM    2  C4  UNL     1    -108.005-176.061 307.159  1.00  0.00     0.014 C 
HETATM    3  C5  UNL     1    -107.641-176.912 308.359  1.00  0.00     0.041 C 
HETATM    4  C6  UNL     1    -108.267-176.202 309.526  1.00  0.00     0.137 C 
HETATM    5  C7  UNL     1    -107.262-175.187 310.042  1.00  0.00     0.048 C 
HETATM    6  C8  UNL     1    -109.456-175.539 308.890  1.00  0.00     0.055 C 
HETATM    7  C9  UNL     1    -110.166-174.577 309.784  1.00  0.00     0.031 C 
HETATM    8 BR1  UNL     1    -110.648-176.885 308.238  1.00  0.00    -0.083 Br
ENDROOT
BRANCH   4   9
HETATM    9  N1  UNL     1    -108.622-177.084 310.610  1.00  0.00    -0.069 N 
ATOM     10  H13 UNL     1    -107.790-177.521 311.007  1.00  0.00     0.275 HD
ATOM     11  H12 UNL     1    -108.936-176.551 311.421  1.00  0.00     0.275 HD
ATOM     12  H11 UNL     1    -109.312-177.789 310.350  1.00  0.00     0.275 HD
ENDBRANCH   4   9
BRANCH   1  13
HETATM   13  C2  UNL     1    -109.672-174.286 306.729  1.00  0.00     0.008 C 
HETATM   14  C1  UNL     1    -109.538-174.551 305.455  1.00  0.00     0.032 C 
HETATM   15 CL1  UNL     1    -110.951-173.229 307.260  1.00  0.00    -0.089 Cl
ENDBRANCH   1  13
TORSDOF 2
ENDMDL
