MODEL 1
REMARK VINA RESULT: -6.046175572      0.000      0.000
REMARK  2 active torsions:
REMARK  status: ('A' for Active; 'I' for Inactive)
REMARK    1  A    between atoms: C6_6  and  C7_8 
REMARK    2  A    between atoms: C7_8  and  C8_9 
ROOT
HETATM    1  C1  UNL     1    -111.829-173.387 307.030  1.00  0.00     0.016 C 
HETATM    2  C2  UNL     1    -110.652-174.055 307.746  1.00  0.00    -0.034 A 
HETATM    3  C3  UNL     1    -109.605-173.092 308.193  1.00  0.00     0.016 C 
HETATM    4  C4  UNL     1    -110.178-175.328 307.169  1.00  0.00     0.006 A 
HETATM    5  C5  UNL     1    -109.254-176.247 307.881  1.00  0.00     0.028 A 
HETATM    6  C6  UNL     1    -110.018-176.146 309.168  1.00  0.00     0.028 A 
HETATM    7 BR1  UNL     1    -110.721-177.909 309.638  1.00  0.00    -0.085 Br
HETATM    8  C9  UNL     1    -111.004-175.272 308.498  1.00  0.00    -0.015 A 
HETATM    9  C10 UNL     1    -112.415-175.847 308.311  1.00  0.00     0.018 C 
ENDROOT
BRANCH   6  10
HETATM   10  C7  UNL     1    -109.230-175.622 310.325  1.00  0.00     0.037 C 
BRANCH  10  11
HETATM   11  C8  UNL     1    -107.748-175.696 310.126  1.00  0.00     0.116 C 
HETATM   12 CL1  UNL     1    -106.962-176.702 311.356  1.00  0.00    -0.130 Cl
ENDBRANCH  10  11
ENDBRANCH   6  10
TORSDOF 2
ENDMDL
MODEL 2
REMARK VINA RESULT: -5.876924811      1.629      2.304
REMARK  2 active torsions:
REMARK  status: ('A' for Active; 'I' for Inactive)
REMARK    1  A    between atoms: C6_6  and  C7_8 
REMARK    2  A    between atoms: C7_8  and  C8_9 
ROOT
HETATM    1  C1  UNL     1    -111.210-173.209 306.816  1.00  0.00     0.016 C 
HETATM    2  C2  UNL     1    -110.592-174.067 307.923  1.00  0.00    -0.034 A 
HETATM    3  C3  UNL     1    -111.511-174.308 309.072  1.00  0.00     0.016 C 
HETATM    4  C4  UNL     1    -109.181-173.786 308.252  1.00  0.00     0.006 A 
HETATM    5  C5  UNL     1    -108.345-174.691 309.081  1.00  0.00     0.028 A 
HETATM    6  C6  UNL     1    -108.803-175.916 308.346  1.00  0.00     0.028 A 
HETATM    7 BR1  UNL     1    -107.270-176.748 307.464  1.00  0.00    -0.085 Br
HETATM    8  C9  UNL     1    -109.612-175.060 307.451  1.00  0.00    -0.015 A 
HETATM    9  C10 UNL     1    -109.163-174.985 305.985  1.00  0.00     0.018 C 
ENDROOT
BRANCH   6  10
HETATM   10  C7  UNL     1    -109.478-176.942 309.198  1.00  0.00     0.037 C 
BRANCH  10  11
HETATM   11  C8  UNL     1    -109.165-176.812 310.656  1.00  0.00     0.116 C 
HETATM   12 CL1  UNL     1    -107.669-177.658 311.092  1.00  0.00    -0.130 Cl
ENDBRANCH  10  11
ENDBRANCH   6  10
TORSDOF 2
ENDMDL
MODEL 3
REMARK VINA RESULT: -5.854181764      2.152      3.117
REMARK  2 active torsions:
REMARK  status: ('A' for Active; 'I' for Inactive)
REMARK    1  A    between atoms: C6_6  and  C7_8 
REMARK    2  A    between atoms: C7_8  and  C8_9 
ROOT
HETATM    1  C1  UNL     1    -110.847-173.847 304.518  1.00  0.00     0.016 C 
HETATM    2  C2  UNL     1    -110.959-173.909 306.044  1.00  0.00    -0.034 A 
HETATM    3  C3  UNL     1    -112.363-173.830 306.541  1.00  0.00     0.016 C 
HETATM    4  C4  UNL     1    -109.945-173.151 306.801  1.00  0.00     0.006 A 
HETATM    5  C5  UNL     1    -109.725-173.323 308.260  1.00  0.00     0.028 A 
HETATM    6  C6  UNL     1    -109.751-174.821 308.166  1.00  0.00     0.028 A 
HETATM    7 BR1  UNL     1    -108.013-175.530 308.714  1.00  0.00    -0.085 Br
HETATM    8  C9  UNL     1    -109.914-174.713 306.701  1.00  0.00    -0.015 A 
HETATM    9  C10 UNL     1    -108.738-175.200 305.842  1.00  0.00     0.018 C 
ENDROOT
BRANCH   6  10
HETATM   10  C7  UNL     1    -110.815-175.481 308.983  1.00  0.00     0.037 C 
BRANCH  10  11
HETATM   11  C8  UNL     1    -111.219-176.827 308.469  1.00  0.00     0.116 C 
HETATM   12 CL1  UNL     1    -110.752-178.129 309.578  1.00  0.00    -0.130 Cl
ENDBRANCH  10  11
ENDBRANCH   6  10
TORSDOF 2
ENDMDL
MODEL 4
REMARK VINA RESULT: -5.848620022      3.235      4.439
REMARK  2 active torsions:
REMARK  status: ('A' for Active; 'I' for Inactive)
REMARK    1  A    between atoms: C6_6  and  C7_8 
REMARK    2  A    between atoms: C7_8  and  C8_9 
ROOT
HETATM    1  C1  UNL     1    -109.456-177.323 309.568  1.00  0.00     0.016 C 
HETATM    2  C2  UNL     1    -109.312-176.072 308.698  1.00  0.00    -0.034 A 
HETATM    3  C3  UNL     1    -107.960-175.926 308.085  1.00  0.00     0.016 C 
HETATM    4  C4  UNL     1    -109.938-174.842 309.220  1.00  0.00     0.006 A 
HETATM    5  C5  UNL     1    -110.146-173.624 308.396  1.00  0.00     0.028 A 
HETATM    6  C6  UNL     1    -110.684-174.408 307.234  1.00  0.00     0.028 A 
HETATM    7 BR1  UNL     1    -112.536-173.877 306.902  1.00  0.00    -0.085 Br
HETATM    8  C9  UNL     1    -110.553-175.648 308.027  1.00  0.00    -0.015 A 
HETATM    9  C10 UNL     1    -111.860-176.345 308.430  1.00  0.00     0.018 C 
ENDROOT
BRANCH   6  10
HETATM   10  C7  UNL     1    -109.910-174.255 305.964  1.00  0.00     0.037 C 
BRANCH  10  11
HETATM   11  C8  UNL     1    -110.721-173.720 304.826  1.00  0.00     0.116 C 
HETATM   12 CL1  UNL     1    -110.096-174.256 303.256  1.00  0.00    -0.130 Cl
ENDBRANCH  10  11
ENDBRANCH   6  10
TORSDOF 2
ENDMDL
MODEL 5
REMARK VINA RESULT: -5.748695848      2.829      4.198
REMARK  2 active torsions:
REMARK  status: ('A' for Active; 'I' for Inactive)
REMARK    1  A    between atoms: C6_6  and  C7_8 
REMARK    2  A    between atoms: C7_8  and  C8_9 
ROOT
HETATM    1  C1  UNL     1    -108.136-177.584 310.352  1.00  0.00     0.016 C 
HETATM    2  C2  UNL     1    -108.555-176.382 309.501  1.00  0.00    -0.034 A 
HETATM    3  C3  UNL     1    -107.413-175.712 308.816  1.00  0.00     0.016 C 
HETATM    4  C4  UNL     1    -109.587-175.503 310.082  1.00  0.00     0.006 A 
HETATM    5  C5  UNL     1    -110.312-174.473 309.296  1.00  0.00     0.028 A 
HETATM    6  C6  UNL     1    -110.561-175.409 308.150  1.00  0.00     0.028 A 
HETATM    7 BR1  UNL     1    -112.488-175.663 307.934  1.00  0.00    -0.085 Br
HETATM    8  C9  UNL     1    -109.900-176.492 308.909  1.00  0.00    -0.015 A 
HETATM    9  C10 UNL     1    -110.794-177.651 309.370  1.00  0.00     0.018 C 
ENDROOT
BRANCH   6  10
HETATM   10  C7  UNL     1    -109.989-174.965 306.842  1.00  0.00     0.037 C 
BRANCH  10  11
HETATM   11  C8  UNL     1    -110.259-173.527 306.525  1.00  0.00     0.116 C 
HETATM   12 CL1  UNL     1    -111.311-173.347 305.109  1.00  0.00    -0.130 Cl
ENDBRANCH  10  11
ENDBRANCH   6  10
TORSDOF 2
ENDMDL
