MODEL 1
REMARK VINA RESULT: -6.126950832      0.000      0.000
REMARK  5 active torsions:
REMARK  status: ('A' for Active; 'I' for Inactive)
REMARK    1  A    between atoms: C2_2  and  N1_4 
REMARK    2  A    between atoms: N1_4  and  C5_6 
REMARK    3  A    between atoms: C5_6  and  N2_8 
REMARK    4  A    between atoms: N2_8  and  C6_10 
REMARK    5  A    between atoms: C6_10  and  C7_11 
ROOT
HETATM    1  N2  UNL     1    -110.271-176.397 308.033  1.00  0.00    -0.343 N 
ATOM      2  H2  UNL     1    -110.076-177.201 307.435  1.00  0.00     0.167 HD
ENDROOT
BRANCH   1   3
HETATM    3  C5  UNL     1    -109.886-176.529 309.370  1.00  0.00     0.173 C 
HETATM    4  S1  UNL     1    -108.354-177.147 309.634  1.00  0.00    -0.041 SA
BRANCH   3   5
HETATM    5  N1  UNL     1    -110.577-176.123 310.527  1.00  0.00    -0.358 N 
HETATM    6  C4  UNL     1    -110.175-174.766 311.032  1.00  0.00     0.152 C 
BRANCH   5   7
HETATM    7  C2  UNL     1    -111.543-176.762 311.334  1.00  0.00     0.078 C 
HETATM    8  C1  UNL     1    -110.877-177.684 312.349  1.00  0.00     0.032 C 
HETATM    9  C3  UNL     1    -112.729-177.403 310.735  1.00  0.00     0.032 C 
ENDBRANCH   5   7
ENDBRANCH   3   5
ENDBRANCH   1   3
BRANCH   1  10
HETATM   10  C6  UNL     1    -110.892-175.303 307.399  1.00  0.00     0.097 C 
BRANCH  10  11
HETATM   11  C7  UNL     1    -112.223-174.871 307.736  1.00  0.00    -0.046 C 
HETATM   12  C8  UNL     1    -113.171-175.877 307.726  1.00  0.00    -0.017 C 
HETATM   13  C9  UNL     1    -114.570-175.586 308.048  1.00  0.00     0.047 C 
HETATM   14  C10 UNL     1    -114.810-174.563 309.095  1.00  0.00     0.086 C 
HETATM   15 CL1  UNL     1    -116.062-173.443 308.501  1.00  0.00    -0.125 Cl
HETATM   16  C11 UNL     1    -113.566-173.820 309.419  1.00  0.00     0.025 C 
HETATM   17  C12 UNL     1    -112.766-173.578 308.104  1.00  0.00     0.041 C 
ENDBRANCH  10  11
ENDBRANCH   1  10
TORSDOF 5
ENDMDL
MODEL 2
REMARK VINA RESULT: -5.969958093      5.876      7.992
REMARK  5 active torsions:
REMARK  status: ('A' for Active; 'I' for Inactive)
REMARK    1  A    between atoms: C2_2  and  N1_4 
REMARK    2  A    between atoms: N1_4  and  C5_6 
REMARK    3  A    between atoms: C5_6  and  N2_8 
REMARK    4  A    between atoms: N2_8  and  C6_10 
REMARK    5  A    between atoms: C6_10  and  C7_11 
ROOT
HETATM    1  N2  UNL     1    -117.837-175.225 308.176  1.00  0.00    -0.343 N 
ATOM      2  H2  UNL     1    -117.644-176.218 308.041  1.00  0.00     0.167 HD
ENDROOT
BRANCH   1   3
HETATM    3  C5  UNL     1    -119.183-174.856 308.101  1.00  0.00     0.173 C 
HETATM    4  S1  UNL     1    -119.935-174.525 309.559  1.00  0.00    -0.041 SA
BRANCH   3   5
HETATM    5  N1  UNL     1    -119.969-174.631 306.955  1.00  0.00    -0.358 N 
HETATM    6  C4  UNL     1    -119.317-175.067 305.674  1.00  0.00     0.152 C 
BRANCH   5   7
HETATM    7  C2  UNL     1    -121.234-174.032 306.770  1.00  0.00     0.078 C 
HETATM    8  C1  UNL     1    -122.027-174.766 305.693  1.00  0.00     0.032 C 
HETATM    9  C3  UNL     1    -121.369-172.572 306.623  1.00  0.00     0.032 C 
ENDBRANCH   5   7
ENDBRANCH   3   5
ENDBRANCH   1   3
BRANCH   1  10
HETATM   10  C6  UNL     1    -116.712-174.412 308.413  1.00  0.00     0.097 C 
BRANCH  10  11
HETATM   11  C7  UNL     1    -115.449-174.952 308.848  1.00  0.00    -0.046 C 
HETATM   12  C8  UNL     1    -115.411-176.332 308.920  1.00  0.00    -0.017 C 
HETATM   13  C9  UNL     1    -114.194-177.023 309.348  1.00  0.00     0.047 C 
HETATM   14  C10 UNL     1    -112.905-176.421 308.924  1.00  0.00     0.086 C 
HETATM   15 CL1  UNL     1    -111.824-176.364 310.339  1.00  0.00    -0.125 Cl
HETATM   16  C11 UNL     1    -113.104-175.056 308.373  1.00  0.00     0.025 C 
HETATM   17  C12 UNL     1    -114.194-174.326 309.213  1.00  0.00     0.041 C 
ENDBRANCH  10  11
ENDBRANCH   1  10
TORSDOF 5
ENDMDL
MODEL 3
REMARK VINA RESULT: -5.926303239      5.714      7.893
REMARK  5 active torsions:
REMARK  status: ('A' for Active; 'I' for Inactive)
REMARK    1  A    between atoms: C2_2  and  N1_4 
REMARK    2  A    between atoms: N1_4  and  C5_6 
REMARK    3  A    between atoms: C5_6  and  N2_8 
REMARK    4  A    between atoms: N2_8  and  C6_10 
REMARK    5  A    between atoms: C6_10  and  C7_11 
ROOT
HETATM    1  N2  UNL     1    -117.611-175.223 308.065  1.00  0.00    -0.343 N 
ATOM      2  H2  UNL     1    -117.321-175.820 307.291  1.00  0.00     0.167 HD
ENDROOT
BRANCH   1   3
HETATM    3  C5  UNL     1    -118.956-174.843 308.065  1.00  0.00     0.173 C 
HETATM    4  S1  UNL     1    -119.613-174.469 309.558  1.00  0.00    -0.041 SA
BRANCH   3   5
HETATM    5  N1  UNL     1    -119.811-174.639 306.965  1.00  0.00    -0.358 N 
HETATM    6  C4  UNL     1    -119.219-175.060 305.649  1.00  0.00     0.152 C 
BRANCH   5   7
HETATM    7  C2  UNL     1    -121.099-174.074 306.850  1.00  0.00     0.078 C 
HETATM    8  C1  UNL     1    -121.901-174.773 305.758  1.00  0.00     0.032 C 
HETATM    9  C3  UNL     1    -121.284-172.613 306.790  1.00  0.00     0.032 C 
ENDBRANCH   5   7
ENDBRANCH   3   5
ENDBRANCH   1   3
BRANCH   1  10
HETATM   10  C6  UNL     1    -116.602-174.893 308.991  1.00  0.00     0.097 C 
BRANCH  10  11
HETATM   11  C7  UNL     1    -115.202-174.944 308.657  1.00  0.00    -0.046 C 
HETATM   12  C8  UNL     1    -114.560-173.720 308.695  1.00  0.00    -0.017 C 
HETATM   13  C9  UNL     1    -113.135-173.616 308.376  1.00  0.00     0.047 C 
HETATM   14  C10 UNL     1    -112.275-174.745 308.809  1.00  0.00     0.086 C 
HETATM   15 CL1  UNL     1    -111.225-175.200 307.443  1.00  0.00    -0.125 Cl
HETATM   16  C11 UNL     1    -113.090-175.908 309.242  1.00  0.00     0.025 C 
HETATM   17  C12 UNL     1    -114.323-176.039 308.300  1.00  0.00     0.041 C 
ENDBRANCH  10  11
ENDBRANCH   1  10
TORSDOF 5
ENDMDL
MODEL 4
REMARK VINA RESULT: -5.864506049      0.752      1.627
REMARK  5 active torsions:
REMARK  status: ('A' for Active; 'I' for Inactive)
REMARK    1  A    between atoms: C2_2  and  N1_4 
REMARK    2  A    between atoms: N1_4  and  C5_6 
REMARK    3  A    between atoms: C5_6  and  N2_8 
REMARK    4  A    between atoms: N2_8  and  C6_10 
REMARK    5  A    between atoms: C6_10  and  C7_11 
ROOT
HETATM    1  N2  UNL     1    -110.797-176.298 307.924  1.00  0.00    -0.343 N 
ATOM      2  H2  UNL     1    -110.620-176.927 307.139  1.00  0.00     0.167 HD
ENDROOT
BRANCH   1   3
HETATM    3  C5  UNL     1    -110.414-176.776 309.180  1.00  0.00     0.173 C 
HETATM    4  S1  UNL     1    -108.916-177.518 309.257  1.00  0.00    -0.041 SA
BRANCH   3   5
HETATM    5  N1  UNL     1    -111.077-176.633 310.413  1.00  0.00    -0.358 N 
HETATM    6  C4  UNL     1    -112.364-177.403 310.504  1.00  0.00     0.152 C 
BRANCH   5   7
HETATM    7  C2  UNL     1    -110.793-175.871 311.567  1.00  0.00     0.078 C 
HETATM    8  C1  UNL     1    -110.252-174.497 311.188  1.00  0.00     0.032 C 
HETATM    9  C3  UNL     1    -110.031-176.448 312.689  1.00  0.00     0.032 C 
ENDBRANCH   5   7
ENDBRANCH   3   5
ENDBRANCH   1   3
BRANCH   1  10
HETATM   10  C6  UNL     1    -111.395-175.066 307.594  1.00  0.00     0.097 C 
BRANCH  10  11
HETATM   11  C7  UNL     1    -112.772-174.773 307.894  1.00  0.00    -0.046 C 
HETATM   12  C8  UNL     1    -113.628-175.851 307.763  1.00  0.00    -0.017 C 
HETATM   13  C9  UNL     1    -115.059-175.703 308.033  1.00  0.00     0.047 C 
HETATM   14  C10 UNL     1    -115.434-174.787 309.139  1.00  0.00     0.086 C 
HETATM   15 CL1  UNL     1    -116.750-173.732 308.565  1.00  0.00    -0.125 Cl
HETATM   16  C11 UNL     1    -114.274-173.970 309.578  1.00  0.00     0.025 C 
HETATM   17  C12 UNL     1    -113.441-173.562 308.327  1.00  0.00     0.041 C 
ENDBRANCH  10  11
ENDBRANCH   1  10
TORSDOF 5
ENDMDL
MODEL 5
REMARK VINA RESULT: -5.856227600      4.073      5.416
REMARK  5 active torsions:
REMARK  status: ('A' for Active; 'I' for Inactive)
REMARK    1  A    between atoms: C2_2  and  N1_4 
REMARK    2  A    between atoms: N1_4  and  C5_6 
REMARK    3  A    between atoms: C5_6  and  N2_8 
REMARK    4  A    between atoms: N2_8  and  C6_10 
REMARK    5  A    between atoms: C6_10  and  C7_11 
ROOT
HETATM    1  N2  UNL     1    -115.721-175.604 307.927  1.00  0.00    -0.343 N 
ATOM      2  H2  UNL     1    -115.897-175.854 306.954  1.00  0.00     0.167 HD
ENDROOT
BRANCH   1   3
HETATM    3  C5  UNL     1    -114.429-175.859 308.393  1.00  0.00     0.173 C 
HETATM    4  S1  UNL     1    -114.262-177.179 309.409  1.00  0.00    -0.041 SA
BRANCH   3   5
HETATM    5  N1  UNL     1    -113.227-175.212 308.048  1.00  0.00    -0.358 N 
HETATM    6  C4  UNL     1    -113.223-173.739 308.344  1.00  0.00     0.152 C 
BRANCH   5   7
HETATM    7  C2  UNL     1    -112.040-175.668 307.436  1.00  0.00     0.078 C 
HETATM    8  C1  UNL     1    -110.922-175.813 308.462  1.00  0.00     0.032 C 
HETATM    9  C3  UNL     1    -111.541-175.050 306.194  1.00  0.00     0.032 C 
ENDBRANCH   5   7
ENDBRANCH   3   5
ENDBRANCH   1   3
BRANCH   1  10
HETATM   10  C6  UNL     1    -116.814-175.048 308.620  1.00  0.00     0.097 C 
BRANCH  10  11
HETATM   11  C7  UNL     1    -118.004-174.597 307.947  1.00  0.00    -0.046 C 
HETATM   12  C8  UNL     1    -118.249-175.220 306.738  1.00  0.00    -0.017 C 
HETATM   13  C9  UNL     1    -119.423-174.863 305.939  1.00  0.00     0.047 C 
HETATM   14  C10 UNL     1    -120.660-174.531 306.690  1.00  0.00     0.086 C 
HETATM   15 CL1  UNL     1    -121.343-173.036 306.003  1.00  0.00    -0.125 Cl
HETATM   16  C11 UNL     1    -120.380-174.352 308.137  1.00  0.00     0.025 C 
HETATM   17  C12 UNL     1    -119.015-173.619 308.300  1.00  0.00     0.041 C 
ENDBRANCH  10  11
ENDBRANCH   1  10
TORSDOF 5
ENDMDL
