MODEL 1
REMARK VINA RESULT: -6.973477010      0.000      0.000
REMARK  3 active torsions:
REMARK  status: ('A' for Active; 'I' for Inactive)
REMARK    1  A    between atoms: C4_4  and  C5_5 
REMARK    2  A    between atoms: C6_6  and  C7_7 
REMARK    3  A    between atoms: C7_7  and  C9_9 
ROOT
HETATM    1  C1  UNL     1    -113.381-172.831 308.205  1.00  0.00     0.018 C 
HETATM    2  C2  UNL     1    -113.722-173.953 308.457  1.00  0.00    -0.074 C 
HETATM    3  C3  UNL     1    -114.161-175.283 308.752  1.00  0.00     0.062 A 
HETATM    4  C4  UNL     1    -113.457-176.412 309.083  1.00  0.00     0.001 A 
HETATM    5  C10 UNL     1    -114.388-177.465 309.274  1.00  0.00     0.101 A 
HETATM    6  N1  UNL     1    -115.593-176.951 309.057  1.00  0.00    -0.358 N 
ATOM      7  H1  UNL     1    -116.464-177.476 309.122  1.00  0.00     0.166 HD
HETATM    8  C11 UNL     1    -115.511-175.655 308.743  1.00  0.00     0.099 A 
HETATM    9 BR1  UNL     1    -116.964-174.489 308.347  1.00  0.00    -0.030 Br
ENDROOT
BRANCH   4  10
HETATM   10  C5  UNL     1    -112.027-176.566 309.228  1.00  0.00     0.011 C 
HETATM   11  C6  UNL     1    -111.208-175.827 309.898  1.00  0.00    -0.020 C 
BRANCH  11  12
HETATM   12  C7  UNL     1    -109.742-176.223 309.878  1.00  0.00     0.018 C 
HETATM   13  C8  UNL     1    -109.671-177.523 309.135  1.00  0.00     0.015 C 
BRANCH  12  14
HETATM   14  C9  UNL     1    -109.242-176.390 311.299  1.00  0.00     0.122 C 
HETATM   15 CL1  UNL     1    -110.264-175.403 312.386  1.00  0.00    -0.130 Cl
ENDBRANCH  12  14
ENDBRANCH  11  12
ENDBRANCH   4  10
TORSDOF 3
ENDMDL
MODEL 2
REMARK VINA RESULT: -6.705769682      1.216      1.546
REMARK  3 active torsions:
REMARK  status: ('A' for Active; 'I' for Inactive)
REMARK    1  A    between atoms: C4_4  and  C5_5 
REMARK    2  A    between atoms: C6_6  and  C7_7 
REMARK    3  A    between atoms: C7_7  and  C9_9 
ROOT
HETATM    1  C1  UNL     1    -113.353-172.855 308.378  1.00  0.00     0.018 C 
HETATM    2  C2  UNL     1    -113.736-173.964 308.631  1.00  0.00    -0.074 C 
HETATM    3  C3  UNL     1    -114.223-175.277 308.923  1.00  0.00     0.062 A 
HETATM    4  C4  UNL     1    -113.585-176.386 309.419  1.00  0.00     0.001 A 
HETATM    5  C10 UNL     1    -114.540-177.429 309.517  1.00  0.00     0.101 A 
HETATM    6  N1  UNL     1    -115.693-176.931 309.088  1.00  0.00    -0.358 N 
ATOM      7  H1  UNL     1    -116.568-177.454 309.043  1.00  0.00     0.166 HD
HETATM    8  C11 UNL     1    -115.556-175.652 308.723  1.00  0.00     0.099 A 
HETATM    9 BR1  UNL     1    -116.923-174.514 308.044  1.00  0.00    -0.030 Br
ENDROOT
BRANCH   4  10
HETATM   10  C5  UNL     1    -112.196-176.528 309.793  1.00  0.00     0.011 C 
HETATM   11  C6  UNL     1    -111.690-176.579 310.980  1.00  0.00    -0.020 C 
BRANCH  11  12
HETATM   12  C7  UNL     1    -110.183-176.735 311.084  1.00  0.00     0.018 C 
HETATM   13  C8  UNL     1    -109.671-175.452 311.668  1.00  0.00     0.015 C 
BRANCH  12  14
HETATM   14  C9  UNL     1    -109.600-176.966 309.704  1.00  0.00     0.122 C 
HETATM   15 CL1  UNL     1    -107.817-177.017 309.836  1.00  0.00    -0.130 Cl
ENDBRANCH  12  14
ENDBRANCH  11  12
ENDBRANCH   4  10
TORSDOF 3
ENDMDL
MODEL 3
REMARK VINA RESULT: -6.698118380      3.898      6.213
REMARK  3 active torsions:
REMARK  status: ('A' for Active; 'I' for Inactive)
REMARK    1  A    between atoms: C4_4  and  C5_5 
REMARK    2  A    between atoms: C6_6  and  C7_7 
REMARK    3  A    between atoms: C7_7  and  C9_9 
ROOT
HETATM    1  C1  UNL     1    -112.899-172.912 308.049  1.00  0.00     0.018 C 
HETATM    2  C2  UNL     1    -113.335-173.978 308.385  1.00  0.00    -0.074 C 
HETATM    3  C3  UNL     1    -113.824-175.262 308.787  1.00  0.00     0.062 A 
HETATM    4  C4  UNL     1    -115.102-175.715 308.994  1.00  0.00     0.001 A 
HETATM    5  C10 UNL     1    -115.022-177.076 309.385  1.00  0.00     0.101 A 
HETATM    6  N1  UNL     1    -113.733-177.393 309.401  1.00  0.00    -0.358 N 
ATOM      7  H1  UNL     1    -113.366-178.312 309.646  1.00  0.00     0.166 HD
HETATM    8  C11 UNL     1    -112.979-176.346 309.052  1.00  0.00     0.099 A 
HETATM    9 BR1  UNL     1    -111.079-176.307 308.928  1.00  0.00    -0.030 Br
ENDROOT
BRANCH   4  10
HETATM   10  C5  UNL     1    -116.344-174.989 308.858  1.00  0.00     0.011 C 
HETATM   11  C6  UNL     1    -117.239-175.106 307.935  1.00  0.00    -0.020 C 
BRANCH  11  12
HETATM   12  C7  UNL     1    -118.460-174.209 308.037  1.00  0.00     0.018 C 
HETATM   13  C8  UNL     1    -118.939-174.315 309.454  1.00  0.00     0.015 C 
BRANCH  12  14
HETATM   14  C9  UNL     1    -119.527-174.693 307.074  1.00  0.00     0.122 C 
HETATM   15 CL1  UNL     1    -118.741-175.164 305.537  1.00  0.00    -0.130 Cl
ENDBRANCH  12  14
ENDBRANCH  11  12
ENDBRANCH   4  10
TORSDOF 3
ENDMDL
MODEL 4
REMARK VINA RESULT: -6.371214225      1.611      2.634
REMARK  3 active torsions:
REMARK  status: ('A' for Active; 'I' for Inactive)
REMARK    1  A    between atoms: C4_4  and  C5_5 
REMARK    2  A    between atoms: C6_6  and  C7_7 
REMARK    3  A    between atoms: C7_7  and  C9_9 
ROOT
HETATM    1  C1  UNL     1    -114.021-177.707 309.948  1.00  0.00     0.018 C 
HETATM    2  C2  UNL     1    -113.808-176.559 309.672  1.00  0.00    -0.074 C 
HETATM    3  C3  UNL     1    -113.586-175.186 309.331  1.00  0.00     0.062 A 
HETATM    4  C4  UNL     1    -112.481-174.389 309.479  1.00  0.00     0.001 A 
HETATM    5  C10 UNL     1    -112.801-173.104 308.971  1.00  0.00     0.101 A 
HETATM    6  N1  UNL     1    -114.057-173.166 308.544  1.00  0.00    -0.358 N 
ATOM      7  H1  UNL     1    -114.563-172.386 308.125  1.00  0.00     0.166 HD
HETATM    8  C11 UNL     1    -114.568-174.386 308.736  1.00  0.00     0.099 A 
HETATM    9 BR1  UNL     1    -116.326-174.962 308.288  1.00  0.00    -0.030 Br
ENDROOT
BRANCH   4  10
HETATM   10  C5  UNL     1    -111.195-174.733 310.042  1.00  0.00     0.011 C 
HETATM   11  C6  UNL     1    -110.505-175.809 309.858  1.00  0.00    -0.020 C 
BRANCH  11  12
HETATM   12  C7  UNL     1    -109.173-175.911 310.580  1.00  0.00     0.018 C 
HETATM   13  C8  UNL     1    -108.407-176.998 309.889  1.00  0.00     0.015 C 
BRANCH  12  14
HETATM   14  C9  UNL     1    -109.411-176.264 312.035  1.00  0.00     0.122 C 
HETATM   15 CL1  UNL     1    -110.634-177.566 312.117  1.00  0.00    -0.130 Cl
ENDBRANCH  12  14
ENDBRANCH  11  12
ENDBRANCH   4  10
TORSDOF 3
ENDMDL
MODEL 5
REMARK VINA RESULT: -6.323518721      4.412      5.526
REMARK  3 active torsions:
REMARK  status: ('A' for Active; 'I' for Inactive)
REMARK    1  A    between atoms: C4_4  and  C5_5 
REMARK    2  A    between atoms: C6_6  and  C7_7 
REMARK    3  A    between atoms: C7_7  and  C9_9 
ROOT
HETATM    1  C1  UNL     1    -108.599-177.298 309.471  1.00  0.00     0.018 C 
HETATM    2  C2  UNL     1    -109.546-176.568 309.372  1.00  0.00    -0.074 C 
HETATM    3  C3  UNL     1    -110.676-175.694 309.288  1.00  0.00     0.062 A 
HETATM    4  C4  UNL     1    -111.374-175.225 308.204  1.00  0.00     0.001 A 
HETATM    5  C10 UNL     1    -112.411-174.386 308.685  1.00  0.00     0.101 A 
HETATM    6  N1  UNL     1    -112.309-174.376 310.009  1.00  0.00    -0.358 N 
ATOM      7  H1  UNL     1    -112.926-173.855 310.632  1.00  0.00     0.166 HD
HETATM    8  C11 UNL     1    -111.291-175.141 310.417  1.00  0.00     0.099 A 
HETATM    9 BR1  UNL     1    -110.749-175.442 312.217  1.00  0.00    -0.030 Br
ENDROOT
BRANCH   4  10
HETATM   10  C5  UNL     1    -111.143-175.497 306.803  1.00  0.00     0.011 C 
HETATM   11  C6  UNL     1    -110.129-175.158 306.081  1.00  0.00    -0.020 C 
BRANCH  11  12
HETATM   12  C7  UNL     1    -110.146-175.579 304.622  1.00  0.00     0.018 C 
HETATM   13  C8  UNL     1    -111.367-174.951 304.020  1.00  0.00     0.015 C 
BRANCH  12  14
HETATM   14  C9  UNL     1    -110.221-177.091 304.531  1.00  0.00     0.122 C 
HETATM   15 CL1  UNL     1    -110.023-177.573 302.820  1.00  0.00    -0.130 Cl
ENDBRANCH  12  14
ENDBRANCH  11  12
ENDBRANCH   4  10
TORSDOF 3
ENDMDL
