MODEL 1
REMARK VINA RESULT: -6.850013495      0.000      0.000
REMARK  4 active torsions:
REMARK  status: ('A' for Active; 'I' for Inactive)
REMARK    1  A    between atoms: C1_4  and  C2_6 
REMARK    2  A    between atoms: C2_6  and  C3_7 
REMARK    3  A    between atoms: C3_7  and  C4_8 
REMARK    4  A    between atoms: C4_8  and  C5_9 
ROOT
HETATM    1  C2  UNL     1    -112.384-175.243 309.183  1.00  0.00    -0.014 C 
HETATM    2  C6  UNL     1    -111.690-175.750 310.185  1.00  0.00    -0.053 C 
HETATM    3  C7  UNL     1    -111.289-175.513 311.584  1.00  0.00     0.041 C 
HETATM    4  C8  UNL     1    -109.816-175.412 311.462  1.00  0.00     0.002 C 
HETATM    5  C9  UNL     1    -109.536-176.431 310.616  1.00  0.00     0.017 C 
HETATM    6 CL1  UNL     1    -107.976-176.932 310.007  1.00  0.00    -0.088 Cl
HETATM    7  C10 UNL     1    -110.874-177.001 310.350  1.00  0.00     0.061 C 
HETATM    8  C11 UNL     1    -111.457-177.031 311.758  1.00  0.00     0.027 C 
ENDROOT
BRANCH   1   9
HETATM    9  C1  UNL     1    -113.062-173.978 309.386  1.00  0.00     0.116 C 
HETATM   10  N1  UNL     1    -114.321-173.946 309.657  1.00  0.00    -0.387 N 
ATOM     11  H12 UNL     1    -114.798-173.056 309.801  1.00  0.00     0.157 HD
ATOM     12  H11 UNL     1    -114.790-174.849 309.720  1.00  0.00     0.157 HD
HETATM   13  N2  UNL     1    -112.409-172.719 309.299  1.00  0.00    -0.083 NA
ENDBRANCH   1   9
BRANCH   1  14
HETATM   14  C3  UNL     1    -112.440-175.990 307.914  1.00  0.00     0.043 C 
BRANCH  14  15
HETATM   15  C4  UNL     1    -111.951-175.222 306.716  1.00  0.00     0.015 C 
BRANCH  15  16
HETATM   16  C5  UNL     1    -110.455-175.479 306.528  1.00  0.00     0.085 C 
HETATM   17 BR1  UNL     1    -110.182-175.804 304.641  1.00  0.00    -0.097 Br
ENDBRANCH  15  16
ENDBRANCH  14  15
ENDBRANCH   1  14
TORSDOF 4
ENDMDL
MODEL 2
REMARK VINA RESULT: -6.749865846      2.848      4.040
REMARK  4 active torsions:
REMARK  status: ('A' for Active; 'I' for Inactive)
REMARK    1  A    between atoms: C1_4  and  C2_6 
REMARK    2  A    between atoms: C2_6  and  C3_7 
REMARK    3  A    between atoms: C3_7  and  C4_8 
REMARK    4  A    between atoms: C4_8  and  C5_9 
ROOT
HETATM    1  C2  UNL     1    -111.468-175.627 309.868  1.00  0.00    -0.014 C 
HETATM    2  C6  UNL     1    -112.296-174.744 309.339  1.00  0.00    -0.053 C 
HETATM    3  C7  UNL     1    -112.930-173.433 309.568  1.00  0.00     0.041 C 
HETATM    4  C8  UNL     1    -114.366-173.796 309.610  1.00  0.00     0.002 C 
HETATM    5  C9  UNL     1    -114.464-174.663 308.575  1.00  0.00     0.017 C 
HETATM    6 CL1  UNL     1    -115.883-175.513 308.008  1.00  0.00    -0.088 Cl
HETATM    7  C10 UNL     1    -113.079-174.700 308.058  1.00  0.00     0.061 C 
HETATM    8  C11 UNL     1    -112.734-173.216 308.059  1.00  0.00     0.027 C 
ENDROOT
BRANCH   1   9
HETATM    9  C1  UNL     1    -110.882-175.330 311.161  1.00  0.00     0.116 C 
HETATM   10  N1  UNL     1    -111.552-175.523 312.243  1.00  0.00    -0.387 N 
ATOM     11  H12 UNL     1    -111.140-175.315 313.153  1.00  0.00     0.157 HD
ATOM     12  H11 UNL     1    -112.495-175.893 312.128  1.00  0.00     0.157 HD
HETATM   13  N2  UNL     1    -109.567-174.815 311.322  1.00  0.00    -0.083 NA
ENDBRANCH   1   9
BRANCH   1  14
HETATM   14  C3  UNL     1    -111.175-176.859 309.116  1.00  0.00     0.043 C 
BRANCH  14  15
HETATM   15  C4  UNL     1    -110.069-176.725 308.105  1.00  0.00     0.015 C 
BRANCH  15  16
HETATM   16  C5  UNL     1    -110.652-176.860 306.697  1.00  0.00     0.085 C 
HETATM   17 BR1  UNL     1    -110.057-175.314 305.700  1.00  0.00    -0.097 Br
ENDBRANCH  15  16
ENDBRANCH  14  15
ENDBRANCH   1  14
TORSDOF 4
ENDMDL
MODEL 3
REMARK VINA RESULT: -6.497463886      3.093      3.732
REMARK  4 active torsions:
REMARK  status: ('A' for Active; 'I' for Inactive)
REMARK    1  A    between atoms: C1_4  and  C2_6 
REMARK    2  A    between atoms: C2_6  and  C3_7 
REMARK    3  A    between atoms: C3_7  and  C4_8 
REMARK    4  A    between atoms: C4_8  and  C5_9 
ROOT
HETATM    1  C2  UNL     1    -110.949-175.386 307.882  1.00  0.00    -0.014 C 
HETATM    2  C6  UNL     1    -110.472-175.877 309.012  1.00  0.00    -0.053 C 
HETATM    3  C7  UNL     1    -109.488-176.825 309.566  1.00  0.00     0.041 C 
HETATM    4  C8  UNL     1    -110.364-177.795 310.265  1.00  0.00     0.002 C 
HETATM    5  C9  UNL     1    -111.254-176.977 310.875  1.00  0.00     0.017 C 
HETATM    6 CL1  UNL     1    -112.603-177.417 311.895  1.00  0.00    -0.088 Cl
HETATM    7  C10 UNL     1    -110.790-175.636 310.460  1.00  0.00     0.061 C 
HETATM    8  C11 UNL     1    -109.287-175.775 310.671  1.00  0.00     0.027 C 
ENDROOT
BRANCH   1   9
HETATM    9  C1  UNL     1    -110.390-175.867 306.634  1.00  0.00     0.116 C 
HETATM   10  N1  UNL     1    -110.625-177.067 306.230  1.00  0.00    -0.387 N 
ATOM     11  H12 UNL     1    -110.232-177.405 305.352  1.00  0.00     0.157 HD
ATOM     12  H11 UNL     1    -111.219-177.636 306.833  1.00  0.00     0.157 HD
HETATM   13  N2  UNL     1    -109.562-175.075 305.793  1.00  0.00    -0.083 NA
ENDBRANCH   1   9
BRANCH   1  14
HETATM   14  C3  UNL     1    -112.014-174.371 307.948  1.00  0.00     0.043 C 
BRANCH  14  15
HETATM   15  C4  UNL     1    -113.400-174.906 307.705  1.00  0.00     0.015 C 
BRANCH  15  16
HETATM   16  C5  UNL     1    -114.127-175.050 309.043  1.00  0.00     0.085 C 
HETATM   17 BR1  UNL     1    -114.843-176.846 309.093  1.00  0.00    -0.097 Br
ENDBRANCH  15  16
ENDBRANCH  14  15
ENDBRANCH   1  14
TORSDOF 4
ENDMDL
MODEL 4
REMARK VINA RESULT: -6.448837971      3.130      4.120
REMARK  4 active torsions:
REMARK  status: ('A' for Active; 'I' for Inactive)
REMARK    1  A    between atoms: C1_4  and  C2_6 
REMARK    2  A    between atoms: C2_6  and  C3_7 
REMARK    3  A    between atoms: C3_7  and  C4_8 
REMARK    4  A    between atoms: C4_8  and  C5_9 
ROOT
HETATM    1  C2  UNL     1    -110.771-175.874 308.141  1.00  0.00    -0.014 C 
HETATM    2  C6  UNL     1    -111.709-175.020 308.509  1.00  0.00    -0.053 C 
HETATM    3  C7  UNL     1    -112.223-174.253 309.657  1.00  0.00     0.041 C 
HETATM    4  C8  UNL     1    -113.582-174.821 309.816  1.00  0.00     0.002 C 
HETATM    5  C9  UNL     1    -114.005-174.892 308.532  1.00  0.00     0.017 C 
HETATM    6 CL1  UNL     1    -115.541-175.472 307.932  1.00  0.00    -0.088 Cl
HETATM    7  C10 UNL     1    -112.847-174.359 307.784  1.00  0.00     0.061 C 
HETATM    8  C11 UNL     1    -112.497-173.141 308.631  1.00  0.00     0.027 C 
ENDROOT
BRANCH   1   9
HETATM    9  C1  UNL     1    -109.812-176.312 309.136  1.00  0.00     0.116 C 
HETATM   10  N1  UNL     1    -109.018-177.297 308.890  1.00  0.00    -0.387 N 
ATOM     11  H12 UNL     1    -108.343-177.605 309.590  1.00  0.00     0.157 HD
ATOM     12  H11 UNL     1    -109.108-177.728 307.971  1.00  0.00     0.157 HD
HETATM   13  N2  UNL     1    -109.686-175.711 310.417  1.00  0.00    -0.083 NA
ENDBRANCH   1   9
BRANCH   1  14
HETATM   14  C3  UNL     1    -110.741-176.328 306.740  1.00  0.00     0.043 C 
BRANCH  14  15
HETATM   15  C4  UNL     1    -109.977-175.426 305.808  1.00  0.00     0.015 C 
BRANCH  15  16
HETATM   16  C5  UNL     1    -110.668-175.409 304.443  1.00  0.00     0.085 C 
HETATM   17 BR1  UNL     1    -110.241-177.089 303.586  1.00  0.00    -0.097 Br
ENDBRANCH  15  16
ENDBRANCH  14  15
ENDBRANCH   1  14
TORSDOF 4
ENDMDL
MODEL 5
REMARK VINA RESULT: -6.321343769      1.703      2.158
REMARK  4 active torsions:
REMARK  status: ('A' for Active; 'I' for Inactive)
REMARK    1  A    between atoms: C1_4  and  C2_6 
REMARK    2  A    between atoms: C2_6  and  C3_7 
REMARK    3  A    between atoms: C3_7  and  C4_8 
REMARK    4  A    between atoms: C4_8  and  C5_9 
ROOT
HETATM    1  C2  UNL     1    -113.321-175.581 308.920  1.00  0.00    -0.014 C 
HETATM    2  C6  UNL     1    -112.555-176.297 309.723  1.00  0.00    -0.053 C 
HETATM    3  C7  UNL     1    -112.581-177.357 310.747  1.00  0.00     0.041 C 
HETATM    4  C8  UNL     1    -112.052-176.644 311.933  1.00  0.00     0.002 C 
HETATM    5  C9  UNL     1    -111.021-175.946 311.401  1.00  0.00     0.017 C 
HETATM    6 CL1  UNL     1    -109.915-174.863 312.214  1.00  0.00    -0.088 Cl
HETATM    7  C10 UNL     1    -111.074-176.335 309.976  1.00  0.00     0.061 C 
HETATM    8  C11 UNL     1    -111.274-177.841 310.099  1.00  0.00     0.027 C 
ENDROOT
BRANCH   1   9
HETATM    9  C1  UNL     1    -114.752-175.817 308.945  1.00  0.00     0.116 C 
HETATM   10  N1  UNL     1    -115.222-177.006 308.785  1.00  0.00    -0.387 N 
ATOM     11  H12 UNL     1    -116.228-177.172 308.802  1.00  0.00     0.157 HD
ATOM     12  H11 UNL     1    -114.535-177.746 308.648  1.00  0.00     0.157 HD
HETATM   13  N2  UNL     1    -115.710-174.786 309.137  1.00  0.00    -0.083 NA
ENDBRANCH   1   9
BRANCH   1  14
HETATM   14  C3  UNL     1    -112.686-174.589 308.036  1.00  0.00     0.043 C 
BRANCH  14  15
HETATM   15  C4  UNL     1    -112.236-175.136 306.708  1.00  0.00     0.015 C 
BRANCH  15  16
HETATM   16  C5  UNL     1    -110.708-175.104 306.640  1.00  0.00     0.085 C 
HETATM   17 BR1  UNL     1    -110.220-175.698 304.866  1.00  0.00    -0.097 Br
ENDBRANCH  15  16
ENDBRANCH  14  15
ENDBRANCH   1  14
TORSDOF 4
ENDMDL
