MODEL 1
REMARK VINA RESULT: -7.695416054      0.000      0.000
REMARK  8 active torsions:
REMARK  status: ('A' for Active; 'I' for Inactive)
REMARK    1  A    between atoms: C2_2  and  C3_3 
REMARK    2  A    between atoms: C3_3  and  C4_4 
REMARK    3  A    between atoms: C13_13  and  C14_14 
REMARK    4  A    between atoms: C14_14  and  O2_16 
REMARK    5  A    between atoms: O2_16  and  C15_17 
REMARK    6  A    between atoms: C15_17  and  C16_18 
REMARK    7  A    between atoms: C16_18  and  C18_20 
REMARK    8  A    between atoms: C18_20  and  O3_21 
ROOT
HETATM    1  C4  UNL     1      18.644  -1.279  14.453  1.00  0.00    -0.016 A 
HETATM    2  C5  UNL     1      19.193  -1.566  15.709  1.00  0.00     0.088 A 
HETATM    3  C6  UNL     1      20.568  -1.668  15.846  1.00  0.00     0.010 A 
HETATM    4  C7  UNL     1      21.328  -1.479  14.723  1.00  0.00     0.020 A 
HETATM    5  C8  UNL     1      20.803  -1.194  13.480  1.00  0.00    -0.049 A 
HETATM    6  C9  UNL     1      19.429  -1.088  13.312  1.00  0.00    -0.034 A 
HETATM    7  C10 UNL     1      19.122  -0.753  11.930  1.00  0.00     0.058 C 
HETATM    8  C11 UNL     1      18.951  -1.864  10.975  1.00  0.00    -0.019 C 
HETATM    9  C12 UNL     1      19.190  -1.711   9.668  1.00  0.00    -0.008 C 
HETATM   10  C13 UNL     1      19.637  -0.396   9.155  1.00  0.00     0.178 C 
HETATM   11  C19 UNL     1      20.558   0.221  10.116  1.00  0.00     0.153 C 
HETATM   12  O4  UNL     1      21.476   0.948   9.714  1.00  0.00    -0.296 OA
HETATM   13  C20 UNL     1      20.420   0.005  11.551  1.00  0.00     0.033 C 
HETATM   14  C21 UNL     1      20.522   1.326  12.268  1.00  0.00     0.025 C 
HETATM   15  C22 UNL     1      21.470  -0.919  12.159  1.00  0.00     0.057 C 
HETATM   16  C23 UNL     1      20.841  -1.979  17.286  1.00  0.00     0.216 C 
HETATM   17  O5  UNL     1      21.122  -0.825  18.015  1.00  0.00    -0.341 OA
HETATM   18  C24 UNL     1      20.636  -1.166  19.282  1.00  0.00     0.161 C 
HETATM   19  C25 UNL     1      20.649   0.030  20.207  1.00  0.00     0.078 C 
HETATM   20  C26 UNL     1      21.458  -2.295  19.890  1.00  0.00     0.078 C 
HETATM   21  O6  UNL     1      19.364  -1.670  19.045  1.00  0.00    -0.323 OA
HETATM   22  C27 UNL     1      19.497  -2.357  17.825  1.00  0.00     0.303 C 
HETATM   23  O7  UNL     1      18.572  -1.783  16.931  1.00  0.00    -0.316 OA
ENDROOT
BRANCH  10  24
HETATM   24  C14 UNL     1      20.176  -0.550   7.783  1.00  0.00     0.274 C 
HETATM   25  O1  UNL     1      19.633   0.102   6.873  1.00  0.00    -0.264 OA
BRANCH  24  26
HETATM   26  O2  UNL     1      21.202  -1.323   7.405  1.00  0.00    -0.320 OA
BRANCH  26  27
HETATM   27  C15 UNL     1      22.360  -1.757   7.904  1.00  0.00     0.185 C 
BRANCH  27  28
HETATM   28  C16 UNL     1      22.519  -2.734   8.974  1.00  0.00     0.029 C 
HETATM   29  C17 UNL     1      23.870  -2.844   9.621  1.00  0.00     0.014 C 
BRANCH  28  30
HETATM   30  C18 UNL     1      22.282  -4.120   8.341  1.00  0.00     0.170 C 
BRANCH  30  31
HETATM   31  O3  UNL     1      21.026  -4.170   7.725  1.00  0.00    -0.400 OA
ATOM     32  H3  UNL     1      21.070  -4.673   6.920  1.00  0.00     0.209 HD
ENDBRANCH  30  31
ENDBRANCH  28  30
ENDBRANCH  27  28
ENDBRANCH  26  27
ENDBRANCH  24  26
ENDBRANCH  10  24
BRANCH   1  33
HETATM   33  C3  UNL     1      17.194  -1.106  14.342  1.00  0.00     0.042 C 
BRANCH  33  34
HETATM   34  C2  UNL     1      16.808   0.334  14.565  1.00  0.00     0.000 C 
HETATM   35  C1  UNL     1      16.166   0.961  13.396  1.00  0.00     0.005 C 
ENDBRANCH  33  34
ENDBRANCH   1  33
TORSDOF 8
ENDMDL
MODEL 2
REMARK VINA RESULT: -7.424410207      0.764      1.047
REMARK  8 active torsions:
REMARK  status: ('A' for Active; 'I' for Inactive)
REMARK    1  A    between atoms: C2_2  and  C3_3 
REMARK    2  A    between atoms: C3_3  and  C4_4 
REMARK    3  A    between atoms: C13_13  and  C14_14 
REMARK    4  A    between atoms: C14_14  and  O2_16 
REMARK    5  A    between atoms: O2_16  and  C15_17 
REMARK    6  A    between atoms: C15_17  and  C16_18 
REMARK    7  A    between atoms: C16_18  and  C18_20 
REMARK    8  A    between atoms: C18_20  and  O3_21 
ROOT
HETATM    1  C4  UNL     1      18.668  -1.236  14.321  1.00  0.00    -0.016 A 
HETATM    2  C5  UNL     1      19.163  -1.564  15.588  1.00  0.00     0.088 A 
HETATM    3  C6  UNL     1      20.532  -1.660  15.784  1.00  0.00     0.010 A 
HETATM    4  C7  UNL     1      21.339  -1.423  14.703  1.00  0.00     0.020 A 
HETATM    5  C8  UNL     1      20.867  -1.098  13.449  1.00  0.00    -0.049 A 
HETATM    6  C9  UNL     1      19.501  -0.997  13.223  1.00  0.00    -0.034 A 
HETATM    7  C10 UNL     1      19.252  -0.614  11.842  1.00  0.00     0.058 C 
HETATM    8  C11 UNL     1      19.135  -1.692  10.841  1.00  0.00    -0.019 C 
HETATM    9  C12 UNL     1      19.430  -1.490   9.552  1.00  0.00    -0.008 C 
HETATM   10  C13 UNL     1      19.886  -0.153   9.107  1.00  0.00     0.178 C 
HETATM   11  C19 UNL     1      20.757   0.436  10.130  1.00  0.00     0.153 C 
HETATM   12  O4  UNL     1      21.685   1.186   9.796  1.00  0.00    -0.296 OA
HETATM   13  C20 UNL     1      20.559   0.167  11.549  1.00  0.00     0.033 C 
HETATM   14  C21 UNL     1      20.614   1.462  12.317  1.00  0.00     0.025 C 
HETATM   15  C22 UNL     1      21.589  -0.770  12.169  1.00  0.00     0.057 C 
HETATM   16  C23 UNL     1      20.743  -2.020  17.222  1.00  0.00     0.216 C 
HETATM   17  O5  UNL     1      20.980  -0.891  18.004  1.00  0.00    -0.341 OA
HETATM   18  C24 UNL     1      20.441  -1.282  19.235  1.00  0.00     0.161 C 
HETATM   19  C25 UNL     1      20.402  -0.120  20.202  1.00  0.00     0.078 C 
HETATM   20  C26 UNL     1      21.246  -2.425  19.838  1.00  0.00     0.078 C 
HETATM   21  O6  UNL     1      19.186  -1.787  18.923  1.00  0.00    -0.323 OA
HETATM   22  C27 UNL     1      19.380  -2.429  17.686  1.00  0.00     0.303 C 
HETATM   23  O7  UNL     1      18.490  -1.830  16.772  1.00  0.00    -0.316 OA
ENDROOT
BRANCH  10  24
HETATM   24  C14 UNL     1      20.487  -0.253   7.756  1.00  0.00     0.274 C 
HETATM   25  O1  UNL     1      19.735  -0.101   6.776  1.00  0.00    -0.264 OA
BRANCH  24  26
HETATM   26  O2  UNL     1      21.773  -0.489   7.464  1.00  0.00    -0.320 OA
BRANCH  26  27
HETATM   27  C15 UNL     1      22.531  -1.504   7.048  1.00  0.00     0.185 C 
BRANCH  27  28
HETATM   28  C16 UNL     1      22.782  -2.740   7.778  1.00  0.00     0.029 C 
HETATM   29  C17 UNL     1      21.668  -3.746   7.850  1.00  0.00     0.014 C 
BRANCH  28  30
HETATM   30  C18 UNL     1      23.033  -2.339   9.246  1.00  0.00     0.170 C 
BRANCH  30  31
HETATM   31  O3  UNL     1      23.736  -1.130   9.311  1.00  0.00    -0.400 OA
ATOM     32  H3  UNL     1      24.570  -1.254   9.749  1.00  0.00     0.209 HD
ENDBRANCH  30  31
ENDBRANCH  28  30
ENDBRANCH  27  28
ENDBRANCH  26  27
ENDBRANCH  24  26
ENDBRANCH  10  24
BRANCH   1  33
HETATM   33  C3  UNL     1      17.223  -1.071  14.150  1.00  0.00     0.042 C 
BRANCH  33  34
HETATM   34  C2  UNL     1      16.792   0.317  14.549  1.00  0.00     0.000 C 
HETATM   35  C1  UNL     1      16.245   1.109  13.433  1.00  0.00     0.005 C 
ENDBRANCH  33  34
ENDBRANCH   1  33
TORSDOF 8
ENDMDL
MODEL 3
REMARK VINA RESULT: -7.269676471      1.734      2.730
REMARK  8 active torsions:
REMARK  status: ('A' for Active; 'I' for Inactive)
REMARK    1  A    between atoms: C2_2  and  C3_3 
REMARK    2  A    between atoms: C3_3  and  C4_4 
REMARK    3  A    between atoms: C13_13  and  C14_14 
REMARK    4  A    between atoms: C14_14  and  O2_16 
REMARK    5  A    between atoms: O2_16  and  C15_17 
REMARK    6  A    between atoms: C15_17  and  C16_18 
REMARK    7  A    between atoms: C16_18  and  C18_20 
REMARK    8  A    between atoms: C18_20  and  O3_21 
ROOT
HETATM    1  C4  UNL     1      18.734  -1.091  14.108  1.00  0.00    -0.016 A 
HETATM    2  C5  UNL     1      19.158  -1.472  15.386  1.00  0.00     0.088 A 
HETATM    3  C6  UNL     1      20.508  -1.674  15.627  1.00  0.00     0.010 A 
HETATM    4  C7  UNL     1      21.369  -1.483  14.579  1.00  0.00     0.020 A 
HETATM    5  C8  UNL     1      20.967  -1.106  13.315  1.00  0.00    -0.049 A 
HETATM    6  C9  UNL     1      19.621  -0.899  13.044  1.00  0.00    -0.034 A 
HETATM    7  C10 UNL     1      19.451  -0.479  11.661  1.00  0.00     0.058 C 
HETATM    8  C11 UNL     1      19.289  -1.531  10.639  1.00  0.00    -0.019 C 
HETATM    9  C12 UNL     1      19.645  -1.333   9.365  1.00  0.00    -0.008 C 
HETATM   10  C13 UNL     1      20.215  -0.029   8.958  1.00  0.00     0.178 C 
HETATM   11  C19 UNL     1      21.090   0.479  10.020  1.00  0.00     0.153 C 
HETATM   12  O4  UNL     1      22.083   1.161   9.731  1.00  0.00    -0.296 OA
HETATM   13  C20 UNL     1      20.822   0.205  11.427  1.00  0.00     0.033 C 
HETATM   14  C21 UNL     1      20.947   1.482  12.218  1.00  0.00     0.025 C 
HETATM   15  C22 UNL     1      21.757  -0.815  12.067  1.00  0.00     0.057 C 
HETATM   16  C23 UNL     1      20.640  -2.069  17.065  1.00  0.00     0.216 C 
HETATM   17  O5  UNL     1      20.933  -0.973  17.874  1.00  0.00    -0.341 OA
HETATM   18  C24 UNL     1      20.323  -1.339  19.079  1.00  0.00     0.161 C 
HETATM   19  C25 UNL     1      20.336  -0.191  20.063  1.00  0.00     0.078 C 
HETATM   20  C26 UNL     1      21.019  -2.548  19.690  1.00  0.00     0.078 C 
HETATM   21  O6  UNL     1      19.046  -1.744  18.716  1.00  0.00    -0.323 OA
HETATM   22  C27 UNL     1      19.235  -2.381  17.475  1.00  0.00     0.303 C 
HETATM   23  O7  UNL     1      18.426  -1.703  16.542  1.00  0.00    -0.316 OA
ENDROOT
BRANCH  10  24
HETATM   24  C14 UNL     1      20.854  -0.154   7.627  1.00  0.00     0.274 C 
HETATM   25  O1  UNL     1      21.346  -1.257   7.324  1.00  0.00    -0.264 OA
BRANCH  24  26
HETATM   26  O2  UNL     1      20.961   0.800   6.694  1.00  0.00    -0.320 OA
BRANCH  26  27
HETATM   27  C15 UNL     1      21.921   1.417   6.004  1.00  0.00     0.185 C 
BRANCH  27  28
HETATM   28  C16 UNL     1      22.045   2.856   5.810  1.00  0.00     0.029 C 
HETATM   29  C17 UNL     1      23.038   3.339   4.790  1.00  0.00     0.014 C 
BRANCH  28  30
HETATM   30  C18 UNL     1      22.553   3.437   7.146  1.00  0.00     0.170 C 
BRANCH  30  31
HETATM   31  O3  UNL     1      21.506   3.528   8.070  1.00  0.00    -0.400 OA
ATOM     32  H3  UNL     1      21.651   2.934   8.797  1.00  0.00     0.209 HD
ENDBRANCH  30  31
ENDBRANCH  28  30
ENDBRANCH  27  28
ENDBRANCH  26  27
ENDBRANCH  24  26
ENDBRANCH  10  24
BRANCH   1  33
HETATM   33  C3  UNL     1      17.312  -0.815  13.891  1.00  0.00     0.042 C 
BRANCH  33  34
HETATM   34  C2  UNL     1      17.096   0.634  13.538  1.00  0.00     0.000 C 
HETATM   35  C1  UNL     1      15.795   1.163  13.985  1.00  0.00     0.005 C 
ENDBRANCH  33  34
ENDBRANCH   1  33
TORSDOF 8
ENDMDL
MODEL 4
REMARK VINA RESULT: -7.093351896      2.800      8.999
REMARK  8 active torsions:
REMARK  status: ('A' for Active; 'I' for Inactive)
REMARK    1  A    between atoms: C2_2  and  C3_3 
REMARK    2  A    between atoms: C3_3  and  C4_4 
REMARK    3  A    between atoms: C13_13  and  C14_14 
REMARK    4  A    between atoms: C14_14  and  O2_16 
REMARK    5  A    between atoms: O2_16  and  C15_17 
REMARK    6  A    between atoms: C15_17  and  C16_18 
REMARK    7  A    between atoms: C16_18  and  C18_20 
REMARK    8  A    between atoms: C18_20  and  O3_21 
ROOT
HETATM    1  C4  UNL     1      20.948  -0.092   8.816  1.00  0.00    -0.016 A 
HETATM    2  C5  UNL     1      21.412   0.955   8.010  1.00  0.00     0.088 A 
HETATM    3  C6  UNL     1      21.838   2.134   8.601  1.00  0.00     0.010 A 
HETATM    4  C7  UNL     1      21.779   2.210   9.967  1.00  0.00     0.020 A 
HETATM    5  C8  UNL     1      21.327   1.187  10.774  1.00  0.00    -0.049 A 
HETATM    6  C9  UNL     1      20.893  -0.005  10.210  1.00  0.00    -0.034 A 
HETATM    7  C10 UNL     1      20.496  -0.935  11.257  1.00  0.00     0.058 C 
HETATM    8  C11 UNL     1      19.100  -0.882  11.730  1.00  0.00    -0.019 C 
HETATM    9  C12 UNL     1      18.762  -1.266  12.966  1.00  0.00    -0.008 C 
HETATM   10  C13 UNL     1      19.807  -1.759  13.891  1.00  0.00     0.178 C 
HETATM   11  C19 UNL     1      21.036  -0.979  13.708  1.00  0.00     0.153 C 
HETATM   12  O4  UNL     1      21.787  -0.771  14.671  1.00  0.00    -0.296 OA
HETATM   13  C20 UNL     1      21.408  -0.435  12.407  1.00  0.00     0.033 C 
HETATM   14  C21 UNL     1      22.859  -0.736  12.135  1.00  0.00     0.025 C 
HETATM   15  C22 UNL     1      21.227   1.073  12.272  1.00  0.00     0.057 C 
HETATM   16  C23 UNL     1      22.267   3.046   7.494  1.00  0.00     0.216 C 
HETATM   17  O5  UNL     1      23.641   2.974   7.273  1.00  0.00    -0.341 OA
HETATM   18  C24 UNL     1      23.722   3.241   5.902  1.00  0.00     0.161 C 
HETATM   19  C25 UNL     1      25.125   3.012   5.387  1.00  0.00     0.078 C 
HETATM   20  C26 UNL     1      23.293   4.672   5.605  1.00  0.00     0.078 C 
HETATM   21  O6  UNL     1      22.777   2.404   5.325  1.00  0.00    -0.323 OA
HETATM   22  C27 UNL     1      21.728   2.384   6.264  1.00  0.00     0.303 C 
HETATM   23  O7  UNL     1      21.535   1.038   6.631  1.00  0.00    -0.316 OA
ENDROOT
BRANCH  10  24
HETATM   24  C14 UNL     1      19.281  -1.781  15.277  1.00  0.00     0.274 C 
HETATM   25  O1  UNL     1      19.840  -2.535  16.094  1.00  0.00    -0.264 OA
BRANCH  24  26
HETATM   26  O2  UNL     1      18.256  -1.067  15.758  1.00  0.00    -0.320 OA
BRANCH  26  27
HETATM   27  C15 UNL     1      16.949  -1.216  15.970  1.00  0.00     0.185 C 
BRANCH  27  28
HETATM   28  C16 UNL     1      15.887  -0.913  15.017  1.00  0.00     0.029 C 
HETATM   29  C17 UNL     1      15.677   0.528  14.644  1.00  0.00     0.014 C 
BRANCH  28  30
HETATM   30  C18 UNL     1      14.563  -1.333  15.687  1.00  0.00     0.170 C 
BRANCH  30  31
HETATM   31  O3  UNL     1      13.599  -1.638  14.719  1.00  0.00    -0.400 OA
ATOM     32  H3  UNL     1      13.735  -1.114  13.938  1.00  0.00     0.209 HD
ENDBRANCH  30  31
ENDBRANCH  28  30
ENDBRANCH  27  28
ENDBRANCH  26  27
ENDBRANCH  24  26
ENDBRANCH  10  24
BRANCH   1  33
HETATM   33  C3  UNL     1      20.569  -1.356   8.179  1.00  0.00     0.042 C 
BRANCH  33  34
HETATM   34  C2  UNL     1      21.788  -2.185   7.867  1.00  0.00     0.000 C 
HETATM   35  C1  UNL     1      21.813  -3.484   8.564  1.00  0.00     0.005 C 
ENDBRANCH  33  34
ENDBRANCH   1  33
TORSDOF 8
ENDMDL
MODEL 5
REMARK VINA RESULT: -6.973347935      1.586      2.213
REMARK  8 active torsions:
REMARK  status: ('A' for Active; 'I' for Inactive)
REMARK    1  A    between atoms: C2_2  and  C3_3 
REMARK    2  A    between atoms: C3_3  and  C4_4 
REMARK    3  A    between atoms: C13_13  and  C14_14 
REMARK    4  A    between atoms: C14_14  and  O2_16 
REMARK    5  A    between atoms: O2_16  and  C15_17 
REMARK    6  A    between atoms: C15_17  and  C16_18 
REMARK    7  A    between atoms: C16_18  and  C18_20 
REMARK    8  A    between atoms: C18_20  and  O3_21 
ROOT
HETATM    1  C4  UNL     1      18.712  -1.122  14.117  1.00  0.00    -0.016 A 
HETATM    2  C5  UNL     1      19.137  -1.493  15.399  1.00  0.00     0.088 A 
HETATM    3  C6  UNL     1      20.487  -1.693  15.640  1.00  0.00     0.010 A 
HETATM    4  C7  UNL     1      21.347  -1.512  14.590  1.00  0.00     0.020 A 
HETATM    5  C8  UNL     1      20.944  -1.146  13.323  1.00  0.00    -0.049 A 
HETATM    6  C9  UNL     1      19.599  -0.940  13.051  1.00  0.00    -0.034 A 
HETATM    7  C10 UNL     1      19.428  -0.533  11.665  1.00  0.00     0.058 C 
HETATM    8  C11 UNL     1      19.265  -1.594  10.652  1.00  0.00    -0.019 C 
HETATM    9  C12 UNL     1      19.619  -1.408   9.376  1.00  0.00    -0.008 C 
HETATM   10  C13 UNL     1      20.190  -0.107   8.957  1.00  0.00     0.178 C 
HETATM   11  C19 UNL     1      21.066   0.410  10.014  1.00  0.00     0.153 C 
HETATM   12  O4  UNL     1      22.059   1.089   9.718  1.00  0.00    -0.296 OA
HETATM   13  C20 UNL     1      20.798   0.149  11.423  1.00  0.00     0.033 C 
HETATM   14  C21 UNL     1      20.925   1.432  12.203  1.00  0.00     0.025 C 
HETATM   15  C22 UNL     1      21.734  -0.866  12.072  1.00  0.00     0.057 C 
HETATM   16  C23 UNL     1      20.620  -2.075  17.082  1.00  0.00     0.216 C 
HETATM   17  O5  UNL     1      20.914  -0.972  17.881  1.00  0.00    -0.341 OA
HETATM   18  C24 UNL     1      20.304  -1.327  19.089  1.00  0.00     0.161 C 
HETATM   19  C25 UNL     1      20.318  -0.171  20.063  1.00  0.00     0.078 C 
HETATM   20  C26 UNL     1      21.000  -2.531  19.711  1.00  0.00     0.078 C 
HETATM   21  O6  UNL     1      19.027  -1.735  18.731  1.00  0.00    -0.323 OA
HETATM   22  C27 UNL     1      19.215  -2.383  17.496  1.00  0.00     0.303 C 
HETATM   23  O7  UNL     1      18.405  -1.714  16.557  1.00  0.00    -0.316 OA
ENDROOT
BRANCH  10  24
HETATM   24  C14 UNL     1      20.828  -0.245   7.627  1.00  0.00     0.274 C 
HETATM   25  O1  UNL     1      21.399  -1.320   7.369  1.00  0.00    -0.264 OA
BRANCH  24  26
HETATM   26  O2  UNL     1      20.858   0.672   6.651  1.00  0.00    -0.320 OA
BRANCH  26  27
HETATM   27  C15 UNL     1      21.702   1.582   6.163  1.00  0.00     0.185 C 
BRANCH  27  28
HETATM   28  C16 UNL     1      23.067   1.815   6.619  1.00  0.00     0.029 C 
HETATM   29  C17 UNL     1      23.591   3.222   6.558  1.00  0.00     0.014 C 
BRANCH  28  30
HETATM   30  C18 UNL     1      23.988   1.020   5.671  1.00  0.00     0.170 C 
BRANCH  30  31
HETATM   31  O3  UNL     1      23.617  -0.330   5.645  1.00  0.00    -0.400 OA
ATOM     32  H3  UNL     1      24.214  -0.849   6.172  1.00  0.00     0.209 HD
ENDBRANCH  30  31
ENDBRANCH  28  30
ENDBRANCH  27  28
ENDBRANCH  26  27
ENDBRANCH  24  26
ENDBRANCH  10  24
BRANCH   1  33
HETATM   33  C3  UNL     1      17.290  -0.848  13.898  1.00  0.00     0.042 C 
BRANCH  33  34
HETATM   34  C2  UNL     1      17.073   0.601  13.546  1.00  0.00     0.000 C 
HETATM   35  C1  UNL     1      15.771   1.129  13.992  1.00  0.00     0.005 C 
ENDBRANCH  33  34
ENDBRANCH   1  33
TORSDOF 8
ENDMDL
