MODEL 1
REMARK VINA RESULT: -9.433355918      0.000      0.000
REMARK  5 active torsions:
REMARK  status: ('A' for Active; 'I' for Inactive)
REMARK    1  A    between atoms: C3_5  and  C4_6 
REMARK       I    between atoms: N2_9  and  C7_10 
REMARK    2  A    between atoms: C7_10  and  C8_12 
REMARK    3  A    between atoms: C12_16  and  N3_17 
REMARK    4  A    between atoms: C16_21  and  C17_22 
REMARK    5  A    between atoms: C16_21  and  N5_25 
ROOT
HETATM    1  C17 UNL     1      21.001   2.028  11.035  1.00  0.00     0.162 C 
HETATM    2  C18 UNL     1      21.630   2.819  12.035  1.00  0.00     0.062 C 
HETATM    3  N4  UNL     1      22.117   3.479  12.852  1.00  0.00    -0.197 NA
ENDROOT
BRANCH   1   4
HETATM    4  C16 UNL     1      21.499   0.611  10.942  1.00  0.00     0.099 C 
HETATM    5  C15 UNL     1      22.716   0.440  10.109  1.00  0.00     0.045 C 
HETATM    6  C14 UNL     1      23.974   0.606  10.865  1.00  0.00     0.047 C 
HETATM    7  C13 UNL     1      23.985   0.155  12.283  1.00  0.00     0.063 C 
HETATM    8  N3  UNL     1      22.832  -0.532  12.698  1.00  0.00    -0.367 N 
HETATM    9  C21 UNL     1      21.583  -0.079  12.250  1.00  0.00     0.097 C 
BRANCH   8  10
HETATM   10  C12 UNL     1      22.792  -0.979  14.035  1.00  0.00     0.089 C 
HETATM   11  C11 UNL     1      23.733  -2.165  14.194  1.00  0.00     0.026 C 
HETATM   12  C10 UNL     1      24.205  -2.147  15.622  1.00  0.00     0.003 C 
HETATM   13  C9  UNL     1      23.004  -1.811  16.495  1.00  0.00     0.014 C 
HETATM   14  C8  UNL     1      21.691  -2.185  15.855  1.00  0.00     0.080 C 
HETATM   15  C22 UNL     1      21.458  -1.418  14.543  1.00  0.00     0.039 C 
BRANCH  14  16
HETATM   16  C7  UNL     1      20.597  -1.925  16.805  1.00  0.00     0.224 C 
HETATM   17  N2  UNL     1      19.250  -1.789  16.448  1.00  0.00    -0.352 N 
HETATM   18  C6  UNL     1      18.206  -1.550  17.455  1.00  0.00     0.126 C 
HETATM   19  C23 UNL     1      18.797  -1.855  15.087  1.00  0.00     0.126 C 
HETATM   20  C5  UNL     1      16.894  -1.921  16.841  1.00  0.00     0.030 C 
HETATM   21  C4  UNL     1      16.598  -0.849  15.784  1.00  0.00     0.040 C 
HETATM   22  C24 UNL     1      17.728  -0.814  14.790  1.00  0.00     0.030 C 
HETATM   23  O1  UNL     1      20.900  -1.820  18.042  1.00  0.00    -0.273 OA
BRANCH  21  24
HETATM   24  C3  UNL     1      15.275  -1.085  15.160  1.00  0.00     0.030 A 
HETATM   25  N1  UNL     1      14.851  -0.661  13.961  1.00  0.00    -0.348 N 
HETATM   26  C2  UNL     1      13.595  -1.097  13.795  1.00  0.00     0.077 A 
ATOM     27  H1  UNL     1      15.389  -0.106  13.294  1.00  0.00     0.167 HD
HETATM   28  C1  UNL     1      12.746  -0.846  12.591  1.00  0.00     0.089 C 
HETATM   29  N8  UNL     1      13.225  -1.790  14.878  1.00  0.00    -0.354 N 
HETATM   30  C25 UNL     1      14.243  -1.800  15.739  1.00  0.00     0.114 A 
ATOM     31  H8  UNL     1      12.318  -2.235  15.022  1.00  0.00     0.166 HD
ENDBRANCH  21  24
ENDBRANCH  14  16
ENDBRANCH   8  10
BRANCH   4  32
HETATM   32  N5  UNL     1      20.420  -0.095  10.192  1.00  0.00    -0.271 N 
HETATM   33  C19 UNL     1      19.656  -1.091  10.662  1.00  0.00     0.202 A 
HETATM   34  N6  UNL     1      18.785  -1.479   9.693  1.00  0.00    -0.346 N 
HETATM   35  C20 UNL     1      19.019  -0.720   8.632  1.00  0.00     0.198 A 
ATOM     36  H6  UNL     1      18.084  -2.215   9.769  1.00  0.00     0.167 HD
HETATM   37  N7  UNL     1      20.021   0.118   8.958  1.00  0.00    -0.292 N 
ATOM     38  H7  UNL     1      20.416   0.820   8.333  1.00  0.00     0.188 HD
ENDBRANCH   4  32
ENDBRANCH   1   4
TORSDOF 5
ENDMDL
MODEL 2
REMARK VINA RESULT: -9.398593366      1.663      2.456
REMARK  5 active torsions:
REMARK  status: ('A' for Active; 'I' for Inactive)
REMARK    1  A    between atoms: C3_5  and  C4_6 
REMARK       I    between atoms: N2_9  and  C7_10 
REMARK    2  A    between atoms: C7_10  and  C8_12 
REMARK    3  A    between atoms: C12_16  and  N3_17 
REMARK    4  A    between atoms: C16_21  and  C17_22 
REMARK    5  A    between atoms: C16_21  and  N5_25 
ROOT
HETATM    1  C17 UNL     1      19.833  -1.073   9.484  1.00  0.00     0.162 C 
HETATM    2  C18 UNL     1      19.234  -0.446   8.357  1.00  0.00     0.062 C 
HETATM    3  N4  UNL     1      18.720   0.063   7.455  1.00  0.00    -0.197 NA
ENDROOT
BRANCH   1   4
HETATM    4  C16 UNL     1      21.277  -0.716   9.715  1.00  0.00     0.099 C 
HETATM    5  C15 UNL     1      21.640   0.667   9.316  1.00  0.00     0.045 C 
HETATM    6  C14 UNL     1      21.445   1.658  10.394  1.00  0.00     0.047 C 
HETATM    7  C13 UNL     1      21.687   1.208  11.791  1.00  0.00     0.063 C 
HETATM    8  N3  UNL     1      22.236  -0.080  11.915  1.00  0.00    -0.367 N 
HETATM    9  C21 UNL     1      21.776  -1.090  11.058  1.00  0.00     0.097 C 
BRANCH   8  10
HETATM   10  C12 UNL     1      22.484  -0.554  13.219  1.00  0.00     0.089 C 
HETATM   11  C11 UNL     1      23.647  -1.535  13.183  1.00  0.00     0.026 C 
HETATM   12  C10 UNL     1      24.316  -1.454  14.528  1.00  0.00     0.003 C 
HETATM   13  C9  UNL     1      23.217  -1.380  15.580  1.00  0.00     0.014 C 
HETATM   14  C8  UNL     1      21.920  -1.992  15.115  1.00  0.00     0.080 C 
HETATM   15  C22 UNL     1      21.350  -1.258  13.890  1.00  0.00     0.039 C 
BRANCH  14  16
HETATM   16  C7  UNL     1      20.950  -1.973  16.224  1.00  0.00     0.224 C 
HETATM   17  N2  UNL     1      19.563  -1.863  16.065  1.00  0.00    -0.352 N 
HETATM   18  C6  UNL     1      18.653  -1.871  17.219  1.00  0.00     0.126 C 
HETATM   19  C23 UNL     1      18.938  -1.719  14.780  1.00  0.00     0.126 C 
HETATM   20  C5  UNL     1      17.288  -2.213  16.713  1.00  0.00     0.030 C 
HETATM   21  C4  UNL     1      16.811  -0.995  15.913  1.00  0.00     0.040 C 
HETATM   22  C24 UNL     1      17.797  -0.714  14.810  1.00  0.00     0.030 C 
HETATM   23  O1  UNL     1      21.410  -2.066  17.412  1.00  0.00    -0.273 OA
BRANCH  21  24
HETATM   24  C3  UNL     1      15.428  -1.203  15.423  1.00  0.00     0.030 A 
HETATM   25  N1  UNL     1      14.917  -0.835  14.239  1.00  0.00    -0.348 N 
HETATM   26  C2  UNL     1      13.633  -1.216  14.213  1.00  0.00     0.077 A 
ATOM     27  H1  UNL     1      15.417  -0.352  13.492  1.00  0.00     0.167 HD
HETATM   28  C1  UNL     1      12.691  -1.000  13.073  1.00  0.00     0.089 C 
HETATM   29  N8  UNL     1      13.331  -1.819  15.368  1.00  0.00    -0.354 N 
HETATM   30  C25 UNL     1      14.421  -1.826  16.136  1.00  0.00     0.114 A 
ATOM     31  H8  UNL     1      12.422  -2.207  15.620  1.00  0.00     0.166 HD
ENDBRANCH  21  24
ENDBRANCH  14  16
ENDBRANCH   8  10
BRANCH   4  32
HETATM   32  N5  UNL     1      22.015  -1.595   8.761  1.00  0.00    -0.271 N 
HETATM   33  C19 UNL     1      22.140  -2.926   8.852  1.00  0.00     0.202 A 
HETATM   34  N6  UNL     1      22.879  -3.376   7.803  1.00  0.00    -0.346 N 
HETATM   35  C20 UNL     1      23.206  -2.318   7.074  1.00  0.00     0.198 A 
ATOM     36  H6  UNL     1      23.135  -4.345   7.614  1.00  0.00     0.167 HD
HETATM   37  N7  UNL     1      22.669  -1.241   7.677  1.00  0.00    -0.292 N 
ATOM     38  H7  UNL     1      22.758  -0.283   7.339  1.00  0.00     0.188 HD
ENDBRANCH   4  32
ENDBRANCH   1   4
TORSDOF 5
ENDMDL
MODEL 3
REMARK VINA RESULT: -9.086499999      1.445      2.143
REMARK  5 active torsions:
REMARK  status: ('A' for Active; 'I' for Inactive)
REMARK    1  A    between atoms: C3_5  and  C4_6 
REMARK       I    between atoms: N2_9  and  C7_10 
REMARK    2  A    between atoms: C7_10  and  C8_12 
REMARK    3  A    between atoms: C12_16  and  N3_17 
REMARK    4  A    between atoms: C16_21  and  C17_22 
REMARK    5  A    between atoms: C16_21  and  N5_25 
ROOT
HETATM    1  C17 UNL     1      20.010  -0.008   9.837  1.00  0.00     0.162 C 
HETATM    2  C18 UNL     1      19.165  -1.013  10.382  1.00  0.00     0.062 C 
HETATM    3  N4  UNL     1      18.458  -1.825  10.804  1.00  0.00    -0.197 NA
ENDROOT
BRANCH   1   4
HETATM    4  C16 UNL     1      21.483  -0.242  10.036  1.00  0.00     0.099 C 
HETATM    5  C15 UNL     1      22.345   0.907   9.659  1.00  0.00     0.045 C 
HETATM    6  C14 UNL     1      22.566   1.863  10.762  1.00  0.00     0.047 C 
HETATM    7  C13 UNL     1      22.639   1.311  12.143  1.00  0.00     0.063 C 
HETATM    8  N3  UNL     1      22.650  -0.092  12.223  1.00  0.00    -0.367 N 
HETATM    9  C21 UNL     1      21.822  -0.821  11.357  1.00  0.00     0.097 C 
BRANCH   8  10
HETATM   10  C12 UNL     1      22.717  -0.665  13.509  1.00  0.00     0.089 C 
HETATM   11  C11 UNL     1      23.688  -1.836  13.486  1.00  0.00     0.026 C 
HETATM   12  C10 UNL     1      24.264  -1.942  14.871  1.00  0.00     0.003 C 
HETATM   13  C9  UNL     1      23.125  -1.721  15.856  1.00  0.00     0.014 C 
HETATM   14  C8  UNL     1      21.775  -2.066  15.278  1.00  0.00     0.080 C 
HETATM   15  C22 UNL     1      21.432  -1.184  14.066  1.00  0.00     0.039 C 
BRANCH  14  16
HETATM   16  C7  UNL     1      20.749  -1.926  16.325  1.00  0.00     0.224 C 
HETATM   17  N2  UNL     1      19.376  -1.801  16.079  1.00  0.00    -0.352 N 
HETATM   18  C6  UNL     1      18.405  -1.685  17.177  1.00  0.00     0.126 C 
HETATM   19  C23 UNL     1      18.825  -1.761  14.754  1.00  0.00     0.126 C 
HETATM   20  C5  UNL     1      17.060  -2.042  16.629  1.00  0.00     0.030 C 
HETATM   21  C4  UNL     1      16.659  -0.891  15.697  1.00  0.00     0.040 C 
HETATM   22  C24 UNL     1      17.710  -0.733  14.630  1.00  0.00     0.030 C 
HETATM   23  O1  UNL     1      21.142  -1.920  17.541  1.00  0.00    -0.273 OA
BRANCH  21  24
HETATM   24  C3  UNL     1      15.300  -1.113  15.151  1.00  0.00     0.030 A 
HETATM   25  N1  UNL     1      14.810  -0.683  13.980  1.00  0.00    -0.348 N 
HETATM   26  C2  UNL     1      13.542  -1.106  13.888  1.00  0.00     0.077 A 
ATOM     27  H1  UNL     1      15.313  -0.133  13.283  1.00  0.00     0.167 HD
HETATM   28  C1  UNL     1      12.626  -0.845  12.736  1.00  0.00     0.089 C 
HETATM   29  N8  UNL     1      13.229  -1.797  14.990  1.00  0.00    -0.354 N 
HETATM   30  C25 UNL     1      14.297  -1.818  15.789  1.00  0.00     0.114 A 
ATOM     31  H8  UNL     1      12.328  -2.233  15.186  1.00  0.00     0.166 HD
ENDBRANCH  21  24
ENDBRANCH  14  16
ENDBRANCH   8  10
BRANCH   4  32
HETATM   32  N5  UNL     1      21.810  -1.307   9.043  1.00  0.00    -0.271 N 
HETATM   33  C19 UNL     1      21.674  -1.212   7.714  1.00  0.00     0.202 A 
HETATM   34  N6  UNL     1      22.072  -2.379   7.141  1.00  0.00    -0.346 N 
HETATM   35  C20 UNL     1      22.450  -3.186   8.123  1.00  0.00     0.198 A 
ATOM     36  H6  UNL     1      22.078  -2.594   6.144  1.00  0.00     0.167 HD
HETATM   37  N7  UNL     1      22.282  -2.512   9.276  1.00  0.00    -0.292 N 
ATOM     38  H7  UNL     1      22.491  -2.885  10.201  1.00  0.00     0.188 HD
ENDBRANCH   4  32
ENDBRANCH   1   4
TORSDOF 5
ENDMDL
MODEL 4
REMARK VINA RESULT: -8.955821394      1.217      1.433
REMARK  5 active torsions:
REMARK  status: ('A' for Active; 'I' for Inactive)
REMARK    1  A    between atoms: C3_5  and  C4_6 
REMARK       I    between atoms: N2_9  and  C7_10 
REMARK    2  A    between atoms: C7_10  and  C8_12 
REMARK    3  A    between atoms: C12_16  and  N3_17 
REMARK    4  A    between atoms: C16_21  and  C17_22 
REMARK    5  A    between atoms: C16_21  and  N5_25 
ROOT
HETATM    1  C17 UNL     1      21.240   1.478  11.031  1.00  0.00     0.162 C 
HETATM    2  C18 UNL     1      21.443   1.989   9.720  1.00  0.00     0.062 C 
HETATM    3  N4  UNL     1      21.614   2.431   8.665  1.00  0.00    -0.197 NA
ENDROOT
BRANCH   1   4
HETATM    4  C16 UNL     1      21.618   0.032  11.213  1.00  0.00     0.099 C 
HETATM    5  C15 UNL     1      22.893  -0.357  10.560  1.00  0.00     0.045 C 
HETATM    6  C14 UNL     1      24.078  -0.161  11.420  1.00  0.00     0.047 C 
HETATM    7  C13 UNL     1      23.906  -0.375  12.882  1.00  0.00     0.063 C 
HETATM    8  N3  UNL     1      22.660  -0.902  13.264  1.00  0.00    -0.367 N 
HETATM    9  C21 UNL     1      21.508  -0.441  12.613  1.00  0.00     0.097 C 
BRANCH   8  10
HETATM   10  C12 UNL     1      22.447  -1.123  14.640  1.00  0.00     0.089 C 
HETATM   11  C11 UNL     1      23.511  -2.076  15.166  1.00  0.00     0.026 C 
HETATM   12  C10 UNL     1      23.708  -1.738  16.618  1.00  0.00     0.003 C 
HETATM   13  C9  UNL     1      22.331  -1.487  17.218  1.00  0.00     0.014 C 
HETATM   14  C8  UNL     1      21.229  -2.194  16.470  1.00  0.00     0.080 C 
HETATM   15  C22 UNL     1      21.125  -1.708  15.015  1.00  0.00     0.039 C 
BRANCH  14  16
HETATM   16  C7  UNL     1      19.953  -1.985  17.176  1.00  0.00     0.224 C 
HETATM   17  N2  UNL     1      18.723  -1.763  16.544  1.00  0.00    -0.352 N 
HETATM   18  C6  UNL     1      17.484  -1.582  17.314  1.00  0.00     0.126 C 
HETATM   19  C23 UNL     1      18.587  -1.679  15.117  1.00  0.00     0.126 C 
HETATM   20  C5  UNL     1      16.337  -1.841  16.390  1.00  0.00     0.030 C 
HETATM   21  C4  UNL     1      16.304  -0.662  15.409  1.00  0.00     0.040 C 
HETATM   22  C24 UNL     1      17.628  -0.575  14.700  1.00  0.00     0.030 C 
HETATM   23  O1  UNL     1      19.973  -2.012  18.453  1.00  0.00    -0.273 OA
BRANCH  21  24
HETATM   24  C3  UNL     1      15.151  -0.785  14.486  1.00  0.00     0.030 A 
HETATM   25  N1  UNL     1      13.998  -1.433  14.703  1.00  0.00    -0.348 N 
HETATM   26  C2  UNL     1      13.239  -1.292  13.608  1.00  0.00     0.077 A 
ATOM     27  H1  UNL     1      13.744  -1.942  15.550  1.00  0.00     0.167 HD
HETATM   28  C1  UNL     1      11.869  -1.861  13.428  1.00  0.00     0.089 C 
HETATM   29  N8  UNL     1      13.904  -0.563  12.705  1.00  0.00    -0.354 N 
HETATM   30  C25 UNL     1      15.089  -0.235  13.220  1.00  0.00     0.114 A 
ATOM     31  H8  UNL     1      13.563  -0.302  11.779  1.00  0.00     0.166 HD
ENDBRANCH  21  24
ENDBRANCH  14  16
ENDBRANCH   8  10
BRANCH   4  32
HETATM   32  N5  UNL     1      20.563  -0.708  10.462  1.00  0.00    -0.271 N 
HETATM   33  C19 UNL     1      20.763  -1.511   9.408  1.00  0.00     0.202 A 
HETATM   34  N6  UNL     1      19.567  -2.007   8.993  1.00  0.00    -0.346 N 
HETATM   35  C20 UNL     1      18.638  -1.504   9.794  1.00  0.00     0.198 A 
ATOM     36  H6  UNL     1      19.414  -2.645   8.213  1.00  0.00     0.167 HD
HETATM   37  N7  UNL     1      19.267  -0.714  10.682  1.00  0.00    -0.292 N 
ATOM     38  H7  UNL     1      18.802  -0.191  11.424  1.00  0.00     0.188 HD
ENDBRANCH   4  32
ENDBRANCH   1   4
TORSDOF 5
ENDMDL
MODEL 5
REMARK VINA RESULT: -8.158245096      2.023      3.386
REMARK  5 active torsions:
REMARK  status: ('A' for Active; 'I' for Inactive)
REMARK    1  A    between atoms: C3_5  and  C4_6 
REMARK       I    between atoms: N2_9  and  C7_10 
REMARK    2  A    between atoms: C7_10  and  C8_12 
REMARK    3  A    between atoms: C12_16  and  N3_17 
REMARK    4  A    between atoms: C16_21  and  C17_22 
REMARK    5  A    between atoms: C16_21  and  N5_25 
ROOT
HETATM    1  C17 UNL     1      22.696  -0.510   7.387  1.00  0.00     0.162 C 
HETATM    2  C18 UNL     1      23.129  -1.690   8.051  1.00  0.00     0.062 C 
HETATM    3  N4  UNL     1      23.508  -2.648   8.577  1.00  0.00    -0.197 NA
ENDROOT
BRANCH   1   4
HETATM    4  C16 UNL     1      21.739   0.345   8.173  1.00  0.00     0.099 C 
HETATM    5  C15 UNL     1      20.306   0.092   7.882  1.00  0.00     0.045 C 
HETATM    6  C14 UNL     1      19.714  -0.968   8.723  1.00  0.00     0.047 C 
HETATM    7  C13 UNL     1      20.214  -1.094  10.119  1.00  0.00     0.063 C 
HETATM    8  N3  UNL     1      21.088  -0.074  10.532  1.00  0.00    -0.367 N 
HETATM    9  C21 UNL     1      22.043   0.402   9.622  1.00  0.00     0.097 C 
BRANCH   8  10
HETATM   10  C12 UNL     1      21.591  -0.148  11.847  1.00  0.00     0.089 C 
HETATM   11  C11 UNL     1      23.074  -0.489  11.798  1.00  0.00     0.026 C 
HETATM   12  C10 UNL     1      23.693   0.119  13.026  1.00  0.00     0.003 C 
HETATM   13  C9  UNL     1      22.739  -0.126  14.187  1.00  0.00     0.014 C 
HETATM   14  C8  UNL     1      21.853  -1.327  13.973  1.00  0.00     0.080 C 
HETATM   15  C22 UNL     1      20.948  -1.157  12.742  1.00  0.00     0.039 C 
BRANCH  14  16
HETATM   16  C7  UNL     1      21.042  -1.552  15.182  1.00  0.00     0.224 C 
HETATM   17  N2  UNL     1      19.642  -1.538  15.212  1.00  0.00    -0.352 N 
HETATM   18  C6  UNL     1      18.896  -1.791  16.454  1.00  0.00     0.126 C 
HETATM   19  C23 UNL     1      18.842  -1.263  14.052  1.00  0.00     0.126 C 
HETATM   20  C5  UNL     1      17.501  -2.170  16.072  1.00  0.00     0.030 C 
HETATM   21  C4  UNL     1      16.843  -0.893  15.534  1.00  0.00     0.040 C 
HETATM   22  C24 UNL     1      17.652  -0.373  14.377  1.00  0.00     0.030 C 
HETATM   23  O1  UNL     1      21.661  -1.777  16.276  1.00  0.00    -0.273 OA
BRANCH  21  24
HETATM   24  C3  UNL     1      15.423  -1.144  15.191  1.00  0.00     0.030 A 
HETATM   25  N1  UNL     1      14.780  -0.793  14.069  1.00  0.00    -0.348 N 
HETATM   26  C2  UNL     1      13.513  -1.214  14.176  1.00  0.00     0.077 A 
ATOM     27  H1  UNL     1      15.184  -0.293  13.276  1.00  0.00     0.167 HD
HETATM   28  C1  UNL     1      12.451  -1.027  13.141  1.00  0.00     0.089 C 
HETATM   29  N8  UNL     1      13.352  -1.826  15.354  1.00  0.00    -0.354 N 
HETATM   30  C25 UNL     1      14.517  -1.799  16.003  1.00  0.00     0.114 A 
ATOM     31  H8  UNL     1      12.487  -2.243  15.698  1.00  0.00     0.166 HD
ENDBRANCH  21  24
ENDBRANCH  14  16
ENDBRANCH   8  10
BRANCH   4  32
HETATM   32  N5  UNL     1      21.995   1.724   7.662  1.00  0.00    -0.271 N 
HETATM   33  C19 UNL     1      21.867   2.859   8.363  1.00  0.00     0.202 A 
HETATM   34  N6  UNL     1      22.187   3.912   7.565  1.00  0.00    -0.346 N 
HETATM   35  C20 UNL     1      22.509   3.418   6.378  1.00  0.00     0.198 A 
ATOM     36  H6  UNL     1      22.180   4.897   7.830  1.00  0.00     0.167 HD
HETATM   37  N7  UNL     1      22.385   2.081   6.459  1.00  0.00    -0.292 N 
ATOM     38  H7  UNL     1      22.568   1.434   5.692  1.00  0.00     0.188 HD
ENDBRANCH   4  32
ENDBRANCH   1   4
TORSDOF 5
ENDMDL
