MODEL 1
REMARK VINA RESULT: -7.729029605      0.000      0.000
REMARK  9 active torsions:
REMARK  status: ('A' for Active; 'I' for Inactive)
REMARK    1  A    between atoms: C7_7  and  C8_8 
REMARK    2  A    between atoms: C8_8  and  O2_10 
REMARK    3  A    between atoms: O2_10  and  C9_11 
REMARK    4  A    between atoms: C9_11  and  C10_12 
REMARK    5  A    between atoms: C10_12  and  C11_13 
REMARK    6  A    between atoms: C11_13  and  O3_14 
REMARK    7  A    between atoms: C13_19  and  N1_20 
REMARK    8  A    between atoms: N1_20  and  C15_22 
REMARK    9  A    between atoms: N2_27  and  O6_28 
ROOT
HETATM    1  C10 UNL     1      20.631  -0.745   9.511  1.00  0.00     0.123 C 
HETATM    2  O4  UNL     1      20.114   0.572   9.230  1.00  0.00    -0.303 OA
HETATM    3  C12 UNL     1      21.276   1.349   9.125  1.00  0.00     0.283 C 
HETATM    4  O5  UNL     1      21.550   2.455   9.684  1.00  0.00    -0.263 OA
HETATM    5  C13 UNL     1      22.101   0.529   8.182  1.00  0.00     0.190 C 
HETATM    6  C24 UNL     1      21.892  -0.837   8.673  1.00  0.00     0.018 C 
HETATM    7  C25 UNL     1      22.940  -1.464   9.520  1.00  0.00     0.021 C 
HETATM    8  C26 UNL     1      21.705  -1.769   7.479  1.00  0.00     0.021 C 
ENDROOT
BRANCH   1   9
HETATM    9  C9  UNL     1      20.951  -0.696  10.992  1.00  0.00     0.220 C 
BRANCH   9  10
HETATM   10  O2  UNL     1      19.719  -0.976  11.689  1.00  0.00    -0.314 OA
BRANCH  10  11
HETATM   11  C8  UNL     1      19.118  -0.051  12.492  1.00  0.00     0.293 C 
HETATM   12  O1  UNL     1      19.497   1.155  12.300  1.00  0.00    -0.259 OA
BRANCH  11  13
HETATM   13  C7  UNL     1      18.119  -0.280  13.516  1.00  0.00     0.045 A 
HETATM   14  C2  UNL     1      18.372  -1.071  14.605  1.00  0.00    -0.046 A 
HETATM   15  C1  UNL     1      19.698  -1.712  14.737  1.00  0.00     0.049 C 
HETATM   16  C3  UNL     1      17.378  -1.264  15.573  1.00  0.00     0.008 A 
HETATM   17  C4  UNL     1      16.135  -0.676  15.469  1.00  0.00     0.001 A 
HETATM   18  C5  UNL     1      15.882   0.116  14.377  1.00  0.00     0.001 A 
HETATM   19  C6  UNL     1      16.851   0.308  13.427  1.00  0.00     0.018 A 
ENDBRANCH  11  13
ENDBRANCH  10  11
ENDBRANCH   9  10
ENDBRANCH   1   9
BRANCH   1  20
HETATM   20  C11 UNL     1      19.653  -1.822   9.232  1.00  0.00     0.205 C 
BRANCH  20  21
HETATM   21  O3  UNL     1      18.372  -1.279   9.300  1.00  0.00    -0.398 OA
ATOM     22  H3  UNL     1      17.811  -1.760   8.704  1.00  0.00     0.209 HD
ENDBRANCH  20  21
ENDBRANCH   1  20
BRANCH   5  23
HETATM   23  N1  UNL     1      23.323   1.085   7.956  1.00  0.00    -0.399 N 
HETATM   24  C14 UNL     1      24.269   1.340   8.947  1.00  0.00     0.144 C 
BRANCH  23  25
HETATM   25  C15 UNL     1      23.590   1.845   6.780  1.00  0.00     0.083 C 
HETATM   26  C16 UNL     1      22.530   1.737   5.720  1.00  0.00     0.051 C 
HETATM   27  C17 UNL     1      23.120   2.225   4.414  1.00  0.00     0.034 C 
HETATM   28  C18 UNL     1      21.913   2.385   3.469  1.00  0.00     0.034 C 
HETATM   29  C19 UNL     1      23.997   1.178   3.763  1.00  0.00     0.034 C 
HETATM   30  N2  UNL     1      23.714   3.514   4.509  1.00  0.00    -0.182 NA
HETATM   31  C20 UNL     1      24.506   3.783   5.638  1.00  0.00     0.034 C 
HETATM   32  C21 UNL     1      25.934   3.288   5.547  1.00  0.00     0.034 C 
HETATM   33  C22 UNL     1      24.605   5.307   5.794  1.00  0.00     0.034 C 
HETATM   34  C23 UNL     1      23.917   3.287   6.969  1.00  0.00     0.051 C 
BRANCH  30  35
HETATM   35  O6  UNL     1      22.871   4.530   4.200  1.00  0.00    -0.312 OA
ATOM     36  H6  UNL     1      22.368   4.850   4.940  1.00  0.00     0.237 HD
ENDBRANCH  30  35
ENDBRANCH  23  25
ENDBRANCH   5  23
TORSDOF 9
ENDMDL
MODEL 2
REMARK VINA RESULT: -7.591417009      0.469      1.223
REMARK  9 active torsions:
REMARK  status: ('A' for Active; 'I' for Inactive)
REMARK    1  A    between atoms: C7_7  and  C8_8 
REMARK    2  A    between atoms: C8_8  and  O2_10 
REMARK    3  A    between atoms: O2_10  and  C9_11 
REMARK    4  A    between atoms: C9_11  and  C10_12 
REMARK    5  A    between atoms: C10_12  and  C11_13 
REMARK    6  A    between atoms: C11_13  and  O3_14 
REMARK    7  A    between atoms: C13_19  and  N1_20 
REMARK    8  A    between atoms: N1_20  and  C15_22 
REMARK    9  A    between atoms: N2_27  and  O6_28 
ROOT
HETATM    1  C10 UNL     1      20.491  -0.761   9.709  1.00  0.00     0.123 C 
HETATM    2  O4  UNL     1      20.009   0.572   9.444  1.00  0.00    -0.303 OA
HETATM    3  C12 UNL     1      21.193   1.319   9.345  1.00  0.00     0.283 C 
HETATM    4  O5  UNL     1      21.497   2.411   9.916  1.00  0.00    -0.263 OA
HETATM    5  C13 UNL     1      21.993   0.487   8.391  1.00  0.00     0.190 C 
HETATM    6  C24 UNL     1      21.748  -0.878   8.868  1.00  0.00     0.018 C 
HETATM    7  C25 UNL     1      22.781  -1.542   9.706  1.00  0.00     0.021 C 
HETATM    8  C26 UNL     1      21.534  -1.791   7.663  1.00  0.00     0.021 C 
ENDROOT
BRANCH   1   9
HETATM    9  C9  UNL     1      20.815  -0.738  11.190  1.00  0.00     0.220 C 
BRANCH   9  10
HETATM   10  O2  UNL     1      19.604  -1.106  11.882  1.00  0.00    -0.314 OA
BRANCH  10  11
HETATM   11  C8  UNL     1      19.014  -0.281  12.794  1.00  0.00     0.293 C 
HETATM   12  O1  UNL     1      19.050   0.963  12.497  1.00  0.00    -0.259 OA
BRANCH  11  13
HETATM   13  C7  UNL     1      18.365  -0.649  14.036  1.00  0.00     0.045 A 
HETATM   14  C2  UNL     1      17.107  -0.207  14.350  1.00  0.00    -0.046 A 
HETATM   15  C1  UNL     1      16.394   0.672  13.397  1.00  0.00     0.049 C 
HETATM   16  C3  UNL     1      16.515  -0.589  15.560  1.00  0.00     0.008 A 
HETATM   17  C4  UNL     1      17.162  -1.407  16.462  1.00  0.00     0.001 A 
HETATM   18  C5  UNL     1      18.422  -1.849  16.147  1.00  0.00     0.001 A 
HETATM   19  C6  UNL     1      19.007  -1.479  14.964  1.00  0.00     0.018 A 
ENDBRANCH  11  13
ENDBRANCH  10  11
ENDBRANCH   9  10
ENDBRANCH   1   9
BRANCH   1  20
HETATM   20  C11 UNL     1      19.484  -1.807   9.420  1.00  0.00     0.205 C 
BRANCH  20  21
HETATM   21  O3  UNL     1      18.220  -1.222   9.454  1.00  0.00    -0.398 OA
ATOM     22  H3  UNL     1      17.875  -1.205   8.569  1.00  0.00     0.209 HD
ENDBRANCH  20  21
ENDBRANCH   1  20
BRANCH   5  23
HETATM   23  N1  UNL     1      23.229   1.012   8.169  1.00  0.00    -0.399 N 
HETATM   24  C14 UNL     1      24.192   1.209   9.157  1.00  0.00     0.144 C 
BRANCH  23  25
HETATM   25  C15 UNL     1      23.508   1.799   7.013  1.00  0.00     0.083 C 
HETATM   26  C16 UNL     1      22.494   1.662   5.913  1.00  0.00     0.051 C 
HETATM   27  C17 UNL     1      23.111   2.192   4.636  1.00  0.00     0.034 C 
HETATM   28  C18 UNL     1      21.934   2.316   3.648  1.00  0.00     0.034 C 
HETATM   29  C19 UNL     1      24.054   1.191   4.006  1.00  0.00     0.034 C 
HETATM   30  N2  UNL     1      23.647   3.502   4.768  1.00  0.00    -0.182 NA
HETATM   31  C20 UNL     1      24.384   3.788   5.930  1.00  0.00     0.034 C 
HETATM   32  C21 UNL     1      25.835   3.353   5.887  1.00  0.00     0.034 C 
HETATM   33  C22 UNL     1      24.414   5.312   6.108  1.00  0.00     0.034 C 
HETATM   34  C23 UNL     1      23.768   3.251   7.232  1.00  0.00     0.051 C 
BRANCH  30  35
HETATM   35  O6  UNL     1      22.775   4.487   4.441  1.00  0.00    -0.312 OA
ATOM     36  H6  UNL     1      22.315   4.338   3.624  1.00  0.00     0.237 HD
ENDBRANCH  30  35
ENDBRANCH  23  25
ENDBRANCH   5  23
TORSDOF 9
ENDMDL
MODEL 3
REMARK VINA RESULT: -7.470095898      2.634      4.755
REMARK  9 active torsions:
REMARK  status: ('A' for Active; 'I' for Inactive)
REMARK    1  A    between atoms: C7_7  and  C8_8 
REMARK    2  A    between atoms: C8_8  and  O2_10 
REMARK    3  A    between atoms: O2_10  and  C9_11 
REMARK    4  A    between atoms: C9_11  and  C10_12 
REMARK    5  A    between atoms: C10_12  and  C11_13 
REMARK    6  A    between atoms: C11_13  and  O3_14 
REMARK    7  A    between atoms: C13_19  and  N1_20 
REMARK    8  A    between atoms: N1_20  and  C15_22 
REMARK    9  A    between atoms: N2_27  and  O6_28 
ROOT
HETATM    1  C10 UNL     1      20.616  -0.773   9.383  1.00  0.00     0.123 C 
HETATM    2  O4  UNL     1      20.609   0.668   9.319  1.00  0.00    -0.303 OA
HETATM    3  C12 UNL     1      21.929   1.003   9.657  1.00  0.00     0.283 C 
HETATM    4  O5  UNL     1      22.345   1.847  10.509  1.00  0.00    -0.263 OA
HETATM    5  C13 UNL     1      22.709   0.104   8.747  1.00  0.00     0.190 C 
HETATM    6  C24 UNL     1      21.978  -1.164   8.841  1.00  0.00     0.018 C 
HETATM    7  C25 UNL     1      22.513  -2.236   9.721  1.00  0.00     0.021 C 
HETATM    8  C26 UNL     1      21.872  -1.778   7.448  1.00  0.00     0.021 C 
ENDROOT
BRANCH   1   9
HETATM    9  C9  UNL     1      20.504  -1.067  10.867  1.00  0.00     0.220 C 
BRANCH   9  10
HETATM   10  O2  UNL     1      19.157  -0.726  11.253  1.00  0.00    -0.314 OA
BRANCH  10  11
HETATM   11  C8  UNL     1      18.895   0.106  12.301  1.00  0.00     0.293 C 
HETATM   12  O1  UNL     1      19.554   1.202  12.296  1.00  0.00    -0.259 OA
BRANCH  11  13
HETATM   13  C7  UNL     1      17.971  -0.109  13.397  1.00  0.00     0.045 A 
HETATM   14  C2  UNL     1      18.280  -0.931  14.448  1.00  0.00    -0.046 A 
HETATM   15  C1  UNL     1      19.589  -1.619  14.464  1.00  0.00     0.049 C 
HETATM   16  C3  UNL     1      17.358  -1.109  15.488  1.00  0.00     0.008 A 
HETATM   17  C4  UNL     1      16.133  -0.477  15.492  1.00  0.00     0.001 A 
HETATM   18  C5  UNL     1      15.824   0.345  14.438  1.00  0.00     0.001 A 
HETATM   19  C6  UNL     1      16.722   0.524  13.418  1.00  0.00     0.018 A 
ENDBRANCH  11  13
ENDBRANCH  10  11
ENDBRANCH   9  10
ENDBRANCH   1   9
BRANCH   1  20
HETATM   20  C11 UNL     1      19.486  -1.390   8.651  1.00  0.00     0.205 C 
BRANCH  20  21
HETATM   21  O3  UNL     1      18.646  -0.373   8.203  1.00  0.00    -0.398 OA
ATOM     22  H3  UNL     1      17.782  -0.740   8.060  1.00  0.00     0.209 HD
ENDBRANCH  20  21
ENDBRANCH   1  20
BRANCH   5  23
HETATM   23  N1  UNL     1      24.051   0.233   8.930  1.00  0.00    -0.399 N 
HETATM   24  C14 UNL     1      24.922   0.806   8.005  1.00  0.00     0.144 C 
BRANCH  23  25
HETATM   25  C15 UNL     1      24.756  -0.572   9.871  1.00  0.00     0.083 C 
HETATM   26  C16 UNL     1      25.957  -1.277   9.306  1.00  0.00     0.051 C 
HETATM   27  C17 UNL     1      26.342  -2.387  10.260  1.00  0.00     0.034 C 
HETATM   28  C18 UNL     1      27.737  -2.847   9.790  1.00  0.00     0.034 C 
HETATM   29  C19 UNL     1      25.453  -3.600  10.105  1.00  0.00     0.034 C 
HETATM   30  N2  UNL     1      26.509  -1.948  11.601  1.00  0.00    -0.182 NA
HETATM   31  C20 UNL     1      25.558  -1.049  12.114  1.00  0.00     0.034 C 
HETATM   32  C21 UNL     1      24.289  -1.693  12.633  1.00  0.00     0.034 C 
HETATM   33  C22 UNL     1      26.183  -0.335  13.320  1.00  0.00     0.034 C 
HETATM   34  C23 UNL     1      25.156   0.080  11.151  1.00  0.00     0.051 C 
BRANCH  30  35
HETATM   35  O6  UNL     1      27.782  -1.601  11.911  1.00  0.00    -0.312 OA
ATOM     36  H6  UNL     1      27.904  -1.355  12.821  1.00  0.00     0.237 HD
ENDBRANCH  30  35
ENDBRANCH  23  25
ENDBRANCH   5  23
TORSDOF 9
ENDMDL
MODEL 4
REMARK VINA RESULT: -7.468299430      1.654      2.351
REMARK  9 active torsions:
REMARK  status: ('A' for Active; 'I' for Inactive)
REMARK    1  A    between atoms: C7_7  and  C8_8 
REMARK    2  A    between atoms: C8_8  and  O2_10 
REMARK    3  A    between atoms: O2_10  and  C9_11 
REMARK    4  A    between atoms: C9_11  and  C10_12 
REMARK    5  A    between atoms: C10_12  and  C11_13 
REMARK    6  A    between atoms: C11_13  and  O3_14 
REMARK    7  A    between atoms: C13_19  and  N1_20 
REMARK    8  A    between atoms: N1_20  and  C15_22 
REMARK    9  A    between atoms: N2_27  and  O6_28 
ROOT
HETATM    1  C10 UNL     1      20.275  -0.728  10.104  1.00  0.00     0.123 C 
HETATM    2  O4  UNL     1      19.876   0.428   9.340  1.00  0.00    -0.303 OA
HETATM    3  C12 UNL     1      21.088   1.103   9.135  1.00  0.00     0.283 C 
HETATM    4  O5  UNL     1      21.362   2.327   9.329  1.00  0.00    -0.263 OA
HETATM    5  C13 UNL     1      21.965  -0.002   8.631  1.00  0.00     0.190 C 
HETATM    6  C24 UNL     1      21.617  -1.120   9.514  1.00  0.00     0.018 C 
HETATM    7  C25 UNL     1      22.520  -1.446  10.648  1.00  0.00     0.021 C 
HETATM    8  C26 UNL     1      21.512  -2.394   8.680  1.00  0.00     0.021 C 
ENDROOT
BRANCH   1   9
HETATM    9  C9  UNL     1      20.424  -0.192  11.514  1.00  0.00     0.220 C 
BRANCH   9  10
HETATM   10  O2  UNL     1      19.596  -1.019  12.358  1.00  0.00    -0.314 OA
BRANCH  10  11
HETATM   11  C8  UNL     1      19.804  -1.115  13.702  1.00  0.00     0.293 C 
HETATM   12  O1  UNL     1      21.032  -1.073  14.061  1.00  0.00    -0.259 OA
BRANCH  11  13
HETATM   13  C7  UNL     1      18.811  -1.256  14.747  1.00  0.00     0.045 A 
HETATM   14  C2  UNL     1      17.580  -0.662  14.657  1.00  0.00    -0.046 A 
HETATM   15  C1  UNL     1      17.258   0.147  13.461  1.00  0.00     0.049 C 
HETATM   16  C3  UNL     1      16.648  -0.826  15.689  1.00  0.00     0.008 A 
HETATM   17  C4  UNL     1      16.929  -1.576  16.812  1.00  0.00     0.001 A 
HETATM   18  C5  UNL     1      18.162  -2.170  16.903  1.00  0.00     0.001 A 
HETATM   19  C6  UNL     1      19.079  -2.014  15.895  1.00  0.00     0.018 A 
ENDBRANCH  11  13
ENDBRANCH  10  11
ENDBRANCH   9  10
ENDBRANCH   1   9
BRANCH   1  20
HETATM   20  C11 UNL     1      19.272  -1.817  10.071  1.00  0.00     0.205 C 
BRANCH  20  21
HETATM   21  O3  UNL     1      18.002  -1.244  10.049  1.00  0.00    -0.398 OA
ATOM     22  H3  UNL     1      17.405  -1.823  10.507  1.00  0.00     0.209 HD
ENDBRANCH  20  21
ENDBRANCH   1  20
BRANCH   5  23
HETATM   23  N1  UNL     1      23.236   0.423   8.394  1.00  0.00    -0.399 N 
HETATM   24  C14 UNL     1      24.019   1.119   9.314  1.00  0.00     0.144 C 
BRANCH  23  25
HETATM   25  C15 UNL     1      23.735   0.580   7.069  1.00  0.00     0.083 C 
HETATM   26  C16 UNL     1      24.011  -0.713   6.354  1.00  0.00     0.051 C 
HETATM   27  C17 UNL     1      24.904  -0.414   5.169  1.00  0.00     0.034 C 
HETATM   28  C18 UNL     1      24.882  -1.701   4.321  1.00  0.00     0.034 C 
HETATM   29  C19 UNL     1      26.348  -0.235   5.580  1.00  0.00     0.034 C 
HETATM   30  N2  UNL     1      24.400   0.615   4.327  1.00  0.00    -0.182 NA
HETATM   31  C20 UNL     1      23.858   1.754   4.946  1.00  0.00     0.034 C 
HETATM   32  C21 UNL     1      24.876   2.794   5.367  1.00  0.00     0.034 C 
HETATM   33  C22 UNL     1      22.946   2.456   3.931  1.00  0.00     0.034 C 
HETATM   34  C23 UNL     1      22.954   1.462   6.154  1.00  0.00     0.051 C 
BRANCH  30  35
HETATM   35  O6  UNL     1      23.639   0.161   3.301  1.00  0.00    -0.312 OA
ATOM     36  H6  UNL     1      23.008   0.794   2.980  1.00  0.00     0.237 HD
ENDBRANCH  30  35
ENDBRANCH  23  25
ENDBRANCH   5  23
TORSDOF 9
ENDMDL
MODEL 5
REMARK VINA RESULT: -7.456335146      0.952      1.832
REMARK  9 active torsions:
REMARK  status: ('A' for Active; 'I' for Inactive)
REMARK    1  A    between atoms: C7_7  and  C8_8 
REMARK    2  A    between atoms: C8_8  and  O2_10 
REMARK    3  A    between atoms: O2_10  and  C9_11 
REMARK    4  A    between atoms: C9_11  and  C10_12 
REMARK    5  A    between atoms: C10_12  and  C11_13 
REMARK    6  A    between atoms: C11_13  and  O3_14 
REMARK    7  A    between atoms: C13_19  and  N1_20 
REMARK    8  A    between atoms: N1_20  and  C15_22 
REMARK    9  A    between atoms: N2_27  and  O6_28 
ROOT
HETATM    1  C10 UNL     1      20.607  -0.611   9.458  1.00  0.00     0.123 C 
HETATM    2  O4  UNL     1      20.244   0.773   9.271  1.00  0.00    -0.303 OA
HETATM    3  C12 UNL     1      21.477   1.436   9.368  1.00  0.00     0.283 C 
HETATM    4  O5  UNL     1      21.785   2.448  10.068  1.00  0.00    -0.263 OA
HETATM    5  C13 UNL     1      22.323   0.633   8.428  1.00  0.00     0.190 C 
HETATM    6  C24 UNL     1      21.940  -0.746   8.745  1.00  0.00     0.018 C 
HETATM    7  C25 UNL     1      22.828  -1.555   9.620  1.00  0.00     0.021 C 
HETATM    8  C26 UNL     1      21.802  -1.533   7.444  1.00  0.00     0.021 C 
ENDROOT
BRANCH   1   9
HETATM    9  C9  UNL     1      20.765  -0.740  10.960  1.00  0.00     0.220 C 
BRANCH   9  10
HETATM   10  O2  UNL     1      19.434  -0.835  11.507  1.00  0.00    -0.314 OA
BRANCH  10  11
HETATM   11  C8  UNL     1      18.965   0.061  12.423  1.00  0.00     0.293 C 
HETATM   12  O1  UNL     1      19.446   1.241  12.317  1.00  0.00    -0.259 OA
BRANCH  11  13
HETATM   13  C7  UNL     1      18.002  -0.172  13.480  1.00  0.00     0.045 A 
HETATM   14  C2  UNL     1      18.282  -0.990  14.543  1.00  0.00    -0.046 A 
HETATM   15  C1  UNL     1      19.601  -1.656  14.611  1.00  0.00     0.049 C 
HETATM   16  C3  UNL     1      17.323  -1.186  15.545  1.00  0.00     0.008 A 
HETATM   17  C4  UNL     1      16.087  -0.576  15.500  1.00  0.00     0.001 A 
HETATM   18  C5  UNL     1      15.807   0.243  14.435  1.00  0.00     0.001 A 
HETATM   19  C6  UNL     1      16.742   0.439  13.452  1.00  0.00     0.018 A 
ENDBRANCH  11  13
ENDBRANCH  10  11
ENDBRANCH   9  10
ENDBRANCH   1   9
BRANCH   1  20
HETATM   20  C11 UNL     1      19.573  -1.550   8.968  1.00  0.00     0.205 C 
BRANCH  20  21
HETATM   21  O3  UNL     1      18.485  -0.809   8.513  1.00  0.00    -0.398 OA
ATOM     22  H3  UNL     1      17.815  -0.817   9.186  1.00  0.00     0.209 HD
ENDBRANCH  20  21
ENDBRANCH   1  20
BRANCH   5  23
HETATM   23  N1  UNL     1      23.607   1.083   8.387  1.00  0.00    -0.399 N 
HETATM   24  C14 UNL     1      24.473   1.099   9.480  1.00  0.00     0.144 C 
BRANCH  23  25
HETATM   25  C15 UNL     1      24.056   1.965   7.361  1.00  0.00     0.083 C 
HETATM   26  C16 UNL     1      25.445   1.679   6.864  1.00  0.00     0.051 C 
HETATM   27  C17 UNL     1      25.937   2.900   6.116  1.00  0.00     0.034 C 
HETATM   28  C18 UNL     1      27.206   2.428   5.378  1.00  0.00     0.034 C 
HETATM   29  C19 UNL     1      26.407   3.987   7.057  1.00  0.00     0.034 C 
HETATM   30  N2  UNL     1      25.042   3.343   5.106  1.00  0.00    -0.182 NA
HETATM   31  C20 UNL     1      23.671   3.369   5.417  1.00  0.00     0.034 C 
HETATM   32  C21 UNL     1      23.211   4.602   6.166  1.00  0.00     0.034 C 
HETATM   33  C22 UNL     1      22.886   3.369   4.098  1.00  0.00     0.034 C 
HETATM   34  C23 UNL     1      23.162   2.135   6.180  1.00  0.00     0.051 C 
BRANCH  30  35
HETATM   35  O6  UNL     1      25.294   2.821   3.881  1.00  0.00    -0.312 OA
ATOM     36  H6  UNL     1      25.822   2.031   3.901  1.00  0.00     0.237 HD
ENDBRANCH  30  35
ENDBRANCH  23  25
ENDBRANCH   5  23
TORSDOF 9
ENDMDL
