MODEL 1
REMARK VINA RESULT: -7.040972071      0.000      0.000
REMARK  6 active torsions:
REMARK  status: ('A' for Active; 'I' for Inactive)
REMARK    1  A    between atoms: O1_2  and  C2_3 
REMARK    2  A    between atoms: C2_3  and  C3_4 
REMARK    3  A    between atoms: C11_13  and  C12_14 
REMARK    4  A    between atoms: C12_14  and  O3_15 
REMARK    5  A    between atoms: C15_19  and  O4_20 
REMARK    6  A    between atoms: C15_19  and  C17_22 
ROOT
HETATM    1  C3  UNL     1      17.206  -1.845  15.756  1.00  0.00     0.179 C 
HETATM    2  O2  UNL     1      17.486  -2.735  16.756  1.00  0.00    -0.374 OA
HETATM    3  C4  UNL     1      18.819  -2.572  17.110  1.00  0.00     0.208 C 
HETATM    4  C5  UNL     1      19.487  -2.057  15.896  1.00  0.00    -0.023 A 
HETATM    5  C6  UNL     1      20.813  -1.972  15.527  1.00  0.00     0.047 A 
HETATM    6  C7  UNL     1      21.171  -1.433  14.299  1.00  0.00     0.077 A 
HETATM    7  C8  UNL     1      20.148  -0.987  13.465  1.00  0.00    -0.011 A 
HETATM    8  C9  UNL     1      18.828  -1.066  13.822  1.00  0.00     0.021 A 
HETATM    9  C10 UNL     1      18.490  -1.612  15.063  1.00  0.00    -0.018 A 
HETATM   10  C11 UNL     1      20.475  -0.391  12.116  1.00  0.00     0.045 C 
HETATM   11  C13 UNL     1      20.152  -1.447  11.125  1.00  0.00     0.022 C 
HETATM   12  C14 UNL     1      20.551  -1.207   9.729  1.00  0.00     0.042 C 
HETATM   13  C15 UNL     1      22.011  -1.410   9.351  1.00  0.00     0.101 C 
HETATM   14  C22 UNL     1      22.933  -0.850  10.385  1.00  0.00     0.261 C 
HETATM   15  C23 UNL     1      23.174  -1.671  11.592  1.00  0.00     0.080 C 
HETATM   16  C24 UNL     1      22.875  -0.761  12.766  1.00  0.00     0.103 C 
HETATM   17  C25 UNL     1      24.004   0.240  12.798  1.00  0.00     0.071 C 
HETATM   18  C26 UNL     1      23.720   1.033  11.522  1.00  0.00     0.277 C 
HETATM   19  N1  UNL     1      22.500   0.434  10.933  1.00  0.00     0.105 N 
HETATM   20  C27 UNL     1      21.810   0.139  12.160  1.00  0.00     0.273 C 
HETATM   21  O6  UNL     1      22.522  -1.353  13.934  1.00  0.00    -0.337 OA
ENDROOT
BRANCH  13  22
HETATM   22  O4  UNL     1      22.168  -2.774   9.300  1.00  0.00    -0.382 OA
HETATM   23  C16 UNL     1      21.747  -3.493   8.247  1.00  0.00     0.202 C 
ENDBRANCH  13  22
BRANCH  13  24
HETATM   24  C17 UNL     1      22.134  -0.795   8.004  1.00  0.00     0.092 C 
HETATM   25  C18 UNL     1      21.271   0.391   7.699  1.00  0.00     0.015 C 
HETATM   26  C19 UNL     1      22.095   1.360   6.889  1.00  0.00     0.008 C 
HETATM   27  C20 UNL     1      23.252   0.532   6.422  1.00  0.00     0.079 C 
HETATM   28  C21 UNL     1      23.495  -0.324   7.631  1.00  0.00     0.134 C 
HETATM   29  O5  UNL     1      24.570  -0.512   8.099  1.00  0.00    -0.297 OA
ENDBRANCH  13  24
BRANCH  10  30
HETATM   30  C12 UNL     1      19.513   0.776  11.891  1.00  0.00     0.180 C 
BRANCH  30  31
HETATM   31  O3  UNL     1      20.147   1.997  11.926  1.00  0.00    -0.400 OA
ATOM     32  H3  UNL     1      20.754   2.073  12.652  1.00  0.00     0.209 HD
ENDBRANCH  30  31
ENDBRANCH  10  30
BRANCH   1  33
HETATM   33  C2  UNL     1      16.764  -0.538  16.425  1.00  0.00     0.203 C 
BRANCH  33  34
HETATM   34  O1  UNL     1      15.747   0.053  15.676  1.00  0.00    -0.393 OA
HETATM   35  C1  UNL     1      14.867  -0.962  15.301  1.00  0.00     0.201 C 
ENDBRANCH  33  34
ENDBRANCH   1  33
TORSDOF 6
ENDMDL
MODEL 2
REMARK VINA RESULT: -6.246670282      1.120      1.244
REMARK  6 active torsions:
REMARK  status: ('A' for Active; 'I' for Inactive)
REMARK    1  A    between atoms: O1_2  and  C2_3 
REMARK    2  A    between atoms: C2_3  and  C3_4 
REMARK    3  A    between atoms: C11_13  and  C12_14 
REMARK    4  A    between atoms: C12_14  and  O3_15 
REMARK    5  A    between atoms: C15_19  and  O4_20 
REMARK    6  A    between atoms: C15_19  and  C17_22 
ROOT
HETATM    1  C3  UNL     1      17.064  -1.100  14.708  1.00  0.00     0.179 C 
HETATM    2  O2  UNL     1      17.022  -1.939  15.788  1.00  0.00    -0.374 OA
HETATM    3  C4  UNL     1      18.253  -1.872  16.427  1.00  0.00     0.208 C 
HETATM    4  C5  UNL     1      19.223  -1.507  15.373  1.00  0.00    -0.023 A 
HETATM    5  C6  UNL     1      20.600  -1.568  15.311  1.00  0.00     0.047 A 
HETATM    6  C7  UNL     1      21.274  -1.152  14.172  1.00  0.00     0.077 A 
HETATM    7  C8  UNL     1      20.513  -0.676  13.107  1.00  0.00    -0.011 A 
HETATM    8  C9  UNL     1      19.146  -0.609  13.157  1.00  0.00     0.021 A 
HETATM    9  C10 UNL     1      18.487  -1.034  14.314  1.00  0.00    -0.018 A 
HETATM   10  C11 UNL     1      21.190  -0.209  11.840  1.00  0.00     0.045 C 
HETATM   11  C13 UNL     1      20.988  -1.298  10.854  1.00  0.00     0.022 C 
HETATM   12  C14 UNL     1      21.708  -1.195   9.575  1.00  0.00     0.042 C 
HETATM   13  C15 UNL     1      23.187  -1.555   9.550  1.00  0.00     0.101 C 
HETATM   14  C22 UNL     1      23.910  -1.009  10.737  1.00  0.00     0.261 C 
HETATM   15  C23 UNL     1      23.791  -1.761  12.006  1.00  0.00     0.080 C 
HETATM   16  C24 UNL     1      23.335  -0.747  13.036  1.00  0.00     0.103 C 
HETATM   17  C25 UNL     1      24.527   0.148  13.275  1.00  0.00     0.071 C 
HETATM   18  C26 UNL     1      24.616   0.871  11.931  1.00  0.00     0.277 C 
HETATM   19  N1  UNL     1      23.501   0.345  11.110  1.00  0.00     0.105 N 
HETATM   20  C27 UNL     1      22.530   0.200  12.161  1.00  0.00     0.273 C 
HETATM   21  O6  UNL     1      22.673  -1.220  14.120  1.00  0.00    -0.337 OA
ENDROOT
BRANCH  13  22
HETATM   22  O4  UNL     1      23.208  -2.928   9.602  1.00  0.00    -0.382 OA
HETATM   23  C16 UNL     1      22.886  -3.679   8.536  1.00  0.00     0.202 C 
ENDBRANCH  13  22
BRANCH  13  24
HETATM   24  C17 UNL     1      23.667  -1.050   8.237  1.00  0.00     0.092 C 
HETATM   25  C18 UNL     1      23.167   0.285   7.778  1.00  0.00     0.015 C 
HETATM   26  C19 UNL     1      24.315   1.000   7.112  1.00  0.00     0.008 C 
HETATM   27  C20 UNL     1      25.308  -0.092   6.856  1.00  0.00     0.079 C 
HETATM   28  C21 UNL     1      25.143  -0.922   8.097  1.00  0.00     0.134 C 
HETATM   29  O5  UNL     1      26.053  -1.327   8.743  1.00  0.00    -0.297 OA
ENDBRANCH  13  24
BRANCH  10  30
HETATM   30  C12 UNL     1      20.429   1.022  11.346  1.00  0.00     0.180 C 
BRANCH  30  31
HETATM   31  O3  UNL     1      20.791   2.170  12.012  1.00  0.00    -0.400 OA
ATOM     32  H3  UNL     1      20.344   2.265  12.845  1.00  0.00     0.209 HD
ENDBRANCH  30  31
ENDBRANCH  10  30
BRANCH   1  33
HETATM   33  C2  UNL     1      16.623   0.286  15.195  1.00  0.00     0.203 C 
BRANCH  33  34
HETATM   34  O1  UNL     1      15.934   0.944  14.176  1.00  0.00    -0.393 OA
HETATM   35  C1  UNL     1      14.875   0.121  13.796  1.00  0.00     0.201 C 
ENDBRANCH  33  34
ENDBRANCH   1  33
TORSDOF 6
ENDMDL
MODEL 3
REMARK VINA RESULT: -6.223891998      2.174      4.495
REMARK  6 active torsions:
REMARK  status: ('A' for Active; 'I' for Inactive)
REMARK    1  A    between atoms: O1_2  and  C2_3 
REMARK    2  A    between atoms: C2_3  and  C3_4 
REMARK    3  A    between atoms: C11_13  and  C12_14 
REMARK    4  A    between atoms: C12_14  and  O3_15 
REMARK    5  A    between atoms: C15_19  and  O4_20 
REMARK    6  A    between atoms: C15_19  and  C17_22 
ROOT
HETATM    1  C3  UNL     1      21.772  -1.640  15.986  1.00  0.00     0.179 C 
HETATM    2  O2  UNL     1      20.580  -1.578  16.656  1.00  0.00    -0.374 OA
HETATM    3  C4  UNL     1      19.571  -1.914  15.763  1.00  0.00     0.208 C 
HETATM    4  C5  UNL     1      20.087  -1.538  14.430  1.00  0.00    -0.023 A 
HETATM    5  C6  UNL     1      19.471  -1.355  13.209  1.00  0.00     0.047 A 
HETATM    6  C7  UNL     1      20.211  -0.993  12.092  1.00  0.00     0.077 A 
HETATM    7  C8  UNL     1      21.584  -0.824  12.253  1.00  0.00    -0.011 A 
HETATM    8  C9  UNL     1      22.207  -1.003  13.459  1.00  0.00     0.021 A 
HETATM    9  C10 UNL     1      21.443  -1.368  14.571  1.00  0.00    -0.018 A 
HETATM   10  C11 UNL     1      22.443  -0.430  11.073  1.00  0.00     0.045 C 
HETATM   11  C13 UNL     1      22.743   1.011  11.262  1.00  0.00     0.022 C 
HETATM   12  C14 UNL     1      23.414   1.712  10.155  1.00  0.00     0.042 C 
HETATM   13  C15 UNL     1      22.579   2.124   8.951  1.00  0.00     0.101 C 
HETATM   14  C22 UNL     1      21.627   1.048   8.543  1.00  0.00     0.261 C 
HETATM   15  C23 UNL     1      20.373   0.925   9.318  1.00  0.00     0.080 C 
HETATM   16  C24 UNL     1      20.307  -0.526   9.752  1.00  0.00     0.103 C 
HETATM   17  C25 UNL     1      20.015  -1.309   8.495  1.00  0.00     0.071 C 
HETATM   18  C26 UNL     1      21.324  -1.121   7.730  1.00  0.00     0.277 C 
HETATM   19  N1  UNL     1      22.193  -0.299   8.604  1.00  0.00     0.105 N 
HETATM   20  C27 UNL     1      21.787  -0.853   9.867  1.00  0.00     0.273 C 
HETATM   21  O6  UNL     1      19.574  -0.809  10.857  1.00  0.00    -0.337 OA
ENDROOT
BRANCH  13  22
HETATM   22  O4  UNL     1      21.865   3.215   9.384  1.00  0.00    -0.382 OA
HETATM   23  C16 UNL     1      22.475   4.346   9.778  1.00  0.00     0.202 C 
ENDBRANCH  13  22
BRANCH  13  24
HETATM   24  C17 UNL     1      23.580   2.500   7.919  1.00  0.00     0.092 C 
HETATM   25  C18 UNL     1      24.788   1.627   7.770  1.00  0.00     0.015 C 
HETATM   26  C19 UNL     1      25.096   1.519   6.297  1.00  0.00     0.008 C 
HETATM   27  C20 UNL     1      24.311   2.642   5.692  1.00  0.00     0.079 C 
HETATM   28  C21 UNL     1      23.064   2.600   6.527  1.00  0.00     0.134 C 
HETATM   29  O5  UNL     1      21.968   2.641   6.074  1.00  0.00    -0.297 OA
ENDBRANCH  13  24
BRANCH  10  30
HETATM   30  C12 UNL     1      23.757  -1.204  11.190  1.00  0.00     0.180 C 
BRANCH  30  31
HETATM   31  O3  UNL     1      23.756  -2.361  10.445  1.00  0.00    -0.400 OA
ATOM     32  H3  UNL     1      24.633  -2.664  10.242  1.00  0.00     0.209 HD
ENDBRANCH  30  31
ENDBRANCH  10  30
BRANCH   1  33
HETATM   33  C2  UNL     1      22.282  -3.081  16.104  1.00  0.00     0.203 C 
BRANCH  33  34
HETATM   34  O1  UNL     1      23.234  -3.160  17.121  1.00  0.00    -0.393 OA
HETATM   35  C1  UNL     1      24.266  -2.283  16.789  1.00  0.00     0.201 C 
ENDBRANCH  33  34
ENDBRANCH   1  33
TORSDOF 6
ENDMDL
MODEL 4
REMARK VINA RESULT: -5.897080183      1.299      1.501
REMARK  6 active torsions:
REMARK  status: ('A' for Active; 'I' for Inactive)
REMARK    1  A    between atoms: O1_2  and  C2_3 
REMARK    2  A    between atoms: C2_3  and  C3_4 
REMARK    3  A    between atoms: C11_13  and  C12_14 
REMARK    4  A    between atoms: C12_14  and  O3_15 
REMARK    5  A    between atoms: C15_19  and  O4_20 
REMARK    6  A    between atoms: C15_19  and  C17_22 
ROOT
HETATM    1  C3  UNL     1      16.980  -1.336  14.976  1.00  0.00     0.179 C 
HETATM    2  O2  UNL     1      16.968  -2.237  16.005  1.00  0.00    -0.374 OA
HETATM    3  C4  UNL     1      18.199  -2.169  16.645  1.00  0.00     0.208 C 
HETATM    4  C5  UNL     1      19.153  -1.714  15.612  1.00  0.00    -0.023 A 
HETATM    5  C6  UNL     1      20.531  -1.729  15.544  1.00  0.00     0.047 A 
HETATM    6  C7  UNL     1      21.188  -1.226  14.429  1.00  0.00     0.077 A 
HETATM    7  C8  UNL     1      20.408  -0.712  13.396  1.00  0.00    -0.011 A 
HETATM    8  C9  UNL     1      19.040  -0.691  13.453  1.00  0.00     0.021 A 
HETATM    9  C10 UNL     1      18.399  -1.203  14.584  1.00  0.00    -0.018 A 
HETATM   10  C11 UNL     1      21.066  -0.151  12.157  1.00  0.00     0.045 C 
HETATM   11  C13 UNL     1      20.893  -1.187  11.109  1.00  0.00     0.022 C 
HETATM   12  C14 UNL     1      21.606  -0.987   9.837  1.00  0.00     0.042 C 
HETATM   13  C15 UNL     1      23.094  -1.299   9.788  1.00  0.00     0.101 C 
HETATM   14  C22 UNL     1      23.805  -0.802  11.004  1.00  0.00     0.261 C 
HETATM   15  C23 UNL     1      23.714  -1.629  12.227  1.00  0.00     0.080 C 
HETATM   16  C24 UNL     1      23.231  -0.692  13.315  1.00  0.00     0.103 C 
HETATM   17  C25 UNL     1      24.396   0.224  13.603  1.00  0.00     0.071 C 
HETATM   18  C26 UNL     1      24.458   1.027  12.304  1.00  0.00     0.277 C 
HETATM   19  N1  UNL     1      23.356   0.515  11.456  1.00  0.00     0.105 N 
HETATM   20  C27 UNL     1      22.394   0.279  12.498  1.00  0.00     0.273 C 
HETATM   21  O6  UNL     1      22.589  -1.248  14.371  1.00  0.00    -0.337 OA
ENDROOT
BRANCH  13  22
HETATM   22  O4  UNL     1      23.158  -2.671   9.760  1.00  0.00    -0.382 OA
HETATM   23  C16 UNL     1      24.333  -3.323   9.796  1.00  0.00     0.202 C 
ENDBRANCH  13  22
BRANCH  13  24
HETATM   24  C17 UNL     1      23.554  -0.704   8.506  1.00  0.00     0.092 C 
HETATM   25  C18 UNL     1      25.023  -0.465   8.337  1.00  0.00     0.015 C 
HETATM   26  C19 UNL     1      25.382  -0.807   6.912  1.00  0.00     0.008 C 
HETATM   27  C20 UNL     1      24.056  -0.842   6.216  1.00  0.00     0.079 C 
HETATM   28  C21 UNL     1      23.194  -1.463   7.278  1.00  0.00     0.134 C 
HETATM   29  O5  UNL     1      22.435  -2.352   7.072  1.00  0.00    -0.297 OA
ENDBRANCH  13  24
BRANCH  10  30
HETATM   30  C12 UNL     1      20.265   1.082  11.737  1.00  0.00     0.180 C 
BRANCH  30  31
HETATM   31  O3  UNL     1      20.898   2.260  12.065  1.00  0.00    -0.400 OA
ATOM     32  H3  UNL     1      20.306   3.002  12.071  1.00  0.00     0.209 HD
ENDBRANCH  30  31
ENDBRANCH  10  30
BRANCH   1  33
HETATM   33  C2  UNL     1      16.499   0.005  15.544  1.00  0.00     0.203 C 
BRANCH  33  34
HETATM   34  O1  UNL     1      15.809   0.712  14.559  1.00  0.00    -0.393 OA
HETATM   35  C1  UNL     1      14.899  -0.171  13.978  1.00  0.00     0.201 C 
ENDBRANCH  33  34
ENDBRANCH   1  33
TORSDOF 6
ENDMDL
MODEL 5
REMARK VINA RESULT: -5.862939190      1.982      3.917
REMARK  6 active torsions:
REMARK  status: ('A' for Active; 'I' for Inactive)
REMARK    1  A    between atoms: O1_2  and  C2_3 
REMARK    2  A    between atoms: C2_3  and  C3_4 
REMARK    3  A    between atoms: C11_13  and  C12_14 
REMARK    4  A    between atoms: C12_14  and  O3_15 
REMARK    5  A    between atoms: C15_19  and  O4_20 
REMARK    6  A    between atoms: C15_19  and  C17_22 
ROOT
HETATM    1  C3  UNL     1      16.059   0.046  14.718  1.00  0.00     0.179 C 
HETATM    2  O2  UNL     1      14.801   0.066  14.179  1.00  0.00    -0.374 OA
HETATM    3  C4  UNL     1      14.814  -0.729  13.040  1.00  0.00     0.208 C 
HETATM    4  C5  UNL     1      16.208  -0.686  12.548  1.00  0.00    -0.023 A 
HETATM    5  C6  UNL     1      16.779  -1.020  11.338  1.00  0.00     0.047 A 
HETATM    6  C7  UNL     1      18.146  -0.877  11.139  1.00  0.00     0.077 A 
HETATM    7  C8  UNL     1      18.906  -0.389  12.200  1.00  0.00    -0.011 A 
HETATM    8  C9  UNL     1      18.349  -0.055  13.406  1.00  0.00     0.021 A 
HETATM    9  C10 UNL     1      16.972  -0.206  13.583  1.00  0.00    -0.018 A 
HETATM   10  C11 UNL     1      20.398  -0.211  12.044  1.00  0.00     0.045 C 
HETATM   11  C13 UNL     1      20.611   1.246  11.868  1.00  0.00     0.022 C 
HETATM   12  C14 UNL     1      21.965   1.693  11.505  1.00  0.00     0.042 C 
HETATM   13  C15 UNL     1      22.413   1.532  10.059  1.00  0.00     0.101 C 
HETATM   14  C22 UNL     1      22.003   0.212   9.495  1.00  0.00     0.261 C 
HETATM   15  C23 UNL     1      20.604   0.080   9.033  1.00  0.00     0.080 C 
HETATM   16  C24 UNL     1      20.059  -1.147   9.736  1.00  0.00     0.103 C 
HETATM   17  C25 UNL     1      20.750  -2.323   9.089  1.00  0.00     0.071 C 
HETATM   18  C26 UNL     1      22.184  -2.116   9.576  1.00  0.00     0.277 C 
HETATM   19  N1  UNL     1      22.155  -0.904  10.428  1.00  0.00     0.105 N 
HETATM   20  C27 UNL     1      20.863  -1.111  11.025  1.00  0.00     0.273 C 
HETATM   21  O6  UNL     1      18.716  -1.218   9.905  1.00  0.00    -0.337 OA
ENDROOT
BRANCH  13  22
HETATM   22  O4  UNL     1      21.759   2.533   9.382  1.00  0.00    -0.382 OA
HETATM   23  C16 UNL     1      22.090   3.826   9.542  1.00  0.00     0.202 C 
ENDBRANCH  13  22
BRANCH  13  24
HETATM   24  C17 UNL     1      23.880   1.768  10.099  1.00  0.00     0.092 C 
HETATM   25  C18 UNL     1      24.656   1.141  11.217  1.00  0.00     0.015 C 
HETATM   26  C19 UNL     1      25.968   0.659  10.651  1.00  0.00     0.008 C 
HETATM   27  C20 UNL     1      26.067   1.374   9.338  1.00  0.00     0.079 C 
HETATM   28  C21 UNL     1      24.634   1.343   8.889  1.00  0.00     0.134 C 
HETATM   29  O5  UNL     1      24.295   1.034   7.794  1.00  0.00    -0.297 OA
ENDBRANCH  13  24
BRANCH  10  30
HETATM   30  C12 UNL     1      21.044  -0.625  13.368  1.00  0.00     0.180 C 
BRANCH  30  31
HETATM   31  O3  UNL     1      22.174  -1.389  13.188  1.00  0.00    -0.400 OA
ATOM     32  H3  UNL     1      22.910  -0.883  12.868  1.00  0.00     0.209 HD
ENDBRANCH  30  31
ENDBRANCH  10  30
BRANCH   1  33
HETATM   33  C2  UNL     1      16.120  -1.152  15.675  1.00  0.00     0.203 C 
BRANCH  33  34
HETATM   34  O1  UNL     1      16.878  -0.817  16.798  1.00  0.00    -0.393 OA
HETATM   35  C1  UNL     1      17.892  -1.768  16.909  1.00  0.00     0.201 C 
ENDBRANCH  33  34
ENDBRANCH   1  33
TORSDOF 6
ENDMDL
