MODEL 1
REMARK VINA RESULT: -6.331447616      0.000      0.000
REMARK  6 active torsions:
REMARK  status: ('A' for Active; 'I' for Inactive)
REMARK    1  A    between atoms: N1_2  and  C2_4 
REMARK    2  A    between atoms: C7_9  and  N2_10 
REMARK    3  A    between atoms: N2_10  and  C8_12 
REMARK       I    between atoms: N4_20  and  C13_21 
REMARK    4  A    between atoms: C13_21  and  C14_23 
REMARK    5  A    between atoms: C16_27  and  O2_28 
REMARK    6  A    between atoms: C20_33  and  C21_34 
ROOT
HETATM    1  C2  UNL     1       5.239 -17.569 -22.379  1.00  0.00     0.055 A 
HETATM    2  C3  UNL     1       6.532 -17.861 -22.827  1.00  0.00     0.044 A 
HETATM    3  C4  UNL     1       7.542 -17.883 -21.926  1.00  0.00     0.011 A 
HETATM    4  C5  UNL     1       7.303 -17.620 -20.590  1.00  0.00     0.050 A 
HETATM    5  C6  UNL     1       6.037 -17.340 -20.168  1.00  0.00     0.062 A 
HETATM    6  C7  UNL     1       4.974 -17.309 -21.065  1.00  0.00     0.057 A 
HETATM    7  N4  UNL     1       8.452 -17.592 -19.697  1.00  0.00    -0.308 N 
HETATM    8  C13 UNL     1       8.452 -16.705 -18.607  1.00  0.00     0.260 C 
HETATM    9  O1  UNL     1       7.482 -15.840 -18.573  1.00  0.00    -0.267 OA
HETATM   10  C18 UNL     1       9.578 -18.434 -20.026  1.00  0.00     0.097 C 
HETATM   11  C19 UNL     1      10.649 -17.584 -20.745  1.00  0.00     0.036 C 
HETATM   12  C20 UNL     1       9.950 -17.246 -22.060  1.00  0.00     0.061 C 
HETATM   13  C22 UNL     1       8.930 -18.293 -22.282  1.00  0.00     0.140 C 
HETATM   14  F2  UNL     1       8.969 -18.870 -23.538  1.00  0.00    -0.237 F 
HETATM   15  C23 UNL     1       9.237 -19.359 -21.209  1.00  0.00     0.075 C 
ENDROOT
BRANCH   6  16
HETATM   16  N2  UNL     1       3.692 -17.004 -20.610  1.00  0.00    -0.382 N 
ATOM     17  H2  UNL     1       3.402 -16.037 -20.756  1.00  0.00     0.160 HD
BRANCH  16  18
HETATM   18  C8  UNL     1       2.723 -17.836 -19.970  1.00  0.00     0.107 C 
HETATM   19  C9  UNL     1       1.990 -17.245 -18.817  1.00  0.00     0.028 C 
HETATM   20  C10 UNL     1       1.447 -18.456 -18.024  1.00  0.00     0.029 C 
HETATM   21  C11 UNL     1       0.467 -19.141 -18.953  1.00  0.00     0.232 C 
HETATM   22  N3  UNL     1       0.455 -18.572 -20.281  1.00  0.00    -0.073 N 
HETATM   23  C12 UNL     1       1.761 -18.538 -20.882  1.00  0.00     0.257 C 
ATOM     24  H32 UNL     1      -0.212 -19.058 -20.882  1.00  0.00     0.277 HD
ATOM     25  H31 UNL     1       0.029 -17.646 -20.279  1.00  0.00     0.277 HD
ENDBRANCH  16  18
ENDBRANCH   6  16
BRANCH   1  26
HETATM   26  N1  UNL     1       4.246 -17.568 -23.379  1.00  0.00    -0.392 N 
HETATM   27  C1  UNL     1       3.822 -16.357 -24.069  1.00  0.00     0.146 C 
ATOM     28  H1  UNL     1       3.805 -18.453 -23.630  1.00  0.00     0.159 HD
ENDBRANCH   1  26
BRANCH   8  29
HETATM   29  C14 UNL     1       9.375 -16.611 -17.508  1.00  0.00     0.052 A 
HETATM   30  C15 UNL     1       9.587 -17.338 -16.376  1.00  0.00     0.107 A 
HETATM   31  N5  UNL     1      10.615 -16.811 -15.623  1.00  0.00    -0.346 N 
HETATM   32  C16 UNL     1      11.070 -15.749 -16.260  1.00  0.00     0.140 A 
ATOM     33  H5  UNL     1      10.960 -17.175 -14.736  1.00  0.00     0.167 HD
HETATM   34  C17 UNL     1      10.358 -15.579 -17.405  1.00  0.00     0.074 A 
BRANCH  32  35
HETATM   35  O2  UNL     1      12.115 -14.896 -15.866  1.00  0.00    -0.346 OA
ATOM     36  H2  UNL     1      12.731 -14.439 -16.426  1.00  0.00     0.219 HD
ENDBRANCH  32  35
ENDBRANCH   8  29
BRANCH  12  37
HETATM   37  C21 UNL     1       9.490 -15.834 -22.149  1.00  0.00     0.230 C 
HETATM   38  F1  UNL     1      10.028 -15.153 -21.060  1.00  0.00    -0.255 F 
ENDBRANCH  12  37
TORSDOF 6
ENDMDL
MODEL 2
REMARK VINA RESULT: -6.291089169      9.900     13.509
REMARK  6 active torsions:
REMARK  status: ('A' for Active; 'I' for Inactive)
REMARK    1  A    between atoms: N1_2  and  C2_4 
REMARK    2  A    between atoms: C7_9  and  N2_10 
REMARK    3  A    between atoms: N2_10  and  C8_12 
REMARK       I    between atoms: N4_20  and  C13_21 
REMARK    4  A    between atoms: C13_21  and  C14_23 
REMARK    5  A    between atoms: C16_27  and  O2_28 
REMARK    6  A    between atoms: C20_33  and  C21_34 
ROOT
HETATM    1  C2  UNL     1       1.396  -7.799 -30.315  1.00  0.00     0.055 A 
HETATM    2  C3  UNL     1       1.585  -8.924 -31.125  1.00  0.00     0.044 A 
HETATM    3  C4  UNL     1       1.442 -10.152 -30.574  1.00  0.00     0.011 A 
HETATM    4  C5  UNL     1       1.120 -10.294 -29.236  1.00  0.00     0.050 A 
HETATM    5  C6  UNL     1       0.937  -9.188 -28.461  1.00  0.00     0.062 A 
HETATM    6  C7  UNL     1       1.074  -7.909 -28.993  1.00  0.00     0.057 A 
HETATM    7  N4  UNL     1       1.056 -11.646 -28.702  1.00  0.00    -0.308 N 
HETATM    8  C13 UNL     1       1.441 -11.876 -27.371  1.00  0.00     0.260 C 
HETATM    9  O1  UNL     1       1.995 -10.875 -26.754  1.00  0.00    -0.267 OA
HETATM   10  C18 UNL     1       0.668 -12.705 -29.603  1.00  0.00     0.097 C 
HETATM   11  C19 UNL     1       1.938 -13.421 -30.116  1.00  0.00     0.036 C 
HETATM   12  C20 UNL     1       2.589 -12.332 -30.967  1.00  0.00     0.061 C 
HETATM   13  C22 UNL     1       1.510 -11.407 -31.375  1.00  0.00     0.140 C 
HETATM   14  F2  UNL     1       1.476 -11.133 -32.729  1.00  0.00    -0.237 F 
HETATM   15  C23 UNL     1       0.211 -12.128 -30.956  1.00  0.00     0.075 C 
ENDROOT
BRANCH   6  16
HETATM   16  N2  UNL     1       0.897  -6.795 -28.173  1.00  0.00    -0.382 N 
ATOM     17  H2  UNL     1       1.754  -6.418 -27.769  1.00  0.00     0.160 HD
BRANCH  16  18
HETATM   18  C8  UNL     1      -0.299  -6.101 -27.813  1.00  0.00     0.107 C 
HETATM   19  C9  UNL     1      -0.979  -5.335 -28.893  1.00  0.00     0.028 C 
HETATM   20  C10 UNL     1      -1.867  -4.307 -28.156  1.00  0.00     0.029 C 
HETATM   21  C11 UNL     1      -2.887  -5.126 -27.394  1.00  0.00     0.232 C 
HETATM   22  N3  UNL     1      -2.635  -6.547 -27.462  1.00  0.00    -0.073 N 
HETATM   23  C12 UNL     1      -1.306  -6.896 -27.038  1.00  0.00     0.257 C 
ATOM     24  H32 UNL     1      -3.337  -7.069 -26.936  1.00  0.00     0.277 HD
ATOM     25  H31 UNL     1      -2.828  -6.909 -28.396  1.00  0.00     0.277 HD
ENDBRANCH  16  18
ENDBRANCH   6  16
BRANCH   1  26
HETATM   26  N1  UNL     1       1.561  -6.560 -30.966  1.00  0.00    -0.392 N 
HETATM   27  C1  UNL     1       2.650  -6.296 -31.897  1.00  0.00     0.146 C 
ATOM     28  H1  UNL     1       0.889  -5.816 -30.777  1.00  0.00     0.159 HD
ENDBRANCH   1  26
BRANCH   8  29
HETATM   29  C14 UNL     1       1.309 -13.068 -26.577  1.00  0.00     0.052 A 
HETATM   30  C15 UNL     1       0.322 -13.590 -25.795  1.00  0.00     0.107 A 
HETATM   31  N5  UNL     1       0.709 -14.784 -25.226  1.00  0.00    -0.346 N 
HETATM   32  C16 UNL     1       1.937 -15.040 -25.634  1.00  0.00     0.140 A 
ATOM     33  H5  UNL     1       0.147 -15.364 -24.603  1.00  0.00     0.167 HD
HETATM   34  C17 UNL     1       2.351 -14.038 -26.451  1.00  0.00     0.074 A 
BRANCH  32  35
HETATM   35  O2  UNL     1       2.734 -16.151 -25.307  1.00  0.00    -0.346 OA
ATOM     36  H2  UNL     1       3.469 -16.179 -24.706  1.00  0.00     0.219 HD
ENDBRANCH  32  35
ENDBRANCH   8  29
BRANCH  12  37
HETATM   37  C21 UNL     1       3.793 -11.722 -30.341  1.00  0.00     0.230 C 
HETATM   38  F1  UNL     1       4.112 -12.487 -29.222  1.00  0.00    -0.255 F 
ENDBRANCH  12  37
TORSDOF 6
ENDMDL
MODEL 3
REMARK VINA RESULT: -6.237688494     12.100     16.221
REMARK  6 active torsions:
REMARK  status: ('A' for Active; 'I' for Inactive)
REMARK    1  A    between atoms: N1_2  and  C2_4 
REMARK    2  A    between atoms: C7_9  and  N2_10 
REMARK    3  A    between atoms: N2_10  and  C8_12 
REMARK       I    between atoms: N4_20  and  C13_21 
REMARK    4  A    between atoms: C13_21  and  C14_23 
REMARK    5  A    between atoms: C16_27  and  O2_28 
REMARK    6  A    between atoms: C20_33  and  C21_34 
ROOT
HETATM    1  C2  UNL     1       1.738  -5.836 -31.661  1.00  0.00     0.055 A 
HETATM    2  C3  UNL     1       0.523  -6.235 -31.094  1.00  0.00     0.044 A 
HETATM    3  C4  UNL     1       0.479  -7.402 -30.410  1.00  0.00     0.011 A 
HETATM    4  C5  UNL     1       1.610  -8.187 -30.275  1.00  0.00     0.050 A 
HETATM    5  C6  UNL     1       2.787  -7.782 -30.831  1.00  0.00     0.062 A 
HETATM    6  C7  UNL     1       2.871  -6.588 -31.541  1.00  0.00     0.057 A 
HETATM    7  N4  UNL     1       1.464  -9.461 -29.588  1.00  0.00    -0.308 N 
HETATM    8  C13 UNL     1       2.249 -10.553 -29.994  1.00  0.00     0.260 C 
HETATM    9  O1  UNL     1       2.938 -10.389 -31.084  1.00  0.00    -0.267 OA
HETATM   10  C18 UNL     1       0.453  -9.558 -28.561  1.00  0.00     0.097 C 
HETATM   11  C19 UNL     1      -0.811 -10.215 -29.159  1.00  0.00     0.036 C 
HETATM   12  C20 UNL     1      -1.282  -9.149 -30.146  1.00  0.00     0.061 C 
HETATM   13  C22 UNL     1      -0.734  -7.859 -29.674  1.00  0.00     0.140 C 
HETATM   14  F2  UNL     1      -1.668  -6.844 -29.580  1.00  0.00    -0.237 F 
HETATM   15  C23 UNL     1      -0.164  -8.176 -28.275  1.00  0.00     0.075 C 
ENDROOT
BRANCH   6  16
HETATM   16  N2  UNL     1       4.084  -6.207 -32.114  1.00  0.00    -0.382 N 
ATOM     17  H2  UNL     1       4.717  -5.708 -31.489  1.00  0.00     0.160 HD
BRANCH  16  18
HETATM   18  C8  UNL     1       4.575  -6.406 -33.441  1.00  0.00     0.107 C 
HETATM   19  C9  UNL     1       4.764  -5.187 -34.274  1.00  0.00     0.028 C 
HETATM   20  C10 UNL     1       4.771  -5.697 -35.733  1.00  0.00     0.029 C 
HETATM   21  C11 UNL     1       5.992  -6.585 -35.845  1.00  0.00     0.232 C 
HETATM   22  N3  UNL     1       6.656  -6.795 -34.580  1.00  0.00    -0.073 N 
HETATM   23  C12 UNL     1       5.770  -7.302 -33.566  1.00  0.00     0.257 C 
ATOM     24  H32 UNL     1       7.471  -7.400 -34.690  1.00  0.00     0.277 HD
ATOM     25  H31 UNL     1       7.124  -5.945 -34.266  1.00  0.00     0.277 HD
ENDBRANCH  16  18
ENDBRANCH   6  16
BRANCH   1  26
HETATM   26  N1  UNL     1       1.699  -4.609 -32.354  1.00  0.00    -0.392 N 
HETATM   27  C1  UNL     1       1.127  -4.473 -33.687  1.00  0.00     0.146 C 
ATOM     28  H1  UNL     1       2.090  -3.782 -31.903  1.00  0.00     0.159 HD
ENDBRANCH   1  26
BRANCH   8  29
HETATM   29  C14 UNL     1       2.407 -11.842 -29.376  1.00  0.00     0.052 A 
HETATM   30  C15 UNL     1       1.933 -13.092 -29.640  1.00  0.00     0.107 A 
HETATM   31  N5  UNL     1       2.382 -14.008 -28.713  1.00  0.00    -0.346 N 
HETATM   32  C16 UNL     1       3.144 -13.361 -27.852  1.00  0.00     0.140 A 
ATOM     33  H5  UNL     1       2.164 -15.004 -28.696  1.00  0.00     0.167 HD
HETATM   34  C17 UNL     1       3.195 -12.050 -28.202  1.00  0.00     0.074 A 
BRANCH  32  35
HETATM   35  O2  UNL     1       3.816 -13.891 -26.737  1.00  0.00    -0.346 OA
ATOM     36  H2  UNL     1       4.755 -13.949 -26.601  1.00  0.00     0.219 HD
ENDBRANCH  32  35
ENDBRANCH   8  29
BRANCH  12  37
HETATM   37  C21 UNL     1      -1.036  -9.501 -31.571  1.00  0.00     0.230 C 
HETATM   38  F1  UNL     1      -0.631 -10.832 -31.606  1.00  0.00    -0.255 F 
ENDBRANCH  12  37
TORSDOF 6
ENDMDL
MODEL 4
REMARK VINA RESULT: -6.120210293      2.715      3.365
REMARK  6 active torsions:
REMARK  status: ('A' for Active; 'I' for Inactive)
REMARK    1  A    between atoms: N1_2  and  C2_4 
REMARK    2  A    between atoms: C7_9  and  N2_10 
REMARK    3  A    between atoms: N2_10  and  C8_12 
REMARK       I    between atoms: N4_20  and  C13_21 
REMARK    4  A    between atoms: C13_21  and  C14_23 
REMARK    5  A    between atoms: C16_27  and  O2_28 
REMARK    6  A    between atoms: C20_33  and  C21_34 
ROOT
HETATM    1  C2  UNL     1       6.940 -19.159 -23.173  1.00  0.00     0.055 A 
HETATM    2  C3  UNL     1       7.627 -20.010 -22.301  1.00  0.00     0.044 A 
HETATM    3  C4  UNL     1       8.149 -19.492 -21.165  1.00  0.00     0.011 A 
HETATM    4  C5  UNL     1       8.009 -18.147 -20.872  1.00  0.00     0.050 A 
HETATM    5  C6  UNL     1       7.334 -17.332 -21.730  1.00  0.00     0.062 A 
HETATM    6  C7  UNL     1       6.783 -17.830 -22.907  1.00  0.00     0.057 A 
HETATM    7  N4  UNL     1       8.660 -17.653 -19.668  1.00  0.00    -0.308 N 
HETATM    8  C13 UNL     1       9.174 -16.345 -19.655  1.00  0.00     0.260 C 
HETATM    9  O1  UNL     1       9.180 -15.721 -20.795  1.00  0.00    -0.267 OA
HETATM   10  C18 UNL     1       8.813 -18.569 -18.563  1.00  0.00     0.097 C 
HETATM   11  C19 UNL     1      10.243 -19.154 -18.588  1.00  0.00     0.036 C 
HETATM   12  C20 UNL     1      10.215 -19.997 -19.861  1.00  0.00     0.061 C 
HETATM   13  C22 UNL     1       8.798 -20.332 -20.120  1.00  0.00     0.140 C 
HETATM   14  F2  UNL     1       8.564 -21.676 -20.348  1.00  0.00    -0.237 F 
HETATM   15  C23 UNL     1       8.061 -19.885 -18.840  1.00  0.00     0.075 C 
ENDROOT
BRANCH   6  16
HETATM   16  N2  UNL     1       6.112 -16.970 -23.776  1.00  0.00    -0.382 N 
ATOM     17  H2  UNL     1       6.684 -16.581 -24.525  1.00  0.00     0.160 HD
BRANCH  16  18
HETATM   18  C8  UNL     1       4.745 -16.551 -23.778  1.00  0.00     0.107 C 
HETATM   19  C9  UNL     1       3.805 -17.332 -22.929  1.00  0.00     0.028 C 
HETATM   20  C10 UNL     1       2.402 -17.035 -23.508  1.00  0.00     0.029 C 
HETATM   21  C11 UNL     1       2.179 -15.554 -23.285  1.00  0.00     0.232 C 
HETATM   22  N3  UNL     1       3.346 -14.878 -22.766  1.00  0.00    -0.073 N 
HETATM   23  C12 UNL     1       4.513 -15.083 -23.581  1.00  0.00     0.257 C 
ATOM     24  H32 UNL     1       3.163 -13.883 -22.632  1.00  0.00     0.277 HD
ATOM     25  H31 UNL     1       3.523 -15.145 -21.799  1.00  0.00     0.277 HD
ENDBRANCH  16  18
ENDBRANCH   6  16
BRANCH   1  26
HETATM   26  N1  UNL     1       6.427 -19.778 -24.331  1.00  0.00    -0.392 N 
HETATM   27  C1  UNL     1       7.219 -19.976 -25.537  1.00  0.00     0.146 C 
ATOM     28  H1  UNL     1       5.459 -20.101 -24.323  1.00  0.00     0.159 HD
ENDBRANCH   1  26
BRANCH   8  29
HETATM   29  C14 UNL     1       9.699 -15.583 -18.553  1.00  0.00     0.052 A 
HETATM   30  C15 UNL     1       9.258 -14.511 -17.838  1.00  0.00     0.107 A 
HETATM   31  N5  UNL     1      10.164 -14.145 -16.866  1.00  0.00    -0.346 N 
HETATM   32  C16 UNL     1      11.188 -14.973 -16.946  1.00  0.00     0.140 A 
ATOM     33  H5  UNL     1      10.062 -13.374 -16.206  1.00  0.00     0.167 HD
HETATM   34  C17 UNL     1      10.962 -15.863 -17.947  1.00  0.00     0.074 A 
BRANCH  32  35
HETATM   35  O2  UNL     1      12.347 -14.980 -16.151  1.00  0.00    -0.346 OA
ATOM     36  H2  UNL     1      12.500 -14.500 -15.346  1.00  0.00     0.219 HD
ENDBRANCH  32  35
ENDBRANCH   8  29
BRANCH  12  37
HETATM   37  C21 UNL     1      10.979 -19.401 -20.991  1.00  0.00     0.230 C 
HETATM   38  F1  UNL     1      11.602 -18.252 -20.510  1.00  0.00    -0.255 F 
ENDBRANCH  12  37
TORSDOF 6
ENDMDL
MODEL 5
REMARK VINA RESULT: -6.119267111     12.362     15.906
REMARK  6 active torsions:
REMARK  status: ('A' for Active; 'I' for Inactive)
REMARK    1  A    between atoms: N1_2  and  C2_4 
REMARK    2  A    between atoms: C7_9  and  N2_10 
REMARK    3  A    between atoms: N2_10  and  C8_12 
REMARK       I    between atoms: N4_20  and  C13_21 
REMARK    4  A    between atoms: C13_21  and  C14_23 
REMARK    5  A    between atoms: C16_27  and  O2_28 
REMARK    6  A    between atoms: C20_33  and  C21_34 
ROOT
HETATM    1  C2  UNL     1       4.284  -8.298 -31.086  1.00  0.00     0.055 A 
HETATM    2  C3  UNL     1       4.152  -9.583 -30.549  1.00  0.00     0.044 A 
HETATM    3  C4  UNL     1       2.939  -9.973 -30.092  1.00  0.00     0.011 A 
HETATM    4  C5  UNL     1       1.852  -9.119 -30.151  1.00  0.00     0.050 A 
HETATM    5  C6  UNL     1       1.998  -7.871 -30.680  1.00  0.00     0.062 A 
HETATM    6  C7  UNL     1       3.229  -7.435 -31.161  1.00  0.00     0.057 A 
HETATM    7  N4  UNL     1       0.601  -9.586 -29.574  1.00  0.00    -0.308 N 
HETATM    8  C13 UNL     1      -0.259  -8.659 -28.962  1.00  0.00     0.260 C 
HETATM    9  O1  UNL     1       0.212  -7.458 -28.804  1.00  0.00    -0.267 OA
HETATM   10  C18 UNL     1       0.342 -11.006 -29.594  1.00  0.00     0.097 C 
HETATM   11  C19 UNL     1       0.711 -11.605 -28.218  1.00  0.00     0.036 C 
HETATM   12  C20 UNL     1       2.228 -11.433 -28.198  1.00  0.00     0.061 C 
HETATM   13  C22 UNL     1       2.667 -11.356 -29.608  1.00  0.00     0.140 C 
HETATM   14  F2  UNL     1       3.710 -12.206 -29.926  1.00  0.00    -0.237 F 
HETATM   15  C23 UNL     1       1.413 -11.743 -30.420  1.00  0.00     0.075 C 
ENDROOT
BRANCH   6  16
HETATM   16  N2  UNL     1       3.353  -6.148 -31.681  1.00  0.00    -0.382 N 
ATOM     17  H2  UNL     1       3.656  -5.440 -31.012  1.00  0.00     0.160 HD
BRANCH  16  18
HETATM   18  C8  UNL     1       3.121  -5.668 -33.007  1.00  0.00     0.107 C 
HETATM   19  C9  UNL     1       1.930  -4.797 -33.204  1.00  0.00     0.028 C 
HETATM   20  C10 UNL     1       1.626  -4.871 -34.718  1.00  0.00     0.029 C 
HETATM   21  C11 UNL     1       2.827  -4.254 -35.402  1.00  0.00     0.232 C 
HETATM   22  N3  UNL     1       3.900  -3.941 -34.487  1.00  0.00    -0.073 N 
HETATM   23  C12 UNL     1       4.309  -5.075 -33.704  1.00  0.00     0.257 C 
ATOM     24  H32 UNL     1       4.694  -3.531 -34.981  1.00  0.00     0.277 HD
ATOM     25  H31 UNL     1       3.653  -3.152 -33.890  1.00  0.00     0.277 HD
ENDBRANCH  16  18
ENDBRANCH   6  16
BRANCH   1  26
HETATM   26  N1  UNL     1       5.578  -7.971 -31.541  1.00  0.00    -0.392 N 
HETATM   27  C1  UNL     1       6.777  -8.213 -30.750  1.00  0.00     0.146 C 
ATOM     28  H1  UNL     1       5.678  -7.547 -32.463  1.00  0.00     0.159 HD
ENDBRANCH   1  26
BRANCH   8  29
HETATM   29  C14 UNL     1      -1.602  -8.843 -28.479  1.00  0.00     0.052 A 
HETATM   30  C15 UNL     1      -2.803  -9.094 -29.071  1.00  0.00     0.107 A 
HETATM   31  N5  UNL     1      -3.817  -9.171 -28.141  1.00  0.00    -0.346 N 
HETATM   32  C16 UNL     1      -3.282  -8.974 -26.952  1.00  0.00     0.140 A 
ATOM     33  H5  UNL     1      -4.803  -9.349 -28.338  1.00  0.00     0.167 HD
HETATM   34  C17 UNL     1      -1.947  -8.770 -27.094  1.00  0.00     0.074 A 
BRANCH  32  35
HETATM   35  O2  UNL     1      -3.938  -8.965 -25.709  1.00  0.00    -0.346 OA
ATOM     36  H2  UNL     1      -3.558  -8.795 -24.855  1.00  0.00     0.219 HD
ENDBRANCH  32  35
ENDBRANCH   8  29
BRANCH  12  37
HETATM   37  C21 UNL     1       2.696 -10.349 -27.291  1.00  0.00     0.230 C 
HETATM   38  F1  UNL     1       1.618  -9.987 -26.487  1.00  0.00    -0.255 F 
ENDBRANCH  12  37
TORSDOF 6
ENDMDL
