MODEL 1
REMARK VINA RESULT: -7.492242132      0.000      0.000
REMARK  5 active torsions:
REMARK  status: ('A' for Active; 'I' for Inactive)
REMARK    1  A    between atoms: C2_2  and  C3_3 
REMARK    2  A    between atoms: C3_3  and  N1_4 
REMARK       I    between atoms: N1_4  and  C4_6 
REMARK       I    between atoms: C4_6  and  N2_8 
REMARK    3  A    between atoms: N2_8  and  C5_10 
REMARK    4  A    between atoms: C8_13  and  O2_14 
REMARK    5  A    between atoms: C10_16  and  C11_17 
ROOT
HETATM    1  C11 UNL     1       0.848  -8.444 -29.310  1.00  0.00     0.117 C 
HETATM    2  C12 UNL     1       0.023  -9.089 -28.265  1.00  0.00     0.052 C 
HETATM    3  C13 UNL     1      -1.183  -8.288 -27.850  1.00  0.00     0.056 C 
HETATM    4  C14 UNL     1      -0.976  -6.824 -27.731  1.00  0.00     0.171 C 
HETATM    5  F1  UNL     1      -1.119  -6.393 -26.421  1.00  0.00    -0.233 F 
HETATM    6  C15 UNL     1       0.347  -6.341 -28.196  1.00  0.00     0.114 C 
HETATM    7  N3  UNL     1       0.737  -5.184 -27.778  1.00  0.00    -0.386 N 
ATOM      8  H31 UNL     1       1.647  -4.851 -28.098  1.00  0.00     0.157 HD
ATOM      9  H32 UNL     1       0.128  -4.657 -27.153  1.00  0.00     0.157 HD
HETATM   10  N4  UNL     1       1.183  -7.064 -29.053  1.00  0.00    -0.354 N 
ATOM     11  H4  UNL     1       2.001  -6.632 -29.482  1.00  0.00     0.162 HD
HETATM   12  C16 UNL     1      -2.055  -6.124 -28.526  1.00  0.00     0.017 C 
HETATM   13  C17 UNL     1      -1.909  -4.605 -28.377  1.00  0.00     0.023 C 
HETATM   14  C18 UNL     1      -3.433  -6.471 -28.023  1.00  0.00     0.023 C 
HETATM   15  C19 UNL     1      -1.937  -6.387 -30.002  1.00  0.00     0.035 C 
HETATM   16  C20 UNL     1      -1.285  -7.144 -30.853  1.00  0.00     0.152 C 
HETATM   17  F2  UNL     1      -1.670  -6.869 -32.147  1.00  0.00    -0.199 F 
HETATM   18  S1  UNL     1      -0.044  -8.435 -30.909  1.00  0.00    -0.064 SA
ENDROOT
BRANCH   1  19
HETATM   19  C10 UNL     1       2.120  -9.190 -29.476  1.00  0.00     0.016 A 
HETATM   20  C8  UNL     1       3.136  -8.571 -30.188  1.00  0.00     0.077 A 
HETATM   21  C7  UNL     1       4.346  -9.205 -30.361  1.00  0.00     0.039 A 
HETATM   22  C6  UNL     1       4.522 -10.476 -29.807  1.00  0.00     0.032 A 
HETATM   23  C5  UNL     1       3.549 -11.137 -29.093  1.00  0.00     0.037 A 
HETATM   24  C21 UNL     1       2.343 -10.418 -28.963  1.00  0.00     0.043 A 
BRANCH  20  25
HETATM   25  O2  UNL     1       2.971  -7.312 -30.744  1.00  0.00    -0.355 OA
HETATM   26  C9  UNL     1       3.771  -6.926 -31.836  1.00  0.00     0.210 C 
ENDBRANCH  20  25
BRANCH  23  27
HETATM   27  N2  UNL     1       3.657 -12.414 -28.520  1.00  0.00    -0.309 N 
HETATM   28  C4  UNL     1       2.975 -12.916 -27.414  1.00  0.00     0.320 C 
HETATM   29  N1  UNL     1       3.185 -14.257 -26.940  1.00  0.00    -0.343 N 
HETATM   30  O1  UNL     1       2.146 -12.242 -26.769  1.00  0.00    -0.247 OA
ATOM     31  H1  UNL     1       3.854 -14.854 -27.427  1.00  0.00     0.164 HD
ATOM     32  H2  UNL     1       4.315 -13.052 -28.969  1.00  0.00     0.170 HD
BRANCH  29  33
HETATM   33  C3  UNL     1       2.489 -14.774 -25.815  1.00  0.00     0.124 C 
BRANCH  33  34
HETATM   34  C2  UNL     1       3.342 -15.356 -24.728  1.00  0.00     0.015 C 
HETATM   35  C1  UNL     1       2.572 -15.123 -23.418  1.00  0.00     0.006 C 
ENDBRANCH  33  34
ENDBRANCH  29  33
ENDBRANCH  23  27
ENDBRANCH   1  19
TORSDOF 5
ENDMDL
MODEL 2
REMARK VINA RESULT: -7.051241288      2.968      6.206
REMARK  5 active torsions:
REMARK  status: ('A' for Active; 'I' for Inactive)
REMARK    1  A    between atoms: C2_2  and  C3_3 
REMARK    2  A    between atoms: C3_3  and  N1_4 
REMARK       I    between atoms: N1_4  and  C4_6 
REMARK       I    between atoms: C4_6  and  N2_8 
REMARK    3  A    between atoms: N2_8  and  C5_10 
REMARK    4  A    between atoms: C8_13  and  O2_14 
REMARK    5  A    between atoms: C10_16  and  C11_17 
ROOT
HETATM    1  C11 UNL     1       1.191  -7.698 -30.159  1.00  0.00     0.117 C 
HETATM    2  C12 UNL     1       0.196  -8.709 -30.582  1.00  0.00     0.052 C 
HETATM    3  C13 UNL     1      -1.233  -8.316 -30.317  1.00  0.00     0.056 C 
HETATM    4  C14 UNL     1      -1.485  -7.628 -29.028  1.00  0.00     0.171 C 
HETATM    5  F1  UNL     1      -2.282  -8.392 -28.189  1.00  0.00    -0.233 F 
HETATM    6  C15 UNL     1      -0.266  -7.280 -28.257  1.00  0.00     0.114 C 
HETATM    7  N3  UNL     1      -0.409  -7.044 -26.996  1.00  0.00    -0.386 N 
ATOM      8  H31 UNL     1       0.430  -6.805 -26.466  1.00  0.00     0.157 HD
ATOM      9  H32 UNL     1      -1.341  -7.106 -26.587  1.00  0.00     0.157 HD
HETATM   10  N4  UNL     1       1.012  -7.195 -28.818  1.00  0.00    -0.354 N 
ATOM     11  H4  UNL     1       1.791  -6.793 -28.298  1.00  0.00     0.162 HD
HETATM   12  C16 UNL     1      -2.260  -6.360 -29.308  1.00  0.00     0.017 C 
HETATM   13  C17 UNL     1      -2.593  -5.651 -27.990  1.00  0.00     0.023 C 
HETATM   14  C18 UNL     1      -3.578  -6.649 -29.980  1.00  0.00     0.023 C 
HETATM   15  C19 UNL     1      -1.457  -5.364 -30.098  1.00  0.00     0.035 C 
HETATM   16  C20 UNL     1      -0.332  -5.263 -30.765  1.00  0.00     0.152 C 
HETATM   17  F2  UNL     1      -0.183  -3.993 -31.282  1.00  0.00    -0.199 F 
HETATM   18  S1  UNL     1       1.102  -6.225 -31.242  1.00  0.00    -0.064 SA
ENDROOT
BRANCH   1  19
HETATM   19  C10 UNL     1       2.557  -8.272 -30.243  1.00  0.00     0.016 A 
HETATM   20  C8  UNL     1       2.853  -9.344 -29.416  1.00  0.00     0.077 A 
HETATM   21  C7  UNL     1       4.097  -9.931 -29.460  1.00  0.00     0.039 A 
HETATM   22  C6  UNL     1       5.046  -9.423 -30.352  1.00  0.00     0.032 A 
HETATM   23  C5  UNL     1       4.808  -8.361 -31.194  1.00  0.00     0.037 A 
HETATM   24  C21 UNL     1       3.511  -7.820 -31.085  1.00  0.00     0.043 A 
BRANCH  20  25
HETATM   25  O2  UNL     1       1.919  -9.854 -28.527  1.00  0.00    -0.355 OA
HETATM   26  C9  UNL     1       2.354 -10.404 -27.306  1.00  0.00     0.210 C 
ENDBRANCH  20  25
BRANCH  23  27
HETATM   27  N2  UNL     1       5.717  -7.797 -32.103  1.00  0.00    -0.309 N 
HETATM   28  C4  UNL     1       5.464  -7.343 -33.396  1.00  0.00     0.320 C 
HETATM   29  N1  UNL     1       6.501  -6.779 -34.216  1.00  0.00    -0.343 N 
HETATM   30  O1  UNL     1       4.334  -7.396 -33.921  1.00  0.00    -0.247 OA
ATOM     31  H1  UNL     1       7.447  -6.713 -33.841  1.00  0.00     0.164 HD
ATOM     32  H2  UNL     1       6.680  -7.709 -31.778  1.00  0.00     0.170 HD
BRANCH  29  33
HETATM   33  C3  UNL     1       6.247  -6.312 -35.534  1.00  0.00     0.124 C 
BRANCH  33  34
HETATM   34  C2  UNL     1       7.152  -5.224 -36.028  1.00  0.00     0.015 C 
HETATM   35  C1  UNL     1       6.858  -3.999 -35.147  1.00  0.00     0.006 C 
ENDBRANCH  33  34
ENDBRANCH  29  33
ENDBRANCH  23  27
ENDBRANCH   1  19
TORSDOF 5
ENDMDL
MODEL 3
REMARK VINA RESULT: -6.931363586      3.004      5.607
REMARK  5 active torsions:
REMARK  status: ('A' for Active; 'I' for Inactive)
REMARK    1  A    between atoms: C2_2  and  C3_3 
REMARK    2  A    between atoms: C3_3  and  N1_4 
REMARK       I    between atoms: N1_4  and  C4_6 
REMARK       I    between atoms: C4_6  and  N2_8 
REMARK    3  A    between atoms: N2_8  and  C5_10 
REMARK    4  A    between atoms: C8_13  and  O2_14 
REMARK    5  A    between atoms: C10_16  and  C11_17 
ROOT
HETATM    1  C11 UNL     1       2.097  -7.396 -31.293  1.00  0.00     0.117 C 
HETATM    2  C12 UNL     1       1.521  -7.928 -32.548  1.00  0.00     0.052 C 
HETATM    3  C13 UNL     1       2.296  -7.561 -33.786  1.00  0.00     0.056 C 
HETATM    4  C14 UNL     1       2.829  -6.177 -33.827  1.00  0.00     0.171 C 
HETATM    5  F1  UNL     1       2.236  -5.432 -34.834  1.00  0.00    -0.233 F 
HETATM    6  C15 UNL     1       2.661  -5.406 -32.571  1.00  0.00     0.114 C 
HETATM    7  N3  UNL     1       2.740  -4.120 -32.649  1.00  0.00    -0.386 N 
ATOM      8  H31 UNL     1       2.624  -3.589 -31.785  1.00  0.00     0.157 HD
ATOM      9  H32 UNL     1       2.912  -3.693 -33.559  1.00  0.00     0.157 HD
HETATM   10  N4  UNL     1       2.425  -5.992 -31.323  1.00  0.00    -0.354 N 
ATOM     11  H4  UNL     1       2.482  -5.445 -30.464  1.00  0.00     0.162 HD
HETATM   12  C16 UNL     1       4.302  -6.244 -34.162  1.00  0.00     0.017 C 
HETATM   13  C17 UNL     1       4.876  -4.826 -34.273  1.00  0.00     0.023 C 
HETATM   14  C18 UNL     1       4.542  -6.906 -35.494  1.00  0.00     0.023 C 
HETATM   15  C19 UNL     1       5.104  -6.908 -33.076  1.00  0.00     0.035 C 
HETATM   16  C20 UNL     1       4.947  -7.591 -31.966  1.00  0.00     0.152 C 
HETATM   17  F2  UNL     1       6.168  -7.922 -31.420  1.00  0.00    -0.199 F 
HETATM   18  S1  UNL     1       3.667  -8.251 -30.901  1.00  0.00    -0.064 SA
ENDROOT
BRANCH   1  19
HETATM   19  C10 UNL     1       1.144  -7.609 -30.175  1.00  0.00     0.016 A 
HETATM   20  C8  UNL     1      -0.002  -6.831 -30.153  1.00  0.00     0.077 A 
HETATM   21  C7  UNL     1      -0.932  -6.993 -29.152  1.00  0.00     0.039 A 
HETATM   22  C6  UNL     1      -0.693  -7.955 -28.165  1.00  0.00     0.032 A 
HETATM   23  C5  UNL     1       0.426  -8.753 -28.136  1.00  0.00     0.037 A 
HETATM   24  C21 UNL     1       1.326  -8.522 -29.197  1.00  0.00     0.043 A 
BRANCH  20  25
HETATM   25  O2  UNL     1      -0.247  -5.872 -31.126  1.00  0.00    -0.355 OA
HETATM   26  C9  UNL     1      -1.018  -4.740 -30.803  1.00  0.00     0.210 C 
ENDBRANCH  20  25
BRANCH  23  27
HETATM   27  N2  UNL     1       0.731  -9.728 -27.173  1.00  0.00    -0.309 N 
HETATM   28  C4  UNL     1       0.489 -11.099 -27.235  1.00  0.00     0.320 C 
HETATM   29  N1  UNL     1       0.865 -11.982 -26.165  1.00  0.00    -0.343 N 
HETATM   30  O1  UNL     1      -0.065 -11.642 -28.211  1.00  0.00    -0.247 OA
ATOM     31  H1  UNL     1       1.319 -11.594 -25.338  1.00  0.00     0.164 HD
ATOM     32  H2  UNL     1       1.186  -9.391 -26.323  1.00  0.00     0.170 HD
BRANCH  29  33
HETATM   33  C3  UNL     1       0.622 -13.381 -26.226  1.00  0.00     0.124 C 
BRANCH  33  34
HETATM   34  C2  UNL     1       1.807 -14.262 -25.966  1.00  0.00     0.015 C 
HETATM   35  C1  UNL     1       2.856 -13.880 -27.023  1.00  0.00     0.006 C 
ENDBRANCH  33  34
ENDBRANCH  29  33
ENDBRANCH  23  27
ENDBRANCH   1  19
TORSDOF 5
ENDMDL
MODEL 4
REMARK VINA RESULT: -6.843515464      3.577      7.993
REMARK  5 active torsions:
REMARK  status: ('A' for Active; 'I' for Inactive)
REMARK    1  A    between atoms: C2_2  and  C3_3 
REMARK    2  A    between atoms: C3_3  and  N1_4 
REMARK       I    between atoms: N1_4  and  C4_6 
REMARK       I    between atoms: C4_6  and  N2_8 
REMARK    3  A    between atoms: N2_8  and  C5_10 
REMARK    4  A    between atoms: C8_13  and  O2_14 
REMARK    5  A    between atoms: C10_16  and  C11_17 
ROOT
HETATM    1  C11 UNL     1       2.345  -9.782 -29.616  1.00  0.00     0.117 C 
HETATM    2  C12 UNL     1       2.334  -9.653 -28.141  1.00  0.00     0.052 C 
HETATM    3  C13 UNL     1       2.330 -10.968 -27.407  1.00  0.00     0.056 C 
HETATM    4  C14 UNL     1       1.477 -12.031 -27.992  1.00  0.00     0.171 C 
HETATM    5  F1  UNL     1       0.428 -12.364 -27.151  1.00  0.00    -0.233 F 
HETATM    6  C15 UNL     1       0.878 -11.697 -29.308  1.00  0.00     0.114 C 
HETATM    7  N3  UNL     1      -0.149 -12.383 -29.684  1.00  0.00    -0.386 N 
ATOM      8  H31 UNL     1      -0.561 -12.153 -30.589  1.00  0.00     0.157 HD
ATOM      9  H32 UNL     1      -0.502 -13.115 -29.068  1.00  0.00     0.157 HD
HETATM   10  N4  UNL     1       1.362 -10.692 -30.152  1.00  0.00    -0.354 N 
ATOM     11  H4  UNL     1       1.032 -10.606 -31.113  1.00  0.00     0.162 HD
HETATM   12  C16 UNL     1       2.312 -13.283 -28.143  1.00  0.00     0.017 C 
HETATM   13  C17 UNL     1       1.446 -14.423 -28.690  1.00  0.00     0.023 C 
HETATM   14  C18 UNL     1       2.852 -13.755 -26.818  1.00  0.00     0.023 C 
HETATM   15  C19 UNL     1       3.418 -13.112 -29.148  1.00  0.00     0.035 C 
HETATM   16  C20 UNL     1       4.012 -12.185 -29.862  1.00  0.00     0.152 C 
HETATM   17  F2  UNL     1       5.019 -12.730 -30.630  1.00  0.00    -0.199 F 
HETATM   18  S1  UNL     1       3.961 -10.424 -30.186  1.00  0.00    -0.064 SA
ENDROOT
BRANCH   1  19
HETATM   19  C10 UNL     1       2.111  -8.455 -30.237  1.00  0.00     0.016 A 
HETATM   20  C8  UNL     1       0.880  -7.855 -30.022  1.00  0.00     0.077 A 
HETATM   21  C7  UNL     1       0.609  -6.616 -30.558  1.00  0.00     0.039 A 
HETATM   22  C6  UNL     1       1.598  -5.984 -31.317  1.00  0.00     0.032 A 
HETATM   23  C5  UNL     1       2.835  -6.532 -31.563  1.00  0.00     0.037 A 
HETATM   24  C21 UNL     1       3.030  -7.800 -30.979  1.00  0.00     0.043 A 
BRANCH  20  25
HETATM   25  O2  UNL     1      -0.109  -8.476 -29.273  1.00  0.00    -0.355 OA
HETATM   26  C9  UNL     1      -0.841  -7.724 -28.335  1.00  0.00     0.210 C 
ENDBRANCH  20  25
BRANCH  23  27
HETATM   27  N2  UNL     1       3.867  -5.957 -32.322  1.00  0.00    -0.309 N 
HETATM   28  C4  UNL     1       4.323  -6.344 -33.580  1.00  0.00     0.320 C 
HETATM   29  N1  UNL     1       5.393  -5.651 -34.243  1.00  0.00    -0.343 N 
HETATM   30  O1  UNL     1       3.837  -7.308 -34.206  1.00  0.00    -0.247 OA
ATOM     31  H1  UNL     1       5.832  -4.857 -33.778  1.00  0.00     0.164 HD
ATOM     32  H2  UNL     1       4.341  -5.157 -31.901  1.00  0.00     0.170 HD
BRANCH  29  33
HETATM   33  C3  UNL     1       5.859  -6.041 -35.528  1.00  0.00     0.124 C 
BRANCH  33  34
HETATM   34  C2  UNL     1       6.992  -5.234 -36.086  1.00  0.00     0.015 C 
HETATM   35  C1  UNL     1       7.021  -3.930 -35.272  1.00  0.00     0.006 C 
ENDBRANCH  33  34
ENDBRANCH  29  33
ENDBRANCH  23  27
ENDBRANCH   1  19
TORSDOF 5
ENDMDL
MODEL 5
REMARK VINA RESULT: -6.801482164      2.902      6.457
REMARK  5 active torsions:
REMARK  status: ('A' for Active; 'I' for Inactive)
REMARK    1  A    between atoms: C2_2  and  C3_3 
REMARK    2  A    between atoms: C3_3  and  N1_4 
REMARK       I    between atoms: N1_4  and  C4_6 
REMARK       I    between atoms: C4_6  and  N2_8 
REMARK    3  A    between atoms: N2_8  and  C5_10 
REMARK    4  A    between atoms: C8_13  and  O2_14 
REMARK    5  A    between atoms: C10_16  and  C11_17 
ROOT
HETATM    1  C11 UNL     1       1.039  -8.704 -29.659  1.00  0.00     0.117 C 
HETATM    2  C12 UNL     1       0.326  -9.876 -30.213  1.00  0.00     0.052 C 
HETATM    3  C13 UNL     1      -1.075 -10.050 -29.689  1.00  0.00     0.056 C 
HETATM    4  C14 UNL     1      -1.263  -9.774 -28.244  1.00  0.00     0.171 C 
HETATM    5  F1  UNL     1      -1.617 -10.919 -27.547  1.00  0.00    -0.233 F 
HETATM    6  C15 UNL     1      -0.075  -9.208 -27.557  1.00  0.00     0.114 C 
HETATM    7  N3  UNL     1      -0.032  -9.304 -26.270  1.00  0.00    -0.386 N 
ATOM      8  H31 UNL     1       0.785  -8.915 -25.798  1.00  0.00     0.157 HD
ATOM      9  H32 UNL     1      -0.805  -9.760 -25.786  1.00  0.00     0.157 HD
HETATM   10  N4  UNL     1       0.985  -8.584 -28.222  1.00  0.00    -0.354 N 
ATOM     11  H4  UNL     1       1.696  -8.063 -27.709  1.00  0.00     0.162 HD
HETATM   12  C16 UNL     1      -2.418  -8.811 -28.088  1.00  0.00     0.017 C 
HETATM   13  C17 UNL     1      -2.681  -8.548 -26.601  1.00  0.00     0.023 C 
HETATM   14  C18 UNL     1      -3.695  -9.376 -28.654  1.00  0.00     0.023 C 
HETATM   15  C19 UNL     1      -2.116  -7.460 -28.678  1.00  0.00     0.035 C 
HETATM   16  C20 UNL     1      -1.225  -6.850 -29.423  1.00  0.00     0.152 C 
HETATM   17  F2  UNL     1      -1.562  -5.525 -29.602  1.00  0.00    -0.199 F 
HETATM   18  S1  UNL     1       0.308  -7.153 -30.300  1.00  0.00    -0.064 SA
ENDROOT
BRANCH   1  19
HETATM   19  C10 UNL     1       2.469  -8.755 -30.050  1.00  0.00     0.016 A 
HETATM   20  C8  UNL     1       3.235  -9.792 -29.541  1.00  0.00     0.077 A 
HETATM   21  C7  UNL     1       4.565  -9.904 -29.880  1.00  0.00     0.039 A 
HETATM   22  C6  UNL     1       5.117  -8.954 -30.745  1.00  0.00     0.032 A 
HETATM   23  C5  UNL     1       4.406  -7.906 -31.279  1.00  0.00     0.037 A 
HETATM   24  C21 UNL     1       3.054  -7.865 -30.880  1.00  0.00     0.043 A 
BRANCH  20  25
HETATM   25  O2  UNL     1       2.697 -10.737 -28.680  1.00  0.00    -0.355 OA
HETATM   26  C9  UNL     1       3.087 -12.084 -28.801  1.00  0.00     0.210 C 
ENDBRANCH  20  25
BRANCH  23  27
HETATM   27  N2  UNL     1       4.900  -6.915 -32.142  1.00  0.00    -0.309 N 
HETATM   28  C4  UNL     1       4.642  -6.758 -33.502  1.00  0.00     0.320 C 
HETATM   29  N1  UNL     1       5.219  -5.683 -34.262  1.00  0.00    -0.343 N 
HETATM   30  O1  UNL     1       3.901  -7.530 -34.142  1.00  0.00    -0.247 OA
ATOM     31  H1  UNL     1       5.837  -5.021 -33.793  1.00  0.00     0.164 HD
ATOM     32  H2  UNL     1       5.525  -6.226 -31.722  1.00  0.00     0.170 HD
BRANCH  29  33
HETATM   33  C3  UNL     1       4.956  -5.517 -35.649  1.00  0.00     0.124 C 
BRANCH  33  34
HETATM   34  C2  UNL     1       6.158  -5.352 -36.529  1.00  0.00     0.015 C 
HETATM   35  C1  UNL     1       7.348  -5.138 -35.579  1.00  0.00     0.006 C 
ENDBRANCH  33  34
ENDBRANCH  29  33
ENDBRANCH  23  27
ENDBRANCH   1  19
TORSDOF 5
ENDMDL
