MODEL 1
REMARK VINA RESULT: -6.166418876      0.000      0.000
REMARK  6 active torsions:
REMARK  status: ('A' for Active; 'I' for Inactive)
REMARK    1  A    between atoms: C2_2  and  C3_4 
REMARK    2  A    between atoms: C4_5  and  N1_6 
REMARK    3  A    between atoms: N1_6  and  C5_8 
REMARK    4  A    between atoms: C8_12  and  C9_13 
REMARK    5  A    between atoms: C16_24  and  C17_25 
REMARK    6  A    between atoms: C23_36  and  O2_37 
ROOT
HETATM    1  C5  UNL     1      -0.065 -11.466 -28.494  1.00  0.00     0.045 A 
HETATM    2  C6  UNL     1      -1.031 -12.154 -27.802  1.00  0.00     0.073 A 
HETATM    3  C7  UNL     1      -0.707 -13.279 -27.092  1.00  0.00     0.128 A 
HETATM    4  F1  UNL     1      -1.674 -13.964 -26.407  1.00  0.00    -0.205 F 
HETATM    5  C8  UNL     1       0.630 -13.722 -27.076  1.00  0.00     0.024 A 
HETATM    6  C15 UNL     1       1.593 -13.034 -27.765  1.00  0.00     0.135 A 
HETATM    7  F2  UNL     1       2.910 -13.466 -27.739  1.00  0.00    -0.205 F 
HETATM    8  C16 UNL     1       1.272 -11.904 -28.483  1.00  0.00     0.012 A 
ENDROOT
BRANCH   1   9
HETATM    9  N1  UNL     1      -0.424 -10.243 -29.141  1.00  0.00    -0.354 N 
ATOM     10  H1  UNL     1      -0.811 -10.303 -30.083  1.00  0.00     0.166 HD
BRANCH   9  11
HETATM   11  C4  UNL     1      -0.285  -8.965 -28.580  1.00  0.00     0.066 A 
HETATM   12  C3  UNL     1       0.307  -7.846 -29.133  1.00  0.00     0.088 A 
HETATM   13  C23 UNL     1       0.093  -6.768 -28.252  1.00  0.00     0.156 A 
HETATM   14  N4  UNL     1      -0.599  -7.212 -27.207  1.00  0.00    -0.344 N 
HETATM   15  C22 UNL     1      -0.842  -8.518 -27.370  1.00  0.00     0.121 A 
ATOM     16  H4  UNL     1      -0.897  -6.649 -26.411  1.00  0.00     0.167 HD
BRANCH  12  17
HETATM   17  C2  UNL     1       1.050  -7.665 -30.362  1.00  0.00     0.162 C 
HETATM   18  C1  UNL     1       0.776  -8.413 -31.583  1.00  0.00     0.097 C 
HETATM   19  O1  UNL     1       1.999  -6.816 -30.415  1.00  0.00    -0.293 OA
ENDBRANCH  12  17
BRANCH  13  20
HETATM   20  O2  UNL     1       0.521  -5.446 -28.418  1.00  0.00    -0.345 OA
ATOM     21  H2  UNL     1       1.397  -5.106 -28.281  1.00  0.00     0.219 HD
ENDBRANCH  13  20
ENDBRANCH   9  11
ENDBRANCH   1   9
BRANCH   8  22
HETATM   22  C17 UNL     1       2.240 -11.135 -29.270  1.00  0.00     0.027 C 
HETATM   23  C18 UNL     1       3.303 -10.408 -28.508  1.00  0.00     0.037 C 
HETATM   24  C19 UNL     1       4.066  -9.607 -29.607  1.00  0.00     0.233 C 
HETATM   25  N3  UNL     1       4.907 -10.533 -30.338  1.00  0.00    -0.075 N 
HETATM   26  C20 UNL     1       4.413 -11.888 -30.266  1.00  0.00     0.233 C 
ATOM     27  H32 UNL     1       5.030 -10.235 -31.306  1.00  0.00     0.277 HD
ATOM     28  H31 UNL     1       5.876 -10.477 -30.026  1.00  0.00     0.277 HD
HETATM   29  C21 UNL     1       2.904 -11.954 -30.367  1.00  0.00     0.037 C 
ENDBRANCH   8  22
BRANCH   5  30
HETATM   30  C9  UNL     1       0.892 -14.916 -26.289  1.00  0.00     0.028 C 
HETATM   31  C10 UNL     1       1.529 -16.065 -27.011  1.00  0.00     0.037 C 
HETATM   32  C11 UNL     1       1.551 -17.305 -26.081  1.00  0.00     0.233 C 
HETATM   33  N2  UNL     1       0.998 -16.941 -24.782  1.00  0.00    -0.071 N 
HETATM   34  C12 UNL     1       1.725 -15.857 -24.192  1.00  0.00     0.182 C 
ATOM     35  H22 UNL     1       0.002 -16.734 -24.843  1.00  0.00     0.277 HD
ATOM     36  H21 UNL     1       0.953 -17.745 -24.156  1.00  0.00     0.277 HD
HETATM   37  C13 UNL     1       1.076 -15.451 -22.881  1.00  0.00     0.040 C 
HETATM   38  C14 UNL     1       1.820 -14.656 -25.106  1.00  0.00     0.042 C 
ENDBRANCH   5  30
TORSDOF 6
ENDMDL
MODEL 2
REMARK VINA RESULT: -6.149485410      8.205     11.568
REMARK  6 active torsions:
REMARK  status: ('A' for Active; 'I' for Inactive)
REMARK    1  A    between atoms: C2_2  and  C3_4 
REMARK    2  A    between atoms: C4_5  and  N1_6 
REMARK    3  A    between atoms: N1_6  and  C5_8 
REMARK    4  A    between atoms: C8_12  and  C9_13 
REMARK    5  A    between atoms: C16_24  and  C17_25 
REMARK    6  A    between atoms: C23_36  and  O2_37 
ROOT
HETATM    1  C5  UNL     1       6.048 -17.886 -20.955  1.00  0.00     0.045 A 
HETATM    2  C6  UNL     1       5.695 -17.323 -19.754  1.00  0.00     0.073 A 
HETATM    3  C7  UNL     1       6.647 -17.061 -18.804  1.00  0.00     0.128 A 
HETATM    4  F1  UNL     1       6.289 -16.503 -17.607  1.00  0.00    -0.205 F 
HETATM    5  C8  UNL     1       7.994 -17.373 -19.074  1.00  0.00     0.024 A 
HETATM    6  C15 UNL     1       8.345 -17.933 -20.274  1.00  0.00     0.135 A 
HETATM    7  F2  UNL     1       9.673 -18.230 -20.541  1.00  0.00    -0.205 F 
HETATM    8  C16 UNL     1       7.392 -18.201 -21.231  1.00  0.00     0.012 A 
ENDROOT
BRANCH   1   9
HETATM    9  N1  UNL     1       5.043 -18.053 -21.957  1.00  0.00    -0.354 N 
ATOM     10  H1  UNL     1       5.141 -18.841 -22.597  1.00  0.00     0.166 HD
BRANCH   9  11
HETATM   11  C4  UNL     1       3.930 -17.216 -22.129  1.00  0.00     0.066 A 
HETATM   12  C3  UNL     1       3.876 -15.976 -22.734  1.00  0.00     0.088 A 
HETATM   13  C23 UNL     1       2.525 -15.580 -22.780  1.00  0.00     0.156 A 
HETATM   14  N4  UNL     1       1.789 -16.539 -22.225  1.00  0.00    -0.344 N 
HETATM   15  C22 UNL     1       2.594 -17.530 -21.826  1.00  0.00     0.121 A 
ATOM     16  H4  UNL     1       0.774 -16.522 -22.121  1.00  0.00     0.167 HD
BRANCH  12  17
HETATM   17  C2  UNL     1       4.919 -15.120 -23.257  1.00  0.00     0.162 C 
HETATM   18  C1  UNL     1       6.074 -15.620 -23.993  1.00  0.00     0.097 C 
HETATM   19  O1  UNL     1       4.858 -13.859 -23.083  1.00  0.00    -0.293 OA
ENDBRANCH  12  17
BRANCH  13  20
HETATM   20  O2  UNL     1       2.013 -14.391 -23.311  1.00  0.00    -0.345 OA
ATOM     21  H2  UNL     1       1.367 -14.304 -24.002  1.00  0.00     0.219 HD
ENDBRANCH  13  20
ENDBRANCH   9  11
ENDBRANCH   1   9
BRANCH   8  22
HETATM   22  C17 UNL     1       7.686 -18.829 -22.522  1.00  0.00     0.027 C 
HETATM   23  C18 UNL     1       8.720 -18.162 -23.375  1.00  0.00     0.037 C 
HETATM   24  C19 UNL     1       8.698 -18.987 -24.697  1.00  0.00     0.233 C 
HETATM   25  N3  UNL     1       9.381 -20.242 -24.456  1.00  0.00    -0.075 N 
HETATM   26  C20 UNL     1       9.363 -20.611 -23.061  1.00  0.00     0.233 C 
ATOM     27  H32 UNL     1       9.001 -20.987 -25.041  1.00  0.00     0.277 HD
ATOM     28  H31 UNL     1      10.333 -20.221 -24.820  1.00  0.00     0.277 HD
HETATM   29  C21 UNL     1       8.034 -20.305 -22.404  1.00  0.00     0.037 C 
ENDBRANCH   8  22
BRANCH   5  30
HETATM   30  C9  UNL     1       8.941 -17.052 -18.020  1.00  0.00     0.028 C 
HETATM   31  C10 UNL     1       9.479 -18.208 -17.231  1.00  0.00     0.037 C 
HETATM   32  C11 UNL     1      10.308 -17.671 -16.036  1.00  0.00     0.233 C 
HETATM   33  N2  UNL     1      10.350 -16.215 -16.096  1.00  0.00    -0.071 N 
HETATM   34  C12 UNL     1      10.902 -15.759 -17.337  1.00  0.00     0.182 C 
ATOM     35  H22 UNL     1       9.432 -15.806 -15.923  1.00  0.00     0.277 HD
ATOM     36  H21 UNL     1      10.849 -15.821 -15.298  1.00  0.00     0.277 HD
HETATM   37  C13 UNL     1      10.855 -14.244 -17.399  1.00  0.00     0.040 C 
HETATM   38  C14 UNL     1      10.187 -16.340 -18.537  1.00  0.00     0.042 C 
ENDBRANCH   5  30
TORSDOF 6
ENDMDL
MODEL 3
REMARK VINA RESULT: -6.057679220     10.739     13.706
REMARK  6 active torsions:
REMARK  status: ('A' for Active; 'I' for Inactive)
REMARK    1  A    between atoms: C2_2  and  C3_4 
REMARK    2  A    between atoms: C4_5  and  N1_6 
REMARK    3  A    between atoms: N1_6  and  C5_8 
REMARK    4  A    between atoms: C8_12  and  C9_13 
REMARK    5  A    between atoms: C16_24  and  C17_25 
REMARK    6  A    between atoms: C23_36  and  O2_37 
ROOT
HETATM    1  C5  UNL     1       9.936 -17.427 -21.804  1.00  0.00     0.045 A 
HETATM    2  C6  UNL     1      11.159 -17.584 -22.408  1.00  0.00     0.073 A 
HETATM    3  C7  UNL     1      11.301 -18.422 -23.482  1.00  0.00     0.128 A 
HETATM    4  F1  UNL     1      12.523 -18.578 -24.077  1.00  0.00    -0.205 F 
HETATM    5  C8  UNL     1      10.177 -19.121 -23.963  1.00  0.00     0.024 A 
HETATM    6  C15 UNL     1       8.956 -18.962 -23.362  1.00  0.00     0.135 A 
HETATM    7  F2  UNL     1       7.849 -19.642 -23.844  1.00  0.00    -0.205 F 
HETATM    8  C16 UNL     1       8.809 -18.122 -22.281  1.00  0.00     0.012 A 
ENDROOT
BRANCH   1   9
HETATM    9  N1  UNL     1       9.807 -16.469 -20.751  1.00  0.00    -0.354 N 
ATOM     10  H1  UNL     1       9.403 -15.563 -20.985  1.00  0.00     0.166 HD
BRANCH   9  11
HETATM   11  C4  UNL     1      10.194 -16.680 -19.420  1.00  0.00     0.066 A 
HETATM   12  C3  UNL     1       9.476 -16.425 -18.268  1.00  0.00     0.088 A 
HETATM   13  C23 UNL     1      10.222 -16.916 -17.180  1.00  0.00     0.156 A 
HETATM   14  N4  UNL     1      11.348 -17.447 -17.649  1.00  0.00    -0.344 N 
HETATM   15  C22 UNL     1      11.364 -17.324 -18.981  1.00  0.00     0.121 A 
ATOM     16  H4  UNL     1      12.080 -17.878 -17.085  1.00  0.00     0.167 HD
BRANCH  12  17
HETATM   17  C2  UNL     1       8.199 -15.776 -18.061  1.00  0.00     0.162 C 
HETATM   18  C1  UNL     1       6.930 -16.494 -18.025  1.00  0.00     0.097 C 
HETATM   19  O1  UNL     1       8.143 -14.513 -17.899  1.00  0.00    -0.293 OA
ENDBRANCH  12  17
BRANCH  13  20
HETATM   20  O2  UNL     1       9.870 -16.870 -15.826  1.00  0.00    -0.345 OA
ATOM     21  H2  UNL     1       9.784 -16.096 -15.282  1.00  0.00     0.219 HD
ENDBRANCH  13  20
ENDBRANCH   9  11
ENDBRANCH   1   9
BRANCH   8  22
HETATM   22  C17 UNL     1       7.544 -17.927 -21.566  1.00  0.00     0.027 C 
HETATM   23  C18 UNL     1       6.371 -17.479 -22.380  1.00  0.00     0.037 C 
HETATM   24  C19 UNL     1       5.251 -17.247 -21.322  1.00  0.00     0.233 C 
HETATM   25  N3  UNL     1       4.752 -18.541 -20.903  1.00  0.00    -0.075 N 
HETATM   26  C20 UNL     1       5.727 -19.588 -21.096  1.00  0.00     0.233 C 
ATOM     27  H32 UNL     1       4.424 -18.515 -19.937  1.00  0.00     0.277 HD
ATOM     28  H31 UNL     1       3.873 -18.766 -21.367  1.00  0.00     0.277 HD
HETATM   29  C21 UNL     1       7.129 -19.138 -20.743  1.00  0.00     0.037 C 
ENDBRANCH   8  22
BRANCH   5  30
HETATM   30  C9  UNL     1      10.409 -19.979 -25.112  1.00  0.00     0.028 C 
HETATM   31  C10 UNL     1      10.990 -19.324 -26.329  1.00  0.00     0.037 C 
HETATM   32  C11 UNL     1      10.984 -20.332 -27.507  1.00  0.00     0.233 C 
HETATM   33  N2  UNL     1      10.470 -21.614 -27.039  1.00  0.00    -0.071 N 
HETATM   34  C12 UNL     1      11.247 -22.120 -25.947  1.00  0.00     0.182 C 
ATOM     35  H22 UNL     1       9.480 -21.555 -26.799  1.00  0.00     0.277 HD
ATOM     36  H21 UNL     1      10.406 -22.292 -27.799  1.00  0.00     0.277 HD
HETATM   37  C13 UNL     1      10.637 -23.411 -25.434  1.00  0.00     0.040 C 
HETATM   38  C14 UNL     1      11.368 -21.128 -24.812  1.00  0.00     0.042 C 
ENDBRANCH   5  30
TORSDOF 6
ENDMDL
MODEL 4
REMARK VINA RESULT: -6.019556278     12.312     15.012
REMARK  6 active torsions:
REMARK  status: ('A' for Active; 'I' for Inactive)
REMARK    1  A    between atoms: C2_2  and  C3_4 
REMARK    2  A    between atoms: C4_5  and  N1_6 
REMARK    3  A    between atoms: N1_6  and  C5_8 
REMARK    4  A    between atoms: C8_12  and  C9_13 
REMARK    5  A    between atoms: C16_24  and  C17_25 
REMARK    6  A    between atoms: C23_36  and  O2_37 
ROOT
HETATM    1  C5  UNL     1       9.375 -17.420 -19.898  1.00  0.00     0.045 A 
HETATM    2  C6  UNL     1       8.914 -16.785 -21.024  1.00  0.00     0.073 A 
HETATM    3  C7  UNL     1       9.091 -17.350 -22.260  1.00  0.00     0.128 A 
HETATM    4  F1  UNL     1       8.633 -16.710 -23.380  1.00  0.00    -0.205 F 
HETATM    5  C8  UNL     1       9.749 -18.590 -22.363  1.00  0.00     0.024 A 
HETATM    6  C15 UNL     1      10.207 -19.224 -21.239  1.00  0.00     0.135 A 
HETATM    7  F2  UNL     1      10.846 -20.450 -21.342  1.00  0.00    -0.205 F 
HETATM    8  C16 UNL     1      10.034 -18.660 -19.994  1.00  0.00     0.012 A 
ENDROOT
BRANCH   1   9
HETATM    9  N1  UNL     1       9.085 -16.850 -18.620  1.00  0.00    -0.354 N 
ATOM     10  H1  UNL     1       8.195 -17.095 -18.186  1.00  0.00     0.166 HD
BRANCH   9  11
HETATM   11  C4  UNL     1       9.929 -15.978 -17.917  1.00  0.00     0.066 A 
HETATM   12  C3  UNL     1      10.458 -16.133 -16.651  1.00  0.00     0.088 A 
HETATM   13  C23 UNL     1      11.345 -15.063 -16.422  1.00  0.00     0.156 A 
HETATM   14  N4  UNL     1      11.355 -14.289 -17.504  1.00  0.00    -0.344 N 
HETATM   15  C22 UNL     1      10.521 -14.805 -18.415  1.00  0.00     0.121 A 
ATOM     16  H4  UNL     1      11.907 -13.440 -17.620  1.00  0.00     0.167 HD
BRANCH  12  17
HETATM   17  C2  UNL     1      10.230 -17.139 -15.635  1.00  0.00     0.162 C 
HETATM   18  C1  UNL     1       9.014 -17.938 -15.555  1.00  0.00     0.097 C 
HETATM   19  O1  UNL     1      11.118 -17.363 -14.748  1.00  0.00    -0.293 OA
ENDBRANCH  12  17
BRANCH  13  20
HETATM   20  O2  UNL     1      12.102 -14.827 -15.269  1.00  0.00    -0.345 OA
ATOM     21  H2  UNL     1      12.770 -14.162 -15.149  1.00  0.00     0.219 HD
ENDBRANCH  13  20
ENDBRANCH   9  11
ENDBRANCH   1   9
BRANCH   8  22
HETATM   22  C17 UNL     1      10.526 -19.261 -18.751  1.00  0.00     0.027 C 
HETATM   23  C18 UNL     1      10.017 -20.629 -18.417  1.00  0.00     0.037 C 
HETATM   24  C19 UNL     1      10.616 -20.913 -17.006  1.00  0.00     0.233 C 
HETATM   25  N3  UNL     1      12.021 -21.229 -17.169  1.00  0.00    -0.075 N 
HETATM   26  C20 UNL     1      12.568 -20.665 -18.379  1.00  0.00     0.233 C 
ATOM     27  H32 UNL     1      12.561 -20.944 -16.351  1.00  0.00     0.277 HD
ATOM     28  H31 UNL     1      12.180 -22.235 -17.126  1.00  0.00     0.277 HD
HETATM   29  C21 UNL     1      12.044 -19.271 -18.650  1.00  0.00     0.037 C 
ENDBRANCH   8  22
BRANCH   5  30
HETATM   30  C9  UNL     1       9.885 -19.125 -23.708  1.00  0.00     0.028 C 
HETATM   31  C10 UNL     1      11.281 -19.407 -24.177  1.00  0.00     0.037 C 
HETATM   32  C11 UNL     1      11.250 -19.777 -25.682  1.00  0.00     0.233 C 
HETATM   33  N2  UNL     1       9.868 -19.790 -26.146  1.00  0.00    -0.071 N 
HETATM   34  C12 UNL     1       9.072 -20.708 -25.386  1.00  0.00     0.182 C 
ATOM     35  H22 UNL     1       9.464 -18.854 -26.145  1.00  0.00     0.277 HD
ATOM     36  H21 UNL     1       9.811 -19.984 -27.146  1.00  0.00     0.277 HD
HETATM   37  C13 UNL     1       7.626 -20.637 -25.840  1.00  0.00     0.040 C 
HETATM   38  C14 UNL     1       9.151 -20.449 -23.898  1.00  0.00     0.042 C 
ENDBRANCH   5  30
TORSDOF 6
ENDMDL
MODEL 5
REMARK VINA RESULT: -5.950222057     11.841     14.040
REMARK  6 active torsions:
REMARK  status: ('A' for Active; 'I' for Inactive)
REMARK    1  A    between atoms: C2_2  and  C3_4 
REMARK    2  A    between atoms: C4_5  and  N1_6 
REMARK    3  A    between atoms: N1_6  and  C5_8 
REMARK    4  A    between atoms: C8_12  and  C9_13 
REMARK    5  A    between atoms: C16_24  and  C17_25 
REMARK    6  A    between atoms: C23_36  and  O2_37 
ROOT
HETATM    1  C5  UNL     1       8.499 -18.150 -19.952  1.00  0.00     0.045 A 
HETATM    2  C6  UNL     1       7.900 -17.620 -21.068  1.00  0.00     0.073 A 
HETATM    3  C7  UNL     1       8.349 -17.952 -22.320  1.00  0.00     0.128 A 
HETATM    4  F1  UNL     1       7.752 -17.417 -23.429  1.00  0.00    -0.205 F 
HETATM    5  C8  UNL     1       9.431 -18.844 -22.449  1.00  0.00     0.024 A 
HETATM    6  C15 UNL     1      10.026 -19.374 -21.335  1.00  0.00     0.135 A 
HETATM    7  F2  UNL     1      11.084 -20.260 -21.466  1.00  0.00    -0.205 F 
HETATM    8  C16 UNL     1       9.580 -19.043 -20.075  1.00  0.00     0.012 A 
ENDROOT
BRANCH   1   9
HETATM    9  N1  UNL     1       7.939 -17.859 -18.669  1.00  0.00    -0.354 N 
ATOM     10  H1  UNL     1       7.645 -18.648 -18.093  1.00  0.00     0.166 HD
BRANCH   9  11
HETATM   11  C4  UNL     1       7.763 -16.572 -18.141  1.00  0.00     0.066 A 
HETATM   12  C3  UNL     1       8.664 -15.526 -18.114  1.00  0.00     0.088 A 
HETATM   13  C23 UNL     1       7.997 -14.398 -17.599  1.00  0.00     0.156 A 
HETATM   14  N4  UNL     1       6.742 -14.743 -17.324  1.00  0.00    -0.344 N 
HETATM   15  C22 UNL     1       6.568 -16.033 -17.635  1.00  0.00     0.121 A 
ATOM     16  H4  UNL     1       6.029 -14.125 -16.938  1.00  0.00     0.167 HD
BRANCH  12  17
HETATM   17  C2  UNL     1      10.059 -15.455 -18.494  1.00  0.00     0.162 C 
HETATM   18  C1  UNL     1      11.157 -15.605 -17.546  1.00  0.00     0.097 C 
HETATM   19  O1  UNL     1      10.381 -15.250 -19.710  1.00  0.00    -0.293 OA
ENDBRANCH  12  17
BRANCH  13  20
HETATM   20  O2  UNL     1       8.532 -13.120 -17.400  1.00  0.00    -0.345 OA
ATOM     21  H2  UNL     1       8.264 -12.314 -17.826  1.00  0.00     0.219 HD
ENDBRANCH  13  20
ENDBRANCH   9  11
ENDBRANCH   1   9
BRANCH   8  22
HETATM   22  C17 UNL     1      10.186 -19.542 -18.837  1.00  0.00     0.027 C 
HETATM   23  C18 UNL     1      10.081 -21.012 -18.581  1.00  0.00     0.037 C 
HETATM   24  C19 UNL     1      10.695 -21.186 -17.159  1.00  0.00     0.233 C 
HETATM   25  N3  UNL     1      12.135 -21.081 -17.275  1.00  0.00    -0.075 N 
HETATM   26  C20 UNL     1      12.533 -20.323 -18.437  1.00  0.00     0.233 C 
ATOM     27  H32 UNL     1      12.547 -20.697 -16.424  1.00  0.00     0.277 HD
ATOM     28  H31 UNL     1      12.575 -22.001 -17.266  1.00  0.00     0.277 HD
HETATM   29  C21 UNL     1      11.640 -19.124 -18.672  1.00  0.00     0.037 C 
ENDBRANCH   8  22
BRANCH   5  30
HETATM   30  C9  UNL     1       9.837 -19.152 -23.810  1.00  0.00     0.028 C 
HETATM   31  C10 UNL     1      11.294 -18.990 -24.125  1.00  0.00     0.037 C 
HETATM   32  C11 UNL     1      11.511 -19.166 -25.649  1.00  0.00     0.233 C 
HETATM   33  N2  UNL     1      10.239 -19.491 -26.282  1.00  0.00    -0.071 N 
HETATM   34  C12 UNL     1       9.663 -20.674 -25.716  1.00  0.00     0.182 C 
ATOM     35  H22 UNL     1       9.590 -18.705 -26.245  1.00  0.00     0.277 HD
ATOM     36  H21 UNL     1      10.333 -19.568 -27.295  1.00  0.00     0.277 HD
HETATM   37  C13 UNL     1       8.304 -20.937 -26.339  1.00  0.00     0.040 C 
HETATM   38  C14 UNL     1       9.525 -20.591 -24.212  1.00  0.00     0.042 C 
ENDBRANCH   5  30
TORSDOF 6
ENDMDL
