MODEL 1
REMARK VINA RESULT: -6.206704269      0.000      0.000
REMARK  8 active torsions:
REMARK  status: ('A' for Active; 'I' for Inactive)
REMARK    1  A    between atoms: C4_5  and  O1_6 
REMARK    2  A    between atoms: C8_12  and  C9_13 
REMARK    3  A    between atoms: C11_19  and  C12_20 
REMARK       I    between atoms: C12_20  and  N3_22 
REMARK    4  A    between atoms: N3_22  and  C13_23 
REMARK    5  A    between atoms: C13_23  and  C14_24 
REMARK    6  A    between atoms: C14_24  and  N4_25 
REMARK    7  A    between atoms: C15_29  and  N5_30 
REMARK    8  A    between atoms: N5_30  and  C16_32 
ROOT
HETATM    1  C9  UNL     1       2.690 -10.236 -29.084  1.00  0.00     0.072 A 
HETATM    2  N1  UNL     1       2.680  -9.778 -27.726  1.00  0.00    -0.299 N 
ATOM      3  H1  UNL     1       2.890  -8.831 -27.410  1.00  0.00     0.187 HD
HETATM    4  N2  UNL     1       2.354 -10.783 -26.966  1.00  0.00    -0.298 N 
ATOM      5  H2  UNL     1       2.270 -10.745 -25.950  1.00  0.00     0.187 HD
HETATM    6  C10 UNL     1       2.137 -11.916 -27.744  1.00  0.00     0.079 A 
HETATM    7  C11 UNL     1       1.833 -13.275 -27.450  1.00  0.00     0.102 A 
HETATM    8  C15 UNL     1       1.802 -14.207 -28.406  1.00  0.00     0.048 A 
HETATM    9  C20 UNL     1       2.044 -13.805 -29.705  1.00  0.00     0.031 A 
HETATM   10  C21 UNL     1       2.308 -12.524 -30.061  1.00  0.00     0.018 A 
HETATM   11  C22 UNL     1       2.366 -11.534 -29.045  1.00  0.00     0.022 A 
ENDROOT
BRANCH   1  12
HETATM   12  C8  UNL     1       3.079  -9.240 -30.037  1.00  0.00     0.010 A 
HETATM   13  C2  UNL     1       2.078  -8.270 -30.398  1.00  0.00    -0.007 A 
HETATM   14  C1  UNL     1       0.672  -8.596 -30.081  1.00  0.00     0.052 C 
HETATM   15  C3  UNL     1       2.398  -7.176 -31.126  1.00  0.00     0.158 A 
HETATM   16  F1  UNL     1       1.513  -6.242 -31.449  1.00  0.00    -0.203 F 
HETATM   17  C4  UNL     1       3.772  -7.074 -31.510  1.00  0.00     0.127 A 
HETATM   18  C5  UNL     1       4.692  -7.916 -31.218  1.00  0.00     0.077 A 
HETATM   19 CL1  UNL     1       6.390  -7.787 -31.744  1.00  0.00    -0.081 Cl
HETATM   20  C6  UNL     1       4.335  -9.032 -30.458  1.00  0.00    -0.024 A 
HETATM   21  C7  UNL     1       5.469 -10.009 -30.214  1.00  0.00     0.051 C 
BRANCH  17  22
HETATM   22  O1  UNL     1       4.032  -5.872 -32.263  1.00  0.00    -0.356 OA
ATOM     23  H1  UNL     1       4.622  -6.031 -32.991  1.00  0.00     0.218 HD
ENDBRANCH  17  22
ENDBRANCH   1  12
BRANCH   7  24
HETATM   24  C12 UNL     1       1.649 -13.552 -25.975  1.00  0.00     0.330 C 
HETATM   25  O2  UNL     1       0.856 -12.932 -25.288  1.00  0.00    -0.251 OA
HETATM   26  N3  UNL     1       2.544 -14.515 -25.485  1.00  0.00    -0.382 NA
BRANCH  26  27
HETATM   27  C13 UNL     1       3.408 -15.444 -25.012  1.00  0.00     0.186 C 
BRANCH  27  28
HETATM   28  C14 UNL     1       4.385 -15.158 -23.967  1.00  0.00     0.288 C 
BRANCH  28  29
HETATM   29  N4  UNL     1       5.437 -14.222 -24.469  1.00  0.00    -0.074 N 
ATOM     30  H43 UNL     1       6.324 -14.355 -23.985  1.00  0.00     0.274 HD
ATOM     31  H42 UNL     1       5.740 -14.465 -25.413  1.00  0.00     0.274 HD
ATOM     32  H41 UNL     1       5.115 -13.256 -24.413  1.00  0.00     0.274 HD
ENDBRANCH  28  29
ENDBRANCH  27  28
ENDBRANCH  26  27
ENDBRANCH   7  24
BRANCH   8  33
HETATM   33  N5  UNL     1       1.536 -15.546 -28.118  1.00  0.00    -0.381 N 
ATOM     34  H5  UNL     1       2.348 -16.121 -27.897  1.00  0.00     0.160 HD
BRANCH  33  35
HETATM   35  C16 UNL     1       0.299 -16.203 -28.094  1.00  0.00     0.019 C 
HETATM   36  C17 UNL     1       0.089 -16.975 -26.769  1.00  0.00     0.037 C 
HETATM   37  C18 UNL     1      -0.923 -15.493 -28.475  1.00  0.00     0.037 C 
HETATM   38  C19 UNL     1       0.441 -17.400 -29.093  1.00  0.00     0.037 C 
ENDBRANCH  33  35
ENDBRANCH   8  33
TORSDOF 8
ENDMDL
MODEL 2
REMARK VINA RESULT: -6.133249117      4.221      8.536
REMARK  8 active torsions:
REMARK  status: ('A' for Active; 'I' for Inactive)
REMARK    1  A    between atoms: C4_5  and  O1_6 
REMARK    2  A    between atoms: C8_12  and  C9_13 
REMARK    3  A    between atoms: C11_19  and  C12_20 
REMARK       I    between atoms: C12_20  and  N3_22 
REMARK    4  A    between atoms: N3_22  and  C13_23 
REMARK    5  A    between atoms: C13_23  and  C14_24 
REMARK    6  A    between atoms: C14_24  and  N4_25 
REMARK    7  A    between atoms: C15_29  and  N5_30 
REMARK    8  A    between atoms: N5_30  and  C16_32 
ROOT
HETATM    1  C9  UNL     1       1.546 -14.084 -26.744  1.00  0.00     0.072 A 
HETATM    2  N1  UNL     1       2.270 -14.774 -27.772  1.00  0.00    -0.299 N 
ATOM      3  H1  UNL     1       2.491 -15.770 -27.786  1.00  0.00     0.187 HD
HETATM    4  N2  UNL     1       2.595 -13.906 -28.686  1.00  0.00    -0.298 N 
ATOM      5  H2  UNL     1       3.117 -14.118 -29.536  1.00  0.00     0.187 HD
HETATM    6  C10 UNL     1       2.123 -12.645 -28.331  1.00  0.00     0.079 A 
HETATM    7  C11 UNL     1       2.242 -11.347 -28.904  1.00  0.00     0.102 A 
HETATM    8  C15 UNL     1       1.788 -10.261 -28.274  1.00  0.00     0.048 A 
HETATM    9  C20 UNL     1       1.165 -10.437 -27.054  1.00  0.00     0.031 A 
HETATM   10  C21 UNL     1       0.989 -11.646 -26.466  1.00  0.00     0.018 A 
HETATM   11  C22 UNL     1       1.492 -12.800 -27.120  1.00  0.00     0.022 A 
ENDROOT
BRANCH   1  12
HETATM   12  C8  UNL     1       1.161 -14.913 -25.641  1.00  0.00     0.010 A 
HETATM   13  C2  UNL     1       2.164 -15.154 -24.637  1.00  0.00    -0.007 A 
HETATM   14  C1  UNL     1       3.569 -14.876 -25.000  1.00  0.00     0.052 C 
HETATM   15  C3  UNL     1       1.846 -15.748 -23.464  1.00  0.00     0.158 A 
HETATM   16  F1  UNL     1       2.733 -15.957 -22.500  1.00  0.00    -0.203 F 
HETATM   17  C4  UNL     1       0.473 -16.119 -23.315  1.00  0.00     0.127 A 
HETATM   18  C5  UNL     1      -0.448 -15.931 -24.184  1.00  0.00     0.077 A 
HETATM   19 CL1  UNL     1      -2.146 -16.440 -23.991  1.00  0.00    -0.081 Cl
HETATM   20  C6  UNL     1      -0.094 -15.308 -25.383  1.00  0.00    -0.024 A 
HETATM   21  C7  UNL     1      -1.231 -15.183 -26.380  1.00  0.00     0.051 C 
BRANCH  17  22
HETATM   22  O1  UNL     1       0.216 -16.725 -22.032  1.00  0.00    -0.356 OA
ATOM     23  H1  UNL     1      -0.700 -16.660 -21.787  1.00  0.00     0.218 HD
ENDBRANCH  17  22
ENDBRANCH   1  12
BRANCH   7  24
HETATM   24  C12 UNL     1       2.997 -11.327 -30.214  1.00  0.00     0.330 C 
HETATM   25  O2  UNL     1       2.631 -11.960 -31.188  1.00  0.00    -0.251 OA
HETATM   26  N3  UNL     1       4.188 -10.589 -30.145  1.00  0.00    -0.382 NA
BRANCH  26  27
HETATM   27  C13 UNL     1       5.338  -9.877 -30.079  1.00  0.00     0.186 C 
BRANCH  27  28
HETATM   28  C14 UNL     1       5.542  -8.630 -30.807  1.00  0.00     0.288 C 
BRANCH  28  29
HETATM   29  N4  UNL     1       6.974  -8.206 -30.735  1.00  0.00    -0.074 N 
ATOM     30  H43 UNL     1       7.149  -7.369 -31.291  1.00  0.00     0.274 HD
ATOM     31  H42 UNL     1       7.212  -7.831 -29.817  1.00  0.00     0.274 HD
ATOM     32  H41 UNL     1       7.590  -8.973 -31.001  1.00  0.00     0.274 HD
ENDBRANCH  28  29
ENDBRANCH  27  28
ENDBRANCH  26  27
ENDBRANCH   7  24
BRANCH   8  33
HETATM   33  N5  UNL     1       1.930  -8.984 -28.817  1.00  0.00    -0.381 N 
ATOM     34  H5  UNL     1       2.771  -8.477 -28.542  1.00  0.00     0.160 HD
BRANCH  33  35
HETATM   35  C16 UNL     1       1.069  -8.306 -29.690  1.00  0.00     0.019 C 
HETATM   36  C17 UNL     1       1.851  -7.546 -30.787  1.00  0.00     0.037 C 
HETATM   37  C18 UNL     1      -0.090  -8.992 -30.264  1.00  0.00     0.037 C 
HETATM   38  C19 UNL     1       0.502  -7.101 -28.867  1.00  0.00     0.037 C 
ENDBRANCH  33  35
ENDBRANCH   8  33
TORSDOF 8
ENDMDL
MODEL 3
REMARK VINA RESULT: -6.114867387      1.431      2.092
REMARK  8 active torsions:
REMARK  status: ('A' for Active; 'I' for Inactive)
REMARK    1  A    between atoms: C4_5  and  O1_6 
REMARK    2  A    between atoms: C8_12  and  C9_13 
REMARK    3  A    between atoms: C11_19  and  C12_20 
REMARK       I    between atoms: C12_20  and  N3_22 
REMARK    4  A    between atoms: N3_22  and  C13_23 
REMARK    5  A    between atoms: C13_23  and  C14_24 
REMARK    6  A    between atoms: C14_24  and  N4_25 
REMARK    7  A    between atoms: C15_29  and  N5_30 
REMARK    8  A    between atoms: N5_30  and  C16_32 
ROOT
HETATM    1  C9  UNL     1       2.524  -9.728 -29.144  1.00  0.00     0.072 A 
HETATM    2  N1  UNL     1       2.419  -9.351 -27.765  1.00  0.00    -0.299 N 
ATOM      3  H1  UNL     1       2.545  -8.411 -27.388  1.00  0.00     0.187 HD
HETATM    4  N2  UNL     1       2.133 -10.418 -27.077  1.00  0.00    -0.298 N 
ATOM      5  H2  UNL     1       2.001 -10.446 -26.066  1.00  0.00     0.187 HD
HETATM    6  C10 UNL     1       2.035 -11.517 -27.926  1.00  0.00     0.079 A 
HETATM    7  C11 UNL     1       1.819 -12.909 -27.721  1.00  0.00     0.102 A 
HETATM    8  C15 UNL     1       1.899 -13.785 -28.726  1.00  0.00     0.048 A 
HETATM    9  C20 UNL     1       2.170 -13.293 -29.989  1.00  0.00     0.031 A 
HETATM   10  C21 UNL     1       2.354 -11.978 -30.260  1.00  0.00     0.018 A 
HETATM   11  C22 UNL     1       2.294 -11.047 -29.191  1.00  0.00     0.022 A 
ENDROOT
BRANCH   1  12
HETATM   12  C8  UNL     1       2.881  -8.654 -30.021  1.00  0.00     0.010 A 
HETATM   13  C2  UNL     1       4.184  -8.728 -30.629  1.00  0.00    -0.007 A 
HETATM   14  C1  UNL     1       5.165  -9.651 -30.023  1.00  0.00     0.052 C 
HETATM   15  C3  UNL     1       4.539  -7.879 -31.622  1.00  0.00     0.158 A 
HETATM   16  F1  UNL     1       5.715  -7.937 -32.231  1.00  0.00    -0.203 F 
HETATM   17  C4  UNL     1       3.544  -6.921 -31.995  1.00  0.00     0.127 A 
HETATM   18  C5  UNL     1       2.379  -6.816 -31.476  1.00  0.00     0.077 A 
HETATM   19 CL1  UNL     1       1.171  -5.586 -31.932  1.00  0.00    -0.081 Cl
HETATM   20  C6  UNL     1       2.036  -7.710 -30.459  1.00  0.00    -0.024 A 
HETATM   21  C7  UNL     1       0.664  -7.474 -29.857  1.00  0.00     0.051 C 
BRANCH  17  22
HETATM   22  O1  UNL     1       3.994  -6.073 -33.071  1.00  0.00    -0.356 OA
ATOM     23  H1  UNL     1       3.491  -6.213 -33.866  1.00  0.00     0.218 HD
ENDBRANCH  17  22
ENDBRANCH   1  12
BRANCH   7  24
HETATM   24  C12 UNL     1       1.589 -13.283 -26.274  1.00  0.00     0.330 C 
HETATM   25  O2  UNL     1       0.757 -12.725 -25.580  1.00  0.00    -0.251 OA
HETATM   26  N3  UNL     1       2.489 -14.255 -25.812  1.00  0.00    -0.382 NA
BRANCH  26  27
HETATM   27  C13 UNL     1       3.358 -15.193 -25.367  1.00  0.00     0.186 C 
BRANCH  27  28
HETATM   28  C14 UNL     1       4.154 -15.025 -24.156  1.00  0.00     0.288 C 
BRANCH  28  29
HETATM   29  N4  UNL     1       5.445 -14.338 -24.465  1.00  0.00    -0.074 N 
ATOM     30  H43 UNL     1       5.542 -14.144 -25.461  1.00  0.00     0.274 HD
ATOM     31  H42 UNL     1       5.455 -13.378 -24.121  1.00  0.00     0.274 HD
ATOM     32  H41 UNL     1       6.233 -14.876 -24.105  1.00  0.00     0.274 HD
ENDBRANCH  28  29
ENDBRANCH  27  28
ENDBRANCH  26  27
ENDBRANCH   7  24
BRANCH   8  33
HETATM   33  N5  UNL     1       1.718 -15.153 -28.525  1.00  0.00    -0.381 N 
ATOM     34  H5  UNL     1       2.539 -15.665 -28.200  1.00  0.00     0.160 HD
BRANCH  33  35
HETATM   35  C16 UNL     1       0.559 -15.917 -28.710  1.00  0.00     0.019 C 
HETATM   36  C17 UNL     1       0.391 -16.980 -27.598  1.00  0.00     0.037 C 
HETATM   37  C18 UNL     1      -0.719 -15.262 -28.993  1.00  0.00     0.037 C 
HETATM   38  C19 UNL     1       0.858 -16.842 -29.937  1.00  0.00     0.037 C 
ENDBRANCH  33  35
ENDBRANCH   8  33
TORSDOF 8
ENDMDL
MODEL 4
REMARK VINA RESULT: -5.996179405      4.070      8.376
REMARK  8 active torsions:
REMARK  status: ('A' for Active; 'I' for Inactive)
REMARK    1  A    between atoms: C4_5  and  O1_6 
REMARK    2  A    between atoms: C8_12  and  C9_13 
REMARK    3  A    between atoms: C11_19  and  C12_20 
REMARK       I    between atoms: C12_20  and  N3_22 
REMARK    4  A    between atoms: N3_22  and  C13_23 
REMARK    5  A    between atoms: C13_23  and  C14_24 
REMARK    6  A    between atoms: C14_24  and  N4_25 
REMARK    7  A    between atoms: C15_29  and  N5_30 
REMARK    8  A    between atoms: N5_30  and  C16_32 
ROOT
HETATM    1  C9  UNL     1       1.491 -14.054 -26.787  1.00  0.00     0.072 A 
HETATM    2  N1  UNL     1       2.209 -14.759 -27.808  1.00  0.00    -0.299 N 
ATOM      3  H1  UNL     1       2.410 -15.759 -27.819  1.00  0.00     0.187 HD
HETATM    4  N2  UNL     1       2.559 -13.898 -28.719  1.00  0.00    -0.298 N 
ATOM      5  H2  UNL     1       3.085 -14.122 -29.564  1.00  0.00     0.187 HD
HETATM    6  C10 UNL     1       2.111 -12.628 -28.370  1.00  0.00     0.079 A 
HETATM    7  C11 UNL     1       2.261 -11.333 -28.942  1.00  0.00     0.102 A 
HETATM    8  C15 UNL     1       1.824 -10.237 -28.317  1.00  0.00     0.048 A 
HETATM    9  C20 UNL     1       1.186 -10.400 -27.102  1.00  0.00     0.031 A 
HETATM   10  C21 UNL     1       0.980 -11.605 -26.515  1.00  0.00     0.018 A 
HETATM   11  C22 UNL     1       1.466 -12.769 -27.164  1.00  0.00     0.022 A 
ENDROOT
BRANCH   1  12
HETATM   12  C8  UNL     1       1.078 -14.873 -25.687  1.00  0.00     0.010 A 
HETATM   13  C2  UNL     1      -0.306 -15.266 -25.662  1.00  0.00    -0.007 A 
HETATM   14  C1  UNL     1      -1.244 -14.503 -26.512  1.00  0.00     0.052 C 
HETATM   15  C3  UNL     1      -0.751 -16.198 -24.788  1.00  0.00     0.158 A 
HETATM   16  F1  UNL     1      -2.010 -16.613 -24.756  1.00  0.00    -0.203 F 
HETATM   17  C4  UNL     1       0.240 -16.734 -23.905  1.00  0.00     0.127 A 
HETATM   18  C5  UNL     1       1.478 -16.407 -23.888  1.00  0.00     0.077 A 
HETATM   19 CL1  UNL     1       2.684 -17.060 -22.750  1.00  0.00    -0.081 Cl
HETATM   20  C6  UNL     1       1.911 -15.449 -24.807  1.00  0.00    -0.024 A 
HETATM   21  C7  UNL     1       3.375 -15.074 -24.675  1.00  0.00     0.051 C 
BRANCH  17  22
HETATM   22  O1  UNL     1      -0.311 -17.733 -23.023  1.00  0.00    -0.356 OA
ATOM     23  H1  UNL     1      -1.244 -17.610 -22.888  1.00  0.00     0.218 HD
ENDBRANCH  17  22
ENDBRANCH   1  12
BRANCH   7  24
HETATM   24  C12 UNL     1       3.027 -11.329 -30.245  1.00  0.00     0.330 C 
HETATM   25  O2  UNL     1       2.668 -11.970 -31.217  1.00  0.00    -0.251 OA
HETATM   26  N3  UNL     1       4.222 -10.596 -30.173  1.00  0.00    -0.382 NA
BRANCH  26  27
HETATM   27  C13 UNL     1       5.375  -9.889 -30.103  1.00  0.00     0.186 C 
BRANCH  27  28
HETATM   28  C14 UNL     1       5.582  -8.638 -30.824  1.00  0.00     0.288 C 
BRANCH  28  29
HETATM   29  N4  UNL     1       7.009  -8.202 -30.722  1.00  0.00    -0.074 N 
ATOM     30  H43 UNL     1       7.093  -7.186 -30.690  1.00  0.00     0.274 HD
ATOM     31  H42 UNL     1       7.406  -8.417 -29.807  1.00  0.00     0.274 HD
ATOM     32  H41 UNL     1       7.562  -8.604 -31.478  1.00  0.00     0.274 HD
ENDBRANCH  28  29
ENDBRANCH  27  28
ENDBRANCH  26  27
ENDBRANCH   7  24
BRANCH   8  33
HETATM   33  N5  UNL     1       1.996  -8.964 -28.859  1.00  0.00    -0.381 N 
ATOM     34  H5  UNL     1       2.853  -8.480 -28.589  1.00  0.00     0.160 HD
BRANCH  33  35
HETATM   35  C16 UNL     1       1.148  -8.262 -29.726  1.00  0.00     0.019 C 
HETATM   36  C17 UNL     1       1.944  -7.513 -30.821  1.00  0.00     0.037 C 
HETATM   37  C18 UNL     1      -0.027  -8.918 -30.301  1.00  0.00     0.037 C 
HETATM   38  C19 UNL     1       0.610  -7.049 -28.895  1.00  0.00     0.037 C 
ENDBRANCH  33  35
ENDBRANCH   8  33
TORSDOF 8
ENDMDL
MODEL 5
REMARK VINA RESULT: -5.962323051      7.864     11.153
REMARK  8 active torsions:
REMARK  status: ('A' for Active; 'I' for Inactive)
REMARK    1  A    between atoms: C4_5  and  O1_6 
REMARK    2  A    between atoms: C8_12  and  C9_13 
REMARK    3  A    between atoms: C11_19  and  C12_20 
REMARK       I    between atoms: C12_20  and  N3_22 
REMARK    4  A    between atoms: N3_22  and  C13_23 
REMARK    5  A    between atoms: C13_23  and  C14_24 
REMARK    6  A    between atoms: C14_24  and  N4_25 
REMARK    7  A    between atoms: C15_29  and  N5_30 
REMARK    8  A    between atoms: N5_30  and  C16_32 
ROOT
HETATM    1  C9  UNL     1       5.565 -16.957 -23.366  1.00  0.00     0.072 A 
HETATM    2  N1  UNL     1       6.333 -16.161 -24.279  1.00  0.00    -0.299 N 
ATOM      3  H1  UNL     1       6.020 -15.824 -25.190  1.00  0.00     0.187 HD
HETATM    4  N2  UNL     1       7.498 -15.946 -23.742  1.00  0.00    -0.298 N 
ATOM      5  H2  UNL     1       8.250 -15.408 -24.172  1.00  0.00     0.187 HD
HETATM    6  C10 UNL     1       7.565 -16.558 -22.494  1.00  0.00     0.079 A 
HETATM    7  C11 UNL     1       8.592 -16.707 -21.519  1.00  0.00     0.102 A 
HETATM    8  C15 UNL     1       8.424 -17.471 -20.437  1.00  0.00     0.048 A 
HETATM    9  C20 UNL     1       7.202 -18.094 -20.273  1.00  0.00     0.031 A 
HETATM   10  C21 UNL     1       6.171 -17.971 -21.144  1.00  0.00     0.018 A 
HETATM   11  C22 UNL     1       6.354 -17.180 -22.308  1.00  0.00     0.022 A 
ENDROOT
BRANCH   1  12
HETATM   12  C8  UNL     1       4.264 -17.313 -23.848  1.00  0.00     0.010 A 
HETATM   13  C2  UNL     1       3.269 -16.273 -23.840  1.00  0.00    -0.007 A 
HETATM   14  C1  UNL     1       3.535 -15.085 -23.004  1.00  0.00     0.052 C 
HETATM   15  C3  UNL     1       2.077 -16.444 -24.458  1.00  0.00     0.158 A 
HETATM   16  F1  UNL     1       1.148 -15.499 -24.504  1.00  0.00    -0.203 F 
HETATM   17  C4  UNL     1       1.889 -17.715 -25.088  1.00  0.00     0.127 A 
HETATM   18  C5  UNL     1       2.742 -18.669 -25.111  1.00  0.00     0.077 A 
HETATM   19 CL1  UNL     1       2.467 -20.259 -25.869  1.00  0.00    -0.081 Cl
HETATM   20  C6  UNL     1       3.968 -18.462 -24.473  1.00  0.00    -0.024 A 
HETATM   21  C7  UNL     1       4.892 -19.664 -24.494  1.00  0.00     0.051 C 
BRANCH  17  22
HETATM   22  O1  UNL     1       0.605 -17.806 -25.739  1.00  0.00    -0.356 OA
ATOM     23  H1  UNL     1       0.554 -18.560 -26.316  1.00  0.00     0.218 HD
ENDBRANCH  17  22
ENDBRANCH   1  12
BRANCH   7  24
HETATM   24  C12 UNL     1       9.880 -16.003 -21.880  1.00  0.00     0.330 C 
HETATM   25  O2  UNL     1      10.006 -14.793 -21.808  1.00  0.00    -0.251 OA
HETATM   26  N3  UNL     1      10.856 -16.876 -22.386  1.00  0.00    -0.382 NA
BRANCH  26  27
HETATM   27  C13 UNL     1      11.796 -17.718 -22.875  1.00  0.00     0.186 C 
BRANCH  27  28
HETATM   28  C14 UNL     1      11.472 -19.013 -23.463  1.00  0.00     0.288 C 
BRANCH  28  29
HETATM   29  N4  UNL     1      12.613 -19.519 -24.286  1.00  0.00    -0.074 N 
ATOM     30  H43 UNL     1      13.482 -19.544 -23.753  1.00  0.00     0.274 HD
ATOM     31  H42 UNL     1      12.526 -20.516 -24.482  1.00  0.00     0.274 HD
ATOM     32  H41 UNL     1      12.709 -18.972 -25.141  1.00  0.00     0.274 HD
ENDBRANCH  28  29
ENDBRANCH  27  28
ENDBRANCH  26  27
ENDBRANCH   7  24
BRANCH   8  33
HETATM   33  N5  UNL     1       9.437 -17.644 -19.495  1.00  0.00    -0.381 N 
ATOM     34  H5  UNL     1      10.011 -18.480 -19.609  1.00  0.00     0.160 HD
BRANCH  33  35
HETATM   35  C16 UNL     1       9.772 -16.821 -18.411  1.00  0.00     0.019 C 
HETATM   36  C17 UNL     1      11.282 -16.482 -18.396  1.00  0.00     0.037 C 
HETATM   37  C18 UNL     1       8.974 -15.630 -18.114  1.00  0.00     0.037 C 
HETATM   38  C19 UNL     1       9.681 -17.737 -17.145  1.00  0.00     0.037 C 
ENDBRANCH  33  35
ENDBRANCH   8  33
TORSDOF 8
ENDMDL
