MODEL 1
REMARK VINA RESULT: -6.360716486      0.000      0.000
REMARK  6 active torsions:
REMARK  status: ('A' for Active; 'I' for Inactive)
REMARK       I    between atoms: C2_2  and  N1_4 
REMARK    1  A    between atoms: N1_4  and  C3_6 
REMARK    2  A    between atoms: C7_11  and  C8_12 
REMARK    3  A    between atoms: C9_14  and  C10_15 
REMARK    4  A    between atoms: C11_18  and  N3_19 
REMARK    5  A    between atoms: N3_19  and  C12_21 
REMARK    6  A    between atoms: C15_24  and  O3_25 
ROOT
HETATM    1  C8  UNL     1       3.933 -16.137 -23.841  1.00  0.00     0.045 A 
HETATM    2  S1  UNL     1       3.826 -17.897 -23.842  1.00  0.00    -0.080 SA
HETATM    3  C9  UNL     1       5.464 -18.281 -23.708  1.00  0.00     0.099 A 
HETATM    4  C11 UNL     1       6.064 -17.062 -23.663  1.00  0.00     0.076 A 
HETATM    5  C20 UNL     1       5.274 -15.966 -23.735  1.00  0.00     0.092 A 
HETATM    6  N4  UNL     1       5.857 -14.633 -23.793  1.00  0.00    -0.099 NA
ENDROOT
BRANCH   1   7
HETATM    7  C7  UNL     1       2.754 -15.289 -23.992  1.00  0.00     0.024 A 
HETATM    8  C6  UNL     1       1.915 -14.898 -23.015  1.00  0.00     0.128 A 
HETATM    9  C5  UNL     1       0.845 -14.012 -23.274  1.00  0.00     0.045 A 
HETATM   10  F1  UNL     1       1.943 -15.321 -21.739  1.00  0.00    -0.205 F 
HETATM   11  C4  UNL     1       0.633 -13.529 -24.525  1.00  0.00     0.032 A 
HETATM   12  C3  UNL     1       1.483 -13.909 -25.584  1.00  0.00     0.035 A 
HETATM   13  C21 UNL     1       2.498 -14.765 -25.277  1.00  0.00     0.045 A 
BRANCH  12  14
HETATM   14  N1  UNL     1       1.178 -13.339 -26.822  1.00  0.00    -0.327 N 
HETATM   15  C2  UNL     1       1.382 -12.000 -27.164  1.00  0.00     0.218 C 
HETATM   16  C1  UNL     1       0.996 -11.497 -28.560  1.00  0.00     0.117 C 
HETATM   17  O1  UNL     1       1.872 -11.132 -26.400  1.00  0.00    -0.274 OA
ATOM     18  H1  UNL     1       0.775 -13.949 -27.533  1.00  0.00     0.169 HD
ENDBRANCH  12  14
ENDBRANCH   1   7
BRANCH   3  19
HETATM   19  C10 UNL     1       5.964 -19.649 -23.700  1.00  0.00     0.274 C 
HETATM   20  N2  UNL     1       6.855 -20.096 -24.713  1.00  0.00    -0.057 NA
HETATM   21  O2  UNL     1       5.659 -20.515 -22.828  1.00  0.00    -0.270 OA
ENDBRANCH   3  19
BRANCH   4  22
HETATM   22  N3  UNL     1       7.503 -17.017 -23.547  1.00  0.00    -0.382 N 
ATOM     23  H3  UNL     1       8.058 -16.977 -24.402  1.00  0.00     0.160 HD
BRANCH  22  24
HETATM   24  C12 UNL     1       8.185 -17.024 -22.291  1.00  0.00     0.089 C 
HETATM   25  C13 UNL     1       8.780 -15.700 -21.871  1.00  0.00     0.028 C 
HETATM   26  C14 UNL     1       9.103 -15.793 -20.395  1.00  0.00     0.034 C 
HETATM   27  C15 UNL     1       9.954 -17.017 -20.131  1.00  0.00     0.119 C 
HETATM   28  C16 UNL     1      10.419 -17.564 -21.468  1.00  0.00     0.042 C 
HETATM   29  C17 UNL     1       9.257 -18.105 -22.290  1.00  0.00    -0.025 C 
HETATM   30  C18 UNL     1       8.820 -19.373 -21.611  1.00  0.00     0.017 C 
HETATM   31  C19 UNL     1       9.766 -18.432 -23.665  1.00  0.00     0.017 C 
BRANCH  27  32
HETATM   32  O3  UNL     1      11.073 -16.627 -19.427  1.00  0.00    -0.396 OA
ATOM     33  H3  UNL     1      11.776 -16.465 -20.046  1.00  0.00     0.210 HD
ENDBRANCH  27  32
ENDBRANCH  22  24
ENDBRANCH   4  22
TORSDOF 6
ENDMDL
MODEL 2
REMARK VINA RESULT: -6.278776023      3.132      4.415
REMARK  6 active torsions:
REMARK  status: ('A' for Active; 'I' for Inactive)
REMARK       I    between atoms: C2_2  and  N1_4 
REMARK    1  A    between atoms: N1_4  and  C3_6 
REMARK    2  A    between atoms: C7_11  and  C8_12 
REMARK    3  A    between atoms: C9_14  and  C10_15 
REMARK    4  A    between atoms: C11_18  and  N3_19 
REMARK    5  A    between atoms: N3_19  and  C12_21 
REMARK    6  A    between atoms: C15_24  and  O3_25 
ROOT
HETATM    1  C8  UNL     1       6.652 -18.009 -22.907  1.00  0.00     0.045 A 
HETATM    2  S1  UNL     1       8.051 -17.789 -23.957  1.00  0.00    -0.080 SA
HETATM    3  C9  UNL     1       9.283 -17.855 -22.806  1.00  0.00     0.099 A 
HETATM    4  C11 UNL     1       8.608 -18.044 -21.642  1.00  0.00     0.076 A 
HETATM    5  C20 UNL     1       7.259 -18.120 -21.699  1.00  0.00     0.092 A 
HETATM    6  N4  UNL     1       6.468 -18.221 -20.480  1.00  0.00    -0.099 NA
ENDROOT
BRANCH   1   7
HETATM    7  C7  UNL     1       5.285 -17.980 -23.419  1.00  0.00     0.024 A 
HETATM    8  C6  UNL     1       4.722 -18.871 -24.256  1.00  0.00     0.128 A 
HETATM    9  C5  UNL     1       3.361 -18.776 -24.625  1.00  0.00     0.045 A 
HETATM   10  F1  UNL     1       5.357 -19.885 -24.869  1.00  0.00    -0.205 F 
HETATM   11  C4  UNL     1       2.581 -17.775 -24.143  1.00  0.00     0.032 A 
HETATM   12  C3  UNL     1       3.124 -16.814 -23.264  1.00  0.00     0.035 A 
HETATM   13  C21 UNL     1       4.440 -16.955 -22.942  1.00  0.00     0.045 A 
BRANCH  12  14
HETATM   14  N1  UNL     1       2.225 -15.841 -22.822  1.00  0.00    -0.327 N 
HETATM   15  C2  UNL     1       1.997 -14.613 -23.448  1.00  0.00     0.218 C 
HETATM   16  C1  UNL     1       0.984 -13.626 -22.856  1.00  0.00     0.117 C 
HETATM   17  O1  UNL     1       2.570 -14.226 -24.496  1.00  0.00    -0.274 OA
ATOM     18  H1  UNL     1       1.694 -16.042 -21.975  1.00  0.00     0.169 HD
ENDBRANCH  12  14
ENDBRANCH   1   7
BRANCH   3  19
HETATM   19  C10 UNL     1      10.692 -17.684 -23.136  1.00  0.00     0.274 C 
HETATM   20  N2  UNL     1      11.174 -18.020 -24.430  1.00  0.00    -0.057 NA
HETATM   21  O2  UNL     1      11.565 -17.243 -22.331  1.00  0.00    -0.270 OA
ENDBRANCH   3  19
BRANCH   4  22
HETATM   22  N3  UNL     1       9.374 -18.148 -20.422  1.00  0.00    -0.382 N 
ATOM     23  H3  UNL     1       9.955 -18.975 -20.283  1.00  0.00     0.160 HD
BRANCH  22  24
HETATM   24  C12 UNL     1       9.357 -17.148 -19.401  1.00  0.00     0.089 C 
HETATM   25  C13 UNL     1       9.392 -15.720 -19.894  1.00  0.00     0.028 C 
HETATM   26  C14 UNL     1       8.981 -14.829 -18.742  1.00  0.00     0.034 C 
HETATM   27  C15 UNL     1       9.832 -15.133 -17.526  1.00  0.00     0.119 C 
HETATM   28  C16 UNL     1      10.981 -16.021 -17.968  1.00  0.00     0.042 C 
HETATM   29  C17 UNL     1      10.493 -17.392 -18.418  1.00  0.00    -0.025 C 
HETATM   30  C18 UNL     1      10.054 -18.108 -17.171  1.00  0.00     0.017 C 
HETATM   31  C19 UNL     1      11.653 -18.127 -19.027  1.00  0.00     0.017 C 
BRANCH  27  32
HETATM   32  O3  UNL     1      10.369 -13.952 -17.064  1.00  0.00    -0.396 OA
ATOM     33  H3  UNL     1      10.725 -13.474 -17.805  1.00  0.00     0.210 HD
ENDBRANCH  27  32
ENDBRANCH  22  24
ENDBRANCH   4  22
TORSDOF 6
ENDMDL
MODEL 3
REMARK VINA RESULT: -6.247019945      3.043      3.968
REMARK  6 active torsions:
REMARK  status: ('A' for Active; 'I' for Inactive)
REMARK       I    between atoms: C2_2  and  N1_4 
REMARK    1  A    between atoms: N1_4  and  C3_6 
REMARK    2  A    between atoms: C7_11  and  C8_12 
REMARK    3  A    between atoms: C9_14  and  C10_15 
REMARK    4  A    between atoms: C11_18  and  N3_19 
REMARK    5  A    between atoms: N3_19  and  C12_21 
REMARK    6  A    between atoms: C15_24  and  O3_25 
ROOT
HETATM    1  C8  UNL     1       6.003 -16.578 -23.096  1.00  0.00     0.045 A 
HETATM    2  S1  UNL     1       7.495 -16.781 -24.013  1.00  0.00    -0.080 SA
HETATM    3  C9  UNL     1       8.470 -17.468 -22.819  1.00  0.00     0.099 A 
HETATM    4  C11 UNL     1       7.642 -17.532 -21.743  1.00  0.00     0.076 A 
HETATM    5  C20 UNL     1       6.379 -17.072 -21.891  1.00  0.00     0.092 A 
HETATM    6  N4  UNL     1       5.470 -17.019 -20.754  1.00  0.00    -0.099 NA
ENDROOT
BRANCH   1   7
HETATM    7  C7  UNL     1       4.816 -15.955 -23.675  1.00  0.00     0.024 A 
HETATM    8  C6  UNL     1       4.736 -14.726 -24.215  1.00  0.00     0.128 A 
HETATM    9  C5  UNL     1       3.544 -14.259 -24.813  1.00  0.00     0.045 A 
HETATM   10  F1  UNL     1       5.711 -13.799 -24.209  1.00  0.00    -0.205 F 
HETATM   11  C4  UNL     1       2.438 -15.045 -24.856  1.00  0.00     0.032 A 
HETATM   12  C3  UNL     1       2.468 -16.342 -24.303  1.00  0.00     0.035 A 
HETATM   13  C21 UNL     1       3.644 -16.740 -23.741  1.00  0.00     0.045 A 
BRANCH  12  14
HETATM   14  N1  UNL     1       1.278 -17.064 -24.418  1.00  0.00    -0.327 N 
HETATM   15  C2  UNL     1       0.244 -17.065 -23.479  1.00  0.00     0.218 C 
HETATM   16  C1  UNL     1      -1.013 -17.909 -23.723  1.00  0.00     0.117 C 
HETATM   17  O1  UNL     1       0.249 -16.411 -22.407  1.00  0.00    -0.274 OA
ATOM     18  H1  UNL     1       1.154 -17.635 -25.254  1.00  0.00     0.169 HD
ENDBRANCH  12  14
ENDBRANCH   1   7
BRANCH   3  19
HETATM   19  C10 UNL     1       9.869 -17.815 -23.035  1.00  0.00     0.274 C 
HETATM   20  N2  UNL     1      10.889 -16.844 -22.847  1.00  0.00    -0.057 NA
HETATM   21  O2  UNL     1      10.273 -18.961 -23.392  1.00  0.00    -0.270 OA
ENDBRANCH   3  19
BRANCH   4  22
HETATM   22  N3  UNL     1       8.166 -18.083 -20.515  1.00  0.00    -0.382 N 
ATOM     23  H3  UNL     1       8.131 -19.095 -20.384  1.00  0.00     0.160 HD
BRANCH  22  24
HETATM   24  C12 UNL     1       8.729 -17.281 -19.476  1.00  0.00     0.089 C 
HETATM   25  C13 UNL     1       9.167 -15.896 -19.894  1.00  0.00     0.028 C 
HETATM   26  C14 UNL     1       9.361 -15.079 -18.635  1.00  0.00     0.034 C 
HETATM   27  C15 UNL     1      10.286 -15.810 -17.685  1.00  0.00     0.119 C 
HETATM   28  C16 UNL     1      10.916 -16.966 -18.439  1.00  0.00     0.042 C 
HETATM   29  C17 UNL     1       9.884 -18.021 -18.818  1.00  0.00    -0.025 C 
HETATM   30  C18 UNL     1       9.497 -18.706 -17.537  1.00  0.00     0.017 C 
HETATM   31  C19 UNL     1      10.543 -19.016 -19.730  1.00  0.00     0.017 C 
BRANCH  27  32
HETATM   32  O3  UNL     1      11.298 -14.951 -17.315  1.00  0.00    -0.396 OA
ATOM     33  H3  UNL     1      11.470 -15.071 -16.388  1.00  0.00     0.210 HD
ENDBRANCH  27  32
ENDBRANCH  22  24
ENDBRANCH   4  22
TORSDOF 6
ENDMDL
MODEL 4
REMARK VINA RESULT: -6.244685383      5.195      8.636
REMARK  6 active torsions:
REMARK  status: ('A' for Active; 'I' for Inactive)
REMARK       I    between atoms: C2_2  and  N1_4 
REMARK    1  A    between atoms: N1_4  and  C3_6 
REMARK    2  A    between atoms: C7_11  and  C8_12 
REMARK    3  A    between atoms: C9_14  and  C10_15 
REMARK    4  A    between atoms: C11_18  and  N3_19 
REMARK    5  A    between atoms: N3_19  and  C12_21 
REMARK    6  A    between atoms: C15_24  and  O3_25 
ROOT
HETATM    1  C8  UNL     1      10.116 -20.117 -25.953  1.00  0.00     0.045 A 
HETATM    2  S1  UNL     1      11.331 -19.266 -25.000  1.00  0.00    -0.080 SA
HETATM    3  C9  UNL     1      10.347 -18.639 -23.781  1.00  0.00     0.099 A 
HETATM    4  C11 UNL     1       9.110 -19.089 -24.120  1.00  0.00     0.076 A 
HETATM    5  C20 UNL     1       8.997 -19.844 -25.237  1.00  0.00     0.092 A 
HETATM    6  N4  UNL     1       7.690 -20.276 -25.713  1.00  0.00    -0.099 NA
ENDROOT
BRANCH   1   7
HETATM    7  C7  UNL     1      10.450 -20.812 -27.193  1.00  0.00     0.024 A 
HETATM    8  C6  UNL     1      10.768 -22.113 -27.323  1.00  0.00     0.128 A 
HETATM    9  C5  UNL     1      11.001 -22.691 -28.592  1.00  0.00     0.045 A 
HETATM   10  F1  UNL     1      10.953 -22.983 -26.314  1.00  0.00    -0.205 F 
HETATM   11  C4  UNL     1      10.914 -21.942 -29.720  1.00  0.00     0.032 A 
HETATM   12  C3  UNL     1      10.585 -20.572 -29.638  1.00  0.00     0.035 A 
HETATM   13  C21 UNL     1      10.370 -20.069 -28.390  1.00  0.00     0.045 A 
BRANCH  12  14
HETATM   14  N1  UNL     1      10.509 -19.906 -30.863  1.00  0.00    -0.327 N 
HETATM   15  C2  UNL     1      11.186 -18.726 -31.181  1.00  0.00     0.218 C 
HETATM   16  C1  UNL     1      11.012 -18.090 -32.565  1.00  0.00     0.117 C 
HETATM   17  O1  UNL     1      11.957 -18.111 -30.404  1.00  0.00    -0.274 OA
ATOM     18  H1  UNL     1       9.913 -20.314 -31.583  1.00  0.00     0.169 HD
ENDBRANCH  12  14
ENDBRANCH   1   7
BRANCH   3  19
HETATM   19  C10 UNL     1      10.849 -17.791 -22.707  1.00  0.00     0.274 C 
HETATM   20  N2  UNL     1      10.320 -17.902 -21.394  1.00  0.00    -0.057 NA
HETATM   21  O2  UNL     1      11.760 -16.923 -22.852  1.00  0.00    -0.270 OA
ENDBRANCH   3  19
BRANCH   4  22
HETATM   22  N3  UNL     1       7.999 -18.730 -23.270  1.00  0.00    -0.382 N 
ATOM     23  H3  UNL     1       7.851 -19.264 -22.414  1.00  0.00     0.160 HD
BRANCH  22  24
HETATM   24  C12 UNL     1       7.099 -17.662 -23.571  1.00  0.00     0.089 C 
HETATM   25  C13 UNL     1       7.532 -16.296 -23.090  1.00  0.00     0.028 C 
HETATM   26  C14 UNL     1       6.689 -15.268 -23.815  1.00  0.00     0.034 C 
HETATM   27  C15 UNL     1       5.221 -15.597 -23.647  1.00  0.00     0.119 C 
HETATM   28  C16 UNL     1       5.098 -16.671 -22.583  1.00  0.00     0.042 C 
HETATM   29  C17 UNL     1       5.711 -17.989 -23.039  1.00  0.00    -0.025 C 
HETATM   30  C18 UNL     1       4.787 -18.536 -24.091  1.00  0.00     0.017 C 
HETATM   31  C19 UNL     1       5.734 -18.928 -21.867  1.00  0.00     0.017 C 
BRANCH  27  32
HETATM   32  O3  UNL     1       4.573 -14.472 -23.183  1.00  0.00    -0.396 OA
ATOM     33  H3  UNL     1       5.226 -13.868 -22.846  1.00  0.00     0.210 HD
ENDBRANCH  27  32
ENDBRANCH  22  24
ENDBRANCH   4  22
TORSDOF 6
ENDMDL
MODEL 5
REMARK VINA RESULT: -6.222810643      2.872      4.164
REMARK  6 active torsions:
REMARK  status: ('A' for Active; 'I' for Inactive)
REMARK       I    between atoms: C2_2  and  N1_4 
REMARK    1  A    between atoms: N1_4  and  C3_6 
REMARK    2  A    between atoms: C7_11  and  C8_12 
REMARK    3  A    between atoms: C9_14  and  C10_15 
REMARK    4  A    between atoms: C11_18  and  N3_19 
REMARK    5  A    between atoms: N3_19  and  C12_21 
REMARK    6  A    between atoms: C15_24  and  O3_25 
ROOT
HETATM    1  C8  UNL     1       5.831 -17.025 -22.795  1.00  0.00     0.045 A 
HETATM    2  S1  UNL     1       7.222 -16.180 -23.473  1.00  0.00    -0.080 SA
HETATM    3  C9  UNL     1       8.255 -16.218 -22.139  1.00  0.00     0.099 A 
HETATM    4  C11 UNL     1       7.523 -16.874 -21.200  1.00  0.00     0.076 A 
HETATM    5  C20 UNL     1       6.279 -17.283 -21.542  1.00  0.00     0.092 A 
HETATM    6  N4  UNL     1       5.405 -17.902 -20.555  1.00  0.00    -0.099 NA
ENDROOT
BRANCH   1   7
HETATM    7  C7  UNL     1       4.598 -17.222 -23.552  1.00  0.00     0.024 A 
HETATM    8  C6  UNL     1       4.088 -18.396 -23.964  1.00  0.00     0.128 A 
HETATM    9  C5  UNL     1       2.843 -18.466 -24.630  1.00  0.00     0.045 A 
HETATM   10  F1  UNL     1       4.687 -19.596 -23.856  1.00  0.00    -0.205 F 
HETATM   11  C4  UNL     1       2.125 -17.340 -24.875  1.00  0.00     0.032 A 
HETATM   12  C3  UNL     1       2.617 -16.083 -24.465  1.00  0.00     0.035 A 
HETATM   13  C21 UNL     1       3.821 -16.076 -23.827  1.00  0.00     0.045 A 
BRANCH  12  14
HETATM   14  N1  UNL     1       1.788 -14.999 -24.758  1.00  0.00    -0.327 N 
HETATM   15  C2  UNL     1       2.076 -13.991 -25.681  1.00  0.00     0.218 C 
HETATM   16  C1  UNL     1       1.080 -12.847 -25.906  1.00  0.00     0.117 C 
HETATM   17  O1  UNL     1       3.122 -13.932 -26.374  1.00  0.00    -0.274 OA
ATOM     18  H1  UNL     1       0.901 -14.937 -24.257  1.00  0.00     0.169 HD
ENDBRANCH  12  14
ENDBRANCH   1   7
BRANCH   3  19
HETATM   19  C10 UNL     1       9.577 -15.605 -22.137  1.00  0.00     0.274 C 
HETATM   20  N2  UNL     1      10.697 -16.308 -22.655  1.00  0.00    -0.057 NA
HETATM   21  O2  UNL     1       9.824 -14.445 -21.692  1.00  0.00    -0.270 OA
ENDBRANCH   3  19
BRANCH   4  22
HETATM   22  N3  UNL     1       8.119 -17.088 -19.902  1.00  0.00    -0.382 N 
ATOM     23  H3  UNL     1       7.689 -16.642 -19.092  1.00  0.00     0.160 HD
BRANCH  22  24
HETATM   24  C12 UNL     1       9.280 -17.894 -19.699  1.00  0.00     0.089 C 
HETATM   25  C13 UNL     1       9.044 -19.386 -19.718  1.00  0.00     0.028 C 
HETATM   26  C14 UNL     1      10.389 -20.061 -19.881  1.00  0.00     0.034 C 
HETATM   27  C15 UNL     1      11.349 -19.554 -18.825  1.00  0.00     0.119 C 
HETATM   28  C16 UNL     1      10.551 -18.764 -17.804  1.00  0.00     0.042 C 
HETATM   29  C17 UNL     1       9.973 -17.489 -18.405  1.00  0.00    -0.025 C 
HETATM   30  C18 UNL     1      11.137 -16.564 -18.621  1.00  0.00     0.017 C 
HETATM   31  C19 UNL     1       9.036 -16.879 -17.402  1.00  0.00     0.017 C 
BRANCH  27  32
HETATM   32  O3  UNL     1      11.897 -20.640 -18.178  1.00  0.00    -0.396 OA
ATOM     33  H3  UNL     1      12.181 -21.268 -18.833  1.00  0.00     0.210 HD
ENDBRANCH  27  32
ENDBRANCH  22  24
ENDBRANCH   4  22
TORSDOF 6
ENDMDL
