MODEL 1
REMARK VINA RESULT: -7.913110298      0.000      0.000
REMARK  4 active torsions:
REMARK  status: ('A' for Active; 'I' for Inactive)
REMARK    1  A    between atoms: C1_2  and  C2_3 
REMARK       I    between atoms: C1_2  and  N3_22 
REMARK    2  A    between atoms: C5_6  and  N1_7 
REMARK       I    between atoms: N1_7  and  C6_9 
REMARK       I    between atoms: C6_9  and  N2_11 
REMARK    3  A    between atoms: C11_16  and  C12_17 
REMARK    4  A    between atoms: C16_25  and  C17_26 
REMARK       I    between atoms: C17_26  and  N4_28 
ROOT
HETATM    1  C2  UNL     1      -2.979 -49.109   5.664  1.00  0.00     0.080 C 
HETATM    2  C3  UNL     1      -3.158 -47.827   6.461  1.00  0.00     0.016 C 
HETATM    3  C4  UNL     1      -3.223 -46.737   5.377  1.00  0.00     0.026 C 
HETATM    4  C5  UNL     1      -4.054 -47.434   4.354  1.00  0.00     0.087 C 
HETATM    5  C13 UNL     1      -3.484 -48.821   4.272  1.00  0.00     0.039 C 
ENDROOT
BRANCH   1   6
HETATM    6  C1  UNL     1      -1.540 -49.503   5.621  1.00  0.00     0.224 C 
HETATM    7  O1  UNL     1      -0.697 -48.543   5.648  1.00  0.00    -0.273 OA
HETATM    8  N3  UNL     1      -1.053 -50.808   5.551  1.00  0.00    -0.352 N 
HETATM    9  C14 UNL     1      -1.924 -51.949   5.543  1.00  0.00     0.126 C 
HETATM   10  C23 UNL     1       0.365 -51.067   5.478  1.00  0.00     0.126 C 
HETATM   11  C15 UNL     1      -1.633 -52.785   6.764  1.00  0.00     0.034 C 
HETATM   12  C16 UNL     1      -0.173 -53.059   6.890  1.00  0.00     0.081 C 
HETATM   13  C22 UNL     1       0.605 -52.575   5.677  1.00  0.00     0.034 C 
BRANCH  12  14
HETATM   14  C17 UNL     1       0.336 -52.428   8.129  1.00  0.00     0.224 C 
HETATM   15  O3  UNL     1       1.423 -51.787   8.067  1.00  0.00    -0.273 OA
HETATM   16  N4  UNL     1      -0.331 -52.515   9.354  1.00  0.00    -0.349 N 
HETATM   17  C18 UNL     1      -1.596 -53.164   9.617  1.00  0.00     0.129 C 
HETATM   18  C21 UNL     1       0.073 -52.000  10.660  1.00  0.00     0.162 C 
HETATM   19  C19 UNL     1      -1.292 -53.949  10.887  1.00  0.00     0.058 C 
HETATM   20  C20 UNL     1      -0.170 -53.183  11.567  1.00  0.00     0.189 C 
HETATM   21  F4  UNL     1      -0.534 -52.805  12.845  1.00  0.00    -0.248 F 
ENDBRANCH  12  14
ENDBRANCH   1   6
BRANCH   4  22
HETATM   22  N1  UNL     1      -3.996 -46.765   3.055  1.00  0.00    -0.338 N 
HETATM   23  C6  UNL     1      -5.130 -46.521   2.275  1.00  0.00     0.319 C 
HETATM   24  O2  UNL     1      -6.259 -46.904   2.734  1.00  0.00    -0.247 OA
HETATM   25  N2  UNL     1      -5.135 -45.876   1.008  1.00  0.00    -0.321 N 
HETATM   26  C7  UNL     1      -3.896 -45.439   0.436  1.00  0.00     0.128 C 
HETATM   27  C11 UNL     1      -6.390 -45.657   0.310  1.00  0.00     0.196 C 
HETATM   28  C8  UNL     1      -3.912 -45.417  -1.064  1.00  0.00     0.020 C 
HETATM   29  C9  UNL     1      -4.992 -46.235  -1.696  1.00  0.00     0.004 C 
HETATM   30  C10 UNL     1      -6.358 -45.965  -1.141  1.00  0.00     0.034 C 
ATOM     31  H1  UNL     1      -3.088 -46.463   2.702  1.00  0.00     0.164 HD
BRANCH  27  32
HETATM   32  C12 UNL     1      -6.901 -44.236   0.585  1.00  0.00     0.407 C 
HETATM   33  F1  UNL     1      -8.271 -44.244   0.771  1.00  0.00    -0.169 F 
HETATM   34  F2  UNL     1      -6.328 -43.670   1.683  1.00  0.00    -0.169 F 
HETATM   35  F3  UNL     1      -6.651 -43.427  -0.504  1.00  0.00    -0.169 F 
ENDBRANCH  27  32
ENDBRANCH   4  22
TORSDOF 4
ENDMDL
MODEL 2
REMARK VINA RESULT: -7.872087489      4.811     10.805
REMARK  4 active torsions:
REMARK  status: ('A' for Active; 'I' for Inactive)
REMARK    1  A    between atoms: C1_2  and  C2_3 
REMARK       I    between atoms: C1_2  and  N3_22 
REMARK    2  A    between atoms: C5_6  and  N1_7 
REMARK       I    between atoms: N1_7  and  C6_9 
REMARK       I    between atoms: C6_9  and  N2_11 
REMARK    3  A    between atoms: C11_16  and  C12_17 
REMARK    4  A    between atoms: C16_25  and  C17_26 
REMARK       I    between atoms: C17_26  and  N4_28 
ROOT
HETATM    1  C2  UNL     1      -4.608 -45.371   1.089  1.00  0.00     0.080 C 
HETATM    2  C3  UNL     1      -6.079 -45.681   1.312  1.00  0.00     0.016 C 
HETATM    3  C4  UNL     1      -6.078 -46.510   2.609  1.00  0.00     0.026 C 
HETATM    4  C5  UNL     1      -5.055 -45.764   3.396  1.00  0.00     0.087 C 
HETATM    5  C13 UNL     1      -3.933 -45.511   2.431  1.00  0.00     0.039 C 
ENDROOT
BRANCH   1   6
HETATM    6  C1  UNL     1      -4.013 -46.327   0.109  1.00  0.00     0.224 C 
HETATM    7  O1  UNL     1      -3.553 -47.413   0.598  1.00  0.00    -0.273 OA
HETATM    8  N3  UNL     1      -3.919 -46.130  -1.268  1.00  0.00    -0.352 N 
HETATM    9  C14 UNL     1      -4.432 -44.952  -1.909  1.00  0.00     0.126 C 
HETATM   10  C23 UNL     1      -3.288 -47.113  -2.116  1.00  0.00     0.126 C 
HETATM   11  C15 UNL     1      -5.516 -45.364  -2.874  1.00  0.00     0.034 C 
HETATM   12  C16 UNL     1      -5.047 -46.461  -3.768  1.00  0.00     0.081 C 
HETATM   13  C22 UNL     1      -3.566 -46.752  -3.586  1.00  0.00     0.034 C 
BRANCH  12  14
HETATM   14  C17 UNL     1      -5.858 -47.674  -3.516  1.00  0.00     0.224 C 
HETATM   15  O3  UNL     1      -5.297 -48.800  -3.637  1.00  0.00    -0.273 OA
HETATM   16  N4  UNL     1      -7.208 -47.623  -3.158  1.00  0.00    -0.349 N 
HETATM   17  C18 UNL     1      -8.009 -46.441  -2.933  1.00  0.00     0.129 C 
HETATM   18  C21 UNL     1      -8.143 -48.724  -2.936  1.00  0.00     0.162 C 
HETATM   19  C19 UNL     1      -9.281 -46.769  -3.708  1.00  0.00     0.058 C 
HETATM   20  C20 UNL     1      -9.355 -48.286  -3.723  1.00  0.00     0.189 C 
HETATM   21  F4  UNL     1     -10.538 -48.728  -3.163  1.00  0.00    -0.248 F 
ENDBRANCH  12  14
ENDBRANCH   1   6
BRANCH   4  22
HETATM   22  N1  UNL     1      -4.591 -46.529   4.552  1.00  0.00    -0.338 N 
HETATM   23  C6  UNL     1      -4.886 -46.170   5.870  1.00  0.00     0.319 C 
HETATM   24  O2  UNL     1      -5.597 -45.125   6.055  1.00  0.00    -0.247 OA
HETATM   25  N2  UNL     1      -4.463 -46.874   7.030  1.00  0.00    -0.321 N 
HETATM   26  C7  UNL     1      -3.650 -48.045   6.886  1.00  0.00     0.128 C 
HETATM   27  C11 UNL     1      -4.864 -46.411   8.347  1.00  0.00     0.196 C 
HETATM   28  C8  UNL     1      -2.748 -48.288   8.060  1.00  0.00     0.020 C 
HETATM   29  C9  UNL     1      -2.521 -47.100   8.938  1.00  0.00     0.004 C 
HETATM   30  C10 UNL     1      -3.784 -46.414   9.365  1.00  0.00     0.034 C 
ATOM     31  H1  UNL     1      -4.025 -47.363   4.390  1.00  0.00     0.164 HD
BRANCH  27  32
HETATM   32  C12 UNL     1      -6.102 -47.185   8.821  1.00  0.00     0.407 C 
HETATM   33  F1  UNL     1      -7.091 -46.309   9.228  1.00  0.00    -0.169 F 
HETATM   34  F2  UNL     1      -6.623 -47.992   7.856  1.00  0.00    -0.169 F 
HETATM   35  F3  UNL     1      -5.782 -47.961   9.914  1.00  0.00    -0.169 F 
ENDBRANCH  27  32
ENDBRANCH   4  22
TORSDOF 4
ENDMDL
MODEL 3
REMARK VINA RESULT: -7.717631270      2.519     11.221
REMARK  4 active torsions:
REMARK  status: ('A' for Active; 'I' for Inactive)
REMARK    1  A    between atoms: C1_2  and  C2_3 
REMARK       I    between atoms: C1_2  and  N3_22 
REMARK    2  A    between atoms: C5_6  and  N1_7 
REMARK       I    between atoms: N1_7  and  C6_9 
REMARK       I    between atoms: C6_9  and  N2_11 
REMARK    3  A    between atoms: C11_16  and  C12_17 
REMARK    4  A    between atoms: C16_25  and  C17_26 
REMARK       I    between atoms: C17_26  and  N4_28 
ROOT
HETATM    1  C2  UNL     1      -3.318 -46.485   3.750  1.00  0.00     0.080 C 
HETATM    2  C3  UNL     1      -4.207 -46.638   4.974  1.00  0.00     0.016 C 
HETATM    3  C4  UNL     1      -3.728 -47.958   5.602  1.00  0.00     0.026 C 
HETATM    4  C5  UNL     1      -2.256 -47.820   5.413  1.00  0.00     0.087 C 
HETATM    5  C13 UNL     1      -2.091 -47.324   4.005  1.00  0.00     0.039 C 
ENDROOT
BRANCH   1   6
HETATM    6  C1  UNL     1      -4.026 -46.963   2.525  1.00  0.00     0.224 C 
HETATM    7  O1  UNL     1      -5.046 -47.705   2.725  1.00  0.00    -0.273 OA
HETATM    8  N3  UNL     1      -3.666 -46.672   1.210  1.00  0.00    -0.352 N 
HETATM    9  C14 UNL     1      -2.552 -45.826   0.891  1.00  0.00     0.126 C 
HETATM   10  C23 UNL     1      -4.408 -47.222   0.100  1.00  0.00     0.126 C 
HETATM   11  C15 UNL     1      -3.063 -44.618   0.147  1.00  0.00     0.034 C 
HETATM   12  C16 UNL     1      -3.942 -45.020  -0.987  1.00  0.00     0.081 C 
HETATM   13  C22 UNL     1      -3.953 -46.526  -1.195  1.00  0.00     0.034 C 
BRANCH  12  14
HETATM   14  C17 UNL     1      -5.311 -44.512  -0.746  1.00  0.00     0.224 C 
HETATM   15  O3  UNL     1      -5.644 -44.239   0.442  1.00  0.00    -0.273 OA
HETATM   16  N4  UNL     1      -6.244 -44.328  -1.770  1.00  0.00    -0.349 N 
HETATM   17  C18 UNL     1      -6.043 -44.544  -3.185  1.00  0.00     0.129 C 
HETATM   18  C21 UNL     1      -7.637 -43.895  -1.680  1.00  0.00     0.162 C 
HETATM   19  C19 UNL     1      -7.298 -45.318  -3.570  1.00  0.00     0.058 C 
HETATM   20  C20 UNL     1      -8.348 -44.898  -2.556  1.00  0.00     0.189 C 
HETATM   21  F4  UNL     1      -9.455 -44.361  -3.185  1.00  0.00    -0.248 F 
ENDBRANCH  12  14
ENDBRANCH   1   6
BRANCH   4  22
HETATM   22  N1  UNL     1      -1.558 -49.090   5.608  1.00  0.00    -0.338 N 
HETATM   23  C6  UNL     1      -1.756 -49.903   6.727  1.00  0.00     0.319 C 
HETATM   24  O2  UNL     1      -2.590 -49.504   7.609  1.00  0.00    -0.247 OA
HETATM   25  N2  UNL     1      -1.108 -51.144   6.969  1.00  0.00    -0.321 N 
HETATM   26  C7  UNL     1      -0.150 -51.635   6.022  1.00  0.00     0.128 C 
HETATM   27  C11 UNL     1      -1.425 -51.908   8.163  1.00  0.00     0.196 C 
HETATM   28  C8  UNL     1       0.902 -52.506   6.642  1.00  0.00     0.020 C 
HETATM   29  C9  UNL     1       1.045 -52.367   8.123  1.00  0.00     0.004 C 
HETATM   30  C10 UNL     1      -0.251 -52.478   8.869  1.00  0.00     0.034 C 
ATOM     31  H1  UNL     1      -0.896 -49.397   4.894  1.00  0.00     0.164 HD
BRANCH  27  32
HETATM   32  C12 UNL     1      -2.474 -52.980   7.835  1.00  0.00     0.407 C 
HETATM   33  F1  UNL     1      -3.742 -52.428   7.834  1.00  0.00    -0.169 F 
HETATM   34  F2  UNL     1      -2.269 -53.570   6.625  1.00  0.00    -0.169 F 
HETATM   35  F3  UNL     1      -2.466 -53.959   8.806  1.00  0.00    -0.169 F 
ENDBRANCH  27  32
ENDBRANCH   4  22
TORSDOF 4
ENDMDL
MODEL 4
REMARK VINA RESULT: -7.577566224      1.466      1.830
REMARK  4 active torsions:
REMARK  status: ('A' for Active; 'I' for Inactive)
REMARK    1  A    between atoms: C1_2  and  C2_3 
REMARK       I    between atoms: C1_2  and  N3_22 
REMARK    2  A    between atoms: C5_6  and  N1_7 
REMARK       I    between atoms: N1_7  and  C6_9 
REMARK       I    between atoms: C6_9  and  N2_11 
REMARK    3  A    between atoms: C11_16  and  C12_17 
REMARK    4  A    between atoms: C16_25  and  C17_26 
REMARK       I    between atoms: C17_26  and  N4_28 
ROOT
HETATM    1  C2  UNL     1      -3.293 -48.643   5.254  1.00  0.00     0.080 C 
HETATM    2  C3  UNL     1      -3.391 -47.213   5.763  1.00  0.00     0.016 C 
HETATM    3  C4  UNL     1      -3.351 -46.372   4.475  1.00  0.00     0.026 C 
HETATM    4  C5  UNL     1      -4.211 -47.207   3.589  1.00  0.00     0.087 C 
HETATM    5  C13 UNL     1      -3.746 -48.617   3.815  1.00  0.00     0.039 C 
ENDROOT
BRANCH   1   6
HETATM    6  C1  UNL     1      -1.888 -49.137   5.346  1.00  0.00     0.224 C 
HETATM    7  O1  UNL     1      -0.991 -48.241   5.504  1.00  0.00    -0.273 OA
HETATM    8  N3  UNL     1      -1.485 -50.470   5.270  1.00  0.00    -0.352 N 
HETATM    9  C14 UNL     1      -2.424 -51.545   5.119  1.00  0.00     0.126 C 
HETATM   10  C23 UNL     1      -0.088 -50.826   5.336  1.00  0.00     0.126 C 
HETATM   11  C15 UNL     1      -2.324 -52.443   6.326  1.00  0.00     0.034 C 
HETATM   12  C16 UNL     1      -0.908 -52.825   6.593  1.00  0.00     0.081 C 
HETATM   13  C22 UNL     1       0.028 -52.353   5.491  1.00  0.00     0.034 C 
BRANCH  12  14
HETATM   14  C17 UNL     1      -0.495 -52.278   7.905  1.00  0.00     0.224 C 
HETATM   15  O3  UNL     1      -1.145 -51.302   8.374  1.00  0.00    -0.273 OA
HETATM   16  N4  UNL     1       0.580 -52.792   8.637  1.00  0.00    -0.349 N 
HETATM   17  C18 UNL     1       1.413 -53.921   8.291  1.00  0.00     0.129 C 
HETATM   18  C21 UNL     1       1.136 -52.326   9.905  1.00  0.00     0.162 C 
HETATM   19  C19 UNL     1       2.811 -53.378   8.564  1.00  0.00     0.058 C 
HETATM   20  C20 UNL     1       2.619 -52.306   9.622  1.00  0.00     0.189 C 
HETATM   21  F4  UNL     1       3.376 -52.580  10.745  1.00  0.00    -0.248 F 
ENDBRANCH  12  14
ENDBRANCH   1   6
BRANCH   4  22
HETATM   22  N1  UNL     1      -4.076 -46.830   2.183  1.00  0.00    -0.338 N 
HETATM   23  C6  UNL     1      -5.168 -46.499   1.376  1.00  0.00     0.319 C 
HETATM   24  O2  UNL     1      -6.329 -46.531   1.908  1.00  0.00    -0.247 OA
HETATM   25  N2  UNL     1      -5.097 -46.125   0.006  1.00  0.00    -0.321 N 
HETATM   26  C7  UNL     1      -3.823 -46.087  -0.648  1.00  0.00     0.128 C 
HETATM   27  C11 UNL     1      -6.309 -45.775  -0.714  1.00  0.00     0.196 C 
HETATM   28  C8  UNL     1      -3.907 -46.351  -2.123  1.00  0.00     0.020 C 
HETATM   29  C9  UNL     1      -5.166 -47.020  -2.574  1.00  0.00     0.004 C 
HETATM   30  C10 UNL     1      -6.414 -46.356  -2.076  1.00  0.00     0.034 C 
ATOM     31  H1  UNL     1      -3.142 -46.807   1.771  1.00  0.00     0.164 HD
BRANCH  27  32
HETATM   32  C12 UNL     1      -6.492 -44.252  -0.724  1.00  0.00     0.407 C 
HETATM   33  F1  UNL     1      -6.260 -43.730   0.535  1.00  0.00    -0.169 F 
HETATM   34  F2  UNL     1      -5.660 -43.624  -1.601  1.00  0.00    -0.169 F 
HETATM   35  F3  UNL     1      -7.793 -43.935  -1.053  1.00  0.00    -0.169 F 
ENDBRANCH  27  32
ENDBRANCH   4  22
TORSDOF 4
ENDMDL
MODEL 5
REMARK VINA RESULT: -7.241563043      3.234     10.935
REMARK  4 active torsions:
REMARK  status: ('A' for Active; 'I' for Inactive)
REMARK    1  A    between atoms: C1_2  and  C2_3 
REMARK       I    between atoms: C1_2  and  N3_22 
REMARK    2  A    between atoms: C5_6  and  N1_7 
REMARK       I    between atoms: N1_7  and  C6_9 
REMARK       I    between atoms: C6_9  and  N2_11 
REMARK    3  A    between atoms: C11_16  and  C12_17 
REMARK    4  A    between atoms: C16_25  and  C17_26 
REMARK       I    between atoms: C17_26  and  N4_28 
ROOT
HETATM    1  C2  UNL     1      -3.754 -46.205   2.969  1.00  0.00     0.080 C 
HETATM    2  C3  UNL     1      -5.015 -47.053   3.017  1.00  0.00     0.016 C 
HETATM    3  C4  UNL     1      -4.480 -48.479   3.232  1.00  0.00     0.026 C 
HETATM    4  C5  UNL     1      -3.390 -48.205   4.211  1.00  0.00     0.087 C 
HETATM    5  C13 UNL     1      -2.680 -46.997   3.672  1.00  0.00     0.039 C 
ENDROOT
BRANCH   1   6
HETATM    6  C1  UNL     1      -3.357 -45.935   1.556  1.00  0.00     0.224 C 
HETATM    7  O1  UNL     1      -2.244 -46.438   1.183  1.00  0.00    -0.273 OA
HETATM    8  N3  UNL     1      -4.088 -45.188   0.632  1.00  0.00    -0.352 N 
HETATM    9  C14 UNL     1      -5.360 -44.607   0.953  1.00  0.00     0.126 C 
HETATM   10  C23 UNL     1      -3.584 -44.963  -0.702  1.00  0.00     0.126 C 
HETATM   11  C15 UNL     1      -6.406 -45.213   0.051  1.00  0.00     0.034 C 
HETATM   12  C16 UNL     1      -5.984 -45.148  -1.377  1.00  0.00     0.081 C 
HETATM   13  C22 UNL     1      -4.705 -44.346  -1.558  1.00  0.00     0.034 C 
BRANCH  12  14
HETATM   14  C17 UNL     1      -5.821 -46.524  -1.899  1.00  0.00     0.224 C 
HETATM   15  O3  UNL     1      -4.655 -46.920  -2.181  1.00  0.00    -0.273 OA
HETATM   16  N4  UNL     1      -6.898 -47.393  -2.095  1.00  0.00    -0.349 N 
HETATM   17  C18 UNL     1      -8.290 -47.141  -1.797  1.00  0.00     0.129 C 
HETATM   18  C21 UNL     1      -6.902 -48.744  -2.651  1.00  0.00     0.162 C 
HETATM   19  C19 UNL     1      -8.980 -47.639  -3.062  1.00  0.00     0.058 C 
HETATM   20  C20 UNL     1      -8.045 -48.689  -3.636  1.00  0.00     0.189 C 
HETATM   21  F4  UNL     1      -8.689 -49.904  -3.768  1.00  0.00    -0.248 F 
ENDBRANCH  12  14
ENDBRANCH   1   6
BRANCH   4  22
HETATM   22  N1  UNL     1      -2.474 -49.337   4.341  1.00  0.00    -0.338 N 
HETATM   23  C6  UNL     1      -2.100 -49.875   5.576  1.00  0.00     0.319 C 
HETATM   24  O2  UNL     1      -2.591 -49.341   6.628  1.00  0.00    -0.247 OA
HETATM   25  N2  UNL     1      -1.216 -50.972   5.763  1.00  0.00    -0.321 N 
HETATM   26  C7  UNL     1      -0.622 -51.600   4.620  1.00  0.00     0.128 C 
HETATM   27  C11 UNL     1      -0.930 -51.454   7.103  1.00  0.00     0.196 C 
HETATM   28  C8  UNL     1       0.712 -52.220   4.912  1.00  0.00     0.020 C 
HETATM   29  C9  UNL     1       1.380 -51.725   6.154  1.00  0.00     0.004 C 
HETATM   30  C10 UNL     1       0.499 -51.752   7.366  1.00  0.00     0.034 C 
ATOM     31  H1  UNL     1      -2.091 -49.754   3.493  1.00  0.00     0.164 HD
BRANCH  27  32
HETATM   32  C12 UNL     1      -1.837 -52.647   7.435  1.00  0.00     0.407 C 
HETATM   33  F1  UNL     1      -3.071 -52.207   7.875  1.00  0.00    -0.169 F 
HETATM   34  F2  UNL     1      -2.038 -53.473   6.371  1.00  0.00    -0.169 F 
HETATM   35  F3  UNL     1      -1.287 -53.385   8.462  1.00  0.00    -0.169 F 
ENDBRANCH  27  32
ENDBRANCH   4  22
TORSDOF 4
ENDMDL
