MODEL 1
REMARK VINA RESULT: -6.733923751      0.000      0.000
REMARK  3 active torsions:
REMARK  status: ('A' for Active; 'I' for Inactive)
REMARK    1  A    between atoms: C4_4  and  C5_5 
REMARK    2  A    between atoms: C8_8  and  N1_9 
REMARK       I    between atoms: N1_9  and  C9_11 
REMARK       I    between atoms: C9_11  and  N2_13 
REMARK    3  A    between atoms: C13_18  and  C14_19 
ROOT
HETATM    1  N1  UNL     1      -7.177 -44.858   0.177  1.00  0.00    -0.321 N 
ATOM      2  H1  UNL     1      -7.787 -45.399   0.791  1.00  0.00     0.166 HD
HETATM    3  C9  UNL     1      -5.793 -44.790   0.498  1.00  0.00     0.320 C 
HETATM    4  O1  UNL     1      -5.082 -44.112  -0.286  1.00  0.00    -0.247 OA
HETATM    5  N2  UNL     1      -5.234 -45.439   1.629  1.00  0.00    -0.326 N 
HETATM    6  C10 UNL     1      -6.008 -46.222   2.550  1.00  0.00     0.153 C 
HETATM    7  C11 UNL     1      -5.156 -46.303   3.773  1.00  0.00     0.078 A 
HETATM    8 BR1  UNL     1      -5.706 -45.501   5.419  1.00  0.00    -0.080 Br
HETATM    9  C12 UNL     1      -3.715 -46.143   3.321  1.00  0.00     0.074 A 
HETATM   10  C13 UNL     1      -3.850 -45.438   2.052  1.00  0.00     0.115 C 
HETATM   11  C16 UNL     1      -4.188 -47.435   3.750  1.00  0.00     0.140 A 
HETATM   12 CL2  UNL     1      -4.575 -48.798   2.718  1.00  0.00    -0.099 Cl
HETATM   13 CL3  UNL     1      -3.769 -47.976   5.421  1.00  0.00    -0.099 Cl
ENDROOT
BRANCH   1  14
HETATM   14  C8  UNL     1      -7.768 -44.208  -0.965  1.00  0.00     0.195 C 
HETATM   15  C4  UNL     1      -7.795 -45.006  -2.213  1.00  0.00     0.033 C 
HETATM   16  C3  UNL     1      -9.049 -44.826  -3.051  1.00  0.00     0.022 C 
HETATM   17  C2  UNL     1      -9.510 -43.391  -3.080  1.00  0.00     0.074 C 
HETATM   18  C1  UNL     1     -10.865 -43.379  -3.767  1.00  0.00     0.020 C 
HETATM   19  C18 UNL     1      -9.752 -42.942  -1.666  1.00  0.00     0.225 C 
HETATM   20  N3  UNL     1      -9.051 -43.614  -0.640  1.00  0.00    -0.334 N 
HETATM   21  O2  UNL     1     -10.559 -41.999  -1.476  1.00  0.00    -0.273 OA
HETATM   22  C17 UNL     1      -9.667 -43.659   0.670  1.00  0.00     0.154 C 
BRANCH  15  23
HETATM   23  C5  UNL     1      -7.629 -46.501  -2.055  1.00  0.00    -0.015 C 
HETATM   24  C6  UNL     1      -6.266 -47.002  -2.392  1.00  0.00     0.010 C 
HETATM   25  C7  UNL     1      -8.765 -47.306  -2.604  1.00  0.00     0.010 C 
ENDBRANCH  15  23
ENDBRANCH   1  14
BRANCH  10  26
HETATM   26  C14 UNL     1      -2.866 -45.772   0.983  1.00  0.00     0.101 C 
HETATM   27  C15 UNL     1      -1.519 -46.055   1.667  1.00  0.00     0.029 C 
HETATM   28 CL1  UNL     1      -3.246 -47.090  -0.071  1.00  0.00    -0.123 Cl
ENDBRANCH  10  26
TORSDOF 3
ENDMDL
MODEL 2
REMARK VINA RESULT: -4.712420022      3.511      7.393
REMARK  3 active torsions:
REMARK  status: ('A' for Active; 'I' for Inactive)
REMARK    1  A    between atoms: C4_4  and  C5_5 
REMARK    2  A    between atoms: C8_8  and  N1_9 
REMARK       I    between atoms: N1_9  and  C9_11 
REMARK       I    between atoms: C9_11  and  N2_13 
REMARK    3  A    between atoms: C13_18  and  C14_19 
ROOT
HETATM    1  N1  UNL     1      -5.827 -45.356   1.060  1.00  0.00    -0.321 N 
ATOM      2  H1  UNL     1      -5.763 -44.349   1.207  1.00  0.00     0.166 HD
HETATM    3  C9  UNL     1      -6.703 -45.831   0.045  1.00  0.00     0.320 C 
HETATM    4  O1  UNL     1      -6.750 -47.079  -0.098  1.00  0.00    -0.247 OA
HETATM    5  N2  UNL     1      -7.483 -44.965  -0.763  1.00  0.00    -0.326 N 
HETATM    6  C10 UNL     1      -7.462 -43.536  -0.634  1.00  0.00     0.153 C 
HETATM    7  C11 UNL     1      -8.716 -43.085  -1.305  1.00  0.00     0.078 A 
HETATM    8 BR1  UNL     1     -10.117 -42.233  -0.319  1.00  0.00    -0.080 Br
HETATM    9  C12 UNL     1      -9.077 -44.145  -2.330  1.00  0.00     0.074 A 
HETATM   10  C13 UNL     1      -8.404 -45.333  -1.818  1.00  0.00     0.115 C 
HETATM   11  C16 UNL     1      -8.565 -42.873  -2.771  1.00  0.00     0.140 A 
HETATM   12 CL2  UNL     1      -6.949 -42.552  -3.370  1.00  0.00    -0.099 Cl
HETATM   13 CL3  UNL     1      -9.746 -41.654  -3.386  1.00  0.00    -0.099 Cl
ENDROOT
BRANCH   1  14
HETATM   14  C8  UNL     1      -5.025 -46.216   1.893  1.00  0.00     0.195 C 
HETATM   15  C4  UNL     1      -3.616 -46.385   1.470  1.00  0.00     0.033 C 
HETATM   16  C3  UNL     1      -2.617 -46.457   2.612  1.00  0.00     0.022 C 
HETATM   17  C2  UNL     1      -3.142 -47.262   3.774  1.00  0.00     0.074 C 
HETATM   18  C1  UNL     1      -2.152 -47.088   4.913  1.00  0.00     0.020 C 
HETATM   19  C18 UNL     1      -4.430 -46.641   4.238  1.00  0.00     0.225 C 
HETATM   20  N3  UNL     1      -5.163 -45.881   3.299  1.00  0.00    -0.334 N 
HETATM   21  O2  UNL     1      -4.781 -46.831   5.428  1.00  0.00    -0.273 OA
HETATM   22  C17 UNL     1      -6.004 -44.820   3.810  1.00  0.00     0.154 C 
BRANCH  15  23
HETATM   23  C5  UNL     1      -3.071 -45.335   0.527  1.00  0.00    -0.015 C 
HETATM   24  C6  UNL     1      -3.383 -45.585  -0.909  1.00  0.00     0.010 C 
HETATM   25  C7  UNL     1      -1.662 -44.922   0.816  1.00  0.00     0.010 C 
ENDBRANCH  15  23
ENDBRANCH   1  14
BRANCH  10  26
HETATM   26  C14 UNL     1      -7.858 -46.289  -2.823  1.00  0.00     0.101 C 
HETATM   27  C15 UNL     1      -9.006 -46.671  -3.768  1.00  0.00     0.029 C 
HETATM   28 CL1  UNL     1      -6.504 -45.770  -3.768  1.00  0.00    -0.123 Cl
ENDBRANCH  10  26
TORSDOF 3
ENDMDL
MODEL 3
REMARK VINA RESULT: -4.467887674      4.989      7.697
REMARK  3 active torsions:
REMARK  status: ('A' for Active; 'I' for Inactive)
REMARK    1  A    between atoms: C4_4  and  C5_5 
REMARK    2  A    between atoms: C8_8  and  N1_9 
REMARK       I    between atoms: N1_9  and  C9_11 
REMARK       I    between atoms: C9_11  and  N2_13 
REMARK    3  A    between atoms: C13_18  and  C14_19 
ROOT
HETATM    1  N1  UNL     1      -4.257 -46.126   3.592  1.00  0.00    -0.321 N 
ATOM      2  H1  UNL     1      -5.182 -46.078   3.164  1.00  0.00     0.166 HD
HETATM    3  C9  UNL     1      -3.123 -46.177   2.735  1.00  0.00     0.320 C 
HETATM    4  O1  UNL     1      -2.006 -46.236   3.307  1.00  0.00    -0.247 OA
HETATM    5  N2  UNL     1      -3.229 -46.165   1.320  1.00  0.00    -0.326 N 
HETATM    6  C10 UNL     1      -4.482 -46.100   0.625  1.00  0.00     0.153 C 
HETATM    7  C11 UNL     1      -4.166 -46.575  -0.754  1.00  0.00     0.078 A 
HETATM    8 BR1  UNL     1      -4.917 -48.193  -1.442  1.00  0.00    -0.080 Br
HETATM    9  C12 UNL     1      -2.695 -46.284  -0.997  1.00  0.00     0.074 A 
HETATM   10  C13 UNL     1      -2.152 -46.215   0.354  1.00  0.00     0.115 C 
HETATM   11  C16 UNL     1      -3.697 -45.492  -1.664  1.00  0.00     0.140 A 
HETATM   12 CL2  UNL     1      -4.166 -43.852  -1.262  1.00  0.00    -0.099 Cl
HETATM   13 CL3  UNL     1      -4.067 -45.876  -3.389  1.00  0.00    -0.099 Cl
ENDROOT
BRANCH   1  14
HETATM   14  C8  UNL     1      -4.175 -46.137   5.030  1.00  0.00     0.195 C 
HETATM   15  C4  UNL     1      -5.241 -45.390   5.738  1.00  0.00     0.033 C 
HETATM   16  C3  UNL     1      -5.724 -46.042   7.022  1.00  0.00     0.022 C 
HETATM   17  C2  UNL     1      -4.591 -46.642   7.814  1.00  0.00     0.074 C 
HETATM   18  C1  UNL     1      -5.217 -47.430   8.952  1.00  0.00     0.020 C 
HETATM   19  C18 UNL     1      -3.884 -47.646   6.947  1.00  0.00     0.225 C 
HETATM   20  N3  UNL     1      -3.980 -47.479   5.547  1.00  0.00    -0.334 N 
HETATM   21  O2  UNL     1      -3.252 -48.572   7.510  1.00  0.00    -0.273 OA
HETATM   22  C17 UNL     1      -3.874 -48.666   4.725  1.00  0.00     0.154 C 
BRANCH  15  23
HETATM   23  C5  UNL     1      -6.493 -45.096   4.942  1.00  0.00    -0.015 C 
HETATM   24  C6  UNL     1      -7.208 -43.859   5.365  1.00  0.00     0.010 C 
HETATM   25  C7  UNL     1      -7.362 -46.290   4.700  1.00  0.00     0.010 C 
ENDBRANCH  15  23
ENDBRANCH   1  14
BRANCH  10  26
HETATM   26  C14 UNL     1      -1.049 -45.240   0.592  1.00  0.00     0.101 C 
HETATM   27  C15 UNL     1       0.177 -45.727  -0.196  1.00  0.00     0.029 C 
HETATM   28 CL1  UNL     1      -1.346 -43.582   0.196  1.00  0.00    -0.123 Cl
ENDBRANCH  10  26
TORSDOF 3
ENDMDL
MODEL 4
REMARK VINA RESULT: -4.340234772      3.797      7.667
REMARK  3 active torsions:
REMARK  status: ('A' for Active; 'I' for Inactive)
REMARK    1  A    between atoms: C4_4  and  C5_5 
REMARK    2  A    between atoms: C8_8  and  N1_9 
REMARK       I    between atoms: N1_9  and  C9_11 
REMARK       I    between atoms: C9_11  and  N2_13 
REMARK    3  A    between atoms: C13_18  and  C14_19 
ROOT
HETATM    1  N1  UNL     1      -5.256 -46.808   1.889  1.00  0.00    -0.321 N 
ATOM      2  H1  UNL     1      -6.104 -47.373   1.947  1.00  0.00     0.166 HD
HETATM    3  C9  UNL     1      -5.025 -46.065   0.698  1.00  0.00     0.320 C 
HETATM    4  O1  UNL     1      -3.968 -45.386   0.673  1.00  0.00    -0.247 OA
HETATM    5  N2  UNL     1      -5.922 -46.078  -0.401  1.00  0.00    -0.326 N 
HETATM    6  C10 UNL     1      -7.138 -46.839  -0.416  1.00  0.00     0.153 C 
HETATM    7  C11 UNL     1      -7.496 -46.936  -1.862  1.00  0.00     0.078 A 
HETATM    8 BR1  UNL     1      -7.513 -48.620  -2.767  1.00  0.00    -0.080 Br
HETATM    9  C12 UNL     1      -6.878 -45.734  -2.554  1.00  0.00     0.074 A 
HETATM   10  C13 UNL     1      -5.790 -45.367  -1.656  1.00  0.00     0.115 C 
HETATM   11  C16 UNL     1      -8.305 -45.786  -2.354  1.00  0.00     0.140 A 
HETATM   12 CL2  UNL     1      -9.223 -44.886  -1.163  1.00  0.00    -0.099 Cl
HETATM   13 CL3  UNL     1      -9.337 -46.259  -3.757  1.00  0.00    -0.099 Cl
ENDROOT
BRANCH   1  14
HETATM   14  C8  UNL     1      -4.361 -46.811   3.018  1.00  0.00     0.195 C 
HETATM   15  C4  UNL     1      -4.767 -45.958   4.159  1.00  0.00     0.033 C 
HETATM   16  C3  UNL     1      -4.467 -46.546   5.527  1.00  0.00     0.022 C 
HETATM   17  C2  UNL     1      -3.131 -47.243   5.563  1.00  0.00     0.074 C 
HETATM   18  C1  UNL     1      -3.042 -47.955   6.902  1.00  0.00     0.020 C 
HETATM   19  C18 UNL     1      -3.128 -48.319   4.513  1.00  0.00     0.225 C 
HETATM   20  N3  UNL     1      -4.001 -48.159   3.414  1.00  0.00    -0.334 N 
HETATM   21  O2  UNL     1      -2.354 -49.295   4.671  1.00  0.00    -0.273 OA
HETATM   22  C17 UNL     1      -4.473 -49.361   2.758  1.00  0.00     0.154 C 
BRANCH  15  23
HETATM   23  C5  UNL     1      -6.224 -45.555   4.207  1.00  0.00    -0.015 C 
HETATM   24  C6  UNL     1      -6.595 -44.492   3.229  1.00  0.00     0.010 C 
HETATM   25  C7  UNL     1      -6.767 -45.375   5.590  1.00  0.00     0.010 C 
ENDBRANCH  15  23
ENDBRANCH   1  14
BRANCH  10  26
HETATM   26  C14 UNL     1      -5.479 -43.915  -1.525  1.00  0.00     0.101 C 
HETATM   27  C15 UNL     1      -5.654 -43.279  -2.912  1.00  0.00     0.029 C 
HETATM   28 CL1  UNL     1      -6.390 -43.002  -0.372  1.00  0.00    -0.123 Cl
ENDBRANCH  10  26
TORSDOF 3
ENDMDL
MODEL 5
REMARK VINA RESULT: -4.213482890      3.897      7.426
REMARK  3 active torsions:
REMARK  status: ('A' for Active; 'I' for Inactive)
REMARK    1  A    between atoms: C4_4  and  C5_5 
REMARK    2  A    between atoms: C8_8  and  N1_9 
REMARK       I    between atoms: N1_9  and  C9_11 
REMARK       I    between atoms: C9_11  and  N2_13 
REMARK    3  A    between atoms: C13_18  and  C14_19 
ROOT
HETATM    1  N1  UNL     1      -6.856 -45.016   3.227  1.00  0.00    -0.321 N 
ATOM      2  H1  UNL     1      -6.178 -45.679   2.852  1.00  0.00     0.166 HD
HETATM    3  C9  UNL     1      -7.575 -44.200   2.310  1.00  0.00     0.320 C 
HETATM    4  O1  UNL     1      -8.397 -43.397   2.819  1.00  0.00    -0.247 OA
HETATM    5  N2  UNL     1      -7.387 -44.274   0.906  1.00  0.00    -0.326 N 
HETATM    6  C10 UNL     1      -6.458 -45.173   0.282  1.00  0.00     0.153 C 
HETATM    7  C11 UNL     1      -6.250 -44.604  -1.081  1.00  0.00     0.078 A 
HETATM    8 BR1  UNL     1      -4.545 -43.929  -1.624  1.00  0.00    -0.080 Br
HETATM    9  C12 UNL     1      -7.499 -43.811  -1.427  1.00  0.00     0.074 A 
HETATM   10  C13 UNL     1      -8.056 -43.497  -0.116  1.00  0.00     0.115 C 
HETATM   11  C16 UNL     1      -7.250 -45.071  -2.082  1.00  0.00     0.140 A 
HETATM   12 CL2  UNL     1      -8.057 -46.592  -1.755  1.00  0.00    -0.099 Cl
HETATM   13 CL3  UNL     1      -6.574 -45.033  -3.755  1.00  0.00    -0.099 Cl
ENDROOT
BRANCH   1  14
HETATM   14  C8  UNL     1      -7.029 -44.959   4.656  1.00  0.00     0.195 C 
HETATM   15  C4  UNL     1      -6.219 -45.922   5.438  1.00  0.00     0.033 C 
HETATM   16  C3  UNL     1      -5.684 -45.378   6.752  1.00  0.00     0.022 C 
HETATM   17  C2  UNL     1      -6.695 -44.514   7.461  1.00  0.00     0.074 C 
HETATM   18  C1  UNL     1      -5.978 -43.874   8.638  1.00  0.00     0.020 C 
HETATM   19  C18 UNL     1      -7.085 -43.388   6.544  1.00  0.00     0.225 C 
HETATM   20  N3  UNL     1      -6.937 -43.599   5.155  1.00  0.00    -0.334 N 
HETATM   21  O2  UNL     1      -7.518 -42.330   7.060  1.00  0.00    -0.273 OA
HETATM   22  C17 UNL     1      -6.705 -42.436   4.325  1.00  0.00     0.154 C 
BRANCH  15  23
HETATM   23  C5  UNL     1      -5.021 -46.516   4.732  1.00  0.00    -0.015 C 
HETATM   24  C6  UNL     1      -5.363 -47.329   3.531  1.00  0.00     0.010 C 
HETATM   25  C7  UNL     1      -4.004 -47.120   5.649  1.00  0.00     0.010 C 
ENDBRANCH  15  23
ENDBRANCH   1  14
BRANCH  10  26
HETATM   26  C14 UNL     1      -9.542 -43.459  -0.003  1.00  0.00     0.101 C 
HETATM   27  C15 UNL     1      -9.935 -42.041   0.438  1.00  0.00     0.029 C 
HETATM   28 CL1  UNL     1     -10.463 -43.883  -1.405  1.00  0.00    -0.123 Cl
ENDBRANCH  10  26
TORSDOF 3
ENDMDL
