MODEL 1
REMARK VINA RESULT: -6.178252528      0.000      0.000
REMARK  3 active torsions:
REMARK  status: ('A' for Active; 'I' for Inactive)
REMARK    1  A    between atoms: C2_2  and  C3_3 
REMARK    2  A    between atoms: C8_11  and  C9_12 
REMARK       I    between atoms: C9_12  and  N1_14 
REMARK    3  A    between atoms: C10_16  and  N2_18 
ROOT
HETATM    1  C9  UNL     1      -5.862 -45.686   0.743  1.00  0.00     0.229 C 
HETATM    2  O3  UNL     1      -6.393 -45.557   1.855  1.00  0.00    -0.273 OA
HETATM    3  N1  UNL     1      -4.462 -45.510   0.634  1.00  0.00    -0.307 N 
ATOM      4  H1  UNL     1      -4.114 -45.059  -0.212  1.00  0.00     0.171 HD
HETATM    5  C10 UNL     1      -3.601 -45.865   1.497  1.00  0.00     0.154 C 
HETATM    6 BR2  UNL     1      -1.756 -45.505   1.096  1.00  0.00    -0.011 Br
ENDROOT
BRANCH   1   7
HETATM    7  C8  UNL     1      -6.629 -46.012  -0.441  1.00  0.00     0.104 C 
HETATM    8  C4  UNL     1      -7.920 -45.280  -0.707  1.00  0.00     0.020 C 
HETATM    9  C2  UNL     1      -7.648 -45.619  -2.162  1.00  0.00     0.067 C 
HETATM   10  C5  UNL     1      -7.555 -43.830  -0.686  1.00  0.00     0.008 C 
HETATM   11  C1  UNL     1      -8.181 -44.693  -3.196  1.00  0.00     0.029 C 
HETATM   12  C7  UNL     1      -6.189 -45.357  -1.761  1.00  0.00     0.048 C 
HETATM   13  C6  UNL     1      -6.203 -43.904  -1.395  1.00  0.00     0.024 C 
HETATM   14 BR1  UNL     1      -4.826 -46.109  -2.736  1.00  0.00    -0.083 Br
BRANCH   9  15
HETATM   15  C3  UNL     1      -7.983 -47.011  -2.477  1.00  0.00     0.183 C 
HETATM   16  O1  UNL     1      -7.155 -47.955  -2.557  1.00  0.00    -0.647 OA
HETATM   17  O2  UNL     1      -9.317 -47.333  -2.707  1.00  0.00    -0.647 OA
ENDBRANCH   9  15
ENDBRANCH   1   7
BRANCH   5  18
HETATM   18  N2  UNL     1      -3.894 -46.505   2.731  1.00  0.00    -0.355 N 
HETATM   19  C11 UNL     1      -4.225 -45.931   4.016  1.00  0.00     0.131 C 
HETATM   20  C12 UNL     1      -3.872 -46.970   5.047  1.00  0.00     0.100 C 
HETATM   21  C13 UNL     1      -3.178 -48.060   4.261  1.00  0.00     0.261 C 
HETATM   22  F1  UNL     1      -1.850 -47.674   4.124  1.00  0.00    -0.204 F 
HETATM   23  F2  UNL     1      -3.316 -49.297   4.824  1.00  0.00    -0.204 F 
HETATM   24  C14 UNL     1      -3.910 -47.958   2.915  1.00  0.00     0.204 C 
ENDBRANCH   5  18
TORSDOF 3
ENDMDL
MODEL 2
REMARK VINA RESULT: -6.010941350      2.294      2.756
REMARK  3 active torsions:
REMARK  status: ('A' for Active; 'I' for Inactive)
REMARK    1  A    between atoms: C2_2  and  C3_3 
REMARK    2  A    between atoms: C8_11  and  C9_12 
REMARK       I    between atoms: C9_12  and  N1_14 
REMARK    3  A    between atoms: C10_16  and  N2_18 
ROOT
HETATM    1  C9  UNL     1      -4.658 -44.688   0.371  1.00  0.00     0.229 C 
HETATM    2  O3  UNL     1      -5.199 -44.706   1.486  1.00  0.00    -0.273 OA
HETATM    3  N1  UNL     1      -3.267 -44.939   0.286  1.00  0.00    -0.307 N 
ATOM      4  H1  UNL     1      -2.739 -44.408  -0.406  1.00  0.00     0.171 HD
HETATM    5  C10 UNL     1      -2.619 -45.769   0.997  1.00  0.00     0.154 C 
HETATM    6 BR2  UNL     1      -0.730 -45.913   0.674  1.00  0.00    -0.011 Br
ENDROOT
BRANCH   1   7
HETATM    7  C8  UNL     1      -5.404 -44.420  -0.841  1.00  0.00     0.104 C 
HETATM    8  C4  UNL     1      -5.231 -45.330  -2.030  1.00  0.00     0.020 C 
HETATM    9  C2  UNL     1      -6.627 -44.867  -2.408  1.00  0.00     0.067 C 
HETATM   10  C5  UNL     1      -5.524 -46.702  -1.512  1.00  0.00     0.008 C 
HETATM   11  C1  UNL     1      -7.474 -45.804  -3.194  1.00  0.00     0.029 C 
HETATM   12  C7  UNL     1      -6.858 -44.918  -0.890  1.00  0.00     0.048 C 
HETATM   13  C6  UNL     1      -6.688 -46.373  -0.578  1.00  0.00     0.024 C 
HETATM   14 BR1  UNL     1      -8.191 -43.902  -0.137  1.00  0.00    -0.083 Br
BRANCH   9  15
HETATM   15  C3  UNL     1      -6.622 -43.530  -3.009  1.00  0.00     0.183 C 
HETATM   16  O1  UNL     1      -5.611 -42.791  -3.124  1.00  0.00    -0.647 OA
HETATM   17  O2  UNL     1      -7.822 -43.022  -3.497  1.00  0.00    -0.647 OA
ENDBRANCH   9  15
ENDBRANCH   1   7
BRANCH   5  18
HETATM   18  N2  UNL     1      -3.180 -46.594   2.008  1.00  0.00    -0.355 N 
HETATM   19  C11 UNL     1      -4.235 -47.579   1.920  1.00  0.00     0.131 C 
HETATM   20  C12 UNL     1      -4.803 -47.714   3.308  1.00  0.00     0.100 C 
HETATM   21  C13 UNL     1      -4.114 -46.629   4.105  1.00  0.00     0.261 C 
HETATM   22  F1  UNL     1      -4.819 -45.454   3.878  1.00  0.00    -0.204 F 
HETATM   23  F2  UNL     1      -3.998 -46.931   5.433  1.00  0.00    -0.204 F 
HETATM   24  C14 UNL     1      -2.747 -46.581   3.408  1.00  0.00     0.204 C 
ENDBRANCH   5  18
TORSDOF 3
ENDMDL
MODEL 3
REMARK VINA RESULT: -5.894041973      4.471      5.938
REMARK  3 active torsions:
REMARK  status: ('A' for Active; 'I' for Inactive)
REMARK    1  A    between atoms: C2_2  and  C3_3 
REMARK    2  A    between atoms: C8_11  and  C9_12 
REMARK       I    between atoms: C9_12  and  N1_14 
REMARK    3  A    between atoms: C10_16  and  N2_18 
ROOT
HETATM    1  C9  UNL     1      -5.021 -46.338   4.957  1.00  0.00     0.229 C 
HETATM    2  O3  UNL     1      -5.216 -47.461   5.442  1.00  0.00    -0.273 OA
HETATM    3  N1  UNL     1      -5.530 -45.206   5.637  1.00  0.00    -0.307 N 
ATOM      4  H1  UNL     1      -5.888 -44.441   5.064  1.00  0.00     0.171 HD
HETATM    5  C10 UNL     1      -5.581 -45.059   6.897  1.00  0.00     0.154 C 
HETATM    6 BR2  UNL     1      -6.325 -43.415   7.559  1.00  0.00    -0.011 Br
ENDROOT
BRANCH   1   7
HETATM    7  C8  UNL     1      -4.289 -46.152   3.721  1.00  0.00     0.104 C 
HETATM    8  C4  UNL     1      -3.709 -47.354   3.020  1.00  0.00     0.020 C 
HETATM    9  C2  UNL     1      -3.818 -46.500   1.769  1.00  0.00     0.067 C 
HETATM   10  C5  UNL     1      -4.865 -48.283   2.825  1.00  0.00     0.008 C 
HETATM   11  C1  UNL     1      -4.011 -47.202   0.472  1.00  0.00     0.029 C 
HETATM   12  C7  UNL     1      -5.117 -46.017   2.432  1.00  0.00     0.048 C 
HETATM   13  C6  UNL     1      -5.948 -47.263   2.478  1.00  0.00     0.024 C 
HETATM   14 BR1  UNL     1      -5.822 -44.384   1.974  1.00  0.00    -0.083 Br
BRANCH   9  15
HETATM   15  C3  UNL     1      -2.741 -45.510   1.679  1.00  0.00     0.183 C 
HETATM   16  O1  UNL     1      -1.671 -45.543   2.339  1.00  0.00    -0.647 OA
HETATM   17  O2  UNL     1      -2.896 -44.444   0.799  1.00  0.00    -0.647 OA
ENDBRANCH   9  15
ENDBRANCH   1   7
BRANCH   5  18
HETATM   18  N2  UNL     1      -5.133 -46.011   7.851  1.00  0.00    -0.355 N 
HETATM   19  C11 UNL     1      -5.837 -47.121   8.453  1.00  0.00     0.131 C 
HETATM   20  C12 UNL     1      -5.134 -47.414   9.752  1.00  0.00     0.100 C 
HETATM   21  C13 UNL     1      -4.124 -46.296   9.894  1.00  0.00     0.261 C 
HETATM   22  F1  UNL     1      -4.799 -45.214  10.447  1.00  0.00    -0.204 F 
HETATM   23  F2  UNL     1      -3.022 -46.658  10.614  1.00  0.00    -0.204 F 
HETATM   24  C14 UNL     1      -3.784 -46.023   8.422  1.00  0.00     0.204 C 
ENDBRANCH   5  18
TORSDOF 3
ENDMDL
MODEL 4
REMARK VINA RESULT: -5.765607713      2.563      3.136
REMARK  3 active torsions:
REMARK  status: ('A' for Active; 'I' for Inactive)
REMARK    1  A    between atoms: C2_2  and  C3_3 
REMARK    2  A    between atoms: C8_11  and  C9_12 
REMARK       I    between atoms: C9_12  and  N1_14 
REMARK    3  A    between atoms: C10_16  and  N2_18 
ROOT
HETATM    1  C9  UNL     1      -5.881 -46.070   0.431  1.00  0.00     0.229 C 
HETATM    2  O3  UNL     1      -5.367 -47.196   0.365  1.00  0.00    -0.273 OA
HETATM    3  N1  UNL     1      -6.405 -45.634   1.671  1.00  0.00    -0.307 N 
ATOM      4  H1  UNL     1      -7.257 -45.074   1.646  1.00  0.00     0.171 HD
HETATM    5  C10 UNL     1      -5.908 -45.880   2.814  1.00  0.00     0.154 C 
HETATM    6 BR2  UNL     1      -6.825 -45.163   4.343  1.00  0.00    -0.011 Br
ENDROOT
BRANCH   1   7
HETATM    7  C8  UNL     1      -5.960 -45.193  -0.719  1.00  0.00     0.104 C 
HETATM    8  C4  UNL     1      -5.794 -45.773  -2.100  1.00  0.00     0.020 C 
HETATM    9  C2  UNL     1      -6.619 -44.578  -2.546  1.00  0.00     0.067 C 
HETATM   10  C5  UNL     1      -6.813 -46.864  -2.187  1.00  0.00     0.008 C 
HETATM   11  C1  UNL     1      -7.453 -44.736  -3.768  1.00  0.00     0.029 C 
HETATM   12  C7  UNL     1      -7.365 -44.832  -1.228  1.00  0.00     0.048 C 
HETATM   13  C6  UNL     1      -7.964 -46.189  -1.442  1.00  0.00     0.024 C 
HETATM   14 BR1  UNL     1      -8.296 -43.465  -0.429  1.00  0.00    -0.083 Br
BRANCH   9  15
HETATM   15  C3  UNL     1      -5.825 -43.348  -2.603  1.00  0.00     0.183 C 
HETATM   16  O1  UNL     1      -4.931 -43.024  -1.780  1.00  0.00    -0.647 OA
HETATM   17  O2  UNL     1      -6.063 -42.456  -3.645  1.00  0.00    -0.647 OA
ENDBRANCH   9  15
ENDBRANCH   1   7
BRANCH   5  18
HETATM   18  N2  UNL     1      -4.731 -46.640   3.048  1.00  0.00    -0.355 N 
HETATM   19  C11 UNL     1      -4.563 -48.069   3.181  1.00  0.00     0.131 C 
HETATM   20  C12 UNL     1      -3.295 -48.275   3.965  1.00  0.00     0.100 C 
HETATM   21  C13 UNL     1      -2.884 -46.883   4.391  1.00  0.00     0.261 C 
HETATM   22  F1  UNL     1      -3.605 -46.586   5.541  1.00  0.00    -0.204 F 
HETATM   23  F2  UNL     1      -1.535 -46.750   4.561  1.00  0.00    -0.204 F 
HETATM   24  C14 UNL     1      -3.397 -46.054   3.205  1.00  0.00     0.204 C 
ENDBRANCH   5  18
TORSDOF 3
ENDMDL
MODEL 5
REMARK VINA RESULT: -5.711241417      4.452      5.781
REMARK  3 active torsions:
REMARK  status: ('A' for Active; 'I' for Inactive)
REMARK    1  A    between atoms: C2_2  and  C3_3 
REMARK    2  A    between atoms: C8_11  and  C9_12 
REMARK       I    between atoms: C9_12  and  N1_14 
REMARK    3  A    between atoms: C10_16  and  N2_18 
ROOT
HETATM    1  C9  UNL     1      -5.038 -45.980   4.184  1.00  0.00     0.229 C 
HETATM    2  O3  UNL     1      -4.888 -46.910   4.989  1.00  0.00    -0.273 OA
HETATM    3  N1  UNL     1      -6.050 -45.022   4.434  1.00  0.00    -0.307 N 
ATOM      4  H1  UNL     1      -6.553 -44.655   3.626  1.00  0.00     0.171 HD
HETATM    5  C10 UNL     1      -6.387 -44.580   5.576  1.00  0.00     0.154 C 
HETATM    6 BR2  UNL     1      -7.799 -43.277   5.630  1.00  0.00    -0.011 Br
ENDROOT
BRANCH   1   7
HETATM    7  C8  UNL     1      -4.212 -45.845   3.003  1.00  0.00     0.104 C 
HETATM    8  C4  UNL     1      -3.513 -47.061   2.450  1.00  0.00     0.020 C 
HETATM    9  C2  UNL     1      -3.556 -46.311   1.131  1.00  0.00     0.067 C 
HETATM   10  C5  UNL     1      -4.599 -48.066   2.234  1.00  0.00     0.008 C 
HETATM   11  C1  UNL     1      -3.598 -47.117  -0.119  1.00  0.00     0.029 C 
HETATM   12  C7  UNL     1      -4.930 -45.854   1.643  1.00  0.00     0.048 C 
HETATM   13  C6  UNL     1      -5.698 -47.138   1.718  1.00  0.00     0.024 C 
HETATM   14 BR1  UNL     1      -5.673 -44.302   1.000  1.00  0.00    -0.083 Br
BRANCH   9  15
HETATM   15  C3  UNL     1      -2.526 -45.270   1.053  1.00  0.00     0.183 C 
HETATM   16  O1  UNL     1      -2.656 -44.164   0.469  1.00  0.00    -0.647 OA
HETATM   17  O2  UNL     1      -1.301 -45.507   1.670  1.00  0.00    -0.647 OA
ENDBRANCH   9  15
ENDBRANCH   1   7
BRANCH   5  18
HETATM   18  N2  UNL     1      -5.803 -44.971   6.810  1.00  0.00    -0.355 N 
HETATM   19  C11 UNL     1      -5.618 -46.290   7.370  1.00  0.00     0.131 C 
HETATM   20  C12 UNL     1      -5.504 -46.106   8.860  1.00  0.00     0.100 C 
HETATM   21  C13 UNL     1      -5.808 -44.641   9.082  1.00  0.00     0.261 C 
HETATM   22  F1  UNL     1      -7.192 -44.519   9.124  1.00  0.00    -0.204 F 
HETATM   23  F2  UNL     1      -5.197 -44.129  10.192  1.00  0.00    -0.204 F 
HETATM   24  C14 UNL     1      -5.252 -44.030   7.789  1.00  0.00     0.204 C 
ENDBRANCH   5  18
TORSDOF 3
ENDMDL
