MODEL 1
REMARK VINA RESULT: -5.481320568      0.000      0.000
REMARK  5 active torsions:
REMARK  status: ('A' for Active; 'I' for Inactive)
REMARK    1  A    between atoms: C2_2  and  S1_5 
REMARK    2  A    between atoms: S1_5  and  C5_6 
REMARK    3  A    between atoms: C5_6  and  N2_10 
REMARK    4  A    between atoms: N2_10  and  C6_12 
REMARK    5  A    between atoms: C6_12  and  C7_13 
ROOT
HETATM    1  C5  UNL     1      29.518  -8.473 -22.536  1.00  0.00     0.134 C 
HETATM    2  N1  UNL     1      30.368  -7.865 -21.809  1.00  0.00    -0.380 N 
ATOM      3  H11 UNL     1      30.129  -7.263 -21.021  1.00  0.00     0.158 HD
ATOM      4  H12 UNL     1      31.348  -8.014 -22.050  1.00  0.00     0.158 HD
ENDROOT
BRANCH   1   5
HETATM    5  S1  UNL     1      29.931  -9.515 -23.897  1.00  0.00    -0.086 SA
BRANCH   5   6
HETATM    6  C2  UNL     1      30.699  -8.566 -25.226  1.00  0.00     0.005 C 
HETATM    7  C1  UNL     1      32.159  -8.397 -24.860  1.00  0.00     0.026 C 
HETATM    8  C3  UNL     1      29.964  -7.284 -25.425  1.00  0.00     0.026 C 
HETATM    9  C4  UNL     1      30.642  -9.324 -26.547  1.00  0.00     0.026 C 
ENDBRANCH   5   6
ENDBRANCH   1   5
BRANCH   1  10
HETATM   10  N2  UNL     1      28.135  -8.262 -22.195  1.00  0.00    -0.371 N 
ATOM     11  H2  UNL     1      27.746  -7.320 -22.184  1.00  0.00     0.161 HD
BRANCH  10  12
HETATM   12  C6  UNL     1      27.296  -9.405 -21.864  1.00  0.00     0.126 C 
BRANCH  12  13
HETATM   13  C7  UNL     1      28.025 -10.385 -20.971  1.00  0.00     0.003 C 
HETATM   14  C8  UNL     1      27.537 -10.161 -19.574  1.00  0.00     0.006 C 
HETATM   15  C9  UNL     1      27.556 -11.493 -18.882  1.00  0.00     0.000 C 
HETATM   16  C10 UNL     1      27.364 -12.506 -19.992  1.00  0.00     0.000 C 
HETATM   17  C11 UNL     1      27.688 -11.804 -21.273  1.00  0.00     0.006 C 
ENDBRANCH  12  13
ENDBRANCH  10  12
ENDBRANCH   1  10
TORSDOF 5
ENDMDL
MODEL 2
REMARK VINA RESULT: -5.450843401      0.062      1.156
REMARK  5 active torsions:
REMARK  status: ('A' for Active; 'I' for Inactive)
REMARK    1  A    between atoms: C2_2  and  S1_5 
REMARK    2  A    between atoms: S1_5  and  C5_6 
REMARK    3  A    between atoms: C5_6  and  N2_10 
REMARK    4  A    between atoms: N2_10  and  C6_12 
REMARK    5  A    between atoms: C6_12  and  C7_13 
ROOT
HETATM    1  C5  UNL     1      29.513  -8.505 -22.573  1.00  0.00     0.134 C 
HETATM    2  N1  UNL     1      30.379  -7.906 -21.856  1.00  0.00    -0.380 N 
ATOM      3  H11 UNL     1      30.155  -7.297 -21.069  1.00  0.00     0.158 HD
ATOM      4  H12 UNL     1      31.354  -8.070 -22.106  1.00  0.00     0.158 HD
ENDROOT
BRANCH   1   5
HETATM    5  S1  UNL     1      29.899  -9.558 -23.933  1.00  0.00    -0.086 SA
BRANCH   5   6
HETATM    6  C2  UNL     1      30.699  -8.632 -25.259  1.00  0.00     0.005 C 
HETATM    7  C1  UNL     1      29.959  -7.317 -25.387  1.00  0.00     0.026 C 
HETATM    8  C3  UNL     1      30.720  -9.447 -26.507  1.00  0.00     0.026 C 
HETATM    9  C4  UNL     1      32.147  -8.310 -24.909  1.00  0.00     0.026 C 
ENDBRANCH   5   6
ENDBRANCH   1   5
BRANCH   1  10
HETATM   10  N2  UNL     1      28.137  -8.274 -22.219  1.00  0.00    -0.371 N 
ATOM     11  H2  UNL     1      27.758  -7.327 -22.220  1.00  0.00     0.161 HD
BRANCH  10  12
HETATM   12  C6  UNL     1      27.289  -9.401 -21.861  1.00  0.00     0.126 C 
BRANCH  12  13
HETATM   13  C7  UNL     1      28.022 -10.382 -20.971  1.00  0.00     0.003 C 
HETATM   14  C8  UNL     1      27.527 -10.167 -19.574  1.00  0.00     0.006 C 
HETATM   15  C9  UNL     1      27.552 -11.502 -18.888  1.00  0.00     0.000 C 
HETATM   16  C10 UNL     1      27.371 -12.511 -20.004  1.00  0.00     0.000 C 
HETATM   17  C11 UNL     1      27.695 -11.801 -21.281  1.00  0.00     0.006 C 
ENDBRANCH  12  13
ENDBRANCH  10  12
ENDBRANCH   1  10
TORSDOF 5
ENDMDL
MODEL 3
REMARK VINA RESULT: -5.408480873      2.604      6.219
REMARK  5 active torsions:
REMARK  status: ('A' for Active; 'I' for Inactive)
REMARK    1  A    between atoms: C2_2  and  S1_5 
REMARK    2  A    between atoms: S1_5  and  C5_6 
REMARK    3  A    between atoms: C5_6  and  N2_10 
REMARK    4  A    between atoms: N2_10  and  C6_12 
REMARK    5  A    between atoms: C6_12  and  C7_13 
ROOT
HETATM    1  C5  UNL     1      27.941  -9.802 -18.835  1.00  0.00     0.134 C 
HETATM    2  N1  UNL     1      27.846  -9.090 -17.783  1.00  0.00    -0.380 N 
ATOM      3  H11 UNL     1      28.053  -8.092 -17.740  1.00  0.00     0.158 HD
ATOM      4  H12 UNL     1      27.535  -9.577 -16.942  1.00  0.00     0.158 HD
ENDROOT
BRANCH   1   5
HETATM    5  S1  UNL     1      27.583 -11.527 -18.909  1.00  0.00    -0.086 SA
BRANCH   5   6
HETATM    6  C2  UNL     1      25.810 -11.810 -19.096  1.00  0.00     0.005 C 
HETATM    7  C1  UNL     1      25.604 -13.311 -19.117  1.00  0.00     0.026 C 
HETATM    8  C3  UNL     1      25.308 -11.105 -20.309  1.00  0.00     0.026 C 
HETATM    9  C4  UNL     1      25.036 -11.259 -17.904  1.00  0.00     0.026 C 
ENDBRANCH   5   6
ENDBRANCH   1   5
BRANCH   1  10
HETATM   10  N2  UNL     1      28.380  -9.114 -20.021  1.00  0.00    -0.371 N 
ATOM     11  H2  UNL     1      28.535  -8.107 -20.002  1.00  0.00     0.161 HD
BRANCH  10  12
HETATM   12  C6  UNL     1      28.603  -9.868 -21.246  1.00  0.00     0.126 C 
BRANCH  12  13
HETATM   13  C7  UNL     1      28.317  -9.026 -22.471  1.00  0.00     0.003 C 
HETATM   14  C8  UNL     1      29.558  -8.242 -22.771  1.00  0.00     0.006 C 
HETATM   15  C9  UNL     1      29.630  -8.086 -24.262  1.00  0.00     0.000 C 
HETATM   16  C10 UNL     1      28.902  -9.296 -24.811  1.00  0.00     0.000 C 
HETATM   17  C11 UNL     1      28.074  -9.843 -23.692  1.00  0.00     0.006 C 
ENDBRANCH  12  13
ENDBRANCH  10  12
ENDBRANCH   1  10
TORSDOF 5
ENDMDL
MODEL 4
REMARK VINA RESULT: -5.393543330      2.615      6.204
REMARK  5 active torsions:
REMARK  status: ('A' for Active; 'I' for Inactive)
REMARK    1  A    between atoms: C2_2  and  S1_5 
REMARK    2  A    between atoms: S1_5  and  C5_6 
REMARK    3  A    between atoms: C5_6  and  N2_10 
REMARK    4  A    between atoms: N2_10  and  C6_12 
REMARK    5  A    between atoms: C6_12  and  C7_13 
ROOT
HETATM    1  C5  UNL     1      27.938  -9.794 -18.837  1.00  0.00     0.134 C 
HETATM    2  N1  UNL     1      27.859  -9.081 -17.784  1.00  0.00    -0.380 N 
ATOM      3  H11 UNL     1      28.094  -8.090 -17.739  1.00  0.00     0.158 HD
ATOM      4  H12 UNL     1      27.530  -9.560 -16.946  1.00  0.00     0.158 HD
ENDROOT
BRANCH   1   5
HETATM    5  S1  UNL     1      27.531 -11.508 -18.916  1.00  0.00    -0.086 SA
BRANCH   5   6
HETATM    6  C2  UNL     1      25.747 -11.742 -19.048  1.00  0.00     0.005 C 
HETATM    7  C1  UNL     1      25.307 -11.061 -20.329  1.00  0.00     0.026 C 
HETATM    8  C3  UNL     1      25.075 -11.230 -17.820  1.00  0.00     0.026 C 
HETATM    9  C4  UNL     1      25.393 -13.219 -19.171  1.00  0.00     0.026 C 
ENDBRANCH   5   6
ENDBRANCH   1   5
BRANCH   1  10
HETATM   10  N2  UNL     1      28.402  -9.117 -20.020  1.00  0.00    -0.371 N 
ATOM     11  H2  UNL     1      28.590  -8.115 -19.998  1.00  0.00     0.161 HD
BRANCH  10  12
HETATM   12  C6  UNL     1      28.603  -9.874 -21.247  1.00  0.00     0.126 C 
BRANCH  12  13
HETATM   13  C7  UNL     1      28.324  -9.025 -22.470  1.00  0.00     0.003 C 
HETATM   14  C8  UNL     1      29.572  -8.253 -22.768  1.00  0.00     0.006 C 
HETATM   15  C9  UNL     1      29.645  -8.092 -24.258  1.00  0.00     0.000 C 
HETATM   16  C10 UNL     1      28.906  -9.294 -24.811  1.00  0.00     0.000 C 
HETATM   17  C11 UNL     1      28.074  -9.837 -23.692  1.00  0.00     0.006 C 
ENDBRANCH  12  13
ENDBRANCH  10  12
ENDBRANCH   1  10
TORSDOF 5
ENDMDL
MODEL 5
REMARK VINA RESULT: -5.385752232      2.353      5.926
REMARK  5 active torsions:
REMARK  status: ('A' for Active; 'I' for Inactive)
REMARK    1  A    between atoms: C2_2  and  S1_5 
REMARK    2  A    between atoms: S1_5  and  C5_6 
REMARK    3  A    between atoms: C5_6  and  N2_10 
REMARK    4  A    between atoms: N2_10  and  C6_12 
REMARK    5  A    between atoms: C6_12  and  C7_13 
ROOT
HETATM    1  C5  UNL     1      27.550  -9.819 -19.109  1.00  0.00     0.134 C 
HETATM    2  N1  UNL     1      27.815  -9.451 -17.919  1.00  0.00    -0.380 N 
ATOM      3  H11 UNL     1      28.602  -8.856 -17.660  1.00  0.00     0.158 HD
ATOM      4  H12 UNL     1      27.176  -9.784 -17.198  1.00  0.00     0.158 HD
ENDROOT
BRANCH   1   5
HETATM    5  S1  UNL     1      26.189 -10.845 -19.558  1.00  0.00    -0.086 SA
BRANCH   5   6
HETATM    6  C2  UNL     1      26.744 -12.515 -19.959  1.00  0.00     0.005 C 
HETATM    7  C1  UNL     1      27.894 -12.832 -19.025  1.00  0.00     0.026 C 
HETATM    8  C3  UNL     1      27.087 -12.602 -21.406  1.00  0.00     0.026 C 
HETATM    9  C4  UNL     1      25.646 -13.539 -19.696  1.00  0.00     0.026 C 
ENDBRANCH   5   6
ENDBRANCH   1   5
BRANCH   1  10
HETATM   10  N2  UNL     1      28.453  -9.349 -20.128  1.00  0.00    -0.371 N 
ATOM     11  H2  UNL     1      29.439  -9.202 -19.913  1.00  0.00     0.161 HD
BRANCH  10  12
HETATM   12  C6  UNL     1      27.948  -9.084 -21.467  1.00  0.00     0.126 C 
BRANCH  12  13
HETATM   13  C7  UNL     1      29.030  -9.266 -22.510  1.00  0.00     0.003 C 
HETATM   14  C8  UNL     1      28.352  -9.624 -23.796  1.00  0.00     0.006 C 
HETATM   15  C9  UNL     1      29.172  -9.034 -24.906  1.00  0.00     0.000 C 
HETATM   16  C10 UNL     1      29.844  -7.826 -24.286  1.00  0.00     0.000 C 
HETATM   17  C11 UNL     1      29.769  -8.006 -22.803  1.00  0.00     0.006 C 
ENDBRANCH  12  13
ENDBRANCH  10  12
ENDBRANCH   1  10
TORSDOF 5
ENDMDL
