MODEL 1
REMARK VINA RESULT: -5.544467097      0.000      0.000
REMARK  2 active torsions:
REMARK  status: ('A' for Active; 'I' for Inactive)
REMARK    1  A    between atoms: C2_2  and  C3_3 
REMARK    2  A    between atoms: C6_11  and  C7_12 
ROOT
HETATM    1  C3  UNL     1      27.143  -9.905 -21.991  1.00  0.00     0.089 C 
HETATM    2  N1  UNL     1      25.740  -9.705 -21.853  1.00  0.00    -0.375 N 
ATOM      3  H1  UNL     1      25.316  -8.824 -22.141  1.00  0.00     0.161 HD
HETATM    4  C4  UNL     1      24.942 -10.728 -21.318  1.00  0.00     0.071 C 
HETATM    5  N2  UNL     1      23.666 -10.638 -21.327  1.00  0.00    -0.389 N 
ATOM      6  H21 UNL     1      23.085 -11.381 -20.938  1.00  0.00     0.157 HD
ATOM      7  H22 UNL     1      23.182  -9.829 -21.717  1.00  0.00     0.157 HD
HETATM    8  C5  UNL     1      25.648 -11.907 -20.750  1.00  0.00     0.085 C 
HETATM    9  C6  UNL     1      26.894 -11.450 -20.015  1.00  0.00    -0.025 C 
HETATM   10  C9  UNL     1      26.350 -10.774 -18.747  1.00  0.00     0.036 C 
HETATM   11  C10 UNL     1      27.499 -10.139 -18.044  1.00  0.00     0.168 C 
HETATM   12  O1  UNL     1      27.926  -9.111 -18.871  1.00  0.00    -0.391 OA
HETATM   13  C11 UNL     1      28.564  -9.558 -20.007  1.00  0.00     0.174 C 
HETATM   14  C12 UNL     1      27.789 -10.575 -20.800  1.00  0.00     0.041 C 
ENDROOT
BRANCH   1  15
HETATM   15  C2  UNL     1      27.504 -10.595 -23.310  1.00  0.00     0.021 C 
HETATM   16  C1  UNL     1      28.945 -11.082 -23.206  1.00  0.00     0.007 C 
ENDBRANCH   1  15
BRANCH   9  17
HETATM   17  C7  UNL     1      27.578 -12.716 -19.515  1.00  0.00     0.006 C 
HETATM   18  C8  UNL     1      26.668 -13.680 -18.846  1.00  0.00     0.006 C 
ENDBRANCH   9  17
TORSDOF 2
ENDMDL
MODEL 2
REMARK VINA RESULT: -5.469070561      4.118      5.776
REMARK  2 active torsions:
REMARK  status: ('A' for Active; 'I' for Inactive)
REMARK    1  A    between atoms: C2_2  and  C3_3 
REMARK    2  A    between atoms: C6_11  and  C7_12 
ROOT
HETATM    1  C3  UNL     1      30.064  -8.308 -25.478  1.00  0.00     0.089 C 
HETATM    2  N1  UNL     1      30.687  -7.905 -24.262  1.00  0.00    -0.375 N 
ATOM      3  H1  UNL     1      31.600  -7.451 -24.280  1.00  0.00     0.161 HD
HETATM    4  C4  UNL     1      30.038  -8.135 -23.040  1.00  0.00     0.071 C 
HETATM    5  N2  UNL     1      30.498  -7.646 -21.950  1.00  0.00    -0.389 N 
ATOM      6  H21 UNL     1      30.027  -7.813 -21.062  1.00  0.00     0.157 HD
ATOM      7  H22 UNL     1      31.344  -7.078 -21.926  1.00  0.00     0.157 HD
HETATM    8  C5  UNL     1      28.804  -8.964 -23.077  1.00  0.00     0.085 C 
HETATM    9  C6  UNL     1      28.980 -10.096 -24.071  1.00  0.00    -0.025 C 
HETATM   10  C9  UNL     1      29.971 -11.046 -23.380  1.00  0.00     0.036 C 
HETATM   11  C10 UNL     1      30.339 -12.107 -24.358  1.00  0.00     0.168 C 
HETATM   12  O1  UNL     1      31.057 -11.467 -25.356  1.00  0.00    -0.391 OA
HETATM   13  C11 UNL     1      30.275 -10.667 -26.161  1.00  0.00     0.174 C 
HETATM   14  C12 UNL     1      29.423  -9.675 -25.416  1.00  0.00     0.041 C 
ENDROOT
BRANCH   1  15
HETATM   15  C2  UNL     1      29.107  -7.243 -26.021  1.00  0.00     0.021 C 
HETATM   16  C1  UNL     1      28.392  -7.829 -27.233  1.00  0.00     0.007 C 
ENDBRANCH   1  15
BRANCH   9  17
HETATM   17  C7  UNL     1      27.660 -10.857 -24.083  1.00  0.00     0.006 C 
HETATM   18  C8  UNL     1      27.079 -11.096 -22.738  1.00  0.00     0.006 C 
ENDBRANCH   9  17
TORSDOF 2
ENDMDL
MODEL 3
REMARK VINA RESULT: -5.380329891      4.000      5.452
REMARK  2 active torsions:
REMARK  status: ('A' for Active; 'I' for Inactive)
REMARK    1  A    between atoms: C2_2  and  C3_3 
REMARK    2  A    between atoms: C6_11  and  C7_12 
ROOT
HETATM    1  C3  UNL     1      30.382  -7.796 -24.925  1.00  0.00     0.089 C 
HETATM    2  N1  UNL     1      29.384  -7.828 -25.940  1.00  0.00    -0.375 N 
ATOM      3  H1  UNL     1      28.997  -6.959 -26.306  1.00  0.00     0.161 HD
HETATM    4  C4  UNL     1      28.935  -9.062 -26.435  1.00  0.00     0.071 C 
HETATM    5  N2  UNL     1      28.158  -9.119 -27.450  1.00  0.00    -0.389 N 
ATOM      6  H21 UNL     1      27.832 -10.016 -27.810  1.00  0.00     0.157 HD
ATOM      7  H22 UNL     1      27.836  -8.282 -27.934  1.00  0.00     0.157 HD
HETATM    8  C5  UNL     1      29.405 -10.283 -25.728  1.00  0.00     0.085 C 
HETATM    9  C6  UNL     1      29.436 -10.027 -24.233  1.00  0.00    -0.025 C 
HETATM   10  C9  UNL     1      27.952  -9.989 -23.833  1.00  0.00     0.036 C 
HETATM   11  C10 UNL     1      27.878  -9.570 -22.406  1.00  0.00     0.168 C 
HETATM   12  O1  UNL     1      28.315  -8.254 -22.377  1.00  0.00    -0.391 OA
HETATM   13  C11 UNL     1      29.671  -8.127 -22.589  1.00  0.00     0.174 C 
HETATM   14  C12 UNL     1      30.176  -8.815 -23.828  1.00  0.00     0.041 C 
ENDROOT
BRANCH   1  15
HETATM   15  C2  UNL     1      31.799  -7.846 -25.504  1.00  0.00     0.021 C 
HETATM   16  C1  UNL     1      32.719  -8.440 -24.442  1.00  0.00     0.007 C 
ENDBRANCH   1  15
BRANCH   9  17
HETATM   17  C7  UNL     1      29.975 -11.302 -23.597  1.00  0.00     0.006 C 
HETATM   18  C8  UNL     1      30.401 -12.338 -24.571  1.00  0.00     0.006 C 
ENDBRANCH   9  17
TORSDOF 2
ENDMDL
MODEL 4
REMARK VINA RESULT: -5.279893725      4.667      6.310
REMARK  2 active torsions:
REMARK  status: ('A' for Active; 'I' for Inactive)
REMARK    1  A    between atoms: C2_2  and  C3_3 
REMARK    2  A    between atoms: C6_11  and  C7_12 
ROOT
HETATM    1  C3  UNL     1      31.338  -9.543 -24.345  1.00  0.00     0.089 C 
HETATM    2  N1  UNL     1      30.746  -8.944 -23.196  1.00  0.00    -0.375 N 
ATOM      3  H1  UNL     1      31.203  -9.017 -22.288  1.00  0.00     0.161 HD
HETATM    4  C4  UNL     1      29.531  -8.254 -23.320  1.00  0.00     0.071 C 
HETATM    5  N2  UNL     1      29.058  -7.577 -22.343  1.00  0.00    -0.389 N 
ATOM      6  H21 UNL     1      28.175  -7.075 -22.433  1.00  0.00     0.157 HD
ATOM      7  H22 UNL     1      29.538  -7.512 -21.445  1.00  0.00     0.157 HD
HETATM    8  C5  UNL     1      28.833  -8.348 -24.629  1.00  0.00     0.085 C 
HETATM    9  C6  UNL     1      28.969  -9.755 -25.180  1.00  0.00    -0.025 C 
HETATM   10  C9  UNL     1      28.052 -10.597 -24.278  1.00  0.00     0.036 C 
HETATM   11  C10 UNL     1      28.255 -12.028 -24.637  1.00  0.00     0.168 C 
HETATM   12  O1  UNL     1      29.553 -12.333 -24.253  1.00  0.00    -0.391 OA
HETATM   13  C11 UNL     1      30.508 -11.752 -25.058  1.00  0.00     0.174 C 
HETATM   14  C12 UNL     1      30.355 -10.265 -25.236  1.00  0.00     0.041 C 
ENDROOT
BRANCH   1  15
HETATM   15  C2  UNL     1      32.213  -8.558 -25.126  1.00  0.00     0.021 C 
HETATM   16  C1  UNL     1      33.429  -8.229 -24.267  1.00  0.00     0.007 C 
ENDBRANCH   1  15
BRANCH   9  17
HETATM   17  C7  UNL     1      28.276  -9.746 -26.537  1.00  0.00     0.006 C 
HETATM   18  C8  UNL     1      28.623  -8.586 -27.395  1.00  0.00     0.006 C 
ENDBRANCH   9  17
TORSDOF 2
ENDMDL
MODEL 5
REMARK VINA RESULT: -5.263719529      7.594      9.376
REMARK  2 active torsions:
REMARK  status: ('A' for Active; 'I' for Inactive)
REMARK    1  A    between atoms: C2_2  and  C3_3 
REMARK    2  A    between atoms: C6_11  and  C7_12 
ROOT
HETATM    1  C3  UNL     1      23.042  -7.899 -12.881  1.00  0.00     0.089 C 
HETATM    2  N1  UNL     1      23.108  -8.108 -14.289  1.00  0.00    -0.375 N 
ATOM      3  H1  UNL     1      22.929  -7.336 -14.931  1.00  0.00     0.161 HD
HETATM    4  C4  UNL     1      23.422  -9.381 -14.788  1.00  0.00     0.071 C 
HETATM    5  N2  UNL     1      23.642  -9.561 -16.035  1.00  0.00    -0.389 N 
ATOM      6  H21 UNL     1      23.870 -10.486 -16.398  1.00  0.00     0.157 HD
ATOM      7  H22 UNL     1      23.598  -8.798 -16.709  1.00  0.00     0.157 HD
HETATM    8  C5  UNL     1      23.486 -10.494 -13.804  1.00  0.00     0.085 C 
HETATM    9  C6  UNL     1      22.383 -10.329 -12.775  1.00  0.00    -0.025 C 
HETATM   10  C9  UNL     1      21.100 -10.673 -13.548  1.00  0.00     0.036 C 
HETATM   11  C10 UNL     1      19.943 -10.371 -12.662  1.00  0.00     0.168 C 
HETATM   12  O1  UNL     1      19.937  -8.993 -12.505  1.00  0.00    -0.391 OA
HETATM   13  C11 UNL     1      20.966  -8.532 -11.713  1.00  0.00     0.174 C 
HETATM   14  C12 UNL     1      22.334  -9.002 -12.129  1.00  0.00     0.041 C 
ENDROOT
BRANCH   1  15
HETATM   15  C2  UNL     1      24.411  -7.572 -12.278  1.00  0.00     0.021 C 
HETATM   16  C1  UNL     1      24.545  -8.350 -10.973  1.00  0.00     0.007 C 
ENDBRANCH   1  15
BRANCH   9  17
HETATM   17  C7  UNL     1      22.556 -11.474 -11.784  1.00  0.00     0.006 C 
HETATM   18  C8  UNL     1      22.498 -12.826 -12.395  1.00  0.00     0.006 C 
ENDBRANCH   9  17
TORSDOF 2
ENDMDL
