MODEL 1
REMARK VINA RESULT: -5.781350840      0.000      0.000
REMARK  4 active torsions:
REMARK  status: ('A' for Active; 'I' for Inactive)
REMARK    1  A    between atoms: N1_1  and  C1_5 
REMARK    2  A    between atoms: C1_5  and  C2_6 
REMARK    3  A    between atoms: C2_6  and  O1_7 
REMARK    4  A    between atoms: C7_13  and  C8_14 
ROOT
HETATM    1  C2  UNL     1      28.476  -9.501 -21.620  1.00  0.00     0.085 C 
HETATM    2  C3  UNL     1      27.387  -9.757 -20.566  1.00  0.00     0.040 C 
HETATM    3  C4  UNL     1      27.715 -11.014 -19.817  1.00  0.00     0.003 C 
HETATM    4  C5  UNL     1      27.558 -12.173 -20.740  1.00  0.00     0.001 C 
HETATM    5  C6  UNL     1      27.521 -11.714 -22.205  1.00  0.00     0.008 C 
HETATM    6  C7  UNL     1      28.711 -10.749 -22.355  1.00  0.00     0.026 C 
ENDROOT
BRANCH   1   7
HETATM    7  C1  UNL     1      28.090  -8.278 -22.352  1.00  0.00     0.267 C 
BRANCH   7   8
HETATM    8  N1  UNL     1      29.294  -7.416 -22.381  1.00  0.00    -0.076 N 
ATOM      9  H13 UNL     1      29.128  -6.476 -22.024  1.00  0.00     0.274 HD
ATOM     10  H12 UNL     1      30.002  -7.685 -21.699  1.00  0.00     0.274 HD
ATOM     11  H11 UNL     1      29.632  -7.431 -23.343  1.00  0.00     0.274 HD
ENDBRANCH   7   8
ENDBRANCH   1   7
BRANCH   1  12
HETATM   12  O1  UNL     1      29.645  -9.173 -20.880  1.00  0.00    -0.388 OA
ATOM     13  H1  UNL     1      29.940  -8.331 -21.207  1.00  0.00     0.210 HD
ENDBRANCH   1  12
BRANCH   6  14
HETATM   14  C8  UNL     1      29.146 -10.655 -23.786  1.00  0.00    -0.008 C 
HETATM   15  C9  UNL     1      28.080 -10.916 -24.799  1.00  0.00     0.005 C 
HETATM   16  C10 UNL     1      28.761 -11.535 -26.034  1.00  0.00     0.000 C 
HETATM   17  C11 UNL     1      29.206 -12.913 -25.557  1.00  0.00     0.000 C 
HETATM   18  C12 UNL     1      30.421 -12.663 -24.693  1.00  0.00     0.000 C 
HETATM   19  C13 UNL     1      30.446 -11.347 -24.022  1.00  0.00     0.005 C 
ENDBRANCH   6  14
TORSDOF 4
ENDMDL
MODEL 2
REMARK VINA RESULT: -5.739267112      2.240      3.142
REMARK  4 active torsions:
REMARK  status: ('A' for Active; 'I' for Inactive)
REMARK    1  A    between atoms: N1_1  and  C1_5 
REMARK    2  A    between atoms: C1_5  and  C2_6 
REMARK    3  A    between atoms: C2_6  and  O1_7 
REMARK    4  A    between atoms: C7_13  and  C8_14 
ROOT
HETATM    1  C2  UNL     1      27.435 -10.971 -19.628  1.00  0.00     0.085 C 
HETATM    2  C3  UNL     1      26.005 -10.964 -19.065  1.00  0.00     0.040 C 
HETATM    3  C4  UNL     1      25.154 -11.894 -19.878  1.00  0.00     0.003 C 
HETATM    4  C5  UNL     1      24.975 -11.310 -21.237  1.00  0.00     0.001 C 
HETATM    5  C6  UNL     1      26.007 -10.205 -21.506  1.00  0.00     0.008 C 
HETATM    6  C7  UNL     1      27.360 -10.807 -21.084  1.00  0.00     0.026 C 
ENDROOT
BRANCH   1   7
HETATM    7  C1  UNL     1      28.222 -10.016 -18.820  1.00  0.00     0.267 C 
BRANCH   7   8
HETATM    8  N1  UNL     1      27.333  -9.570 -17.724  1.00  0.00    -0.076 N 
ATOM      9  H13 UNL     1      26.592 -10.236 -17.507  1.00  0.00     0.274 HD
ATOM     10  H12 UNL     1      27.781  -9.581 -16.808  1.00  0.00     0.274 HD
ATOM     11  H11 UNL     1      26.986  -8.650 -17.994  1.00  0.00     0.274 HD
ENDBRANCH   7   8
ENDBRANCH   1   7
BRANCH   1  12
HETATM   12  O1  UNL     1      27.949 -12.263 -19.334  1.00  0.00    -0.388 OA
ATOM     13  H1  UNL     1      27.893 -12.762 -20.140  1.00  0.00     0.210 HD
ENDBRANCH   1  12
BRANCH   6  14
HETATM   14  C8  UNL     1      28.494 -10.112 -21.777  1.00  0.00    -0.008 C 
HETATM   15  C9  UNL     1      28.170  -8.771 -22.351  1.00  0.00     0.005 C 
HETATM   16  C10 UNL     1      29.061  -8.576 -23.592  1.00  0.00     0.000 C 
HETATM   17  C11 UNL     1      28.518  -9.584 -24.598  1.00  0.00     0.000 C 
HETATM   18  C12 UNL     1      29.025 -10.929 -24.129  1.00  0.00     0.000 C 
HETATM   19  C13 UNL     1      29.251 -11.034 -22.673  1.00  0.00     0.005 C 
ENDBRANCH   6  14
TORSDOF 4
ENDMDL
MODEL 3
REMARK VINA RESULT: -5.633110050     11.280     12.627
REMARK  4 active torsions:
REMARK  status: ('A' for Active; 'I' for Inactive)
REMARK    1  A    between atoms: N1_1  and  C1_5 
REMARK    2  A    between atoms: C1_5  and  C2_6 
REMARK    3  A    between atoms: C2_6  and  O1_7 
REMARK    4  A    between atoms: C7_13  and  C8_14 
ROOT
HETATM    1  C2  UNL     1      23.024  -7.887 -12.242  1.00  0.00     0.085 C 
HETATM    2  C3  UNL     1      22.008  -6.787 -12.586  1.00  0.00     0.040 C 
HETATM    3  C4  UNL     1      20.913  -6.792 -11.562  1.00  0.00     0.003 C 
HETATM    4  C5  UNL     1      20.115  -8.040 -11.725  1.00  0.00     0.001 C 
HETATM    5  C6  UNL     1      20.872  -9.076 -12.567  1.00  0.00     0.008 C 
HETATM    6  C7  UNL     1      22.288  -9.127 -11.967  1.00  0.00     0.026 C 
ENDROOT
BRANCH   1   7
HETATM    7  C1  UNL     1      24.059  -7.865 -13.296  1.00  0.00     0.267 C 
BRANCH   7   8
HETATM    8  N1  UNL     1      23.335  -7.763 -14.584  1.00  0.00    -0.076 N 
ATOM      9  H13 UNL     1      22.344  -7.549 -14.477  1.00  0.00     0.274 HD
ATOM     10  H12 UNL     1      23.584  -6.934 -15.124  1.00  0.00     0.274 HD
ATOM     11  H11 UNL     1      23.511  -8.636 -15.080  1.00  0.00     0.274 HD
ENDBRANCH   7   8
ENDBRANCH   1   7
BRANCH   1  12
HETATM   12  O1  UNL     1      23.660  -7.452 -11.048  1.00  0.00    -0.388 OA
ATOM     13  H1  UNL     1      23.414  -6.542 -10.931  1.00  0.00     0.210 HD
ENDBRANCH   1  12
BRANCH   6  14
HETATM   14  C8  UNL     1      22.957 -10.430 -12.281  1.00  0.00    -0.008 C 
HETATM   15  C9  UNL     1      22.386 -11.181 -13.440  1.00  0.00     0.005 C 
HETATM   16  C10 UNL     1      22.590 -12.682 -13.160  1.00  0.00     0.000 C 
HETATM   17  C11 UNL     1      21.651 -12.970 -11.995  1.00  0.00     0.000 C 
HETATM   18  C12 UNL     1      22.334 -12.389 -10.778  1.00  0.00     0.000 C 
HETATM   19  C13 UNL     1      23.218 -11.237 -11.054  1.00  0.00     0.005 C 
ENDBRANCH   6  14
TORSDOF 4
ENDMDL
MODEL 4
REMARK VINA RESULT: -5.552229763      2.502      4.786
REMARK  4 active torsions:
REMARK  status: ('A' for Active; 'I' for Inactive)
REMARK    1  A    between atoms: N1_1  and  C1_5 
REMARK    2  A    between atoms: C1_5  and  C2_6 
REMARK    3  A    between atoms: C2_6  and  O1_7 
REMARK    4  A    between atoms: C7_13  and  C8_14 
ROOT
HETATM    1  C2  UNL     1      30.742 -10.357 -24.457  1.00  0.00     0.085 C 
HETATM    2  C3  UNL     1      30.861  -9.547 -25.757  1.00  0.00     0.040 C 
HETATM    3  C4  UNL     1      30.980  -8.091 -25.418  1.00  0.00     0.003 C 
HETATM    4  C5  UNL     1      29.681  -7.625 -24.858  1.00  0.00     0.001 C 
HETATM    5  C6  UNL     1      28.804  -8.810 -24.431  1.00  0.00     0.008 C 
HETATM    6  C7  UNL     1      29.730  -9.721 -23.606  1.00  0.00     0.026 C 
ENDROOT
BRANCH   1   7
HETATM    7  C1  UNL     1      30.590 -11.775 -24.844  1.00  0.00     0.267 C 
BRANCH   7   8
HETATM    8  N1  UNL     1      30.862 -11.839 -26.298  1.00  0.00    -0.076 N 
ATOM      9  H13 UNL     1      30.156 -12.357 -26.820  1.00  0.00     0.274 HD
ATOM     10  H12 UNL     1      30.737 -10.945 -26.774  1.00  0.00     0.274 HD
ATOM     11  H11 UNL     1      31.802 -12.221 -26.396  1.00  0.00     0.274 HD
ENDBRANCH   7   8
ENDBRANCH   1   7
BRANCH   1  12
HETATM   12  O1  UNL     1      32.012 -10.248 -23.828  1.00  0.00    -0.388 OA
ATOM     13  H1  UNL     1      32.646 -10.130 -24.525  1.00  0.00     0.210 HD
ENDBRANCH   1  12
BRANCH   6  14
HETATM   14  C8  UNL     1      28.938 -10.592 -22.678  1.00  0.00    -0.008 C 
HETATM   15  C9  UNL     1      27.663 -11.133 -23.239  1.00  0.00     0.005 C 
HETATM   16  C10 UNL     1      26.676 -11.289 -22.067  1.00  0.00     0.000 C 
HETATM   17  C11 UNL     1      26.357  -9.855 -21.661  1.00  0.00     0.000 C 
HETATM   18  C12 UNL     1      27.575  -9.374 -20.905  1.00  0.00     0.000 C 
HETATM   19  C13 UNL     1      28.846 -10.011 -21.307  1.00  0.00     0.005 C 
ENDBRANCH   6  14
TORSDOF 4
ENDMDL
MODEL 5
REMARK VINA RESULT: -5.550978577      2.757      3.829
REMARK  4 active torsions:
REMARK  status: ('A' for Active; 'I' for Inactive)
REMARK    1  A    between atoms: N1_1  and  C1_5 
REMARK    2  A    between atoms: C1_5  and  C2_6 
REMARK    3  A    between atoms: C2_6  and  O1_7 
REMARK    4  A    between atoms: C7_13  and  C8_14 
ROOT
HETATM    1  C2  UNL     1      26.426 -11.718 -19.685  1.00  0.00     0.085 C 
HETATM    2  C3  UNL     1      25.028 -11.296 -19.207  1.00  0.00     0.040 C 
HETATM    3  C4  UNL     1      24.013 -11.719 -20.227  1.00  0.00     0.003 C 
HETATM    4  C5  UNL     1      24.203 -10.897 -21.456  1.00  0.00     0.001 C 
HETATM    5  C6  UNL     1      25.572 -10.202 -21.452  1.00  0.00     0.008 C 
HETATM    6  C7  UNL     1      26.582 -11.304 -21.084  1.00  0.00     0.026 C 
ENDROOT
BRANCH   1   7
HETATM    7  C1  UNL     1      27.390 -11.249 -18.668  1.00  0.00     0.267 C 
BRANCH   7   8
HETATM    8  N1  UNL     1      26.641 -10.328 -17.781  1.00  0.00    -0.076 N 
ATOM      9  H13 UNL     1      27.236  -9.646 -17.312  1.00  0.00     0.274 HD
ATOM     10  H12 UNL     1      26.060  -9.661 -18.288  1.00  0.00     0.274 HD
ATOM     11  H11 UNL     1      26.114 -10.918 -17.138  1.00  0.00     0.274 HD
ENDBRANCH   7   8
ENDBRANCH   1   7
BRANCH   1  12
HETATM   12  O1  UNL     1      26.434 -13.138 -19.619  1.00  0.00    -0.388 OA
ATOM     13  H1  UNL     1      25.562 -13.397 -19.345  1.00  0.00     0.210 HD
ENDBRANCH   1  12
BRANCH   6  14
HETATM   14  C8  UNL     1      27.956 -10.954 -21.568  1.00  0.00    -0.008 C 
HETATM   15  C9  UNL     1      28.334  -9.514 -21.441  1.00  0.00     0.005 C 
HETATM   16  C10 UNL     1      29.305  -9.191 -22.592  1.00  0.00     0.000 C 
HETATM   17  C11 UNL     1      28.433  -9.266 -23.840  1.00  0.00     0.000 C 
HETATM   18  C12 UNL     1      28.223 -10.742 -24.092  1.00  0.00     0.000 C 
HETATM   19  C13 UNL     1      28.265 -11.590 -22.882  1.00  0.00     0.005 C 
ENDBRANCH   6  14
TORSDOF 4
ENDMDL
