MODEL 1
REMARK VINA RESULT: -5.699976769      0.000      0.000
REMARK  2 active torsions:
REMARK  status: ('A' for Active; 'I' for Inactive)
REMARK    1  A    between atoms: C2_2  and  N1_4 
REMARK    2  A    between atoms: N1_4  and  C4_6 
ROOT
HETATM    1  C4  UNL     1      28.987 -10.351 -23.069  1.00  0.00     0.026 C 
HETATM    2  C5  UNL     1      29.024  -9.067 -22.309  1.00  0.00     0.031 C 
HETATM    3  C6  UNL     1      29.520  -7.865 -22.953  1.00  0.00     0.007 C 
HETATM    4  C7  UNL     1      30.123  -7.963 -24.316  1.00  0.00    -0.014 C 
HETATM    5  C8  UNL     1      31.335  -8.838 -24.383  1.00  0.00     0.009 C 
HETATM    6  C9  UNL     1      30.946 -10.241 -24.648  1.00  0.00    -0.012 C 
HETATM    7  C10 UNL     1      30.052 -10.428 -25.843  1.00  0.00     0.009 C 
HETATM    8  C11 UNL     1      28.769  -9.695 -25.508  1.00  0.00    -0.012 C 
HETATM    9  C12 UNL     1      29.094  -8.243 -25.369  1.00  0.00     0.009 C 
HETATM   10  C13 UNL     1      28.082 -10.229 -24.321  1.00  0.00     0.035 C 
HETATM   11  C14 UNL     1      30.317 -10.894 -23.435  1.00  0.00     0.035 C 
ENDROOT
BRANCH   1  12
HETATM   12  N1  UNL     1      28.206 -11.241 -22.250  1.00  0.00    -0.409 N 
ATOM     13  H1  UNL     1      28.270 -12.249 -22.395  1.00  0.00     0.154 HD
BRANCH  12  14
HETATM   14  C2  UNL     1      27.356 -10.733 -21.251  1.00  0.00     0.069 C 
HETATM   15  C1  UNL     1      25.893 -10.723 -21.504  1.00  0.00     0.031 C 
HETATM   16  C3  UNL     1      27.571 -11.609 -20.030  1.00  0.00     0.031 C 
ENDBRANCH  12  14
ENDBRANCH   1  12
TORSDOF 2
ENDMDL
MODEL 2
REMARK VINA RESULT: -5.660399579      1.195      2.591
REMARK  2 active torsions:
REMARK  status: ('A' for Active; 'I' for Inactive)
REMARK    1  A    between atoms: C2_2  and  N1_4 
REMARK    2  A    between atoms: N1_4  and  C4_6 
ROOT
HETATM    1  C4  UNL     1      29.475  -9.673 -23.740  1.00  0.00     0.026 C 
HETATM    2  C5  UNL     1      28.386 -10.377 -24.480  1.00  0.00     0.031 C 
HETATM    3  C6  UNL     1      28.293 -10.239 -25.922  1.00  0.00     0.007 C 
HETATM    4  C7  UNL     1      29.197  -9.277 -26.623  1.00  0.00    -0.014 C 
HETATM    5  C8  UNL     1      29.023  -7.854 -26.193  1.00  0.00     0.009 C 
HETATM    6  C9  UNL     1      29.894  -7.555 -25.035  1.00  0.00    -0.012 C 
HETATM    7  C10 UNL     1      31.342  -7.908 -25.232  1.00  0.00     0.009 C 
HETATM    8  C11 UNL     1      31.373  -9.414 -25.398  1.00  0.00    -0.012 C 
HETATM    9  C12 UNL     1      30.619  -9.752 -26.643  1.00  0.00     0.009 C 
HETATM   10  C13 UNL     1      30.869 -10.144 -24.224  1.00  0.00     0.035 C 
HETATM   11  C14 UNL     1      29.383  -8.193 -23.760  1.00  0.00     0.035 C 
ENDROOT
BRANCH   1  12
HETATM   12  N1  UNL     1      29.440 -10.234 -22.414  1.00  0.00    -0.409 N 
ATOM     13  H1  UNL     1      30.307 -10.534 -21.969  1.00  0.00     0.154 HD
BRANCH  12  14
HETATM   14  C2  UNL     1      28.219 -10.371 -21.728  1.00  0.00     0.069 C 
HETATM   15  C1  UNL     1      27.787 -11.731 -21.317  1.00  0.00     0.031 C 
HETATM   16  C3  UNL     1      28.362  -9.566 -20.449  1.00  0.00     0.031 C 
ENDBRANCH  12  14
ENDBRANCH   1  12
TORSDOF 2
ENDMDL
MODEL 3
REMARK VINA RESULT: -5.654600638      1.778      5.767
REMARK  2 active torsions:
REMARK  status: ('A' for Active; 'I' for Inactive)
REMARK    1  A    between atoms: C2_2  and  N1_4 
REMARK    2  A    between atoms: N1_4  and  C4_6 
ROOT
HETATM    1  C4  UNL     1      26.856 -10.891 -21.374  1.00  0.00     0.026 C 
HETATM    2  C5  UNL     1      25.403 -10.585 -21.525  1.00  0.00     0.031 C 
HETATM    3  C6  UNL     1      24.467 -11.024 -20.507  1.00  0.00     0.007 C 
HETATM    4  C7  UNL     1      24.951 -11.902 -19.400  1.00  0.00    -0.014 C 
HETATM    5  C8  UNL     1      25.500 -13.216 -19.861  1.00  0.00     0.009 C 
HETATM    6  C9  UNL     1      26.945 -13.096 -20.159  1.00  0.00    -0.012 C 
HETATM    7  C10 UNL     1      27.767 -12.503 -19.049  1.00  0.00     0.009 C 
HETATM    8  C11 UNL     1      27.258 -11.086 -18.879  1.00  0.00    -0.012 C 
HETATM    9  C12 UNL     1      25.832 -11.163 -18.438  1.00  0.00     0.009 C 
HETATM   10  C13 UNL     1      27.426 -10.254 -20.081  1.00  0.00     0.035 C 
HETATM   11  C14 UNL     1      27.198 -12.333 -21.443  1.00  0.00     0.035 C 
ENDROOT
BRANCH   1  12
HETATM   12  N1  UNL     1      27.507 -10.096 -22.382  1.00  0.00    -0.409 N 
ATOM     13  H1  UNL     1      26.965  -9.728 -23.164  1.00  0.00     0.154 HD
BRANCH  12  14
HETATM   14  C2  UNL     1      28.885  -9.823 -22.298  1.00  0.00     0.069 C 
HETATM   15  C1  UNL     1      29.816 -10.616 -23.140  1.00  0.00     0.031 C 
HETATM   16  C3  UNL     1      29.053  -8.376 -22.725  1.00  0.00     0.031 C 
ENDBRANCH  12  14
ENDBRANCH   1  12
TORSDOF 2
ENDMDL
MODEL 4
REMARK VINA RESULT: -5.643074084      0.886      1.067
REMARK  2 active torsions:
REMARK  status: ('A' for Active; 'I' for Inactive)
REMARK    1  A    between atoms: C2_2  and  N1_4 
REMARK    2  A    between atoms: N1_4  and  C4_6 
ROOT
HETATM    1  C4  UNL     1      29.064 -10.254 -22.923  1.00  0.00     0.026 C 
HETATM    2  C5  UNL     1      29.194  -8.925 -22.256  1.00  0.00     0.031 C 
HETATM    3  C6  UNL     1      29.675  -7.785 -23.015  1.00  0.00     0.007 C 
HETATM    4  C7  UNL     1      30.173  -7.993 -24.408  1.00  0.00    -0.014 C 
HETATM    5  C8  UNL     1      31.351  -8.911 -24.502  1.00  0.00     0.009 C 
HETATM    6  C9  UNL     1      30.903 -10.314 -24.642  1.00  0.00    -0.012 C 
HETATM    7  C10 UNL     1      29.919 -10.549 -25.754  1.00  0.00     0.009 C 
HETATM    8  C11 UNL     1      28.685  -9.754 -25.378  1.00  0.00    -0.012 C 
HETATM    9  C12 UNL     1      29.061  -8.307 -25.363  1.00  0.00     0.009 C 
HETATM   10  C13 UNL     1      28.073 -10.184 -24.112  1.00  0.00     0.035 C 
HETATM   11  C14 UNL     1      30.348 -10.865 -23.345  1.00  0.00     0.035 C 
ENDROOT
BRANCH   1  12
HETATM   12  N1  UNL     1      28.321 -11.062 -21.991  1.00  0.00    -0.409 N 
ATOM     13  H1  UNL     1      28.589 -11.075 -21.007  1.00  0.00     0.154 HD
BRANCH  12  14
HETATM   14  C2  UNL     1      27.229 -11.834 -22.428  1.00  0.00     0.069 C 
HETATM   15  C1  UNL     1      27.370 -13.312 -22.448  1.00  0.00     0.031 C 
HETATM   16  C3  UNL     1      26.090 -11.528 -21.472  1.00  0.00     0.031 C 
ENDBRANCH  12  14
ENDBRANCH   1  12
TORSDOF 2
ENDMDL
MODEL 5
REMARK VINA RESULT: -5.637390998      1.569      5.528
REMARK  2 active torsions:
REMARK  status: ('A' for Active; 'I' for Inactive)
REMARK    1  A    between atoms: C2_2  and  N1_4 
REMARK    2  A    between atoms: N1_4  and  C4_6 
ROOT
HETATM    1  C4  UNL     1      27.339 -10.494 -21.276  1.00  0.00     0.026 C 
HETATM    2  C5  UNL     1      28.005  -9.758 -20.162  1.00  0.00     0.031 C 
HETATM    3  C6  UNL     1      27.883 -10.249 -18.802  1.00  0.00     0.007 C 
HETATM    4  C7  UNL     1      26.969 -11.397 -18.519  1.00  0.00    -0.014 C 
HETATM    5  C8  UNL     1      25.535 -11.129 -18.852  1.00  0.00     0.009 C 
HETATM    6  C9  UNL     1      25.256 -11.484 -20.261  1.00  0.00    -0.012 C 
HETATM    7  C10 UNL     1      25.672 -12.875 -20.651  1.00  0.00     0.009 C 
HETATM    8  C11 UNL     1      27.180 -12.903 -20.505  1.00  0.00    -0.012 C 
HETATM    9  C12 UNL     1      27.503 -12.688 -19.061  1.00  0.00     0.009 C 
HETATM   10  C13 UNL     1      27.873 -11.945 -21.380  1.00  0.00     0.035 C 
HETATM   11  C14 UNL     1      25.856 -10.483 -21.228  1.00  0.00     0.035 C 
ENDROOT
BRANCH   1  12
HETATM   12  N1  UNL     1      27.880  -9.914 -22.476  1.00  0.00    -0.409 N 
ATOM     13  H1  UNL     1      27.262  -9.706 -23.261  1.00  0.00     0.154 HD
BRANCH  12  14
HETATM   14  C2  UNL     1      29.254  -9.630 -22.577  1.00  0.00     0.069 C 
HETATM   15  C1  UNL     1      30.080 -10.446 -23.502  1.00  0.00     0.031 C 
HETATM   16  C3  UNL     1      29.353  -8.198 -23.069  1.00  0.00     0.031 C 
ENDBRANCH  12  14
ENDBRANCH   1  12
TORSDOF 2
ENDMDL
