MODEL 1
REMARK VINA RESULT: -5.666586962      0.000      0.000
REMARK  2 active torsions:
REMARK  status: ('A' for Active; 'I' for Inactive)
REMARK    1  A    between atoms: C2_2  and  O1_3 
REMARK    2  A    between atoms: O1_3  and  C3_4 
ROOT
HETATM    1  C3  UNL     1      29.236  -8.969 -23.077  1.00  0.00     0.065 C 
HETATM    2  C4  UNL     1      29.631 -10.413 -23.011  1.00  0.00     0.071 C 
HETATM    3  C5  UNL     1      30.694 -10.814 -23.988  1.00  0.00     0.189 C 
HETATM    4  C6  UNL     1      30.172 -11.192 -25.333  1.00  0.00     0.034 C 
HETATM    5  C7  UNL     1      29.401 -10.210 -26.082  1.00  0.00     0.011 C 
HETATM    6  C8  UNL     1      29.357  -8.811 -25.589  1.00  0.00    -0.039 C 
HETATM    7  C9  UNL     1      28.638  -7.982 -26.667  1.00  0.00     0.015 C 
HETATM    8  C10 UNL     1      30.724  -8.246 -25.457  1.00  0.00     0.042 C 
HETATM    9  C11 UNL     1      31.416  -8.526 -24.174  1.00  0.00     0.190 C 
HETATM   10  C12 UNL     1      30.512  -8.154 -23.037  1.00  0.00     0.071 C 
HETATM   11  N1  UNL     1      31.798  -9.905 -24.011  1.00  0.00    -0.066 N 
ATOM     12  H11 UNL     1      32.472 -10.178 -24.725  1.00  0.00     0.278 HD
ATOM     13  H12 UNL     1      32.374 -10.020 -23.177  1.00  0.00     0.278 HD
HETATM   14  C13 UNL     1      28.508  -8.734 -24.365  1.00  0.00     0.047 C 
ENDROOT
BRANCH   1  15
HETATM   15  O1  UNL     1      28.434  -8.618 -22.024  1.00  0.00    -0.380 OA
BRANCH  15  16
HETATM   16  C2  UNL     1      27.759  -9.651 -21.424  1.00  0.00     0.164 C 
HETATM   17  C1  UNL     1      27.940  -9.625 -19.912  1.00  0.00     0.033 C 
ENDBRANCH  15  16
ENDBRANCH   1  15
TORSDOF 2
ENDMDL
MODEL 2
REMARK VINA RESULT: -5.476073101      1.814      4.101
REMARK  2 active torsions:
REMARK  status: ('A' for Active; 'I' for Inactive)
REMARK    1  A    between atoms: C2_2  and  O1_3 
REMARK    2  A    between atoms: O1_3  and  C3_4 
ROOT
HETATM    1  C3  UNL     1      28.987  -9.953 -25.538  1.00  0.00     0.065 C 
HETATM    2  C4  UNL     1      29.711  -8.642 -25.491  1.00  0.00     0.071 C 
HETATM    3  C5  UNL     1      30.621  -8.474 -24.312  1.00  0.00     0.189 C 
HETATM    4  C6  UNL     1      29.943  -7.951 -23.091  1.00  0.00     0.034 C 
HETATM    5  C7  UNL     1      28.832  -8.709 -22.534  1.00  0.00     0.011 C 
HETATM    6  C8  UNL     1      28.564 -10.071 -23.057  1.00  0.00    -0.039 C 
HETATM    7  C9  UNL     1      27.471 -10.684 -22.163  1.00  0.00     0.015 C 
HETATM    8  C10 UNL     1      29.760 -10.941 -22.925  1.00  0.00     0.042 C 
HETATM    9  C11 UNL     1      30.740 -10.861 -24.036  1.00  0.00     0.190 C 
HETATM   10  C12 UNL     1      30.020 -11.043 -25.340  1.00  0.00     0.071 C 
HETATM   11  N1  UNL     1      31.456  -9.614 -24.089  1.00  0.00    -0.066 N 
ATOM     12  H11 UNL     1      32.018  -9.486 -23.248  1.00  0.00     0.278 HD
ATOM     13  H12 UNL     1      32.198  -9.656 -24.788  1.00  0.00     0.278 HD
HETATM   14  C13 UNL     1      27.982  -9.980 -24.427  1.00  0.00     0.047 C 
ENDROOT
BRANCH   1  15
HETATM   15  O1  UNL     1      28.353 -10.135 -26.738  1.00  0.00    -0.380 OA
BRANCH  15  16
HETATM   16  C2  UNL     1      27.676 -11.320 -26.876  1.00  0.00     0.164 C 
HETATM   17  C1  UNL     1      26.574 -11.210 -27.921  1.00  0.00     0.033 C 
ENDBRANCH  15  16
ENDBRANCH   1  15
TORSDOF 2
ENDMDL
MODEL 3
REMARK VINA RESULT: -5.452042524      2.025      4.170
REMARK  2 active torsions:
REMARK  status: ('A' for Active; 'I' for Inactive)
REMARK    1  A    between atoms: C2_2  and  O1_3 
REMARK    2  A    between atoms: O1_3  and  C3_4 
ROOT
HETATM    1  C3  UNL     1      29.704  -8.761 -26.112  1.00  0.00     0.065 C 
HETATM    2  C4  UNL     1      29.486  -7.618 -25.168  1.00  0.00     0.071 C 
HETATM    3  C5  UNL     1      29.830  -7.915 -23.740  1.00  0.00     0.189 C 
HETATM    4  C6  UNL     1      28.722  -8.545 -22.966  1.00  0.00     0.034 C 
HETATM    5  C7  UNL     1      28.178  -9.812 -23.436  1.00  0.00     0.011 C 
HETATM    6  C8  UNL     1      28.888 -10.535 -24.520  1.00  0.00    -0.039 C 
HETATM    7  C9  UNL     1      28.198 -11.902 -24.668  1.00  0.00     0.015 C 
HETATM    8  C10 UNL     1      30.300 -10.807 -24.147  1.00  0.00     0.042 C 
HETATM    9  C11 UNL     1      31.264  -9.717 -24.437  1.00  0.00     0.190 C 
HETATM   10  C12 UNL     1      31.103  -9.285 -25.865  1.00  0.00     0.071 C 
HETATM   11  N1  UNL     1      31.099  -8.559 -23.598  1.00  0.00    -0.066 N 
ATOM     12  H11 UNL     1      31.273  -8.796 -22.622  1.00  0.00     0.278 HD
ATOM     13  H12 UNL     1      31.857  -7.894 -23.751  1.00  0.00     0.278 HD
HETATM   14  C13 UNL     1      28.690  -9.823 -25.815  1.00  0.00     0.047 C 
ENDROOT
BRANCH   1  15
HETATM   15  O1  UNL     1      29.586  -8.365 -27.418  1.00  0.00    -0.380 OA
BRANCH  15  16
HETATM   16  C2  UNL     1      28.428  -8.742 -28.049  1.00  0.00     0.164 C 
HETATM   17  C1  UNL     1      27.732  -7.547 -28.687  1.00  0.00     0.033 C 
ENDBRANCH  15  16
ENDBRANCH   1  15
TORSDOF 2
ENDMDL
MODEL 4
REMARK VINA RESULT: -5.364019206      1.325      1.811
REMARK  2 active torsions:
REMARK  status: ('A' for Active; 'I' for Inactive)
REMARK    1  A    between atoms: C2_2  and  O1_3 
REMARK    2  A    between atoms: O1_3  and  C3_4 
ROOT
HETATM    1  C3  UNL     1      28.549  -9.602 -22.936  1.00  0.00     0.065 C 
HETATM    2  C4  UNL     1      27.609 -10.577 -23.578  1.00  0.00     0.071 C 
HETATM    3  C5  UNL     1      28.201 -11.362 -24.708  1.00  0.00     0.189 C 
HETATM    4  C6  UNL     1      28.125 -10.676 -26.030  1.00  0.00     0.034 C 
HETATM    5  C7  UNL     1      28.760  -9.374 -26.176  1.00  0.00     0.011 C 
HETATM    6  C8  UNL     1      29.644  -8.885 -25.089  1.00  0.00    -0.039 C 
HETATM    7  C9  UNL     1      30.306  -7.594 -25.601  1.00  0.00     0.015 C 
HETATM    8  C10 UNL     1      30.740  -9.849 -24.817  1.00  0.00     0.042 C 
HETATM    9  C11 UNL     1      30.416 -10.943 -23.868  1.00  0.00     0.190 C 
HETATM   10  C12 UNL     1      29.826 -10.353 -22.621  1.00  0.00     0.071 C 
HETATM   11  N1  UNL     1      29.485 -11.907 -24.392  1.00  0.00    -0.066 N 
ATOM     12  H11 UNL     1      29.880 -12.385 -25.202  1.00  0.00     0.278 HD
ATOM     13  H12 UNL     1      29.391 -12.698 -23.755  1.00  0.00     0.278 HD
HETATM   14  C13 UNL     1      28.822  -8.495 -23.908  1.00  0.00     0.047 C 
ENDROOT
BRANCH   1  15
HETATM   15  O1  UNL     1      28.025  -9.083 -21.782  1.00  0.00    -0.380 OA
BRANCH  15  16
HETATM   16  C2  UNL     1      27.428  -9.990 -20.943  1.00  0.00     0.164 C 
HETATM   17  C1  UNL     1      27.881  -9.792 -19.502  1.00  0.00     0.033 C 
ENDBRANCH  15  16
ENDBRANCH   1  15
TORSDOF 2
ENDMDL
MODEL 5
REMARK VINA RESULT: -5.353366849      1.089      1.466
REMARK  2 active torsions:
REMARK  status: ('A' for Active; 'I' for Inactive)
REMARK    1  A    between atoms: C2_2  and  O1_3 
REMARK    2  A    between atoms: O1_3  and  C3_4 
ROOT
HETATM    1  C3  UNL     1      28.700  -9.514 -23.500  1.00  0.00     0.065 C 
HETATM    2  C4  UNL     1      29.553 -10.541 -22.820  1.00  0.00     0.071 C 
HETATM    3  C5  UNL     1      30.731 -11.004 -23.623  1.00  0.00     0.189 C 
HETATM    4  C6  UNL     1      30.425 -12.123 -24.560  1.00  0.00     0.034 C 
HETATM    5  C7  UNL     1      29.403 -11.921 -25.577  1.00  0.00     0.011 C 
HETATM    6  C8  UNL     1      28.870 -10.552 -25.790  1.00  0.00    -0.039 C 
HETATM    7  C9  UNL     1      27.963 -10.616 -27.031  1.00  0.00     0.015 C 
HETATM    8  C10 UNL     1      29.962  -9.597 -26.108  1.00  0.00     0.042 C 
HETATM    9  C11 UNL     1      30.651  -8.993 -24.941  1.00  0.00     0.190 C 
HETATM   10  C12 UNL     1      29.625  -8.426 -24.004  1.00  0.00     0.071 C 
HETATM   11  N1  UNL     1      31.465  -9.923 -24.204  1.00  0.00    -0.066 N 
ATOM     12  H11 UNL     1      32.222 -10.278 -24.787  1.00  0.00     0.278 HD
ATOM     13  H12 UNL     1      32.010  -9.437 -23.492  1.00  0.00     0.278 HD
HETATM   14  C13 UNL     1      27.992 -10.169 -24.647  1.00  0.00     0.047 C 
ENDROOT
BRANCH   1  15
HETATM   15  O1  UNL     1      27.781  -8.974 -22.641  1.00  0.00    -0.380 OA
BRANCH  15  16
HETATM   16  C2  UNL     1      27.547  -9.693 -21.496  1.00  0.00     0.164 C 
HETATM   17  C1  UNL     1      26.141 -10.280 -21.490  1.00  0.00     0.033 C 
ENDBRANCH  15  16
ENDBRANCH   1  15
TORSDOF 2
ENDMDL
