MODEL 1
REMARK VINA RESULT: -6.685509731      0.000      0.000
REMARK  4 active torsions:
REMARK  status: ('A' for Active; 'I' for Inactive)
REMARK    1  A    between atoms: O1_1  and  C1_3 
REMARK    2  A    between atoms: C5_7  and  N1_8 
REMARK    3  A    between atoms: N1_8  and  C6_11 
REMARK    4  A    between atoms: C6_11  and  C7_12 
ROOT
HETATM    1  C7  UNL     1      -7.352 -25.249  30.364  1.00  0.00    -0.012 C 
HETATM    2  C8  UNL     1      -7.328 -26.570  29.688  1.00  0.00     0.016 C 
HETATM    3  C9  UNL     1      -7.444 -27.689  30.722  1.00  0.00    -0.010 C 
HETATM    4  C10 UNL     1      -6.363 -27.598  31.755  1.00  0.00     0.037 C 
HETATM    5  C11 UNL     1      -6.363 -26.220  32.402  1.00  0.00     0.187 C 
HETATM    6  C12 UNL     1      -6.165 -25.181  31.301  1.00  0.00     0.044 C 
HETATM    7  N2  UNL     1      -7.627 -26.078  33.083  1.00  0.00    -0.067 N 
ATOM      8  H21 UNL     1      -7.666 -25.215  33.624  1.00  0.00     0.278 HD
ATOM      9  H22 UNL     1      -7.718 -26.746  33.848  1.00  0.00     0.278 HD
HETATM   10  C13 UNL     1      -8.745 -26.176  32.149  1.00  0.00     0.187 C 
HETATM   11  C14 UNL     1      -8.783 -27.488  31.419  1.00  0.00     0.037 C 
HETATM   12  C15 UNL     1      -8.609 -25.042  31.196  1.00  0.00     0.044 C 
ENDROOT
BRANCH   1  13
HETATM   13  C6  UNL     1      -7.206 -24.132  29.354  1.00  0.00     0.242 C 
BRANCH  13  14
HETATM   14  N1  UNL     1      -7.696 -22.880  29.795  1.00  0.00    -0.068 N 
ATOM     15  H12 UNL     1      -6.952 -22.342  30.238  1.00  0.00     0.277 HD
ATOM     16  H11 UNL     1      -8.320 -23.002  30.593  1.00  0.00     0.277 HD
BRANCH  14  17
HETATM   17  C5  UNL     1      -8.328 -22.115  28.787  1.00  0.00     0.214 C 
HETATM   18  C1  UNL     1      -9.334 -21.123  29.382  1.00  0.00     0.148 C 
HETATM   19  C2  UNL     1     -10.657 -21.785  29.086  1.00  0.00     0.034 C 
HETATM   20  C3  UNL     1     -10.443 -22.280  27.669  1.00  0.00     0.005 C 
HETATM   21  C4  UNL     1      -9.102 -22.989  27.836  1.00  0.00     0.036 C 
BRANCH  18  22
HETATM   22  O1  UNL     1      -9.254 -19.911  28.657  1.00  0.00    -0.393 OA
ATOM     23  H1  UNL     1      -8.431 -19.890  28.181  1.00  0.00     0.210 HD
ENDBRANCH  18  22
ENDBRANCH  14  17
ENDBRANCH  13  14
ENDBRANCH   1  13
TORSDOF 4
ENDMDL
MODEL 2
REMARK VINA RESULT: -6.544371782      1.135      1.806
REMARK  4 active torsions:
REMARK  status: ('A' for Active; 'I' for Inactive)
REMARK    1  A    between atoms: O1_1  and  C1_3 
REMARK    2  A    between atoms: C5_7  and  N1_8 
REMARK    3  A    between atoms: N1_8  and  C6_11 
REMARK    4  A    between atoms: C6_11  and  C7_12 
ROOT
HETATM    1  C7  UNL     1      -7.762 -25.646  30.779  1.00  0.00    -0.012 C 
HETATM    2  C8  UNL     1      -6.300 -25.430  30.918  1.00  0.00     0.016 C 
HETATM    3  C9  UNL     1      -5.630 -26.701  31.436  1.00  0.00    -0.010 C 
HETATM    4  C10 UNL     1      -6.228 -27.150  32.733  1.00  0.00     0.037 C 
HETATM    5  C11 UNL     1      -7.735 -27.316  32.592  1.00  0.00     0.187 C 
HETATM    6  C12 UNL     1      -8.318 -25.976  32.148  1.00  0.00     0.044 C 
HETATM    7  N2  UNL     1      -7.951 -28.367  31.627  1.00  0.00    -0.067 N 
ATOM      8  H21 UNL     1      -8.939 -28.605  31.548  1.00  0.00     0.278 HD
ATOM      9  H22 UNL     1      -7.601 -29.263  31.965  1.00  0.00     0.278 HD
HETATM   10  C13 UNL     1      -7.377 -28.021  30.330  1.00  0.00     0.187 C 
HETATM   11  C14 UNL     1      -5.896 -27.778  30.393  1.00  0.00     0.037 C 
HETATM   12  C15 UNL     1      -8.094 -26.807  29.854  1.00  0.00     0.044 C 
ENDROOT
BRANCH   1  13
HETATM   13  C6  UNL     1      -8.444 -24.385  30.298  1.00  0.00     0.242 C 
BRANCH  13  14
HETATM   14  N1  UNL     1      -7.599 -23.250  30.245  1.00  0.00    -0.068 N 
ATOM     15  H12 UNL     1      -6.621 -23.530  30.320  1.00  0.00     0.277 HD
ATOM     16  H11 UNL     1      -7.688 -22.700  31.100  1.00  0.00     0.277 HD
BRANCH  14  17
HETATM   17  C5  UNL     1      -7.795 -22.432  29.108  1.00  0.00     0.214 C 
HETATM   18  C1  UNL     1      -8.359 -21.059  29.494  1.00  0.00     0.148 C 
HETATM   19  C2  UNL     1      -9.811 -21.183  29.103  1.00  0.00     0.034 C 
HETATM   20  C3  UNL     1      -9.711 -21.895  27.769  1.00  0.00     0.005 C 
HETATM   21  C4  UNL     1      -8.783 -23.045  28.152  1.00  0.00     0.036 C 
BRANCH  18  22
HETATM   22  O1  UNL     1      -7.746 -20.077  28.683  1.00  0.00    -0.393 OA
ATOM     23  H1  UNL     1      -7.931 -19.218  29.045  1.00  0.00     0.210 HD
ENDBRANCH  18  22
ENDBRANCH  14  17
ENDBRANCH  13  14
ENDBRANCH   1  13
TORSDOF 4
ENDMDL
MODEL 3
REMARK VINA RESULT: -6.471956208      1.144      1.520
REMARK  4 active torsions:
REMARK  status: ('A' for Active; 'I' for Inactive)
REMARK    1  A    between atoms: O1_1  and  C1_3 
REMARK    2  A    between atoms: C5_7  and  N1_8 
REMARK    3  A    between atoms: N1_8  and  C6_11 
REMARK    4  A    between atoms: C6_11  and  C7_12 
ROOT
HETATM    1  C7  UNL     1      -7.895 -25.767  30.132  1.00  0.00    -0.012 C 
HETATM    2  C8  UNL     1      -8.879 -26.272  29.142  1.00  0.00     0.016 C 
HETATM    3  C9  UNL     1      -9.599 -27.498  29.699  1.00  0.00    -0.010 C 
HETATM    4  C10 UNL     1      -8.633 -28.575  30.087  1.00  0.00     0.037 C 
HETATM    5  C11 UNL     1      -7.598 -28.031  31.061  1.00  0.00     0.187 C 
HETATM    6  C12 UNL     1      -6.882 -26.863  30.385  1.00  0.00     0.044 C 
HETATM    7  N2  UNL     1      -8.310 -27.635  32.252  1.00  0.00    -0.067 N 
ATOM      8  H21 UNL     1      -7.670 -27.348  32.992  1.00  0.00     0.278 HD
ATOM      9  H22 UNL     1      -8.737 -28.437  32.716  1.00  0.00     0.278 HD
HETATM   10  C13 UNL     1      -9.294 -26.597  31.960  1.00  0.00     0.187 C 
HETATM   11  C14 UNL     1     -10.322 -27.033  30.955  1.00  0.00     0.037 C 
HETATM   12  C15 UNL     1      -8.537 -25.415  31.465  1.00  0.00     0.044 C 
ENDROOT
BRANCH   1  13
HETATM   13  C6  UNL     1      -7.150 -24.571  29.581  1.00  0.00     0.242 C 
BRANCH  13  14
HETATM   14  N1  UNL     1      -7.663 -23.321  30.002  1.00  0.00    -0.068 N 
ATOM     15  H12 UNL     1      -7.063 -22.913  30.719  1.00  0.00     0.277 HD
ATOM     16  H11 UNL     1      -8.517 -23.450  30.543  1.00  0.00     0.277 HD
BRANCH  14  17
HETATM   17  C5  UNL     1      -7.878 -22.398  28.952  1.00  0.00     0.214 C 
HETATM   18  C1  UNL     1      -8.404 -21.058  29.481  1.00  0.00     0.148 C 
HETATM   19  C2  UNL     1      -9.870 -21.122  29.128  1.00  0.00     0.034 C 
HETATM   20  C3  UNL     1      -9.824 -21.709  27.731  1.00  0.00     0.005 C 
HETATM   21  C4  UNL     1      -8.907 -22.904  27.976  1.00  0.00     0.036 C 
BRANCH  18  22
HETATM   22  O1  UNL     1      -7.798 -20.014  28.744  1.00  0.00    -0.393 OA
ATOM     23  H1  UNL     1      -6.884 -20.228  28.600  1.00  0.00     0.210 HD
ENDBRANCH  18  22
ENDBRANCH  14  17
ENDBRANCH  13  14
ENDBRANCH   1  13
TORSDOF 4
ENDMDL
MODEL 4
REMARK VINA RESULT: -6.423463444      1.294      2.244
REMARK  4 active torsions:
REMARK  status: ('A' for Active; 'I' for Inactive)
REMARK    1  A    between atoms: O1_1  and  C1_3 
REMARK    2  A    between atoms: C5_7  and  N1_8 
REMARK    3  A    between atoms: N1_8  and  C6_11 
REMARK    4  A    between atoms: C6_11  and  C7_12 
ROOT
HETATM    1  C7  UNL     1      -8.003 -25.085  29.463  1.00  0.00    -0.012 C 
HETATM    2  C8  UNL     1      -8.522 -24.532  30.738  1.00  0.00     0.016 C 
HETATM    3  C9  UNL     1      -8.766 -25.660  31.739  1.00  0.00    -0.010 C 
HETATM    4  C10 UNL     1      -9.699 -26.693  31.187  1.00  0.00     0.037 C 
HETATM    5  C11 UNL     1      -9.183 -27.214  29.853  1.00  0.00     0.187 C 
HETATM    6  C12 UNL     1      -9.048 -26.027  28.902  1.00  0.00     0.044 C 
HETATM    7  N2  UNL     1      -7.923 -27.864  30.117  1.00  0.00    -0.067 N 
ATOM      8  H21 UNL     1      -7.558 -28.326  29.284  1.00  0.00     0.278 HD
ATOM      9  H22 UNL     1      -8.042 -28.685  30.711  1.00  0.00     0.278 HD
HETATM   10  C13 UNL     1      -6.953 -26.930  30.681  1.00  0.00     0.187 C 
HETATM   11  C14 UNL     1      -7.414 -26.319  31.973  1.00  0.00     0.037 C 
HETATM   12  C15 UNL     1      -6.720 -25.881  29.652  1.00  0.00     0.044 C 
ENDROOT
BRANCH   1  13
HETATM   13  C6  UNL     1      -7.788 -23.982  28.451  1.00  0.00     0.242 C 
BRANCH  13  14
HETATM   14  N1  UNL     1      -7.995 -22.677  28.959  1.00  0.00    -0.068 N 
ATOM     15  H12 UNL     1      -7.104 -22.198  29.084  1.00  0.00     0.277 HD
ATOM     16  H11 UNL     1      -8.307 -22.718  29.929  1.00  0.00     0.277 HD
BRANCH  14  17
HETATM   17  C5  UNL     1      -8.879 -21.887  28.188  1.00  0.00     0.214 C 
HETATM   18  C1  UNL     1      -9.693 -20.933  29.070  1.00  0.00     0.148 C 
HETATM   19  C2  UNL     1     -11.044 -21.604  29.115  1.00  0.00     0.034 C 
HETATM   20  C3  UNL     1     -11.216 -22.045  27.674  1.00  0.00     0.005 C 
HETATM   21  C4  UNL     1      -9.876 -22.738  27.447  1.00  0.00     0.036 C 
BRANCH  18  22
HETATM   22  O1  UNL     1      -9.818 -19.695  28.398  1.00  0.00    -0.393 OA
ATOM     23  H1  UNL     1      -9.393 -19.759  27.550  1.00  0.00     0.210 HD
ENDBRANCH  18  22
ENDBRANCH  14  17
ENDBRANCH  13  14
ENDBRANCH   1  13
TORSDOF 4
ENDMDL
MODEL 5
REMARK VINA RESULT: -6.421695055      2.064      5.845
REMARK  4 active torsions:
REMARK  status: ('A' for Active; 'I' for Inactive)
REMARK    1  A    between atoms: O1_1  and  C1_3 
REMARK    2  A    between atoms: C5_7  and  N1_8 
REMARK    3  A    between atoms: N1_8  and  C6_11 
REMARK    4  A    between atoms: C6_11  and  C7_12 
ROOT
HETATM    1  C7  UNL     1      -9.177 -23.694  28.397  1.00  0.00    -0.012 C 
HETATM    2  C8  UNL     1     -10.539 -24.005  28.899  1.00  0.00     0.016 C 
HETATM    3  C9  UNL     1     -11.512 -22.901  28.490  1.00  0.00    -0.010 C 
HETATM    4  C10 UNL     1     -11.058 -21.559  28.977  1.00  0.00     0.037 C 
HETATM    5  C11 UNL     1      -9.640 -21.275  28.500  1.00  0.00     0.187 C 
HETATM    6  C12 UNL     1      -8.735 -22.388  29.023  1.00  0.00     0.044 C 
HETATM    7  N2  UNL     1      -9.685 -21.223  27.060  1.00  0.00    -0.067 N 
ATOM      8  H21 UNL     1      -8.788 -20.940  26.667  1.00  0.00     0.278 HD
ATOM      9  H22 UNL     1     -10.253 -20.441  26.731  1.00  0.00     0.278 HD
HETATM   10  C13 UNL     1     -10.141 -22.490  26.498  1.00  0.00     0.187 C 
HETATM   11  C14 UNL     1     -11.514 -22.878  26.968  1.00  0.00     0.037 C 
HETATM   12  C15 UNL     1      -9.138 -23.518  26.887  1.00  0.00     0.044 C 
ENDROOT
BRANCH   1  13
HETATM   13  C6  UNL     1      -8.195 -24.764  28.823  1.00  0.00     0.242 C 
BRANCH  13  14
HETATM   14  N1  UNL     1      -8.598 -25.505  29.959  1.00  0.00    -0.068 N 
ATOM     15  H12 UNL     1      -8.558 -26.505  29.765  1.00  0.00     0.277 HD
ATOM     16  H11 UNL     1      -9.600 -25.399  30.118  1.00  0.00     0.277 HD
BRANCH  14  17
HETATM   17  C5  UNL     1      -7.877 -25.200  31.137  1.00  0.00     0.214 C 
HETATM   18  C1  UNL     1      -6.378 -25.041  30.853  1.00  0.00     0.148 C 
HETATM   19  C2  UNL     1      -5.810 -26.339  31.373  1.00  0.00     0.034 C 
HETATM   20  C3  UNL     1      -6.580 -26.515  32.667  1.00  0.00     0.005 C 
HETATM   21  C4  UNL     1      -8.003 -26.297  32.160  1.00  0.00     0.036 C 
BRANCH  18  22
HETATM   22  O1  UNL     1      -5.882 -23.975  31.637  1.00  0.00    -0.393 OA
ATOM     23  H1  UNL     1      -6.104 -23.152  31.216  1.00  0.00     0.210 HD
ENDBRANCH  18  22
ENDBRANCH  14  17
ENDBRANCH  13  14
ENDBRANCH   1  13
TORSDOF 4
ENDMDL
