MODEL 1
REMARK VINA RESULT: -5.830626077      0.000      0.000
REMARK  4 active torsions:
REMARK  status: ('A' for Active; 'I' for Inactive)
REMARK    1  A    between atoms: C2_2  and  C4_4 
REMARK    2  A    between atoms: C4_4  and  N1_5 
REMARK    3  A    between atoms: C10_11  and  C11_12 
REMARK    4  A    between atoms: C11_12  and  N2_15 
ROOT
HETATM    1  N1  UNL     1      -8.580 -23.815  29.443  1.00  0.00     0.093 N 
HETATM    2  C5  UNL     1      -7.220 -24.074  29.710  1.00  0.00     0.277 C 
HETATM    3  C6  UNL     1      -7.099 -25.566  30.060  1.00  0.00     0.020 C 
HETATM    4  C7  UNL     1      -6.603 -25.749  31.432  1.00  0.00     0.007 C 
HETATM    5  C8  UNL     1      -7.451 -26.445  32.410  1.00  0.00     0.001 C 
HETATM    6  C9  UNL     1      -8.829 -26.818  31.977  1.00  0.00     0.007 C 
HETATM    7  C10 UNL     1      -9.019 -27.169  30.557  1.00  0.00     0.027 C 
HETATM    8  C14 UNL     1      -8.367 -26.183  29.666  1.00  0.00     0.026 C 
HETATM    9  C15 UNL     1      -9.332 -25.013  29.427  1.00  0.00     0.278 C 
ENDROOT
BRANCH   7  10
HETATM   10  C11 UNL     1      -8.852 -28.617  30.195  1.00  0.00     0.120 C 
HETATM   11  C12 UNL     1      -7.455 -29.114  30.047  1.00  0.00     0.046 C 
HETATM   12  C13 UNL     1      -9.533 -28.935  28.853  1.00  0.00     0.046 C 
BRANCH  10  13
HETATM   13  N2  UNL     1      -9.523 -29.479  31.156  1.00  0.00    -0.071 N 
ATOM     14  H23 UNL     1      -8.864 -30.095  31.632  1.00  0.00     0.275 HD
ATOM     15  H22 UNL     1      -9.857 -28.953  31.964  1.00  0.00     0.275 HD
ATOM     16  H21 UNL     1     -10.277 -30.005  30.713  1.00  0.00     0.275 HD
ENDBRANCH  10  13
ENDBRANCH   7  10
BRANCH   1  17
HETATM   17  C4  UNL     1      -8.792 -22.908  28.373  1.00  0.00     0.305 C 
BRANCH  17  18
HETATM   18  C2  UNL     1      -9.322 -21.625  28.887  1.00  0.00    -0.065 C 
HETATM   19  C1  UNL     1     -10.626 -21.385  29.006  1.00  0.00     0.015 C 
HETATM   20  C3  UNL     1      -8.380 -20.553  29.304  1.00  0.00     0.044 C 
ENDBRANCH  17  18
ENDBRANCH   1  17
TORSDOF 4
ENDMDL
MODEL 2
REMARK VINA RESULT: -5.713866448      3.521      5.596
REMARK  4 active torsions:
REMARK  status: ('A' for Active; 'I' for Inactive)
REMARK    1  A    between atoms: C2_2  and  C4_4 
REMARK    2  A    between atoms: C4_4  and  N1_5 
REMARK    3  A    between atoms: C10_11  and  C11_12 
REMARK    4  A    between atoms: C11_12  and  N2_15 
ROOT
HETATM    1  N1  UNL     1     -11.541 -23.056  25.688  1.00  0.00     0.093 N 
HETATM    2  C5  UNL     1     -12.308 -22.965  26.867  1.00  0.00     0.277 C 
HETATM    3  C6  UNL     1     -11.360 -23.225  28.050  1.00  0.00     0.020 C 
HETATM    4  C7  UNL     1     -11.765 -24.423  28.799  1.00  0.00     0.007 C 
HETATM    5  C8  UNL     1     -10.836 -25.558  28.886  1.00  0.00     0.001 C 
HETATM    6  C9  UNL     1      -9.575 -25.472  28.096  1.00  0.00     0.007 C 
HETATM    7  C10 UNL     1      -8.980 -24.134  27.916  1.00  0.00     0.027 C 
HETATM    8  C14 UNL     1     -10.001 -23.140  27.511  1.00  0.00     0.026 C 
HETATM    9  C15 UNL     1     -10.164 -23.189  25.985  1.00  0.00     0.278 C 
ENDROOT
BRANCH   7  10
HETATM   10  C11 UNL     1      -7.990 -23.693  28.956  1.00  0.00     0.120 C 
HETATM   11  C12 UNL     1      -8.031 -24.403  30.265  1.00  0.00     0.046 C 
HETATM   12  C13 UNL     1      -8.173 -22.206  29.302  1.00  0.00     0.046 C 
BRANCH  10  13
HETATM   13  N2  UNL     1      -6.627 -23.784  28.453  1.00  0.00    -0.071 N 
ATOM     14  H23 UNL     1      -6.426 -23.047  27.777  1.00  0.00     0.275 HD
ATOM     15  H22 UNL     1      -5.945 -23.529  29.168  1.00  0.00     0.275 HD
ATOM     16  H21 UNL     1      -6.438 -24.709  28.067  1.00  0.00     0.275 HD
ENDBRANCH  10  13
ENDBRANCH   7  10
BRANCH   1  17
HETATM   17  C4  UNL     1     -11.896 -22.103  24.698  1.00  0.00     0.305 C 
BRANCH  17  18
HETATM   18  C2  UNL     1     -11.798 -22.704  23.350  1.00  0.00    -0.065 C 
HETATM   19  C1  UNL     1     -10.871 -22.336  22.467  1.00  0.00     0.015 C 
HETATM   20  C3  UNL     1     -12.752 -23.771  22.947  1.00  0.00     0.044 C 
ENDBRANCH  17  18
ENDBRANCH   1  17
TORSDOF 4
ENDMDL
MODEL 3
REMARK VINA RESULT: -5.662344920      2.270      5.511
REMARK  4 active torsions:
REMARK  status: ('A' for Active; 'I' for Inactive)
REMARK    1  A    between atoms: C2_2  and  C4_4 
REMARK    2  A    between atoms: C4_4  and  N1_5 
REMARK    3  A    between atoms: C10_11  and  C11_12 
REMARK    4  A    between atoms: C11_12  and  N2_15 
ROOT
HETATM    1  N1  UNL     1      -7.948 -26.849  29.912  1.00  0.00     0.093 N 
HETATM    2  C5  UNL     1      -7.524 -25.527  30.160  1.00  0.00     0.277 C 
HETATM    3  C6  UNL     1      -8.587 -24.588  29.569  1.00  0.00     0.020 C 
HETATM    4  C7  UNL     1      -8.020 -23.748  28.505  1.00  0.00     0.007 C 
HETATM    5  C8  UNL     1      -8.562 -23.858  27.143  1.00  0.00     0.001 C 
HETATM    6  C9  UNL     1      -9.584 -24.915  26.898  1.00  0.00     0.007 C 
HETATM    7  C10 UNL     1     -10.496 -25.245  28.009  1.00  0.00     0.027 C 
HETATM    8  C14 UNL     1      -9.756 -25.422  29.279  1.00  0.00     0.026 C 
HETATM    9  C15 UNL     1      -9.251 -26.871  29.364  1.00  0.00     0.278 C 
ENDROOT
BRANCH   7  10
HETATM   10  C11 UNL     1     -11.777 -24.465  28.082  1.00  0.00     0.120 C 
HETATM   11  C12 UNL     1     -11.685 -23.069  28.594  1.00  0.00     0.046 C 
HETATM   12  C13 UNL     1     -12.799 -25.160  28.998  1.00  0.00     0.046 C 
BRANCH  10  13
HETATM   13  N2  UNL     1     -12.432 -24.411  26.784  1.00  0.00    -0.071 N 
ATOM     14  H23 UNL     1     -13.172 -23.709  26.765  1.00  0.00     0.275 HD
ATOM     15  H22 UNL     1     -11.821 -24.012  26.071  1.00  0.00     0.275 HD
ATOM     16  H21 UNL     1     -12.779 -25.330  26.508  1.00  0.00     0.275 HD
ENDBRANCH  10  13
ENDBRANCH   7  10
BRANCH   1  17
HETATM   17  C4  UNL     1      -7.683 -27.746  30.979  1.00  0.00     0.305 C 
BRANCH  17  18
HETATM   18  C2  UNL     1      -6.256 -28.139  30.975  1.00  0.00    -0.065 C 
HETATM   19  C1  UNL     1      -5.702 -28.814  29.970  1.00  0.00     0.015 C 
HETATM   20  C3  UNL     1      -5.387 -27.766  32.122  1.00  0.00     0.044 C 
ENDBRANCH  17  18
ENDBRANCH   1  17
TORSDOF 4
ENDMDL
MODEL 4
REMARK VINA RESULT: -5.639740935      3.578      5.774
REMARK  4 active torsions:
REMARK  status: ('A' for Active; 'I' for Inactive)
REMARK    1  A    between atoms: C2_2  and  C4_4 
REMARK    2  A    between atoms: C4_4  and  N1_5 
REMARK    3  A    between atoms: C10_11  and  C11_12 
REMARK    4  A    between atoms: C11_12  and  N2_15 
ROOT
HETATM    1  N1  UNL     1     -10.874 -21.941  25.313  1.00  0.00     0.093 N 
HETATM    2  C5  UNL     1     -11.712 -21.706  26.422  1.00  0.00     0.277 C 
HETATM    3  C6  UNL     1     -10.998 -22.271  27.661  1.00  0.00     0.020 C 
HETATM    4  C7  UNL     1     -11.782 -23.351  28.277  1.00  0.00     0.007 C 
HETATM    5  C8  UNL     1     -11.200 -24.698  28.359  1.00  0.00     0.001 C 
HETATM    6  C9  UNL     1      -9.883 -24.914  27.695  1.00  0.00     0.007 C 
HETATM    7  C10 UNL     1      -8.941 -23.779  27.673  1.00  0.00     0.027 C 
HETATM    8  C14 UNL     1      -9.615 -22.528  27.255  1.00  0.00     0.026 C 
HETATM    9  C15 UNL     1      -9.621 -22.455  25.721  1.00  0.00     0.278 C 
ENDROOT
BRANCH   7  10
HETATM   10  C11 UNL     1      -7.987 -23.675  28.828  1.00  0.00     0.120 C 
HETATM   11  C12 UNL     1      -8.180 -24.640  29.947  1.00  0.00     0.046 C 
HETATM   12  C13 UNL     1      -8.059 -22.285  29.483  1.00  0.00     0.046 C 
BRANCH  10  13
HETATM   13  N2  UNL     1      -6.608 -23.794  28.381  1.00  0.00    -0.071 N 
ATOM     14  H23 UNL     1      -6.232 -24.724  28.565  1.00  0.00     0.275 HD
ATOM     15  H22 UNL     1      -6.541 -23.798  27.363  1.00  0.00     0.275 HD
ATOM     16  H21 UNL     1      -6.024 -23.065  28.793  1.00  0.00     0.275 HD
ENDBRANCH  10  13
ENDBRANCH   7  10
BRANCH   1  17
HETATM   17  C4  UNL     1     -10.858 -20.879  24.372  1.00  0.00     0.305 C 
BRANCH  17  18
HETATM   18  C2  UNL     1     -11.220 -21.381  23.027  1.00  0.00    -0.065 C 
HETATM   19  C1  UNL     1     -10.952 -22.623  22.630  1.00  0.00     0.015 C 
HETATM   20  C3  UNL     1     -11.924 -20.485  22.072  1.00  0.00     0.044 C 
ENDBRANCH  17  18
ENDBRANCH   1  17
TORSDOF 4
ENDMDL
MODEL 5
REMARK VINA RESULT: -5.621152992      2.234      6.137
REMARK  4 active torsions:
REMARK  status: ('A' for Active; 'I' for Inactive)
REMARK    1  A    between atoms: C2_2  and  C4_4 
REMARK    2  A    between atoms: C4_4  and  N1_5 
REMARK    3  A    between atoms: C10_11  and  C11_12 
REMARK    4  A    between atoms: C11_12  and  N2_15 
ROOT
HETATM    1  N1  UNL     1      -8.032 -24.508  29.904  1.00  0.00     0.093 N 
HETATM    2  C5  UNL     1      -8.499 -25.351  28.875  1.00  0.00     0.277 C 
HETATM    3  C6  UNL     1      -9.322 -24.483  27.910  1.00  0.00     0.020 C 
HETATM    4  C7  UNL     1     -10.721 -24.932  27.856  1.00  0.00     0.007 C 
HETATM    5  C8  UNL     1     -11.784 -24.006  28.271  1.00  0.00     0.001 C 
HETATM    6  C9  UNL     1     -11.363 -22.696  28.845  1.00  0.00     0.007 C 
HETATM    7  C10 UNL     1     -10.121 -22.096  28.322  1.00  0.00     0.027 C 
HETATM    8  C14 UNL     1      -9.027 -23.092  28.259  1.00  0.00     0.026 C 
HETATM    9  C15 UNL     1      -8.331 -23.154  29.626  1.00  0.00     0.278 C 
ENDROOT
BRANCH   7  10
HETATM   10  C11 UNL     1     -10.264 -21.178  27.142  1.00  0.00     0.120 C 
HETATM   11  C12 UNL     1     -11.628 -20.649  26.864  1.00  0.00     0.046 C 
HETATM   12  C13 UNL     1      -9.834 -21.878  25.840  1.00  0.00     0.046 C 
BRANCH  10  13
HETATM   13  N2  UNL     1      -9.368 -20.037  27.253  1.00  0.00    -0.071 N 
ATOM     14  H23 UNL     1      -8.938 -19.986  28.176  1.00  0.00     0.275 HD
ATOM     15  H22 UNL     1      -8.524 -20.167  26.695  1.00  0.00     0.275 HD
ATOM     16  H21 UNL     1      -9.847 -19.169  27.013  1.00  0.00     0.275 HD
ENDBRANCH  10  13
ENDBRANCH   7  10
BRANCH   1  17
HETATM   17  C4  UNL     1      -6.712 -24.801  30.331  1.00  0.00     0.305 C 
BRANCH  17  18
HETATM   18  C2  UNL     1      -6.721 -25.932  31.286  1.00  0.00    -0.065 C 
HETATM   19  C1  UNL     1      -5.710 -26.793  31.387  1.00  0.00     0.015 C 
HETATM   20  C3  UNL     1      -7.889 -26.127  32.185  1.00  0.00     0.044 C 
ENDBRANCH  17  18
ENDBRANCH   1  17
TORSDOF 4
ENDMDL
