MODEL 1
REMARK VINA RESULT: -5.939343181      0.000      0.000
REMARK  5 active torsions:
REMARK  status: ('A' for Active; 'I' for Inactive)
REMARK    1  A    between atoms: C3_4  and  C4_5 
REMARK    2  A    between atoms: C7_8  and  N2_9 
REMARK    3  A    between atoms: N2_9  and  C8_11 
REMARK    4  A    between atoms: C8_11  and  N3_13 
REMARK    5  A    between atoms: N3_13  and  C9_15 
ROOT
HETATM    1  N1  UNL     1     -10.431 -18.911  27.010  1.00  0.00    -0.192 NA
HETATM    2  C1  UNL     1     -10.244 -19.564  26.044  1.00  0.00     0.087 C 
HETATM    3  C2  UNL     1     -10.006 -20.300  24.874  1.00  0.00     0.090 C 
HETATM    4  C3  UNL     1     -10.068 -21.563  24.693  1.00  0.00    -0.009 C 
ENDROOT
BRANCH   4   5
HETATM    5  C4  UNL     1     -10.412 -22.581  25.674  1.00  0.00     0.032 C 
HETATM    6  C5  UNL     1     -10.300 -24.008  25.117  1.00  0.00     0.012 C 
HETATM    7  C6  UNL     1     -10.051 -24.413  26.597  1.00  0.00     0.026 C 
HETATM    8  C7  UNL     1      -9.395 -23.020  26.690  1.00  0.00     0.091 C 
BRANCH   8   9
HETATM    9  N2  UNL     1      -9.419 -22.490  28.001  1.00  0.00    -0.362 N 
ATOM     10  H2  UNL     1     -10.350 -22.326  28.384  1.00  0.00     0.162 HD
BRANCH   9  11
HETATM   11  C8  UNL     1      -8.354 -22.155  28.860  1.00  0.00     0.168 C 
HETATM   12  S1  UNL     1      -8.198 -20.628  29.383  1.00  0.00    -0.041 SA
BRANCH  11  13
HETATM   13  N3  UNL     1      -7.390 -23.144  29.248  1.00  0.00    -0.363 N 
ATOM     14  H3  UNL     1      -6.621 -23.376  28.620  1.00  0.00     0.162 HD
BRANCH  13  15
HETATM   15  C9  UNL     1      -7.501 -23.806  30.510  1.00  0.00     0.083 C 
HETATM   16  C10 UNL     1      -8.727 -24.708  30.569  1.00  0.00     0.025 C 
HETATM   17  C11 UNL     1      -8.362 -25.845  29.628  1.00  0.00     0.002 C 
HETATM   18  C12 UNL     1      -6.877 -26.002  29.799  1.00  0.00     0.002 C 
HETATM   19  C13 UNL     1      -6.419 -24.879  30.711  1.00  0.00     0.025 C 
ENDBRANCH  13  15
ENDBRANCH  11  13
ENDBRANCH   9  11
ENDBRANCH   8   9
ENDBRANCH   4   5
TORSDOF 5
ENDMDL
MODEL 2
REMARK VINA RESULT: -5.890564142      3.681      5.580
REMARK  5 active torsions:
REMARK  status: ('A' for Active; 'I' for Inactive)
REMARK    1  A    between atoms: C3_4  and  C4_5 
REMARK    2  A    between atoms: C7_8  and  N2_9 
REMARK    3  A    between atoms: N2_9  and  C8_11 
REMARK    4  A    between atoms: C8_11  and  N3_13 
REMARK    5  A    between atoms: N3_13  and  C9_15 
ROOT
HETATM    1  N1  UNL     1      -7.812 -12.806  25.569  1.00  0.00    -0.192 NA
HETATM    2  C1  UNL     1      -7.527 -13.908  25.252  1.00  0.00     0.087 C 
HETATM    3  C2  UNL     1      -7.143 -15.204  24.879  1.00  0.00     0.090 C 
HETATM    4  C3  UNL     1      -7.872 -16.238  24.702  1.00  0.00    -0.009 C 
ENDROOT
BRANCH   4   5
HETATM    5  C4  UNL     1      -9.317 -16.337  24.843  1.00  0.00     0.032 C 
HETATM    6  C5  UNL     1     -10.065 -16.046  23.534  1.00  0.00     0.012 C 
HETATM    7  C6  UNL     1     -11.175 -16.954  24.134  1.00  0.00     0.026 C 
HETATM    8  C7  UNL     1      -9.987 -17.681  24.794  1.00  0.00     0.091 C 
BRANCH   8   9
HETATM    9  N2  UNL     1     -10.347 -18.345  25.990  1.00  0.00    -0.362 N 
ATOM     10  H2  UNL     1     -10.490 -17.737  26.796  1.00  0.00     0.162 HD
BRANCH   9  11
HETATM   11  C8  UNL     1     -10.539 -19.719  26.238  1.00  0.00     0.168 C 
HETATM   12  S1  UNL     1     -11.828 -20.473  25.606  1.00  0.00    -0.041 SA
BRANCH  11  13
HETATM   13  N3  UNL     1      -9.623 -20.445  27.069  1.00  0.00    -0.363 N 
ATOM     14  H3  UNL     1      -8.889 -21.008  26.642  1.00  0.00     0.162 HD
BRANCH  13  15
HETATM   15  C9  UNL     1      -9.735 -20.386  28.493  1.00  0.00     0.083 C 
HETATM   16  C10 UNL     1     -10.675 -21.455  29.032  1.00  0.00     0.025 C 
HETATM   17  C11 UNL     1      -9.894 -22.741  28.813  1.00  0.00     0.002 C 
HETATM   18  C12 UNL     1      -8.461 -22.341  29.017  1.00  0.00     0.002 C 
HETATM   19  C13 UNL     1      -8.448 -20.834  29.205  1.00  0.00     0.025 C 
ENDBRANCH  13  15
ENDBRANCH  11  13
ENDBRANCH   9  11
ENDBRANCH   8   9
ENDBRANCH   4   5
TORSDOF 5
ENDMDL
MODEL 3
REMARK VINA RESULT: -5.855382154      2.056      6.079
REMARK  5 active torsions:
REMARK  status: ('A' for Active; 'I' for Inactive)
REMARK    1  A    between atoms: C3_4  and  C4_5 
REMARK    2  A    between atoms: C7_8  and  N2_9 
REMARK    3  A    between atoms: N2_9  and  C8_11 
REMARK    4  A    between atoms: C8_11  and  N3_13 
REMARK    5  A    between atoms: N3_13  and  C9_15 
ROOT
HETATM    1  N1  UNL     1      -9.994 -28.234  32.587  1.00  0.00    -0.192 NA
HETATM    2  C1  UNL     1      -9.675 -27.860  31.513  1.00  0.00     0.087 C 
HETATM    3  C2  UNL     1      -9.332 -27.443  30.218  1.00  0.00     0.090 C 
HETATM    4  C3  UNL     1      -8.507 -26.535  29.859  1.00  0.00    -0.009 C 
ENDROOT
BRANCH   4   5
HETATM    5  C4  UNL     1      -7.695 -25.688  30.719  1.00  0.00     0.032 C 
HETATM    6  C5  UNL     1      -6.327 -26.306  31.044  1.00  0.00     0.012 C 
HETATM    7  C6  UNL     1      -5.864 -24.832  31.223  1.00  0.00     0.026 C 
HETATM    8  C7  UNL     1      -6.912 -24.549  30.128  1.00  0.00     0.091 C 
BRANCH   8   9
HETATM    9  N2  UNL     1      -7.417 -23.229  30.183  1.00  0.00    -0.362 N 
ATOM     10  H2  UNL     1      -7.352 -22.779  31.096  1.00  0.00     0.162 HD
BRANCH   9  11
HETATM   11  C8  UNL     1      -7.997 -22.441  29.170  1.00  0.00     0.168 C 
HETATM   12  S1  UNL     1      -8.239 -20.858  29.427  1.00  0.00    -0.041 SA
BRANCH  11  13
HETATM   13  N3  UNL     1      -8.403 -23.031  27.927  1.00  0.00    -0.363 N 
ATOM     14  H3  UNL     1      -7.795 -23.707  27.465  1.00  0.00     0.162 HD
BRANCH  13  15
HETATM   15  C9  UNL     1      -9.655 -22.679  27.333  1.00  0.00     0.083 C 
HETATM   16  C10 UNL     1      -9.813 -23.288  25.946  1.00  0.00     0.025 C 
HETATM   17  C11 UNL     1      -9.988 -24.769  26.239  1.00  0.00     0.002 C 
HETATM   18  C12 UNL     1     -10.739 -24.800  27.541  1.00  0.00     0.002 C 
HETATM   19  C13 UNL     1     -10.847 -23.364  28.020  1.00  0.00     0.025 C 
ENDBRANCH  13  15
ENDBRANCH  11  13
ENDBRANCH   9  11
ENDBRANCH   8   9
ENDBRANCH   4   5
TORSDOF 5
ENDMDL
MODEL 4
REMARK VINA RESULT: -5.837277757      3.013      4.087
REMARK  5 active torsions:
REMARK  status: ('A' for Active; 'I' for Inactive)
REMARK    1  A    between atoms: C3_4  and  C4_5 
REMARK    2  A    between atoms: C7_8  and  N2_9 
REMARK    3  A    between atoms: N2_9  and  C8_11 
REMARK    4  A    between atoms: C8_11  and  N3_13 
REMARK    5  A    between atoms: N3_13  and  C9_15 
ROOT
HETATM    1  N1  UNL     1      -9.950 -19.941  28.505  1.00  0.00    -0.192 NA
HETATM    2  C1  UNL     1      -9.125 -20.706  28.867  1.00  0.00     0.087 C 
HETATM    3  C2  UNL     1      -8.120 -21.577  29.313  1.00  0.00     0.090 C 
HETATM    4  C3  UNL     1      -8.118 -22.855  29.340  1.00  0.00    -0.009 C 
ENDROOT
BRANCH   4   5
HETATM    5  C4  UNL     1      -9.178 -23.750  28.903  1.00  0.00     0.032 C 
HETATM    6  C5  UNL     1      -9.280 -23.853  27.375  1.00  0.00     0.012 C 
HETATM    7  C6  UNL     1      -9.885 -25.258  27.652  1.00  0.00     0.026 C 
HETATM    8  C7  UNL     1      -8.943 -25.234  28.873  1.00  0.00     0.091 C 
BRANCH   8   9
HETATM    9  N2  UNL     1      -9.401 -26.053  29.932  1.00  0.00    -0.362 N 
ATOM     10  H2  UNL     1     -10.299 -25.781  30.331  1.00  0.00     0.162 HD
BRANCH   9  11
HETATM   11  C8  UNL     1      -8.805 -27.186  30.520  1.00  0.00     0.168 C 
HETATM   12  S1  UNL     1      -8.768 -28.586  29.702  1.00  0.00    -0.041 SA
BRANCH  11  13
HETATM   13  N3  UNL     1      -8.260 -27.120  31.846  1.00  0.00    -0.363 N 
ATOM     14  H3  UNL     1      -8.589 -27.767  32.561  1.00  0.00     0.162 HD
BRANCH  13  15
HETATM   15  C9  UNL     1      -7.259 -26.152  32.169  1.00  0.00     0.083 C 
HETATM   16  C10 UNL     1      -6.433 -26.576  33.376  1.00  0.00     0.025 C 
HETATM   17  C11 UNL     1      -5.612 -27.738  32.840  1.00  0.00     0.002 C 
HETATM   18  C12 UNL     1      -5.348 -27.371  31.407  1.00  0.00     0.002 C 
HETATM   19  C13 UNL     1      -6.130 -26.101  31.127  1.00  0.00     0.025 C 
ENDBRANCH  13  15
ENDBRANCH  11  13
ENDBRANCH   9  11
ENDBRANCH   8   9
ENDBRANCH   4   5
TORSDOF 5
ENDMDL
MODEL 5
REMARK VINA RESULT: -5.739047489      3.878      7.435
REMARK  5 active torsions:
REMARK  status: ('A' for Active; 'I' for Inactive)
REMARK    1  A    between atoms: C3_4  and  C4_5 
REMARK    2  A    between atoms: C7_8  and  N2_9 
REMARK    3  A    between atoms: N2_9  and  C8_11 
REMARK    4  A    between atoms: C8_11  and  N3_13 
REMARK    5  A    between atoms: N3_13  and  C9_15 
ROOT
HETATM    1  N1  UNL     1      -7.768 -20.034  28.895  1.00  0.00    -0.192 NA
HETATM    2  C1  UNL     1      -8.860 -20.430  28.680  1.00  0.00     0.087 C 
HETATM    3  C2  UNL     1     -10.169 -20.889  28.471  1.00  0.00     0.090 C 
HETATM    4  C3  UNL     1     -10.729 -21.247  27.379  1.00  0.00    -0.009 C 
ENDROOT
BRANCH   4   5
HETATM    5  C4  UNL     1     -10.140 -21.272  26.049  1.00  0.00     0.032 C 
HETATM    6  C5  UNL     1     -10.958 -22.105  25.051  1.00  0.00     0.012 C 
HETATM    7  C6  UNL     1     -10.324 -21.177  23.977  1.00  0.00     0.026 C 
HETATM    8  C7  UNL     1     -10.368 -20.126  25.105  1.00  0.00     0.091 C 
BRANCH   8   9
HETATM    9  N2  UNL     1      -9.386 -19.119  24.952  1.00  0.00    -0.362 N 
ATOM     10  H2  UNL     1      -8.438 -19.460  24.797  1.00  0.00     0.162 HD
BRANCH   9  11
HETATM   11  C8  UNL     1      -9.518 -17.717  24.982  1.00  0.00     0.168 C 
HETATM   12  S1  UNL     1     -10.987 -17.056  25.176  1.00  0.00    -0.041 SA
BRANCH  11  13
HETATM   13  N3  UNL     1      -8.372 -16.871  24.811  1.00  0.00    -0.363 N 
ATOM     14  H3  UNL     1      -7.437 -17.278  24.815  1.00  0.00     0.162 HD
BRANCH  13  15
HETATM   15  C9  UNL     1      -8.533 -15.462  24.634  1.00  0.00     0.083 C 
HETATM   16  C10 UNL     1      -7.405 -14.678  25.292  1.00  0.00     0.025 C 
HETATM   17  C11 UNL     1      -6.208 -14.990  24.407  1.00  0.00     0.002 C 
HETATM   18  C12 UNL     1      -6.793 -15.119  23.029  1.00  0.00     0.002 C 
HETATM   19  C13 UNL     1      -8.300 -15.019  23.180  1.00  0.00     0.025 C 
ENDBRANCH  13  15
ENDBRANCH  11  13
ENDBRANCH   9  11
ENDBRANCH   8   9
ENDBRANCH   4   5
TORSDOF 5
ENDMDL
