MODEL 1
REMARK VINA RESULT: -5.744600123      0.000      0.000
REMARK  2 active torsions:
REMARK  status: ('A' for Active; 'I' for Inactive)
REMARK    1  A    between atoms: C5_5  and  C6_6 
REMARK    2  A    between atoms: C6_6  and  N1_7 
ROOT
HETATM    1  C1  UNL     1       9.241 -88.084 153.518  1.00  0.00     0.000 C 
HETATM    2  C2  UNL     1      10.173 -87.489 152.497  1.00  0.00     0.000 C 
HETATM    3  C3  UNL     1      10.876 -88.563 151.671  1.00  0.00     0.001 C 
HETATM    4  C4  UNL     1      11.599 -89.521 152.580  1.00  0.00     0.010 C 
HETATM    5  C5  UNL     1      10.852 -90.760 152.909  1.00  0.00     0.024 C 
HETATM    6  C11 UNL     1       9.577 -90.491 153.687  1.00  0.00     0.010 C 
HETATM    7  C12 UNL     1       8.713 -89.430 153.093  1.00  0.00     0.001 C 
ENDROOT
BRANCH   5   8
HETATM    8  C6  UNL     1      10.588 -91.715 151.814  1.00  0.00     0.063 C 
BRANCH   8   9
HETATM    9  N1  UNL     1      10.614 -93.079 152.022  1.00  0.00    -0.389 N 
HETATM   10  C7  UNL     1      11.761 -93.864 151.922  1.00  0.00     0.148 C 
HETATM   11  C8  UNL     1      11.303 -95.189 151.273  1.00  0.00     0.187 C 
HETATM   12  O1  UNL     1      10.501 -95.902 152.146  1.00  0.00    -0.388 OA
HETATM   13  C9  UNL     1       9.472 -95.156 152.691  1.00  0.00     0.187 C 
HETATM   14  C10 UNL     1       9.366 -93.773 152.105  1.00  0.00     0.148 C 
ENDBRANCH   8   9
ENDBRANCH   5   8
TORSDOF 2
ENDMDL
MODEL 2
REMARK VINA RESULT: -5.606792051      0.983      2.291
REMARK  2 active torsions:
REMARK  status: ('A' for Active; 'I' for Inactive)
REMARK    1  A    between atoms: C5_5  and  C6_6 
REMARK    2  A    between atoms: C6_6  and  N1_7 
ROOT
HETATM    1  C1  UNL     1       8.813 -87.999 153.456  1.00  0.00     0.000 C 
HETATM    2  C2  UNL     1       7.821 -88.806 154.249  1.00  0.00     0.000 C 
HETATM    3  C3  UNL     1       8.118 -90.301 154.183  1.00  0.00     0.001 C 
HETATM    4  C4  UNL     1       8.169 -90.754 152.748  1.00  0.00     0.010 C 
HETATM    5  C5  UNL     1       9.529 -90.814 152.156  1.00  0.00     0.024 C 
HETATM    6  C11 UNL     1      10.200 -89.455 152.081  1.00  0.00     0.010 C 
HETATM    7  C12 UNL     1      10.153 -88.681 153.355  1.00  0.00     0.001 C 
ENDROOT
BRANCH   5   8
HETATM    8  C6  UNL     1      10.469 -91.817 152.694  1.00  0.00     0.063 C 
BRANCH   8   9
HETATM    9  N1  UNL     1      10.467 -93.123 152.249  1.00  0.00    -0.389 N 
HETATM   10  C7  UNL     1       9.357 -93.965 152.303  1.00  0.00     0.148 C 
HETATM   11  C8  UNL     1       9.912 -95.361 152.665  1.00  0.00     0.187 C 
HETATM   12  O1  UNL     1      10.654 -95.872 151.616  1.00  0.00    -0.388 OA
HETATM   13  C9  UNL     1      11.606 -94.996 151.129  1.00  0.00     0.187 C 
HETATM   14  C10 UNL     1      11.723 -93.733 151.941  1.00  0.00     0.148 C 
ENDBRANCH   8   9
ENDBRANCH   5   8
TORSDOF 2
ENDMDL
MODEL 3
REMARK VINA RESULT: -5.602436707      0.801      1.691
REMARK  2 active torsions:
REMARK  status: ('A' for Active; 'I' for Inactive)
REMARK    1  A    between atoms: C5_5  and  C6_6 
REMARK    2  A    between atoms: C6_6  and  N1_7 
ROOT
HETATM    1  C1  UNL     1      10.372 -87.804 153.225  1.00  0.00     0.000 C 
HETATM    2  C2  UNL     1      10.224 -88.364 154.615  1.00  0.00     0.000 C 
HETATM    3  C3  UNL     1      10.459 -89.872 154.651  1.00  0.00     0.001 C 
HETATM    4  C4  UNL     1       9.536 -90.561 153.683  1.00  0.00     0.010 C 
HETATM    5  C5  UNL     1      10.126 -90.855 152.353  1.00  0.00     0.024 C 
HETATM    6  C11 UNL     1      10.506 -89.602 151.587  1.00  0.00     0.010 C 
HETATM    7  C12 UNL     1      11.309 -88.624 152.377  1.00  0.00     0.001 C 
ENDROOT
BRANCH   5   8
HETATM    8  C6  UNL     1      11.222 -91.842 152.290  1.00  0.00     0.063 C 
BRANCH   8   9
HETATM    9  N1  UNL     1      10.973 -93.199 152.269  1.00  0.00    -0.389 N 
HETATM   10  C7  UNL     1      11.945 -94.169 152.030  1.00  0.00     0.148 C 
HETATM   11  C8  UNL     1      11.250 -95.251 151.173  1.00  0.00     0.187 C 
HETATM   12  O1  UNL     1      10.302 -95.924 151.923  1.00  0.00    -0.388 OA
HETATM   13  C9  UNL     1       9.428 -95.089 152.593  1.00  0.00     0.187 C 
HETATM   14  C10 UNL     1       9.611 -93.635 152.247  1.00  0.00     0.148 C 
ENDBRANCH   8   9
ENDBRANCH   5   8
TORSDOF 2
ENDMDL
MODEL 4
REMARK VINA RESULT: -5.552677513      1.058      1.954
REMARK  2 active torsions:
REMARK  status: ('A' for Active; 'I' for Inactive)
REMARK    1  A    between atoms: C5_5  and  C6_6 
REMARK    2  A    between atoms: C6_6  and  N1_7 
ROOT
HETATM    1  C1  UNL     1       8.810 -87.894 153.399  1.00  0.00     0.000 C 
HETATM    2  C2  UNL     1       7.778 -88.698 154.143  1.00  0.00     0.000 C 
HETATM    3  C3  UNL     1       8.067 -90.196 154.081  1.00  0.00     0.001 C 
HETATM    4  C4  UNL     1       8.179 -90.640 152.648  1.00  0.00     0.010 C 
HETATM    5  C5  UNL     1       9.563 -90.708 152.117  1.00  0.00     0.024 C 
HETATM    6  C11 UNL     1      10.246 -89.353 152.079  1.00  0.00     0.010 C 
HETATM    7  C12 UNL     1      10.148 -88.586 153.354  1.00  0.00     0.001 C 
ENDROOT
BRANCH   5   8
HETATM    8  C6  UNL     1      10.472 -91.720 152.691  1.00  0.00     0.063 C 
BRANCH   8   9
HETATM    9  N1  UNL     1      10.423 -93.042 152.296  1.00  0.00    -0.389 N 
HETATM   10  C7  UNL     1      11.282 -93.609 151.357  1.00  0.00     0.148 C 
HETATM   11  C8  UNL     1      10.413 -94.590 150.537  1.00  0.00     0.187 C 
HETATM   12  O1  UNL     1      10.034 -95.666 151.319  1.00  0.00    -0.388 OA
HETATM   13  C9  UNL     1       9.484 -95.305 152.534  1.00  0.00     0.187 C 
HETATM   14  C10 UNL     1       9.286 -93.820 152.680  1.00  0.00     0.148 C 
ENDBRANCH   8   9
ENDBRANCH   5   8
TORSDOF 2
ENDMDL
MODEL 5
REMARK VINA RESULT: -5.548935356      0.792      1.375
REMARK  2 active torsions:
REMARK  status: ('A' for Active; 'I' for Inactive)
REMARK    1  A    between atoms: C5_5  and  C6_6 
REMARK    2  A    between atoms: C6_6  and  N1_7 
ROOT
HETATM    1  C1  UNL     1       9.468 -88.309 153.471  1.00  0.00     0.000 C 
HETATM    2  C2  UNL     1      10.419 -87.958 152.358  1.00  0.00     0.000 C 
HETATM    3  C3  UNL     1      10.739 -89.164 151.478  1.00  0.00     0.001 C 
HETATM    4  C4  UNL     1      11.274 -90.289 152.322  1.00  0.00     0.010 C 
HETATM    5  C5  UNL     1      10.268 -91.300 152.734  1.00  0.00     0.024 C 
HETATM    6  C11 UNL     1       9.187 -90.723 153.630  1.00  0.00     0.010 C 
HETATM    7  C12 UNL     1       8.573 -89.466 153.112  1.00  0.00     0.001 C 
ENDROOT
BRANCH   5   8
HETATM    8  C6  UNL     1       9.663 -92.137 151.680  1.00  0.00     0.063 C 
BRANCH   8   9
HETATM    9  N1  UNL     1       9.934 -93.487 151.583  1.00  0.00    -0.389 N 
HETATM   10  C7  UNL     1       9.314 -94.466 152.356  1.00  0.00     0.148 C 
HETATM   11  C8  UNL     1      10.417 -95.498 152.682  1.00  0.00     0.187 C 
HETATM   12  O1  UNL     1      10.792 -96.180 151.538  1.00  0.00    -0.388 OA
HETATM   13  C9  UNL     1      11.091 -95.354 150.471  1.00  0.00     0.187 C 
HETATM   14  C10 UNL     1      11.081 -93.892 150.830  1.00  0.00     0.148 C 
ENDBRANCH   8   9
ENDBRANCH   5   8
TORSDOF 2
ENDMDL
