MODEL 1
REMARK VINA RESULT: -5.895881155      0.000      0.000
REMARK  2 active torsions:
REMARK  status: ('A' for Active; 'I' for Inactive)
REMARK    1  A    between atoms: N1_2  and  C3_4 
REMARK    2  A    between atoms: C3_4  and  C4_5 
ROOT
HETATM    1  C4  UNL     1       9.996 -92.167 151.348  1.00  0.00     0.033 C 
HETATM    2  C5  UNL     1       9.060 -91.351 152.234  1.00  0.00     0.008 C 
HETATM    3  C6  UNL     1       9.556 -90.411 153.215  1.00  0.00     0.001 C 
HETATM    4  C7  UNL     1       9.682 -88.919 152.856  1.00  0.00     0.011 C 
HETATM    5  C8  UNL     1      10.720 -88.710 151.705  1.00  0.00     0.081 C 
HETATM    6  C9  UNL     1      10.874 -89.950 151.056  1.00  0.00    -0.173 C 
HETATM    7  C10 UNL     1      10.979 -91.270 150.556  1.00  0.00     0.017 A 
HETATM    8  C11 UNL     1      12.342 -91.812 150.330  1.00  0.00     0.022 A 
HETATM    9  C12 UNL     1      12.154 -91.914 148.839  1.00  0.00     0.003 A 
HETATM   10  C13 UNL     1      10.773 -91.361 149.035  1.00  0.00     0.022 A 
ENDROOT
BRANCH   1  11
HETATM   11  C3  UNL     1      10.601 -93.309 152.055  1.00  0.00     0.277 C 
BRANCH  11  12
HETATM   12  N1  UNL     1       9.971 -94.526 151.490  1.00  0.00     0.080 N 
HETATM   13  C1  UNL     1       9.256 -95.224 152.579  1.00  0.00     0.309 C 
HETATM   14  C2  UNL     1      11.038 -95.445 151.033  1.00  0.00     0.309 C 
ENDBRANCH  11  12
ENDBRANCH   1  11
TORSDOF 2
ENDMDL
MODEL 2
REMARK VINA RESULT: -5.435122383      2.417      4.655
REMARK  2 active torsions:
REMARK  status: ('A' for Active; 'I' for Inactive)
REMARK    1  A    between atoms: N1_2  and  C3_4 
REMARK    2  A    between atoms: C3_4  and  C4_5 
ROOT
HETATM    1  C4  UNL     1       9.807 -89.983 152.977  1.00  0.00     0.033 C 
HETATM    2  C5  UNL     1       9.424 -91.413 152.610  1.00  0.00     0.008 C 
HETATM    3  C6  UNL     1       8.918 -91.762 151.302  1.00  0.00     0.001 C 
HETATM    4  C7  UNL     1       9.878 -92.288 150.220  1.00  0.00     0.011 C 
HETATM    5  C8  UNL     1      10.938 -91.201 149.840  1.00  0.00     0.081 C 
HETATM    6  C9  UNL     1      10.973 -90.272 150.896  1.00  0.00    -0.173 C 
HETATM    7  C10 UNL     1      10.845 -89.386 151.993  1.00  0.00     0.017 A 
HETATM    8  C11 UNL     1      10.725 -87.938 151.696  1.00  0.00     0.022 A 
HETATM    9  C12 UNL     1      12.033 -87.599 152.362  1.00  0.00     0.003 A 
HETATM   10  C13 UNL     1      12.185 -89.060 152.671  1.00  0.00     0.022 A 
ENDROOT
BRANCH   1  11
HETATM   11  C3  UNL     1       8.638 -89.134 153.265  1.00  0.00     0.277 C 
BRANCH  11  12
HETATM   12  N1  UNL     1       8.378 -89.265 154.718  1.00  0.00     0.080 N 
HETATM   13  C1  UNL     1       7.504 -88.148 155.132  1.00  0.00     0.309 C 
HETATM   14  C2  UNL     1       9.655 -89.090 155.446  1.00  0.00     0.309 C 
ENDBRANCH  11  12
ENDBRANCH   1  11
TORSDOF 2
ENDMDL
MODEL 3
REMARK VINA RESULT: -5.364027689      1.569      3.301
REMARK  2 active torsions:
REMARK  status: ('A' for Active; 'I' for Inactive)
REMARK    1  A    between atoms: N1_2  and  C3_4 
REMARK    2  A    between atoms: C3_4  and  C4_5 
ROOT
HETATM    1  C4  UNL     1      10.895 -92.575 152.266  1.00  0.00     0.033 C 
HETATM    2  C5  UNL     1      12.402 -92.622 152.036  1.00  0.00     0.008 C 
HETATM    3  C6  UNL     1      13.050 -91.820 151.022  1.00  0.00     0.001 C 
HETATM    4  C7  UNL     1      13.667 -90.460 151.394  1.00  0.00     0.011 C 
HETATM    5  C8  UNL     1      12.565 -89.466 151.889  1.00  0.00     0.081 C 
HETATM    6  C9  UNL     1      11.451 -90.238 152.267  1.00  0.00    -0.173 C 
HETATM    7  C10 UNL     1      10.390 -91.135 152.535  1.00  0.00     0.017 A 
HETATM    8  C11 UNL     1       9.048 -90.790 152.006  1.00  0.00     0.022 A 
HETATM    9  C12 UNL     1       8.446 -90.629 153.377  1.00  0.00     0.003 A 
HETATM   10  C13 UNL     1       9.794 -90.969 153.943  1.00  0.00     0.022 A 
ENDROOT
BRANCH   1  11
HETATM   11  C3  UNL     1      10.138 -93.339 151.258  1.00  0.00     0.277 C 
BRANCH  11  12
HETATM   12  N1  UNL     1      10.399 -94.770 151.542  1.00  0.00     0.080 N 
HETATM   13  C1  UNL     1      10.290 -95.519 150.272  1.00  0.00     0.309 C 
HETATM   14  C2  UNL     1       9.328 -95.283 152.424  1.00  0.00     0.309 C 
ENDBRANCH  11  12
ENDBRANCH   1  11
TORSDOF 2
ENDMDL
MODEL 4
REMARK VINA RESULT: -5.283637573      1.960      3.345
REMARK  2 active torsions:
REMARK  status: ('A' for Active; 'I' for Inactive)
REMARK    1  A    between atoms: N1_2  and  C3_4 
REMARK    2  A    between atoms: C3_4  and  C4_5 
ROOT
HETATM    1  C4  UNL     1       9.123 -90.092 153.090  1.00  0.00     0.033 C 
HETATM    2  C5  UNL     1       7.861 -89.691 153.846  1.00  0.00     0.008 C 
HETATM    3  C6  UNL     1       7.884 -89.334 155.247  1.00  0.00     0.001 C 
HETATM    4  C7  UNL     1       7.984 -87.855 155.663  1.00  0.00     0.011 C 
HETATM    5  C8  UNL     1       9.336 -87.232 155.182  1.00  0.00     0.081 C 
HETATM    6  C9  UNL     1       9.829 -88.056 154.153  1.00  0.00    -0.173 C 
HETATM    7  C10 UNL     1      10.231 -89.014 153.191  1.00  0.00     0.017 A 
HETATM    8  C11 UNL     1      11.631 -89.501 153.252  1.00  0.00     0.022 A 
HETATM    9  C12 UNL     1      11.993 -88.908 151.916  1.00  0.00     0.003 A 
HETATM   10  C13 UNL     1      10.584 -88.396 151.829  1.00  0.00     0.022 A 
ENDROOT
BRANCH   1  11
HETATM   11  C3  UNL     1       9.547 -91.473 153.377  1.00  0.00     0.277 C 
BRANCH  11  12
HETATM   12  N1  UNL     1       8.936 -92.321 152.327  1.00  0.00     0.080 N 
HETATM   13  C1  UNL     1       9.276 -93.730 152.616  1.00  0.00     0.309 C 
HETATM   14  C2  UNL     1       9.565 -91.997 151.027  1.00  0.00     0.309 C 
ENDBRANCH  11  12
ENDBRANCH   1  11
TORSDOF 2
ENDMDL
MODEL 5
REMARK VINA RESULT: -5.273981174      3.100      6.094
REMARK  2 active torsions:
REMARK  status: ('A' for Active; 'I' for Inactive)
REMARK    1  A    between atoms: N1_2  and  C3_4 
REMARK    2  A    between atoms: C3_4  and  C4_5 
ROOT
HETATM    1  C4  UNL     1      10.228 -88.567 153.277  1.00  0.00     0.033 C 
HETATM    2  C5  UNL     1      10.759 -89.297 152.047  1.00  0.00     0.008 C 
HETATM    3  C6  UNL     1      10.829 -90.739 151.980  1.00  0.00     0.001 C 
HETATM    4  C7  UNL     1       9.687 -91.536 151.324  1.00  0.00     0.011 C 
HETATM    5  C8  UNL     1       8.351 -91.348 152.115  1.00  0.00     0.081 C 
HETATM    6  C9  UNL     1       8.491 -90.182 152.891  1.00  0.00    -0.173 C 
HETATM    7  C10 UNL     1       8.804 -89.038 153.665  1.00  0.00     0.017 A 
HETATM    8  C11 UNL     1       8.488 -89.083 155.113  1.00  0.00     0.022 A 
HETATM    9  C12 UNL     1       7.463 -87.983 155.018  1.00  0.00     0.003 A 
HETATM   10  C13 UNL     1       7.756 -87.920 153.547  1.00  0.00     0.022 A 
ENDROOT
BRANCH   1  11
HETATM   11  C3  UNL     1      11.205 -88.515 154.378  1.00  0.00     0.277 C 
BRANCH  11  12
HETATM   12  N1  UNL     1      11.851 -87.184 154.295  1.00  0.00     0.080 N 
HETATM   13  C1  UNL     1      13.072 -87.211 155.129  1.00  0.00     0.309 C 
HETATM   14  C2  UNL     1      10.951 -86.180 154.904  1.00  0.00     0.309 C 
ENDBRANCH  11  12
ENDBRANCH   1  11
TORSDOF 2
ENDMDL
