MODEL 1
REMARK VINA RESULT: -6.137256461      0.000      0.000
REMARK  3 active torsions:
REMARK  status: ('A' for Active; 'I' for Inactive)
REMARK    1  A    between atoms: C2_3  and  C3_4 
REMARK    2  A    between atoms: C3_4  and  O1_5 
REMARK    3  A    between atoms: C3_4  and  C4_7 
ROOT
HETATM    1  N1  UNL     1       8.698 -93.222 152.412  1.00  0.00    -0.197 NA
HETATM    2  C1  UNL     1       9.138 -92.280 152.950  1.00  0.00     0.061 C 
HETATM    3  C2  UNL     1       9.708 -91.103 153.604  1.00  0.00     0.155 C 
ENDROOT
BRANCH   3   4
HETATM    4  C3  UNL     1       8.614 -90.242 154.219  1.00  0.00     0.136 C 
BRANCH   4   5
HETATM    5  O1  UNL     1       7.406 -90.936 154.035  1.00  0.00    -0.394 OA
ATOM      6  H1  UNL     1       6.817 -90.342 153.583  1.00  0.00     0.210 HD
ENDBRANCH   4   5
BRANCH   4   7
HETATM    7  C4  UNL     1       8.474 -88.922 153.528  1.00  0.00     0.023 C 
HETATM    8  C5  UNL     1       9.726 -88.105 153.501  1.00  0.00    -0.007 C 
HETATM    9  C6  UNL     1      10.140 -87.613 154.868  1.00  0.00     0.010 C 
HETATM   10  C10 UNL     1       9.432 -86.883 152.649  1.00  0.00     0.010 C 
HETATM   11  C7  UNL     1       9.046 -86.787 155.480  1.00  0.00    -0.013 C 
HETATM   12  C8  UNL     1       8.676 -85.598 154.654  1.00  0.00     0.009 C 
HETATM   13  C13 UNL     1       7.812 -87.674 155.587  1.00  0.00     0.010 C 
HETATM   14  C9  UNL     1       8.302 -86.082 153.269  1.00  0.00    -0.013 C 
HETATM   15  C11 UNL     1       7.061 -86.937 153.363  1.00  0.00     0.010 C 
HETATM   16  C12 UNL     1       7.404 -88.132 154.225  1.00  0.00    -0.007 C 
ENDBRANCH   4   7
ENDBRANCH   3   4
TORSDOF 3
ENDMDL
MODEL 2
REMARK VINA RESULT: -6.086581564      1.503      1.982
REMARK  3 active torsions:
REMARK  status: ('A' for Active; 'I' for Inactive)
REMARK    1  A    between atoms: C2_3  and  C3_4 
REMARK    2  A    between atoms: C3_4  and  O1_5 
REMARK    3  A    between atoms: C3_4  and  C4_7 
ROOT
HETATM    1  N1  UNL     1       9.025 -95.024 152.769  1.00  0.00    -0.197 NA
HETATM    2  C1  UNL     1       9.321 -93.904 152.601  1.00  0.00     0.061 C 
HETATM    3  C2  UNL     1       9.705 -92.512 152.372  1.00  0.00     0.155 C 
ENDROOT
BRANCH   3   4
HETATM    4  C3  UNL     1       8.571 -91.567 152.744  1.00  0.00     0.136 C 
BRANCH   4   5
HETATM    5  O1  UNL     1       7.552 -91.772 151.797  1.00  0.00    -0.394 OA
ATOM      6  H1  UNL     1       6.959 -91.034 151.873  1.00  0.00     0.210 HD
ENDBRANCH   4   5
BRANCH   4   7
HETATM    7  C4  UNL     1       8.976 -90.129 152.653  1.00  0.00     0.023 C 
HETATM    8  C5  UNL     1      10.350 -89.843 153.166  1.00  0.00    -0.007 C 
HETATM    9  C6  UNL     1      10.473 -90.028 154.660  1.00  0.00     0.010 C 
HETATM   10  C10 UNL     1      10.633 -88.382 152.867  1.00  0.00     0.010 C 
HETATM   11  C7  UNL     1       9.502 -89.139 155.380  1.00  0.00    -0.013 C 
HETATM   12  C8  UNL     1       9.698 -87.689 155.077  1.00  0.00     0.009 C 
HETATM   13  C13 UNL     1       8.103 -89.521 154.911  1.00  0.00     0.010 C 
HETATM   14  C9  UNL     1       9.619 -87.504 153.576  1.00  0.00    -0.013 C 
HETATM   15  C11 UNL     1       8.226 -87.850 153.108  1.00  0.00     0.010 C 
HETATM   16  C12 UNL     1       7.992 -89.308 153.437  1.00  0.00    -0.007 C 
ENDBRANCH   4   7
ENDBRANCH   3   4
TORSDOF 3
ENDMDL
MODEL 3
REMARK VINA RESULT: -6.025936101      3.490      6.329
REMARK  3 active torsions:
REMARK  status: ('A' for Active; 'I' for Inactive)
REMARK    1  A    between atoms: C2_3  and  C3_4 
REMARK    2  A    between atoms: C3_4  and  O1_5 
REMARK    3  A    between atoms: C3_4  and  C4_7 
ROOT
HETATM    1  N1  UNL     1       7.071 -91.027 154.522  1.00  0.00    -0.197 NA
HETATM    2  C1  UNL     1       8.074 -90.997 153.919  1.00  0.00     0.061 C 
HETATM    3  C2  UNL     1       9.339 -90.966 153.186  1.00  0.00     0.155 C 
ENDROOT
BRANCH   3   4
HETATM    4  C3  UNL     1       9.141 -91.409 151.743  1.00  0.00     0.136 C 
BRANCH   4   5
HETATM    5  O1  UNL     1       7.803 -91.826 151.631  1.00  0.00    -0.394 OA
ATOM      6  H1  UNL     1       7.738 -92.312 150.817  1.00  0.00     0.210 HD
ENDBRANCH   4   5
BRANCH   4   7
HETATM    7  C4  UNL     1      10.001 -92.581 151.385  1.00  0.00     0.023 C 
HETATM    8  C5  UNL     1      11.368 -92.548 151.988  1.00  0.00    -0.007 C 
HETATM    9  C6  UNL     1      12.233 -91.443 151.431  1.00  0.00     0.010 C 
HETATM   10  C10 UNL     1      12.034 -93.866 151.634  1.00  0.00     0.010 C 
HETATM   11  C7  UNL     1      12.373 -91.586 149.944  1.00  0.00    -0.013 C 
HETATM   12  C8  UNL     1      12.972 -92.892 149.533  1.00  0.00     0.009 C 
HETATM   13  C13 UNL     1      10.972 -91.516 149.347  1.00  0.00     0.010 C 
HETATM   14  C9  UNL     1      12.133 -94.005 150.126  1.00  0.00    -0.013 C 
HETATM   15  C11 UNL     1      10.752 -93.961 149.516  1.00  0.00     0.010 C 
HETATM   16  C12 UNL     1      10.139 -92.630 149.890  1.00  0.00    -0.007 C 
ENDBRANCH   4   7
ENDBRANCH   3   4
TORSDOF 3
ENDMDL
MODEL 4
REMARK VINA RESULT: -5.997446238      1.675      2.410
REMARK  3 active torsions:
REMARK  status: ('A' for Active; 'I' for Inactive)
REMARK    1  A    between atoms: C2_3  and  C3_4 
REMARK    2  A    between atoms: C3_4  and  O1_5 
REMARK    3  A    between atoms: C3_4  and  C4_7 
ROOT
HETATM    1  N1  UNL     1       8.946 -95.192 152.562  1.00  0.00    -0.197 NA
HETATM    2  C1  UNL     1       9.384 -94.126 152.358  1.00  0.00     0.061 C 
HETATM    3  C2  UNL     1       9.924 -92.796 152.078  1.00  0.00     0.155 C 
ENDROOT
BRANCH   3   4
HETATM    4  C3  UNL     1       9.759 -91.879 153.282  1.00  0.00     0.136 C 
BRANCH   4   5
HETATM    5  O1  UNL     1       8.595 -92.298 153.949  1.00  0.00    -0.394 OA
ATOM      6  H1  UNL     1       8.866 -92.953 154.583  1.00  0.00     0.210 HD
ENDBRANCH   4   5
BRANCH   4   7
HETATM    7  C4  UNL     1       9.550 -90.451 152.884  1.00  0.00     0.023 C 
HETATM    8  C5  UNL     1      10.754 -89.795 152.289  1.00  0.00    -0.007 C 
HETATM    9  C6  UNL     1      11.874 -89.601 153.284  1.00  0.00     0.010 C 
HETATM   10  C10 UNL     1      10.317 -88.417 151.825  1.00  0.00     0.010 C 
HETATM   11  C7  UNL     1      11.405 -88.772 154.444  1.00  0.00    -0.013 C 
HETATM   12  C8  UNL     1      10.909 -87.422 154.039  1.00  0.00     0.009 C 
HETATM   13  C13 UNL     1      10.242 -89.513 155.092  1.00  0.00     0.010 C 
HETATM   14  C9  UNL     1       9.815 -87.609 153.008  1.00  0.00    -0.013 C 
HETATM   15  C11 UNL     1       8.646 -88.316 153.652  1.00  0.00     0.010 C 
HETATM   16  C12 UNL     1       9.136 -89.675 154.102  1.00  0.00    -0.007 C 
ENDBRANCH   4   7
ENDBRANCH   3   4
TORSDOF 3
ENDMDL
MODEL 5
REMARK VINA RESULT: -5.976223888      1.251      2.245
REMARK  3 active torsions:
REMARK  status: ('A' for Active; 'I' for Inactive)
REMARK    1  A    between atoms: C2_3  and  C3_4 
REMARK    2  A    between atoms: C3_4  and  O1_5 
REMARK    3  A    between atoms: C3_4  and  C4_7 
ROOT
HETATM    1  N1  UNL     1      10.097 -92.568 150.548  1.00  0.00    -0.197 NA
HETATM    2  C1  UNL     1       9.302 -92.074 151.251  1.00  0.00     0.061 C 
HETATM    3  C2  UNL     1       8.290 -91.470 152.117  1.00  0.00     0.155 C 
ENDROOT
BRANCH   3   4
HETATM    4  C3  UNL     1       8.844 -91.233 153.515  1.00  0.00     0.136 C 
BRANCH   4   5
HETATM    5  O1  UNL     1       8.509 -92.366 154.277  1.00  0.00    -0.394 OA
ATOM      6  H1  UNL     1       7.779 -92.114 154.831  1.00  0.00     0.210 HD
ENDBRANCH   4   5
BRANCH   4   7
HETATM    7  C4  UNL     1       8.214 -90.050 154.183  1.00  0.00     0.023 C 
HETATM    8  C5  UNL     1       8.149 -88.825 153.330  1.00  0.00    -0.007 C 
HETATM    9  C6  UNL     1       9.509 -88.235 153.038  1.00  0.00     0.010 C 
HETATM   10  C10 UNL     1       7.365 -87.788 154.114  1.00  0.00     0.010 C 
HETATM   11  C7  UNL     1      10.214 -87.888 154.317  1.00  0.00    -0.013 C 
HETATM   12  C8  UNL     1       9.458 -86.911 155.158  1.00  0.00     0.009 C 
HETATM   13  C13 UNL     1      10.355 -89.174 155.121  1.00  0.00     0.010 C 
HETATM   14  C9  UNL     1       8.078 -87.478 155.417  1.00  0.00    -0.013 C 
HETATM   15  C11 UNL     1       8.208 -88.736 156.241  1.00  0.00     0.010 C 
HETATM   16  C12 UNL     1       9.002 -89.730 155.421  1.00  0.00    -0.007 C 
ENDBRANCH   4   7
ENDBRANCH   3   4
TORSDOF 3
ENDMDL
