MODEL 1
REMARK VINA RESULT: -10.350237894      0.000      0.000
REMARK  4 active torsions:
REMARK  status: ('A' for Active; 'I' for Inactive)
REMARK    1  A    between atoms: C1_2  and  C2_4 
REMARK    2  A    between atoms: C8_10  and  N2_11 
REMARK    3  A    between atoms: N2_11  and  S1_13 
REMARK    4  A    between atoms: S1_13  and  C9_16 
ROOT
HETATM    1  N2  UNL     1     -12.452 -13.470  -1.922  1.00  0.00    -0.310 N 
ATOM      2  H2  UNL     1     -11.766 -13.678  -1.197  1.00  0.00     0.172 HD
ENDROOT
BRANCH   1   3
HETATM    3  C8  UNL     1     -13.285 -14.501  -2.272  1.00  0.00     0.101 C 
HETATM    4  C6  UNL     1     -13.047 -15.871  -1.731  1.00  0.00     0.011 C 
HETATM    5  C5  UNL     1     -13.457 -16.088  -0.321  1.00  0.00     0.011 C 
HETATM    6  C7  UNL     1     -13.918 -16.808  -2.559  1.00  0.00     0.025 C 
HETATM    7  C4  UNL     1     -14.917 -15.750  -0.158  1.00  0.00    -0.013 C 
HETATM    8  C3  UNL     1     -15.794 -16.612  -1.004  1.00  0.00     0.023 C 
HETATM    9  C16 UNL     1     -15.081 -14.296  -0.524  1.00  0.00     0.011 C 
HETATM   10  C2  UNL     1     -15.362 -16.433  -2.463  1.00  0.00     0.040 C 
HETATM   11  C17 UNL     1     -15.619 -14.982  -2.805  1.00  0.00     0.025 C 
HETATM   12  C15 UNL     1     -14.734 -14.093  -1.959  1.00  0.00     0.011 C 
BRANCH  10  13
HETATM   13  C1  UNL     1     -16.160 -17.264  -3.369  1.00  0.00     0.239 C 
HETATM   14  N1  UNL     1     -17.573 -17.178  -3.382  1.00  0.00    -0.061 NA
HETATM   15  O1  UNL     1     -15.587 -18.062  -4.147  1.00  0.00    -0.276 OA
ENDBRANCH  10  13
ENDBRANCH   1   3
BRANCH   1  16
HETATM   16  S1  UNL     1     -12.422 -11.948  -2.519  1.00  0.00     0.265 S 
HETATM   17  O2  UNL     1     -12.919 -10.850  -1.621  1.00  0.00    -0.200 OA
HETATM   18  O3  UNL     1     -13.166 -11.918  -3.851  1.00  0.00    -0.200 OA
BRANCH  16  19
HETATM   19  C9  UNL     1     -10.773 -11.496  -2.925  1.00  0.00     0.162 A 
HETATM   20  C10 UNL     1     -10.557 -10.452  -3.830  1.00  0.00     0.184 A 
HETATM   21  F1  UNL     1     -11.624  -9.803  -4.399  1.00  0.00    -0.201 F 
HETATM   22  C11 UNL     1      -9.283 -10.056  -4.169  1.00  0.00     0.198 A 
HETATM   23  F2  UNL     1      -9.069  -9.039  -5.052  1.00  0.00    -0.199 F 
HETATM   24  C12 UNL     1      -8.167 -10.666  -3.635  1.00  0.00     0.199 A 
HETATM   25  F3  UNL     1      -6.916 -10.269  -3.975  1.00  0.00    -0.199 F 
HETATM   26  C13 UNL     1      -8.398 -11.691  -2.745  1.00  0.00     0.198 A 
HETATM   27  F4  UNL     1      -7.344 -12.318  -2.196  1.00  0.00    -0.199 F 
HETATM   28  C14 UNL     1      -9.678 -12.104  -2.390  1.00  0.00     0.184 A 
HETATM   29  F5  UNL     1      -9.823 -13.128  -1.484  1.00  0.00    -0.201 F 
ENDBRANCH  16  19
ENDBRANCH   1  16
TORSDOF 4
ENDMDL
MODEL 2
REMARK VINA RESULT: -10.311387997      0.086      1.996
REMARK  4 active torsions:
REMARK  status: ('A' for Active; 'I' for Inactive)
REMARK    1  A    between atoms: C1_2  and  C2_4 
REMARK    2  A    between atoms: C8_10  and  N2_11 
REMARK    3  A    between atoms: N2_11  and  S1_13 
REMARK    4  A    between atoms: S1_13  and  C9_16 
ROOT
HETATM    1  N2  UNL     1     -12.458 -13.452  -1.947  1.00  0.00    -0.310 N 
ATOM      2  H2  UNL     1     -11.754 -13.662  -1.239  1.00  0.00     0.172 HD
ENDROOT
BRANCH   1   3
HETATM    3  C8  UNL     1     -13.289 -14.487  -2.292  1.00  0.00     0.101 C 
HETATM    4  C6  UNL     1     -13.040 -15.857  -1.754  1.00  0.00     0.011 C 
HETATM    5  C5  UNL     1     -13.437 -16.077  -0.341  1.00  0.00     0.011 C 
HETATM    6  C7  UNL     1     -13.913 -16.796  -2.575  1.00  0.00     0.025 C 
HETATM    7  C4  UNL     1     -14.897 -15.745  -0.165  1.00  0.00    -0.013 C 
HETATM    8  C3  UNL     1     -15.777 -16.611  -1.004  1.00  0.00     0.023 C 
HETATM    9  C16 UNL     1     -15.071 -14.292  -0.528  1.00  0.00     0.011 C 
HETATM   10  C2  UNL     1     -15.358 -16.428  -2.467  1.00  0.00     0.040 C 
HETATM   11  C17 UNL     1     -15.624 -14.979  -2.805  1.00  0.00     0.025 C 
HETATM   12  C15 UNL     1     -14.737 -14.086  -1.965  1.00  0.00     0.011 C 
BRANCH  10  13
HETATM   13  C1  UNL     1     -16.159 -17.262  -3.367  1.00  0.00     0.239 C 
HETATM   14  N1  UNL     1     -17.572 -17.180  -3.371  1.00  0.00    -0.061 NA
HETATM   15  O1  UNL     1     -15.590 -18.059  -4.148  1.00  0.00    -0.276 OA
ENDBRANCH  10  13
ENDBRANCH   1   3
BRANCH   1  16
HETATM   16  S1  UNL     1     -12.454 -11.923  -2.527  1.00  0.00     0.265 S 
HETATM   17  O2  UNL     1     -12.953 -10.842  -1.610  1.00  0.00    -0.200 OA
HETATM   18  O3  UNL     1     -13.216 -11.888  -3.849  1.00  0.00    -0.200 OA
BRANCH  16  19
HETATM   19  C9  UNL     1     -10.816 -11.446  -2.949  1.00  0.00     0.162 A 
HETATM   20  C10 UNL     1      -9.739 -12.115  -2.358  1.00  0.00     0.184 A 
HETATM   21  F1  UNL     1      -9.967 -13.120  -1.452  1.00  0.00    -0.201 F 
HETATM   22  C11 UNL     1      -8.440 -11.783  -2.666  1.00  0.00     0.198 A 
HETATM   23  F2  UNL     1      -7.387 -12.433  -2.091  1.00  0.00    -0.199 F 
HETATM   24  C12 UNL     1      -8.140 -10.783  -3.566  1.00  0.00     0.199 A 
HETATM   25  F3  UNL     1      -6.856 -10.463  -3.864  1.00  0.00    -0.199 F 
HETATM   26  C13 UNL     1      -9.211 -10.135  -4.140  1.00  0.00     0.198 A 
HETATM   27  F4  UNL     1      -8.973  -9.153  -5.024  1.00  0.00    -0.199 F 
HETATM   28  C14 UNL     1     -10.531 -10.457  -3.841  1.00  0.00     0.184 A 
HETATM   29  F5  UNL     1     -11.545  -9.771  -4.466  1.00  0.00    -0.201 F 
ENDBRANCH  16  19
ENDBRANCH   1  16
TORSDOF 4
ENDMDL
MODEL 3
REMARK VINA RESULT: -9.202175674      1.435      2.459
REMARK  4 active torsions:
REMARK  status: ('A' for Active; 'I' for Inactive)
REMARK    1  A    between atoms: C1_2  and  C2_4 
REMARK    2  A    between atoms: C8_10  and  N2_11 
REMARK    3  A    between atoms: N2_11  and  S1_13 
REMARK    4  A    between atoms: S1_13  and  C9_16 
ROOT
HETATM    1  N2  UNL     1     -12.269 -13.903  -1.476  1.00  0.00    -0.310 N 
ATOM      2  H2  UNL     1     -12.668 -13.142  -0.926  1.00  0.00     0.172 HD
ENDROOT
BRANCH   1   3
HETATM    3  C8  UNL     1     -13.156 -14.846  -1.926  1.00  0.00     0.101 C 
HETATM    4  C6  UNL     1     -13.162 -16.214  -1.329  1.00  0.00     0.011 C 
HETATM    5  C5  UNL     1     -13.795 -16.331   0.008  1.00  0.00     0.011 C 
HETATM    6  C7  UNL     1     -14.006 -17.076  -2.259  1.00  0.00     0.025 C 
HETATM    7  C4  UNL     1     -15.214 -15.825  -0.054  1.00  0.00    -0.013 C 
HETATM    8  C3  UNL     1     -16.053 -16.613  -1.005  1.00  0.00     0.023 C 
HETATM    9  C16 UNL     1     -15.152 -14.376  -0.469  1.00  0.00     0.011 C 
HETATM   10  C2  UNL     1     -15.395 -16.538  -2.386  1.00  0.00     0.040 C 
HETATM   11  C17 UNL     1     -15.427 -15.081  -2.791  1.00  0.00     0.025 C 
HETATM   12  C15 UNL     1     -14.577 -14.266  -1.840  1.00  0.00     0.011 C 
BRANCH  10  13
HETATM   13  C1  UNL     1     -16.143 -17.306  -3.385  1.00  0.00     0.239 C 
HETATM   14  N1  UNL     1     -17.550 -17.194  -3.486  1.00  0.00    -0.061 NA
HETATM   15  O1  UNL     1     -15.532 -18.074  -4.165  1.00  0.00    -0.276 OA
ENDBRANCH  10  13
ENDBRANCH   1   3
BRANCH   1  16
HETATM   16  S1  UNL     1     -10.652 -13.844  -1.710  1.00  0.00     0.265 S 
HETATM   17  O2  UNL     1     -10.028 -14.983  -2.466  1.00  0.00    -0.200 OA
HETATM   18  O3  UNL     1      -9.957 -13.660  -0.363  1.00  0.00    -0.200 OA
BRANCH  16  19
HETATM   19  C9  UNL     1     -10.231 -12.403  -2.624  1.00  0.00     0.162 A 
HETATM   20  C10 UNL     1      -8.886 -12.037  -2.737  1.00  0.00     0.184 A 
HETATM   21  F1  UNL     1      -7.914 -12.792  -2.128  1.00  0.00    -0.201 F 
HETATM   22  C11 UNL     1      -8.508 -10.923  -3.451  1.00  0.00     0.198 A 
HETATM   23  F2  UNL     1      -7.197 -10.564  -3.563  1.00  0.00    -0.199 F 
HETATM   24  C12 UNL     1      -9.432 -10.121  -4.086  1.00  0.00     0.199 A 
HETATM   25  F3  UNL     1      -9.051  -9.026  -4.788  1.00  0.00    -0.199 F 
HETATM   26  C13 UNL     1     -10.752 -10.495  -3.966  1.00  0.00     0.198 A 
HETATM   27  F4  UNL     1     -11.692  -9.747  -4.567  1.00  0.00    -0.199 F 
HETATM   28  C14 UNL     1     -11.152 -11.618  -3.248  1.00  0.00     0.184 A 
HETATM   29  F5  UNL     1     -12.490 -11.930  -3.186  1.00  0.00    -0.201 F 
ENDBRANCH  16  19
ENDBRANCH   1  16
TORSDOF 4
ENDMDL
MODEL 4
REMARK VINA RESULT: -9.087958752      1.402      1.873
REMARK  4 active torsions:
REMARK  status: ('A' for Active; 'I' for Inactive)
REMARK    1  A    between atoms: C1_2  and  C2_4 
REMARK    2  A    between atoms: C8_10  and  N2_11 
REMARK    3  A    between atoms: N2_11  and  S1_13 
REMARK    4  A    between atoms: S1_13  and  C9_16 
ROOT
HETATM    1  N2  UNL     1     -12.274 -13.785  -1.624  1.00  0.00    -0.310 N 
ATOM      2  H2  UNL     1     -12.692 -12.963  -1.188  1.00  0.00     0.172 HD
ENDROOT
BRANCH   1   3
HETATM    3  C8  UNL     1     -13.150 -14.754  -2.039  1.00  0.00     0.101 C 
HETATM    4  C6  UNL     1     -13.110 -16.113  -1.423  1.00  0.00     0.011 C 
HETATM    5  C5  UNL     1     -13.707 -16.226  -0.069  1.00  0.00     0.011 C 
HETATM    6  C7  UNL     1     -13.956 -17.007  -2.319  1.00  0.00     0.025 C 
HETATM    7  C4  UNL     1     -15.137 -15.753  -0.103  1.00  0.00    -0.013 C 
HETATM    8  C3  UNL     1     -15.982 -16.574  -1.021  1.00  0.00     0.023 C 
HETATM    9  C16 UNL     1     -15.120 -14.309  -0.539  1.00  0.00     0.011 C 
HETATM   10  C2  UNL     1     -15.360 -16.503  -2.420  1.00  0.00     0.040 C 
HETATM   11  C17 UNL     1     -15.436 -15.053  -2.843  1.00  0.00     0.025 C 
HETATM   12  C15 UNL     1     -14.582 -14.205  -1.925  1.00  0.00     0.011 C 
BRANCH  10  13
HETATM   13  C1  UNL     1     -16.115 -17.302  -3.388  1.00  0.00     0.239 C 
HETATM   14  N1  UNL     1     -17.526 -17.217  -3.460  1.00  0.00    -0.061 NA
HETATM   15  O1  UNL     1     -15.507 -18.071  -4.168  1.00  0.00    -0.276 OA
ENDBRANCH  10  13
ENDBRANCH   1   3
BRANCH   1  16
HETATM   16  S1  UNL     1     -10.643 -13.781  -1.739  1.00  0.00     0.265 S 
HETATM   17  O2  UNL     1     -10.003 -14.954  -2.427  1.00  0.00    -0.200 OA
HETATM   18  O3  UNL     1     -10.043 -13.591  -0.349  1.00  0.00    -0.200 OA
BRANCH  16  19
HETATM   19  C9  UNL     1     -10.110 -12.373  -2.646  1.00  0.00     0.162 A 
HETATM   20  C10 UNL     1     -11.062 -11.588  -3.305  1.00  0.00     0.184 A 
HETATM   21  F1  UNL     1     -12.391 -11.927  -3.250  1.00  0.00    -0.201 F 
HETATM   22  C11 UNL     1     -10.692 -10.470  -4.018  1.00  0.00     0.198 A 
HETATM   23  F2  UNL     1     -11.618  -9.703  -4.662  1.00  0.00    -0.199 F 
HETATM   24  C12 UNL     1      -9.375 -10.073  -4.115  1.00  0.00     0.199 A 
HETATM   25  F3  UNL     1      -9.021  -8.971  -4.819  1.00  0.00    -0.199 F 
HETATM   26  C13 UNL     1      -8.451 -10.856  -3.459  1.00  0.00     0.198 A 
HETATM   27  F4  UNL     1      -7.154 -10.513  -3.522  1.00  0.00    -0.199 F 
HETATM   28  C14 UNL     1      -8.806 -11.989  -2.734  1.00  0.00     0.184 A 
HETATM   29  F5  UNL     1      -7.824 -12.711  -2.098  1.00  0.00    -0.201 F 
ENDBRANCH  16  19
ENDBRANCH   1  16
TORSDOF 4
ENDMDL
MODEL 5
REMARK VINA RESULT: -8.881505987      3.381      8.259
REMARK  4 active torsions:
REMARK  status: ('A' for Active; 'I' for Inactive)
REMARK    1  A    between atoms: C1_2  and  C2_4 
REMARK    2  A    between atoms: C8_10  and  N2_11 
REMARK    3  A    between atoms: N2_11  and  S1_13 
REMARK    4  A    between atoms: S1_13  and  C9_16 
ROOT
HETATM    1  N2  UNL     1     -10.725 -10.190  -2.238  1.00  0.00    -0.310 N 
ATOM      2  H2  UNL     1     -10.327 -10.630  -1.408  1.00  0.00     0.172 HD
ENDROOT
BRANCH   1   3
HETATM    3  C8  UNL     1      -9.884  -9.369  -2.943  1.00  0.00     0.101 C 
HETATM    4  C6  UNL     1      -8.671  -8.798  -2.286  1.00  0.00     0.011 C 
HETATM    5  C5  UNL     1      -7.531  -9.733  -2.114  1.00  0.00     0.011 C 
HETATM    6  C7  UNL     1      -8.165  -7.702  -3.215  1.00  0.00     0.025 C 
HETATM    7  C4  UNL     1      -7.133 -10.303  -3.452  1.00  0.00    -0.013 C 
HETATM    8  C3  UNL     1      -6.689  -9.244  -4.407  1.00  0.00     0.023 C 
HETATM    9  C16 UNL     1      -8.330 -11.045  -3.994  1.00  0.00     0.011 C 
HETATM   10  C2  UNL     1      -7.840  -8.245  -4.569  1.00  0.00     0.040 C 
HETATM   11  C17 UNL     1      -8.985  -9.016  -5.186  1.00  0.00     0.025 C 
HETATM   12  C15 UNL     1      -9.452 -10.092  -4.229  1.00  0.00     0.011 C 
BRANCH  10  13
HETATM   13  C1  UNL     1      -7.483  -7.153  -5.478  1.00  0.00     0.239 C 
HETATM   14  N1  UNL     1      -7.541  -5.804  -5.054  1.00  0.00    -0.061 NA
HETATM   15  O1  UNL     1      -7.118  -7.412  -6.649  1.00  0.00    -0.276 OA
ENDBRANCH  10  13
ENDBRANCH   1   3
BRANCH   1  16
HETATM   16  S1  UNL     1     -12.286 -10.554  -2.561  1.00  0.00     0.265 S 
HETATM   17  O2  UNL     1     -12.772 -10.302  -3.961  1.00  0.00    -0.200 OA
HETATM   18  O3  UNL     1     -13.185  -9.844  -1.553  1.00  0.00    -0.200 OA
BRANCH  16  19
HETATM   19  C9  UNL     1     -12.573 -12.265  -2.278  1.00  0.00     0.162 A 
HETATM   20  C10 UNL     1     -11.479 -13.127  -2.153  1.00  0.00     0.184 A 
HETATM   21  F1  UNL     1     -10.201 -12.638  -2.263  1.00  0.00    -0.201 F 
HETATM   22  C11 UNL     1     -11.655 -14.472  -1.920  1.00  0.00     0.198 A 
HETATM   23  F2  UNL     1     -10.590 -15.315  -1.798  1.00  0.00    -0.199 F 
HETATM   24  C12 UNL     1     -12.910 -15.030  -1.800  1.00  0.00     0.199 A 
HETATM   25  F3  UNL     1     -13.074 -16.355  -1.570  1.00  0.00    -0.199 F 
HETATM   26  C13 UNL     1     -13.977 -14.168  -1.925  1.00  0.00     0.198 A 
HETATM   27  F4  UNL     1     -15.221 -14.660  -1.815  1.00  0.00    -0.199 F 
HETATM   28  C14 UNL     1     -13.818 -12.805  -2.160  1.00  0.00     0.184 A 
HETATM   29  F5  UNL     1     -14.934 -12.009  -2.261  1.00  0.00    -0.201 F 
ENDBRANCH  16  19
ENDBRANCH   1  16
TORSDOF 4
ENDMDL
