MODEL 1
REMARK VINA RESULT: -9.825137946      0.000      0.000
REMARK  7 active torsions:
REMARK  status: ('A' for Active; 'I' for Inactive)
REMARK    1  A    between atoms: C5_7  and  C6_8 
REMARK    2  A    between atoms: C6_8  and  C7_9 
REMARK    3  A    between atoms: C7_9  and  N2_10 
REMARK    4  A    between atoms: C7_9  and  C8_14 
REMARK    5  A    between atoms: C8_14  and  C9_15 
REMARK    6  A    between atoms: C10_16  and  S1_17 
REMARK    7  A    between atoms: N3_28  and  O3_29 
ROOT
HETATM    1  C7  UNL     1      -7.707  -8.641  -4.062  1.00  0.00     0.195 C 
ENDROOT
BRANCH   1   2
HETATM    2  C6  UNL     1      -8.123  -8.951  -2.716  1.00  0.00     0.112 C 
BRANCH   2   3
HETATM    3  C5  UNL     1      -9.260  -9.902  -2.576  1.00  0.00     0.112 A 
HETATM    4  N1  UNL     1     -10.574  -9.721  -2.638  1.00  0.00    -0.342 N 
HETATM    5  C4  UNL     1     -11.214 -10.891  -2.454  1.00  0.00     0.063 A 
ATOM      6  H1  UNL     1     -11.033  -8.825  -2.801  1.00  0.00     0.167 HD
HETATM    7  C3  UNL     1     -12.568 -11.190  -2.435  1.00  0.00     0.039 A 
HETATM    8  C15 UNL     1     -10.243 -11.850  -2.267  1.00  0.00     0.091 A 
HETATM    9  C2  UNL     1     -12.909 -12.516  -2.218  1.00  0.00    -0.054 A 
HETATM   10  C1  UNL     1     -14.353 -12.864  -2.196  1.00  0.00     0.049 C 
HETATM   11  C17 UNL     1     -11.952 -13.488  -2.030  1.00  0.00    -0.054 A 
HETATM   12  C16 UNL     1     -10.601 -13.167  -2.052  1.00  0.00     0.041 A 
HETATM   13  C18 UNL     1     -12.407 -14.882  -1.806  1.00  0.00     0.049 C 
HETATM   14  N3  UNL     1      -9.067 -11.213  -2.348  1.00  0.00    -0.210 N 
BRANCH  14  15
HETATM   15  O3  UNL     1      -7.841 -11.859  -2.209  1.00  0.00    -0.281 OA
ATOM     16  H3  UNL     1      -7.681 -12.677  -1.754  1.00  0.00     0.245 HD
ENDBRANCH  14  15
ENDBRANCH   2   3
ENDBRANCH   1   2
BRANCH   1  17
HETATM   17  N2  UNL     1      -7.093  -9.830  -4.689  1.00  0.00    -0.074 N 
ATOM     18  H23 UNL     1      -7.072 -10.629  -4.056  1.00  0.00     0.274 HD
ATOM     19  H22 UNL     1      -7.688 -10.231  -5.415  1.00  0.00     0.274 HD
ATOM     20  H21 UNL     1      -6.165  -9.599  -5.042  1.00  0.00     0.274 HD
ENDBRANCH   1  17
BRANCH   1  21
HETATM   21  C8  UNL     1      -8.416  -7.841  -5.051  1.00  0.00     0.076 C 
BRANCH  21  22
HETATM   22  C9  UNL     1      -7.760  -6.712  -5.698  1.00  0.00     0.010 A 
HETATM   23  C10 UNL     1      -7.426  -6.655  -7.010  1.00  0.00     0.103 A 
HETATM   24  C11 UNL     1      -6.874  -5.430  -7.461  1.00  0.00     0.072 A 
HETATM   25  C12 UNL     1      -6.675  -4.357  -6.641  1.00  0.00     0.159 A 
HETATM   26  F2  UNL     1      -6.144  -3.185  -7.077  1.00  0.00    -0.203 F 
HETATM   27  C13 UNL     1      -7.023  -4.461  -5.319  1.00  0.00     0.193 A 
HETATM   28  F3  UNL     1      -6.827  -3.393  -4.480  1.00  0.00    -0.200 F 
HETATM   29  C14 UNL     1      -7.560  -5.609  -4.823  1.00  0.00     0.166 A 
HETATM   30  F4  UNL     1      -7.877  -5.666  -3.515  1.00  0.00    -0.202 F 
BRANCH  23  31
HETATM   31  S1  UNL     1      -7.532  -7.961  -8.168  1.00  0.00     0.333 S 
HETATM   32  O1  UNL     1      -9.011  -8.203  -8.471  1.00  0.00    -0.189 OA
HETATM   33  O2  UNL     1      -7.004  -7.454  -9.527  1.00  0.00    -0.189 OA
HETATM   34  F1  UNL     1      -6.800  -9.355  -7.787  1.00  0.00    -0.100 F 
ENDBRANCH  23  31
ENDBRANCH  21  22
ENDBRANCH   1  21
TORSDOF 7
ENDMDL
MODEL 2
REMARK VINA RESULT: -9.658635494      2.844      4.063
REMARK  7 active torsions:
REMARK  status: ('A' for Active; 'I' for Inactive)
REMARK    1  A    between atoms: C5_7  and  C6_8 
REMARK    2  A    between atoms: C6_8  and  C7_9 
REMARK    3  A    between atoms: C7_9  and  N2_10 
REMARK    4  A    between atoms: C7_9  and  C8_14 
REMARK    5  A    between atoms: C8_14  and  C9_15 
REMARK    6  A    between atoms: C10_16  and  S1_17 
REMARK    7  A    between atoms: N3_28  and  O3_29 
ROOT
HETATM    1  C7  UNL     1      -7.843  -6.458  -5.638  1.00  0.00     0.195 C 
ENDROOT
BRANCH   1   2
HETATM    2  C6  UNL     1      -7.443  -7.826  -5.861  1.00  0.00     0.112 C 
BRANCH   2   3
HETATM    3  C5  UNL     1      -8.187  -8.866  -5.097  1.00  0.00     0.112 A 
HETATM    4  N1  UNL     1      -9.487  -9.060  -4.904  1.00  0.00    -0.342 N 
HETATM    5  C4  UNL     1      -9.686 -10.147  -4.137  1.00  0.00     0.063 A 
ATOM      6  H1  UNL     1     -10.227  -8.470  -5.284  1.00  0.00     0.167 HD
HETATM    7  C3  UNL     1     -10.858 -10.731  -3.680  1.00  0.00     0.039 A 
HETATM    8  C15 UNL     1      -8.442 -10.655  -3.836  1.00  0.00     0.091 A 
HETATM    9  C2  UNL     1     -10.723 -11.865  -2.895  1.00  0.00    -0.054 A 
HETATM   10  C1  UNL     1     -11.963 -12.511  -2.394  1.00  0.00     0.049 C 
HETATM   11  C17 UNL     1      -9.488 -12.387  -2.585  1.00  0.00    -0.054 A 
HETATM   12  C16 UNL     1      -8.326 -11.787  -3.053  1.00  0.00     0.041 A 
HETATM   13  C18 UNL     1      -9.437 -13.606  -1.741  1.00  0.00     0.049 C 
HETATM   14  N3  UNL     1      -7.554  -9.852  -4.437  1.00  0.00    -0.210 N 
BRANCH  14  15
HETATM   15  O3  UNL     1      -6.177 -10.047  -4.360  1.00  0.00    -0.281 OA
ATOM     16  H3  UNL     1      -5.530  -9.770  -4.999  1.00  0.00     0.245 HD
ENDBRANCH  14  15
ENDBRANCH   2   3
ENDBRANCH   1   2
BRANCH   1  17
HETATM   17  N2  UNL     1      -7.109  -5.897  -4.485  1.00  0.00    -0.074 N 
ATOM     18  H23 UNL     1      -6.728  -6.626  -3.882  1.00  0.00     0.274 HD
ATOM     19  H22 UNL     1      -6.229  -5.462  -4.766  1.00  0.00     0.274 HD
ATOM     20  H21 UNL     1      -7.707  -5.250  -3.971  1.00  0.00     0.274 HD
ENDBRANCH   1  17
BRANCH   1  21
HETATM   21  C8  UNL     1      -8.100  -5.431  -6.638  1.00  0.00     0.076 C 
BRANCH  21  22
HETATM   22  C9  UNL     1      -7.107  -5.125  -7.659  1.00  0.00     0.010 A 
HETATM   23  C10 UNL     1      -6.130  -4.193  -7.538  1.00  0.00     0.103 A 
HETATM   24  C11 UNL     1      -5.209  -4.112  -8.612  1.00  0.00     0.072 A 
HETATM   25  C12 UNL     1      -5.280  -4.911  -9.716  1.00  0.00     0.159 A 
HETATM   26  F2  UNL     1      -4.396  -4.829 -10.744  1.00  0.00    -0.203 F 
HETATM   27  C13 UNL     1      -6.287  -5.837  -9.798  1.00  0.00     0.193 A 
HETATM   28  F3  UNL     1      -6.376  -6.648 -10.902  1.00  0.00    -0.200 F 
HETATM   29  C14 UNL     1      -7.204  -5.968  -8.800  1.00  0.00     0.166 A 
HETATM   30  F4  UNL     1      -8.181  -6.887  -8.930  1.00  0.00    -0.202 F 
BRANCH  23  31
HETATM   31  S1  UNL     1      -5.952  -3.037  -6.239  1.00  0.00     0.333 S 
HETATM   32  O1  UNL     1      -4.693  -3.402  -5.452  1.00  0.00    -0.189 OA
HETATM   33  O2  UNL     1      -5.565  -1.672  -6.848  1.00  0.00    -0.189 OA
HETATM   34  F1  UNL     1      -7.208  -2.846  -5.235  1.00  0.00    -0.100 F 
ENDBRANCH  23  31
ENDBRANCH  21  22
ENDBRANCH   1  21
TORSDOF 7
ENDMDL
MODEL 3
REMARK VINA RESULT: -9.558392094      3.737      9.036
REMARK  7 active torsions:
REMARK  status: ('A' for Active; 'I' for Inactive)
REMARK    1  A    between atoms: C5_7  and  C6_8 
REMARK    2  A    between atoms: C6_8  and  C7_9 
REMARK    3  A    between atoms: C7_9  and  N2_10 
REMARK    4  A    between atoms: C7_9  and  C8_14 
REMARK    5  A    between atoms: C8_14  and  C9_15 
REMARK    6  A    between atoms: C10_16  and  S1_17 
REMARK    7  A    between atoms: N3_28  and  O3_29 
ROOT
HETATM    1  C7  UNL     1      -8.374  -8.568  -6.378  1.00  0.00     0.195 C 
ENDROOT
BRANCH   1   2
HETATM    2  C6  UNL     1      -8.860  -7.724  -7.442  1.00  0.00     0.112 C 
BRANCH   2   3
HETATM    3  C5  UNL     1      -7.866  -6.808  -8.067  1.00  0.00     0.112 A 
HETATM    4  N1  UNL     1      -7.247  -6.846  -9.241  1.00  0.00    -0.342 N 
HETATM    5  C4  UNL     1      -6.431  -5.784  -9.371  1.00  0.00     0.063 A 
ATOM      6  H1  UNL     1      -7.372  -7.575  -9.943  1.00  0.00     0.167 HD
HETATM    7  C3  UNL     1      -5.594  -5.405 -10.411  1.00  0.00     0.039 A 
HETATM    8  C15 UNL     1      -6.550  -5.047  -8.214  1.00  0.00     0.091 A 
HETATM    9  C2  UNL     1      -4.872  -4.236 -10.234  1.00  0.00    -0.054 A 
HETATM   10  C1  UNL     1      -3.969  -3.807 -11.333  1.00  0.00     0.049 C 
HETATM   11  C17 UNL     1      -4.979  -3.486  -9.085  1.00  0.00    -0.054 A 
HETATM   12  C16 UNL     1      -5.822  -3.883  -8.054  1.00  0.00     0.041 A 
HETATM   13  C18 UNL     1      -4.170  -2.247  -8.981  1.00  0.00     0.049 C 
HETATM   14  N3  UNL     1      -7.431  -5.698  -7.444  1.00  0.00    -0.210 N 
BRANCH  14  15
HETATM   15  O3  UNL     1      -7.814  -5.253  -6.181  1.00  0.00    -0.281 OA
ATOM     16  H3  UNL     1      -7.515  -5.594  -5.346  1.00  0.00     0.245 HD
ENDBRANCH  14  15
ENDBRANCH   2   3
ENDBRANCH   1   2
BRANCH   1  17
HETATM   17  N2  UNL     1      -6.961  -8.927  -6.621  1.00  0.00    -0.074 N 
ATOM     18  H23 UNL     1      -6.447  -8.171  -7.074  1.00  0.00     0.274 HD
ATOM     19  H22 UNL     1      -6.424  -8.975  -5.755  1.00  0.00     0.274 HD
ATOM     20  H21 UNL     1      -6.908  -9.796  -7.152  1.00  0.00     0.274 HD
ENDBRANCH   1  17
BRANCH   1  21
HETATM   21  C8  UNL     1      -8.639  -8.445  -4.951  1.00  0.00     0.076 C 
BRANCH  21  22
HETATM   22  C9  UNL     1      -9.012  -9.614  -4.165  1.00  0.00     0.010 A 
HETATM   23  C10 UNL     1      -8.206 -10.238  -3.271  1.00  0.00     0.103 A 
HETATM   24  C11 UNL     1      -8.790 -11.305  -2.544  1.00  0.00     0.072 A 
HETATM   25  C12 UNL     1     -10.084 -11.703  -2.716  1.00  0.00     0.159 A 
HETATM   26  F2  UNL     1     -10.639 -12.727  -2.017  1.00  0.00    -0.203 F 
HETATM   27  C13 UNL     1     -10.861 -11.046  -3.634  1.00  0.00     0.193 A 
HETATM   28  F3  UNL     1     -12.164 -11.435  -3.822  1.00  0.00    -0.200 F 
HETATM   29  C14 UNL     1     -10.362 -10.011  -4.364  1.00  0.00     0.166 A 
HETATM   30  F4  UNL     1     -11.163  -9.402  -5.261  1.00  0.00    -0.202 F 
BRANCH  23  31
HETATM   31  S1  UNL     1      -6.510  -9.912  -2.995  1.00  0.00     0.333 S 
HETATM   32  O1  UNL     1      -5.761 -10.178  -4.301  1.00  0.00    -0.189 OA
HETATM   33  O2  UNL     1      -6.327  -8.388  -2.824  1.00  0.00    -0.189 OA
HETATM   34  F1  UNL     1      -5.793 -10.686  -1.766  1.00  0.00    -0.100 F 
ENDBRANCH  23  31
ENDBRANCH  21  22
ENDBRANCH   1  21
TORSDOF 7
ENDMDL
MODEL 4
REMARK VINA RESULT: -9.407450699      3.537      8.951
REMARK  7 active torsions:
REMARK  status: ('A' for Active; 'I' for Inactive)
REMARK    1  A    between atoms: C5_7  and  C6_8 
REMARK    2  A    between atoms: C6_8  and  C7_9 
REMARK    3  A    between atoms: C7_9  and  N2_10 
REMARK    4  A    between atoms: C7_9  and  C8_14 
REMARK    5  A    between atoms: C8_14  and  C9_15 
REMARK    6  A    between atoms: C10_16  and  S1_17 
REMARK    7  A    between atoms: N3_28  and  O3_29 
ROOT
HETATM    1  C7  UNL     1      -8.315  -8.549  -6.228  1.00  0.00     0.195 C 
ENDROOT
BRANCH   1   2
HETATM    2  C6  UNL     1      -8.626  -7.578  -7.249  1.00  0.00     0.112 C 
BRANCH   2   3
HETATM    3  C5  UNL     1      -7.762  -6.366  -7.296  1.00  0.00     0.112 A 
HETATM    4  N1  UNL     1      -7.392  -5.508  -6.352  1.00  0.00    -0.342 N 
HETATM    5  C4  UNL     1      -6.590  -4.561  -6.872  1.00  0.00     0.063 A 
ATOM      6  H1  UNL     1      -7.675  -5.560  -5.374  1.00  0.00     0.167 HD
HETATM    7  C3  UNL     1      -5.968  -3.473  -6.278  1.00  0.00     0.039 A 
HETATM    8  C15 UNL     1      -6.456  -4.846  -8.213  1.00  0.00     0.091 A 
HETATM    9  C2  UNL     1      -5.193  -2.673  -7.102  1.00  0.00    -0.054 A 
HETATM   10  C1  UNL     1      -4.515  -1.502  -6.489  1.00  0.00     0.049 C 
HETATM   11  C17 UNL     1      -5.047  -2.943  -8.443  1.00  0.00    -0.054 A 
HETATM   12  C16 UNL     1      -5.679  -4.038  -9.020  1.00  0.00     0.041 A 
HETATM   13  C18 UNL     1      -4.197  -2.034  -9.251  1.00  0.00     0.049 C 
HETATM   14  N3  UNL     1      -7.181  -5.951  -8.436  1.00  0.00    -0.210 N 
BRANCH  14  15
HETATM   15  O3  UNL     1      -7.291  -6.550  -9.688  1.00  0.00    -0.281 OA
ATOM     16  H3  UNL     1      -6.613  -7.037 -10.144  1.00  0.00     0.245 HD
ENDBRANCH  14  15
ENDBRANCH   2   3
ENDBRANCH   1   2
BRANCH   1  17
HETATM   17  N2  UNL     1      -6.966  -9.109  -6.456  1.00  0.00    -0.074 N 
ATOM     18  H23 UNL     1      -6.398  -9.093  -5.610  1.00  0.00     0.274 HD
ATOM     19  H22 UNL     1      -6.992 -10.119  -6.600  1.00  0.00     0.274 HD
ATOM     20  H21 UNL     1      -6.513  -8.625  -7.230  1.00  0.00     0.274 HD
ENDBRANCH   1  17
BRANCH   1  21
HETATM   21  C8  UNL     1      -8.611  -8.470  -4.805  1.00  0.00     0.076 C 
BRANCH  21  22
HETATM   22  C9  UNL     1      -8.961  -9.668  -4.054  1.00  0.00     0.010 A 
HETATM   23  C10 UNL     1      -8.146 -10.301  -3.175  1.00  0.00     0.103 A 
HETATM   24  C11 UNL     1      -8.710 -11.401  -2.482  1.00  0.00     0.072 A 
HETATM   25  C12 UNL     1      -9.994 -11.821  -2.672  1.00  0.00     0.159 A 
HETATM   26  F2  UNL     1     -10.530 -12.877  -2.006  1.00  0.00    -0.203 F 
HETATM   27  C13 UNL     1     -10.781 -11.155  -3.575  1.00  0.00     0.193 A 
HETATM   28  F3  UNL     1     -12.075 -11.566  -3.781  1.00  0.00    -0.200 F 
HETATM   29  C14 UNL     1     -10.302 -10.089  -4.272  1.00  0.00     0.166 A 
HETATM   30  F4  UNL     1     -11.111  -9.472  -5.155  1.00  0.00    -0.202 F 
BRANCH  23  31
HETATM   31  S1  UNL     1      -6.459  -9.946  -2.881  1.00  0.00     0.333 S 
HETATM   32  O1  UNL     1      -5.691 -10.204  -4.177  1.00  0.00    -0.189 OA
HETATM   33  O2  UNL     1      -6.303  -8.419  -2.712  1.00  0.00    -0.189 OA
HETATM   34  F1  UNL     1      -5.743 -10.705  -1.642  1.00  0.00    -0.100 F 
ENDBRANCH  23  31
ENDBRANCH  21  22
ENDBRANCH   1  21
TORSDOF 7
ENDMDL
MODEL 5
REMARK VINA RESULT: -9.336731435      2.299      3.193
REMARK  7 active torsions:
REMARK  status: ('A' for Active; 'I' for Inactive)
REMARK    1  A    between atoms: C5_7  and  C6_8 
REMARK    2  A    between atoms: C6_8  and  C7_9 
REMARK    3  A    between atoms: C7_9  and  N2_10 
REMARK    4  A    between atoms: C7_9  and  C8_14 
REMARK    5  A    between atoms: C8_14  and  C9_15 
REMARK    6  A    between atoms: C10_16  and  S1_17 
REMARK    7  A    between atoms: N3_28  and  O3_29 
ROOT
HETATM    1  C7  UNL     1      -7.357  -8.332  -5.488  1.00  0.00     0.195 C 
ENDROOT
BRANCH   1   2
HETATM    2  C6  UNL     1      -7.493  -8.655  -4.088  1.00  0.00     0.112 C 
BRANCH   2   3
HETATM    3  C5  UNL     1      -8.609  -9.571  -3.725  1.00  0.00     0.112 A 
HETATM    4  N1  UNL     1      -9.922  -9.479  -3.904  1.00  0.00    -0.342 N 
HETATM    5  C4  UNL     1     -10.538 -10.568  -3.408  1.00  0.00     0.063 A 
ATOM      6  H1  UNL     1     -10.395  -8.695  -4.354  1.00  0.00     0.167 HD
HETATM    7  C3  UNL     1     -11.881 -10.910  -3.369  1.00  0.00     0.039 A 
HETATM    8  C15 UNL     1      -9.553 -11.380  -2.892  1.00  0.00     0.091 A 
HETATM    9  C2  UNL     1     -12.196 -12.124  -2.779  1.00  0.00    -0.054 A 
HETATM   10  C1  UNL     1     -13.628 -12.516  -2.725  1.00  0.00     0.049 C 
HETATM   11  C17 UNL     1     -11.225 -12.949  -2.258  1.00  0.00    -0.054 A 
HETATM   12  C16 UNL     1      -9.885 -12.587  -2.307  1.00  0.00     0.041 A 
HETATM   13  C18 UNL     1     -11.653 -14.231  -1.647  1.00  0.00     0.049 C 
HETATM   14  N3  UNL     1      -8.393 -10.744  -3.102  1.00  0.00    -0.210 N 
BRANCH  14  15
HETATM   15  O3  UNL     1      -7.159 -11.260  -2.713  1.00  0.00    -0.281 OA
ATOM     16  H3  UNL     1      -6.786 -12.093  -2.977  1.00  0.00     0.245 HD
ENDBRANCH  14  15
ENDBRANCH   2   3
ENDBRANCH   1   2
BRANCH   1  17
HETATM   17  N2  UNL     1      -7.078  -9.557  -6.266  1.00  0.00    -0.074 N 
ATOM     18  H23 UNL     1      -6.118  -9.879  -6.140  1.00  0.00     0.274 HD
ATOM     19  H22 UNL     1      -7.559 -10.371  -5.883  1.00  0.00     0.274 HD
ATOM     20  H21 UNL     1      -7.305  -9.407  -7.248  1.00  0.00     0.274 HD
ENDBRANCH   1  17
BRANCH   1  21
HETATM   21  C8  UNL     1      -8.152  -7.393  -6.266  1.00  0.00     0.076 C 
BRANCH  21  22
HETATM   22  C9  UNL     1      -7.508  -6.445  -7.166  1.00  0.00     0.010 A 
HETATM   23  C10 UNL     1      -7.007  -5.241  -6.797  1.00  0.00     0.103 A 
HETATM   24  C11 UNL     1      -6.340  -4.506  -7.809  1.00  0.00     0.072 A 
HETATM   25  C12 UNL     1      -6.199  -4.960  -9.088  1.00  0.00     0.159 A 
HETATM   26  F2  UNL     1      -5.560  -4.253 -10.055  1.00  0.00    -0.203 F 
HETATM   27  C13 UNL     1      -6.725  -6.183  -9.418  1.00  0.00     0.193 A 
HETATM   28  F3  UNL     1      -6.595  -6.654 -10.700  1.00  0.00    -0.200 F 
HETATM   29  C14 UNL     1      -7.376  -6.940  -8.492  1.00  0.00     0.166 A 
HETATM   30  F4  UNL     1      -7.884  -8.130  -8.867  1.00  0.00    -0.202 F 
BRANCH  23  31
HETATM   31  S1  UNL     1      -7.179  -4.478  -5.233  1.00  0.00     0.333 S 
HETATM   32  O1  UNL     1      -5.817  -3.911  -4.833  1.00  0.00    -0.189 OA
HETATM   33  O2  UNL     1      -8.024  -3.197  -5.404  1.00  0.00    -0.189 OA
HETATM   34  F1  UNL     1      -7.791  -5.375  -4.031  1.00  0.00    -0.100 F 
ENDBRANCH  23  31
ENDBRANCH  21  22
ENDBRANCH   1  21
TORSDOF 7
ENDMDL
