MODEL 1
REMARK VINA RESULT: -6.989130590      0.000      0.000
REMARK  4 active torsions:
REMARK  status: ('A' for Active; 'I' for Inactive)
REMARK    1  A    between atoms: C2_2  and  C3_4 
REMARK       I    between atoms: C3_4  and  N1_6 
REMARK    2  A    between atoms: N1_6  and  O2_7 
REMARK       I    between atoms: N1_6  and  C4_9 
REMARK    3  A    between atoms: C4_9  and  C5_11 
REMARK    4  A    between atoms: C6_12  and  C7_13 
ROOT
HETATM    1  C5  UNL     1     -13.624 -15.179  -1.012  1.00  0.00     0.102 A 
HETATM    2  C6  UNL     1     -14.352 -16.282  -1.659  1.00  0.00     0.107 A 
HETATM    3  C8  UNL     1     -15.478 -16.163  -0.643  1.00  0.00     0.043 A 
HETATM    4  C9  UNL     1     -14.775 -15.033  -0.028  1.00  0.00     0.042 A 
HETATM    5  C10 UNL     1     -15.174 -16.196   0.799  1.00  0.00     0.104 A 
HETATM    6 CL1  UNL     1     -13.869 -17.210   1.432  1.00  0.00    -0.106 Cl
HETATM    7 BR2  UNL     1     -16.665 -15.933   1.978  1.00  0.00    -0.067 Br
ENDROOT
BRANCH   1   8
HETATM    8  C4  UNL     1     -13.310 -13.957  -1.734  1.00  0.00     0.256 C 
HETATM    9  N1  UNL     1     -11.951 -13.538  -1.962  1.00  0.00    -0.151 N 
HETATM   10  C3  UNL     1     -11.653 -12.367  -2.654  1.00  0.00     0.290 C 
HETATM   11  O1  UNL     1     -12.664 -11.691  -3.072  1.00  0.00    -0.264 OA
HETATM   12  O3  UNL     1     -14.214 -13.231  -2.181  1.00  0.00    -0.270 OA
BRANCH   9  13
HETATM   13  O2  UNL     1     -10.933 -14.306  -1.490  1.00  0.00    -0.277 OA
ATOM     14  H2  UNL     1     -10.058 -13.940  -1.448  1.00  0.00     0.245 HD
ENDBRANCH   9  13
BRANCH  10  15
HETATM   15  C2  UNL     1     -10.362 -11.822  -2.957  1.00  0.00     0.071 C 
HETATM   16  C1  UNL     1      -9.195 -12.304  -2.636  1.00  0.00     0.037 C 
HETATM   17 BR1  UNL     1     -10.261 -10.150  -3.978  1.00  0.00    -0.046 Br
ENDBRANCH  10  15
ENDBRANCH   1   8
BRANCH   2  18
HETATM   18  C7  UNL     1     -14.896 -16.150  -3.007  1.00  0.00     0.178 C 
HETATM   19  O4  UNL     1     -14.196 -16.538  -3.984  1.00  0.00    -0.648 OA
HETATM   20  O5  UNL     1     -16.147 -15.611  -3.212  1.00  0.00    -0.648 OA
ENDBRANCH   2  18
TORSDOF 4
ENDMDL
MODEL 2
REMARK VINA RESULT: -6.837636024      4.952      8.715
REMARK  4 active torsions:
REMARK  status: ('A' for Active; 'I' for Inactive)
REMARK    1  A    between atoms: C2_2  and  C3_4 
REMARK       I    between atoms: C3_4  and  N1_6 
REMARK    2  A    between atoms: N1_6  and  O2_7 
REMARK       I    between atoms: N1_6  and  C4_9 
REMARK    3  A    between atoms: C4_9  and  C5_11 
REMARK    4  A    between atoms: C6_12  and  C7_13 
ROOT
HETATM    1  C5  UNL     1      -8.902  -9.839  -4.797  1.00  0.00     0.102 A 
HETATM    2  C6  UNL     1      -7.918  -9.213  -3.900  1.00  0.00     0.107 A 
HETATM    3  C8  UNL     1      -7.972  -7.923  -4.705  1.00  0.00     0.043 A 
HETATM    4  C9  UNL     1      -8.988  -8.532  -5.570  1.00  0.00     0.042 A 
HETATM    5  C10 UNL     1      -7.757  -7.957  -6.163  1.00  0.00     0.104 A 
HETATM    6 CL1  UNL     1      -6.614  -9.097  -6.889  1.00  0.00    -0.106 Cl
HETATM    7 BR2  UNL     1      -7.952  -6.282  -7.079  1.00  0.00    -0.067 Br
ENDROOT
BRANCH   1   8
HETATM    8  C4  UNL     1     -10.183 -10.312  -4.299  1.00  0.00     0.256 C 
HETATM    9  N1  UNL     1     -10.291 -11.493  -3.481  1.00  0.00    -0.151 N 
HETATM   10  C3  UNL     1     -11.518 -11.944  -3.005  1.00  0.00     0.290 C 
HETATM   11  O1  UNL     1     -12.542 -11.240  -3.342  1.00  0.00    -0.264 OA
HETATM   12  O3  UNL     1     -11.234  -9.705  -4.567  1.00  0.00    -0.270 OA
BRANCH   9  13
HETATM   13  O2  UNL     1      -9.163 -12.184  -3.166  1.00  0.00    -0.277 OA
ATOM     14  H2  UNL     1      -8.666 -12.600  -3.860  1.00  0.00     0.245 HD
ENDBRANCH   9  13
BRANCH  10  15
HETATM   15  C2  UNL     1     -11.785 -13.091  -2.189  1.00  0.00     0.071 C 
HETATM   16  C1  UNL     1     -10.939 -13.777  -1.473  1.00  0.00     0.037 C 
HETATM   17 BR1  UNL     1     -13.622 -13.770  -2.087  1.00  0.00    -0.046 Br
ENDBRANCH  10  15
ENDBRANCH   1   8
BRANCH   2  18
HETATM   18  C7  UNL     1      -8.232  -8.929  -2.503  1.00  0.00     0.178 C 
HETATM   19  O4  UNL     1      -8.707  -7.796  -2.207  1.00  0.00    -0.648 OA
HETATM   20  O5  UNL     1      -8.016  -9.874  -1.526  1.00  0.00    -0.648 OA
ENDBRANCH   2  18
TORSDOF 4
ENDMDL
MODEL 3
REMARK VINA RESULT: -6.664995906      4.571      8.184
REMARK  4 active torsions:
REMARK  status: ('A' for Active; 'I' for Inactive)
REMARK    1  A    between atoms: C2_2  and  C3_4 
REMARK       I    between atoms: C3_4  and  N1_6 
REMARK    2  A    between atoms: N1_6  and  O2_7 
REMARK       I    between atoms: N1_6  and  C4_9 
REMARK    3  A    between atoms: C4_9  and  C5_11 
REMARK    4  A    between atoms: C6_12  and  C7_13 
ROOT
HETATM    1  C5  UNL     1      -9.147 -10.152  -3.973  1.00  0.00     0.102 A 
HETATM    2  C6  UNL     1      -7.840 -10.292  -3.313  1.00  0.00     0.107 A 
HETATM    3  C8  UNL     1      -7.609  -8.791  -3.404  1.00  0.00     0.043 A 
HETATM    4  C9  UNL     1      -8.932  -8.647  -4.019  1.00  0.00     0.042 A 
HETATM    5  C10 UNL     1      -7.734  -8.106  -4.704  1.00  0.00     0.104 A 
HETATM    6 CL1  UNL     1      -7.245  -8.904  -6.206  1.00  0.00    -0.106 Cl
HETATM    7 BR2  UNL     1      -7.521  -6.199  -4.671  1.00  0.00    -0.067 Br
ENDROOT
BRANCH   1   8
HETATM    8  C4  UNL     1     -10.376 -10.549  -3.305  1.00  0.00     0.256 C 
HETATM    9  N1  UNL     1     -10.648 -11.924  -2.972  1.00  0.00    -0.151 N 
HETATM   10  C3  UNL     1     -11.825 -12.302  -2.331  1.00  0.00     0.290 C 
HETATM   11  O1  UNL     1     -12.645 -11.349  -2.060  1.00  0.00    -0.264 OA
HETATM   12  O3  UNL     1     -11.236  -9.706  -2.998  1.00  0.00    -0.270 OA
BRANCH   9  13
HETATM   13  O2  UNL     1      -9.732 -12.876  -3.290  1.00  0.00    -0.277 OA
ATOM     14  H2  UNL     1      -8.826 -12.752  -3.031  1.00  0.00     0.245 HD
ENDBRANCH   9  13
BRANCH  10  15
HETATM   15  C2  UNL     1     -12.236 -13.618  -1.938  1.00  0.00     0.071 C 
HETATM   16  C1  UNL     1     -11.519 -14.541  -1.363  1.00  0.00     0.037 C 
HETATM   17 BR1  UNL     1     -14.089 -14.166  -2.274  1.00  0.00    -0.046 Br
ENDBRANCH  10  15
ENDBRANCH   1   8
BRANCH   2  18
HETATM   18  C7  UNL     1      -7.730 -10.718  -1.921  1.00  0.00     0.178 C 
HETATM   19  O4  UNL     1      -7.912  -9.863  -1.009  1.00  0.00    -0.648 OA
HETATM   20  O5  UNL     1      -7.432 -12.025  -1.605  1.00  0.00    -0.648 OA
ENDBRANCH   2  18
TORSDOF 4
ENDMDL
MODEL 4
REMARK VINA RESULT: -6.642396799      5.941      7.518
REMARK  4 active torsions:
REMARK  status: ('A' for Active; 'I' for Inactive)
REMARK    1  A    between atoms: C2_2  and  C3_4 
REMARK       I    between atoms: C3_4  and  N1_6 
REMARK    2  A    between atoms: N1_6  and  O2_7 
REMARK       I    between atoms: N1_6  and  C4_9 
REMARK    3  A    between atoms: C4_9  and  C5_11 
REMARK    4  A    between atoms: C6_12  and  C7_13 
ROOT
HETATM    1  C5  UNL     1      -9.195 -10.579  -2.711  1.00  0.00     0.102 A 
HETATM    2  C6  UNL     1     -10.394  -9.758  -2.940  1.00  0.00     0.107 A 
HETATM    3  C8  UNL     1      -9.877  -9.347  -4.311  1.00  0.00     0.043 A 
HETATM    4  C9  UNL     1      -8.705 -10.203  -4.101  1.00  0.00     0.042 A 
HETATM    5  C10 UNL     1      -8.526  -8.773  -4.445  1.00  0.00     0.104 A 
HETATM    6 CL1  UNL     1      -7.851  -7.728  -3.186  1.00  0.00    -0.106 Cl
HETATM    7 BR2  UNL     1      -7.950  -8.392  -6.236  1.00  0.00    -0.067 Br
ENDROOT
BRANCH   1   8
HETATM    8  C4  UNL     1      -9.293 -12.012  -2.490  1.00  0.00     0.256 C 
HETATM    9  N1  UNL     1      -8.203 -12.771  -1.931  1.00  0.00    -0.151 N 
HETATM   10  C3  UNL     1      -8.300 -14.143  -1.720  1.00  0.00     0.290 C 
HETATM   11  O1  UNL     1      -9.418 -14.684  -2.056  1.00  0.00    -0.264 OA
HETATM   12  O3  UNL     1     -10.331 -12.632  -2.781  1.00  0.00    -0.270 OA
BRANCH   9  13
HETATM   13  O2  UNL     1      -7.052 -12.129  -1.600  1.00  0.00    -0.277 OA
ATOM     14  H2  UNL     1      -6.400 -12.585  -1.081  1.00  0.00     0.245 HD
ENDBRANCH   9  13
BRANCH  10  15
HETATM   15  C2  UNL     1      -7.311 -15.028  -1.178  1.00  0.00     0.071 C 
HETATM   16  C1  UNL     1      -6.817 -15.031   0.028  1.00  0.00     0.037 C 
HETATM   17 BR1  UNL     1      -6.565 -16.428  -2.330  1.00  0.00    -0.046 Br
ENDBRANCH  10  15
ENDBRANCH   1   8
BRANCH   2  18
HETATM   18  C7  UNL     1     -11.716 -10.361  -3.079  1.00  0.00     0.178 C 
HETATM   19  O4  UNL     1     -12.152 -10.606  -4.239  1.00  0.00    -0.648 OA
HETATM   20  O5  UNL     1     -12.476 -10.657  -1.969  1.00  0.00    -0.648 OA
ENDBRANCH   2  18
TORSDOF 4
ENDMDL
MODEL 5
REMARK VINA RESULT: -6.496647351      4.995      8.592
REMARK  4 active torsions:
REMARK  status: ('A' for Active; 'I' for Inactive)
REMARK    1  A    between atoms: C2_2  and  C3_4 
REMARK       I    between atoms: C3_4  and  N1_6 
REMARK    2  A    between atoms: N1_6  and  O2_7 
REMARK       I    between atoms: N1_6  and  C4_9 
REMARK    3  A    between atoms: C4_9  and  C5_11 
REMARK    4  A    between atoms: C6_12  and  C7_13 
ROOT
HETATM    1  C5  UNL     1      -8.603  -9.992  -4.201  1.00  0.00     0.102 A 
HETATM    2  C6  UNL     1      -7.281  -9.855  -3.571  1.00  0.00     0.107 A 
HETATM    3  C8  UNL     1      -7.306  -8.350  -3.797  1.00  0.00     0.043 A 
HETATM    4  C9  UNL     1      -8.644  -8.483  -4.382  1.00  0.00     0.042 A 
HETATM    5  C10 UNL     1      -7.564  -7.814  -5.146  1.00  0.00     0.104 A 
HETATM    6 CL1  UNL     1      -6.971  -8.651  -6.588  1.00  0.00    -0.106 Cl
HETATM    7 BR2  UNL     1      -7.673  -5.903  -5.282  1.00  0.00    -0.067 Br
ENDROOT
BRANCH   1   8
HETATM    8  C4  UNL     1      -9.737 -10.526  -3.465  1.00  0.00     0.256 C 
HETATM    9  N1  UNL     1      -9.773 -11.893  -3.012  1.00  0.00    -0.151 N 
HETATM   10  C3  UNL     1     -10.860 -12.402  -2.307  1.00  0.00     0.290 C 
HETATM   11  O1  UNL     1     -11.822 -11.577  -2.090  1.00  0.00    -0.264 OA
HETATM   12  O3  UNL     1     -10.720  -9.812  -3.203  1.00  0.00    -0.270 OA
BRANCH   9  13
HETATM   13  O2  UNL     1      -8.716 -12.706  -3.278  1.00  0.00    -0.277 OA
ATOM     14  H2  UNL     1      -8.851 -13.481  -3.812  1.00  0.00     0.245 HD
ENDBRANCH   9  13
BRANCH  10  15
HETATM   15  C2  UNL     1     -11.040 -13.729  -1.794  1.00  0.00     0.071 C 
HETATM   16  C1  UNL     1     -10.128 -14.542  -1.343  1.00  0.00     0.037 C 
HETATM   17 BR1  UNL     1     -12.852 -14.476  -1.732  1.00  0.00    -0.046 Br
ENDBRANCH  10  15
ENDBRANCH   1   8
BRANCH   2  18
HETATM   18  C7  UNL     1      -7.080 -10.130  -2.152  1.00  0.00     0.178 C 
HETATM   19  O4  UNL     1      -6.029 -10.733  -1.793  1.00  0.00    -0.648 OA
HETATM   20  O5  UNL     1      -8.017  -9.744  -1.219  1.00  0.00    -0.648 OA
ENDBRANCH   2  18
TORSDOF 4
ENDMDL
