MODEL 1
REMARK VINA RESULT: -9.751591001      0.000      0.000
REMARK  4 active torsions:
REMARK  status: ('A' for Active; 'I' for Inactive)
REMARK    1  A    between atoms: O1_2  and  C2_3 
REMARK    2  A    between atoms: C2_3  and  C3_4 
REMARK    3  A    between atoms: C3_4  and  N1_5 
REMARK       I    between atoms: N1_5  and  C4_7 
REMARK    4  A    between atoms: C4_7  and  C5_9 
ROOT
HETATM    1  C5  UNL     1      -8.540  -9.471  -3.966  1.00  0.00     0.100 A 
HETATM    2  C6  UNL     1      -9.879  -9.760  -3.710  1.00  0.00     0.038 A 
HETATM    3  C7  UNL     1     -10.156 -10.982  -3.144  1.00  0.00     0.014 A 
HETATM    4  C8  UNL     1     -11.471 -11.373  -2.872  1.00  0.00     0.065 A 
HETATM    5 BR1  UNL     1     -12.884 -10.161  -3.307  1.00  0.00    -0.047 Br
HETATM    6  C9  UNL     1     -11.763 -12.605  -2.321  1.00  0.00     0.174 A 
HETATM    7  F1  UNL     1     -13.055 -12.937  -2.084  1.00  0.00    -0.201 F 
HETATM    8  C10 UNL     1     -10.740 -13.500  -2.020  1.00  0.00     0.175 A 
HETATM    9  F2  UNL     1     -11.007 -14.713  -1.472  1.00  0.00    -0.201 F 
HETATM   10  C11 UNL     1      -9.431 -13.133  -2.281  1.00  0.00     0.080 A 
HETATM   11 BR2  UNL     1      -8.042 -14.392  -1.850  1.00  0.00    -0.045 Br
HETATM   12  C12 UNL     1      -9.168 -11.900  -2.830  1.00  0.00     0.067 A 
HETATM   13  N2  UNL     1      -7.879 -11.608  -3.081  1.00  0.00    -0.321 N 
ATOM     14  H2  UNL     1      -7.135 -12.269  -2.858  1.00  0.00     0.169 HD
HETATM   15  C13 UNL     1      -7.608 -10.421  -3.633  1.00  0.00     0.261 A 
HETATM   16  O3  UNL     1      -6.373 -10.176  -3.856  1.00  0.00    -0.267 OA
ENDROOT
BRANCH   1  17
HETATM   17  C4  UNL     1      -8.134  -8.245  -4.631  1.00  0.00     0.257 C 
HETATM   18  N1  UNL     1      -7.891  -8.256  -6.011  1.00  0.00    -0.355 N 
ATOM     19  H1  UNL     1      -8.002  -9.119  -6.544  1.00  0.00     0.162 HD
HETATM   20  O2  UNL     1      -8.011  -7.181  -3.946  1.00  0.00    -0.267 OA
BRANCH  18  21
HETATM   21  C3  UNL     1      -7.482  -7.035  -6.674  1.00  0.00     0.149 C 
BRANCH  21  22
HETATM   22  C2  UNL     1      -8.232  -6.822  -7.975  1.00  0.00     0.186 C 
BRANCH  22  23
HETATM   23  O1  UNL     1      -7.480  -7.292  -9.020  1.00  0.00    -0.394 OA
HETATM   24  C1  UNL     1      -6.739  -6.340  -9.653  1.00  0.00     0.201 C 
ENDBRANCH  22  23
ENDBRANCH  21  22
ENDBRANCH  18  21
ENDBRANCH   1  17
TORSDOF 4
ENDMDL
MODEL 2
REMARK VINA RESULT: -9.033022352      1.659      2.002
REMARK  4 active torsions:
REMARK  status: ('A' for Active; 'I' for Inactive)
REMARK    1  A    between atoms: O1_2  and  C2_3 
REMARK    2  A    between atoms: C2_3  and  C3_4 
REMARK    3  A    between atoms: C3_4  and  N1_5 
REMARK       I    between atoms: N1_5  and  C4_7 
REMARK    4  A    between atoms: C4_7  and  C5_9 
ROOT
HETATM    1  C5  UNL     1      -8.571  -9.496  -4.531  1.00  0.00     0.100 A 
HETATM    2  C6  UNL     1      -9.888  -9.794  -4.190  1.00  0.00     0.038 A 
HETATM    3  C7  UNL     1     -10.097 -10.925  -3.436  1.00  0.00     0.014 A 
HETATM    4  C8  UNL     1     -11.386 -11.321  -3.064  1.00  0.00     0.065 A 
HETATM    5 BR1  UNL     1     -12.861 -10.244  -3.629  1.00  0.00    -0.047 Br
HETATM    6  C9  UNL     1     -11.608 -12.465  -2.324  1.00  0.00     0.174 A 
HETATM    7  F1  UNL     1     -12.879 -12.807  -1.996  1.00  0.00    -0.201 F 
HETATM    8  C10 UNL     1     -10.540 -13.264  -1.926  1.00  0.00     0.175 A 
HETATM    9  F2  UNL     1     -10.739 -14.388  -1.193  1.00  0.00    -0.201 F 
HETATM   10  C11 UNL     1      -9.256 -12.890  -2.284  1.00  0.00     0.080 A 
HETATM   11 BR2  UNL     1      -7.802 -14.015  -1.716  1.00  0.00    -0.045 Br
HETATM   12  C12 UNL     1      -9.061 -11.746  -3.022  1.00  0.00     0.067 A 
HETATM   13  N2  UNL     1      -7.794 -11.447  -3.357  1.00  0.00    -0.321 N 
ATOM     14  H2  UNL     1      -7.016 -12.037  -3.062  1.00  0.00     0.169 HD
HETATM   15  C13 UNL     1      -7.590 -10.347  -4.091  1.00  0.00     0.261 A 
HETATM   16  O3  UNL     1      -6.373 -10.093  -4.390  1.00  0.00    -0.267 OA
ENDROOT
BRANCH   1  17
HETATM   17  C4  UNL     1      -8.237  -8.371  -5.387  1.00  0.00     0.257 C 
HETATM   18  N1  UNL     1      -7.866  -7.149  -4.809  1.00  0.00    -0.355 N 
ATOM     19  H1  UNL     1      -7.828  -7.053  -3.794  1.00  0.00     0.162 HD
HETATM   20  O2  UNL     1      -8.285  -8.517  -6.649  1.00  0.00    -0.267 OA
BRANCH  18  21
HETATM   21  C3  UNL     1      -7.538  -6.025  -5.662  1.00  0.00     0.149 C 
BRANCH  21  22
HETATM   22  C2  UNL     1      -7.158  -4.798  -4.856  1.00  0.00     0.186 C 
BRANCH  22  23
HETATM   23  O1  UNL     1      -6.106  -4.161  -5.458  1.00  0.00    -0.394 OA
HETATM   24  C1  UNL     1      -6.081  -2.812  -5.267  1.00  0.00     0.201 C 
ENDBRANCH  22  23
ENDBRANCH  21  22
ENDBRANCH  18  21
ENDBRANCH   1  17
TORSDOF 4
ENDMDL
MODEL 3
REMARK VINA RESULT: -8.951660237      1.065      1.074
REMARK  4 active torsions:
REMARK  status: ('A' for Active; 'I' for Inactive)
REMARK    1  A    between atoms: O1_2  and  C2_3 
REMARK    2  A    between atoms: C2_3  and  C3_4 
REMARK    3  A    between atoms: C3_4  and  N1_5 
REMARK       I    between atoms: N1_5  and  C4_7 
REMARK    4  A    between atoms: C4_7  and  C5_9 
ROOT
HETATM    1  C5  UNL     1      -8.154  -9.462  -4.318  1.00  0.00     0.100 A 
HETATM    2  C6  UNL     1      -9.514  -9.727  -4.173  1.00  0.00     0.038 A 
HETATM    3  C7  UNL     1      -9.859 -10.867  -3.486  1.00  0.00     0.014 A 
HETATM    4  C8  UNL     1     -11.198 -11.231  -3.310  1.00  0.00     0.065 A 
HETATM    5 BR1  UNL     1     -12.548 -10.097  -4.049  1.00  0.00    -0.047 Br
HETATM    6  C9  UNL     1     -11.555 -12.383  -2.639  1.00  0.00     0.174 A 
HETATM    7  F1  UNL     1     -12.867 -12.692  -2.502  1.00  0.00    -0.201 F 
HETATM    8  C10 UNL     1     -10.576 -13.223  -2.115  1.00  0.00     0.175 A 
HETATM    9  F2  UNL     1     -10.908 -14.356  -1.446  1.00  0.00    -0.201 F 
HETATM   10  C11 UNL     1      -9.244 -12.882  -2.278  1.00  0.00     0.080 A 
HETATM   11 BR2  UNL     1      -7.917 -14.063  -1.540  1.00  0.00    -0.045 Br
HETATM   12  C12 UNL     1      -8.916 -11.729  -2.951  1.00  0.00     0.067 A 
HETATM   13  N2  UNL     1      -7.606 -11.461  -3.097  1.00  0.00    -0.321 N 
ATOM     14  H2  UNL     1      -6.894 -12.081  -2.710  1.00  0.00     0.169 HD
HETATM   15  C13 UNL     1      -7.269 -10.353  -3.766  1.00  0.00     0.261 A 
HETATM   16  O3  UNL     1      -6.016 -10.130  -3.884  1.00  0.00    -0.267 OA
ENDROOT
BRANCH   1  17
HETATM   17  C4  UNL     1      -7.672  -8.330  -5.088  1.00  0.00     0.257 C 
HETATM   18  N1  UNL     1      -7.972  -7.028  -4.666  1.00  0.00    -0.355 N 
ATOM     19  H1  UNL     1      -8.523  -6.877  -3.821  1.00  0.00     0.162 HD
HETATM   20  O2  UNL     1      -6.980  -8.542  -6.135  1.00  0.00    -0.267 OA
BRANCH  18  21
HETATM   21  C3  UNL     1      -7.495  -5.898  -5.437  1.00  0.00     0.149 C 
BRANCH  21  22
HETATM   22  C2  UNL     1      -8.147  -5.835  -6.805  1.00  0.00     0.186 C 
BRANCH  22  23
HETATM   23  O1  UNL     1      -7.191  -5.603  -7.759  1.00  0.00    -0.394 OA
HETATM   24  C1  UNL     1      -7.344  -6.334  -8.899  1.00  0.00     0.201 C 
ENDBRANCH  22  23
ENDBRANCH  21  22
ENDBRANCH  18  21
ENDBRANCH   1  17
TORSDOF 4
ENDMDL
MODEL 4
REMARK VINA RESULT: -7.472314613      5.738      8.511
REMARK  4 active torsions:
REMARK  status: ('A' for Active; 'I' for Inactive)
REMARK    1  A    between atoms: O1_2  and  C2_3 
REMARK    2  A    between atoms: C2_3  and  C3_4 
REMARK    3  A    between atoms: C3_4  and  N1_5 
REMARK       I    between atoms: N1_5  and  C4_7 
REMARK    4  A    between atoms: C4_7  and  C5_9 
ROOT
HETATM    1  C5  UNL     1     -13.545 -14.239  -1.917  1.00  0.00     0.100 A 
HETATM    2  C6  UNL     1     -13.295 -12.892  -2.171  1.00  0.00     0.038 A 
HETATM    3  C7  UNL     1     -11.978 -12.507  -2.262  1.00  0.00     0.014 A 
HETATM    4  C8  UNL     1     -11.626 -11.173  -2.490  1.00  0.00     0.065 A 
HETATM    5 BR1  UNL     1     -13.028  -9.887  -2.674  1.00  0.00    -0.047 Br
HETATM    6  C9  UNL     1     -10.306 -10.774  -2.564  1.00  0.00     0.174 A 
HETATM    7  F1  UNL     1     -10.020  -9.466  -2.780  1.00  0.00    -0.201 F 
HETATM    8  C10 UNL     1      -9.281 -11.702  -2.411  1.00  0.00     0.175 A 
HETATM    9  F2  UNL     1      -7.979 -11.329  -2.487  1.00  0.00    -0.201 F 
HETATM   10  C11 UNL     1      -9.608 -13.029  -2.184  1.00  0.00     0.080 A 
HETATM   11 BR2  UNL     1      -8.166 -14.286  -1.980  1.00  0.00    -0.045 Br
HETATM   12  C12 UNL     1     -10.930 -13.401  -2.114  1.00  0.00     0.067 A 
HETATM   13  N2  UNL     1     -11.184 -14.698  -1.871  1.00  0.00    -0.321 N 
ATOM     14  H2  UNL     1     -10.428 -15.373  -1.760  1.00  0.00     0.169 HD
HETATM   15  C13 UNL     1     -12.465 -15.073  -1.781  1.00  0.00     0.261 A 
HETATM   16  O3  UNL     1     -12.670 -16.314  -1.551  1.00  0.00    -0.267 OA
ENDROOT
BRANCH   1  17
HETATM   17  C4  UNL     1     -14.893 -14.744  -1.725  1.00  0.00     0.257 C 
HETATM   18  N1  UNL     1     -15.526 -15.438  -2.765  1.00  0.00    -0.355 N 
ATOM     19  H1  UNL     1     -15.042 -15.588  -3.650  1.00  0.00     0.162 HD
HETATM   20  O2  UNL     1     -15.474 -14.551  -0.610  1.00  0.00    -0.267 OA
BRANCH  18  21
HETATM   21  C3  UNL     1     -16.872 -15.938  -2.575  1.00  0.00     0.149 C 
BRANCH  21  22
HETATM   22  C2  UNL     1     -17.006 -17.380  -3.027  1.00  0.00     0.186 C 
BRANCH  22  23
HETATM   23  O1  UNL     1     -17.894 -17.455  -4.067  1.00  0.00    -0.394 OA
HETATM   24  C1  UNL     1     -18.892 -18.367  -3.891  1.00  0.00     0.201 C 
ENDBRANCH  22  23
ENDBRANCH  21  22
ENDBRANCH  18  21
ENDBRANCH   1  17
TORSDOF 4
ENDMDL
MODEL 5
REMARK VINA RESULT: -7.387371324      5.715      8.896
REMARK  4 active torsions:
REMARK  status: ('A' for Active; 'I' for Inactive)
REMARK    1  A    between atoms: O1_2  and  C2_3 
REMARK    2  A    between atoms: C2_3  and  C3_4 
REMARK    3  A    between atoms: C3_4  and  N1_5 
REMARK       I    between atoms: N1_5  and  C4_7 
REMARK    4  A    between atoms: C4_7  and  C5_9 
ROOT
HETATM    1  C5  UNL     1     -13.105 -14.629  -2.068  1.00  0.00     0.100 A 
HETATM    2  C6  UNL     1     -11.720 -14.484  -2.019  1.00  0.00     0.038 A 
HETATM    3  C7  UNL     1     -11.221 -13.208  -2.133  1.00  0.00     0.014 A 
HETATM    4  C8  UNL     1      -9.844 -12.964  -2.120  1.00  0.00     0.065 A 
HETATM    5 BR1  UNL     1      -8.663 -14.455  -1.936  1.00  0.00    -0.047 Br
HETATM    6  C9  UNL     1      -9.333 -11.688  -2.253  1.00  0.00     0.174 A 
HETATM    7  F1  UNL     1      -7.989 -11.508  -2.240  1.00  0.00    -0.201 F 
HETATM    8  C10 UNL     1     -10.187 -10.601  -2.406  1.00  0.00     0.175 A 
HETATM    9  F2  UNL     1      -9.702  -9.339  -2.532  1.00  0.00    -0.201 F 
HETATM   10  C11 UNL     1     -11.554 -10.820  -2.422  1.00  0.00     0.080 A 
HETATM   11 BR2  UNL     1     -12.706  -9.294  -2.633  1.00  0.00    -0.045 Br
HETATM   12  C12 UNL     1     -12.038 -12.100  -2.288  1.00  0.00     0.067 A 
HETATM   13  N2  UNL     1     -13.373 -12.253  -2.333  1.00  0.00    -0.321 N 
ATOM     14  H2  UNL     1     -13.993 -11.451  -2.445  1.00  0.00     0.169 HD
HETATM   15  C13 UNL     1     -13.859 -13.495  -2.223  1.00  0.00     0.261 A 
HETATM   16  O3  UNL     1     -15.133 -13.603  -2.268  1.00  0.00    -0.267 OA
ENDROOT
BRANCH   1  17
HETATM   17  C4  UNL     1     -13.740 -15.935  -2.035  1.00  0.00     0.257 C 
HETATM   18  N1  UNL     1     -14.595 -16.314  -3.078  1.00  0.00    -0.355 N 
ATOM     19  H1  UNL     1     -14.767 -15.678  -3.857  1.00  0.00     0.162 HD
HETATM   20  O2  UNL     1     -13.505 -16.714  -1.057  1.00  0.00    -0.267 OA
BRANCH  18  21
HETATM   21  C3  UNL     1     -15.233 -17.614  -3.043  1.00  0.00     0.149 C 
BRANCH  21  22
HETATM   22  C2  UNL     1     -16.744 -17.498  -2.970  1.00  0.00     0.186 C 
BRANCH  22  23
HETATM   23  O1  UNL     1     -17.302 -18.051  -4.092  1.00  0.00    -0.394 OA
HETATM   24  C1  UNL     1     -18.629 -18.337  -3.978  1.00  0.00     0.201 C 
ENDBRANCH  22  23
ENDBRANCH  21  22
ENDBRANCH  18  21
ENDBRANCH   1  17
TORSDOF 4
ENDMDL
