MODEL 1
REMARK VINA RESULT: -5.771797670      0.000      0.000
REMARK  5 active torsions:
REMARK  status: ('A' for Active; 'I' for Inactive)
REMARK    1  A    between atoms: C2_2  and  C3_3 
REMARK    2  A    between atoms: C2_2  and  C11_13 
REMARK    3  A    between atoms: C4_4  and  C5_5 
REMARK    4  A    between atoms: C5_5  and  O1_6 
REMARK    5  A    between atoms: C11_13  and  N1_14 
ROOT
HETATM    1  C3  UNL     1      -1.227   4.001  84.504  1.00  0.00    -0.097 C 
HETATM    2  C4  UNL     1      -0.054   4.044  84.245  1.00  0.00    -0.068 C 
ENDROOT
BRANCH   1   3
HETATM    3  C2  UNL     1      -2.657   3.930  84.798  1.00  0.00     0.089 C 
HETATM    4  C1  UNL     1      -3.401   4.742  83.777  1.00  0.00     0.025 C 
BRANCH   3   5
HETATM    5  C11 UNL     1      -3.075   2.477  84.784  1.00  0.00     0.289 C 
BRANCH   5   6
HETATM    6  N1  UNL     1      -2.506   1.897  86.010  1.00  0.00     0.089 N 
HETATM    7  C12 UNL     1      -2.316   0.495  85.777  1.00  0.00     0.272 C 
HETATM    8  C13 UNL     1      -2.600  -0.251  87.037  1.00  0.00     0.032 C 
HETATM    9  C14 UNL     1      -3.344   0.726  87.890  1.00  0.00     0.032 C 
HETATM   10  C15 UNL     1      -3.404   2.001  87.121  1.00  0.00     0.272 C 
ENDBRANCH   5   6
ENDBRANCH   3   5
ENDBRANCH   1   3
BRANCH   2  11
HETATM   11  C5  UNL     1       1.392   4.074  83.901  1.00  0.00     0.121 C 
HETATM   12  C6  UNL     1       1.597   3.568  82.488  1.00  0.00     0.051 C 
HETATM   13  C7  UNL     1       0.936   4.472  81.474  1.00  0.00     0.004 C 
HETATM   14  C8  UNL     1       1.236   5.929  81.734  1.00  0.00     0.000 C 
HETATM   15  C9  UNL     1       0.965   6.347  83.156  1.00  0.00     0.004 C 
HETATM   16  C10 UNL     1       1.843   5.495  84.061  1.00  0.00     0.051 C 
BRANCH  11  17
HETATM   17  O1  UNL     1       2.141   3.270  84.751  1.00  0.00    -0.378 OA
ATOM     18  H1  UNL     1       2.964   3.679  84.987  1.00  0.00     0.211 HD
ENDBRANCH  11  17
ENDBRANCH   2  11
TORSDOF 5
ENDMDL
MODEL 2
REMARK VINA RESULT: -5.740993822      1.913      2.822
REMARK  5 active torsions:
REMARK  status: ('A' for Active; 'I' for Inactive)
REMARK    1  A    between atoms: C2_2  and  C3_3 
REMARK    2  A    between atoms: C2_2  and  C11_13 
REMARK    3  A    between atoms: C4_4  and  C5_5 
REMARK    4  A    between atoms: C5_5  and  O1_6 
REMARK    5  A    between atoms: C11_13  and  N1_14 
ROOT
HETATM    1  C3  UNL     1      -0.477   1.793  82.738  1.00  0.00    -0.097 C 
HETATM    2  C4  UNL     1       0.176   2.692  82.277  1.00  0.00    -0.068 C 
ENDROOT
BRANCH   1   3
HETATM    3  C2  UNL     1      -1.266   0.686  83.272  1.00  0.00     0.089 C 
HETATM    4  C1  UNL     1      -0.874  -0.576  82.558  1.00  0.00     0.025 C 
BRANCH   3   5
HETATM    5  C11 UNL     1      -1.016   0.597  84.761  1.00  0.00     0.289 C 
BRANCH   5   6
HETATM    6  N1  UNL     1      -2.351   0.600  85.379  1.00  0.00     0.089 N 
HETATM    7  C12 UNL     1      -2.709   1.967  85.627  1.00  0.00     0.272 C 
HETATM    8  C13 UNL     1      -3.479   2.045  86.902  1.00  0.00     0.032 C 
HETATM    9  C14 UNL     1      -3.208   0.742  87.582  1.00  0.00     0.032 C 
HETATM   10  C15 UNL     1      -2.355  -0.052  86.654  1.00  0.00     0.272 C 
ENDBRANCH   5   6
ENDBRANCH   3   5
ENDBRANCH   1   3
BRANCH   2  11
HETATM   11  C5  UNL     1       0.984   3.786  81.680  1.00  0.00     0.121 C 
HETATM   12  C6  UNL     1       0.098   4.976  81.375  1.00  0.00     0.051 C 
HETATM   13  C7  UNL     1      -0.487   5.569  82.635  1.00  0.00     0.004 C 
HETATM   14  C8  UNL     1       0.553   5.743  83.715  1.00  0.00     0.000 C 
HETATM   15  C9  UNL     1       1.358   4.496  83.973  1.00  0.00     0.004 C 
HETATM   16  C10 UNL     1       2.056   4.122  82.674  1.00  0.00     0.051 C 
BRANCH  11  17
HETATM   17  O1  UNL     1       1.586   3.393  80.491  1.00  0.00    -0.378 OA
ATOM     18  H1  UNL     1       1.000   2.873  79.955  1.00  0.00     0.211 HD
ENDBRANCH  11  17
ENDBRANCH   2  11
TORSDOF 5
ENDMDL
MODEL 3
REMARK VINA RESULT: -5.692726166      2.539      3.394
REMARK  5 active torsions:
REMARK  status: ('A' for Active; 'I' for Inactive)
REMARK    1  A    between atoms: C2_2  and  C3_3 
REMARK    2  A    between atoms: C2_2  and  C11_13 
REMARK    3  A    between atoms: C4_4  and  C5_5 
REMARK    4  A    between atoms: C5_5  and  O1_6 
REMARK    5  A    between atoms: C11_13  and  N1_14 
ROOT
HETATM    1  C3  UNL     1      -1.099   1.856  82.038  1.00  0.00    -0.097 C 
HETATM    2  C4  UNL     1      -0.824   2.733  81.262  1.00  0.00    -0.068 C 
ENDROOT
BRANCH   1   3
HETATM    3  C2  UNL     1      -1.459   0.788  82.968  1.00  0.00     0.089 C 
HETATM    4  C1  UNL     1      -0.741  -0.467  82.563  1.00  0.00     0.025 C 
BRANCH   3   5
HETATM    5  C11 UNL     1      -1.087   1.228  84.367  1.00  0.00     0.289 C 
BRANCH   5   6
HETATM    6  N1  UNL     1      -2.263   0.921  85.195  1.00  0.00     0.089 N 
HETATM    7  C12 UNL     1      -2.917   2.161  85.495  1.00  0.00     0.272 C 
HETATM    8  C13 UNL     1      -3.470   2.099  86.878  1.00  0.00     0.032 C 
HETATM    9  C14 UNL     1      -2.770   0.938  87.508  1.00  0.00     0.032 C 
HETATM   10  C15 UNL     1      -1.898   0.346  86.455  1.00  0.00     0.272 C 
ENDBRANCH   5   6
ENDBRANCH   3   5
ENDBRANCH   1   3
BRANCH   2  11
HETATM   11  C5  UNL     1      -0.515   3.813  80.290  1.00  0.00     0.121 C 
HETATM   12  C6  UNL     1      -1.582   4.886  80.352  1.00  0.00     0.051 C 
HETATM   13  C7  UNL     1      -1.602   5.570  81.699  1.00  0.00     0.004 C 
HETATM   14  C8  UNL     1      -0.215   5.949  82.163  1.00  0.00     0.000 C 
HETATM   15  C9  UNL     1       0.765   4.807  82.099  1.00  0.00     0.004 C 
HETATM   16  C10 UNL     1       0.840   4.344  80.652  1.00  0.00     0.051 C 
BRANCH  11  17
HETATM   17  O1  UNL     1      -0.473   3.335  78.986  1.00  0.00    -0.378 OA
ATOM     18  H1  UNL     1       0.369   2.946  78.781  1.00  0.00     0.211 HD
ENDBRANCH  11  17
ENDBRANCH   2  11
TORSDOF 5
ENDMDL
MODEL 4
REMARK VINA RESULT: -5.668567988      1.169      1.426
REMARK  5 active torsions:
REMARK  status: ('A' for Active; 'I' for Inactive)
REMARK    1  A    between atoms: C2_2  and  C3_3 
REMARK    2  A    between atoms: C2_2  and  C11_13 
REMARK    3  A    between atoms: C4_4  and  C5_5 
REMARK    4  A    between atoms: C5_5  and  O1_6 
REMARK    5  A    between atoms: C11_13  and  N1_14 
ROOT
HETATM    1  C3  UNL     1      -0.156   3.400  83.789  1.00  0.00    -0.097 C 
HETATM    2  C4  UNL     1       0.770   3.476  83.026  1.00  0.00    -0.068 C 
ENDROOT
BRANCH   1   3
HETATM    3  C2  UNL     1      -1.297   3.322  84.698  1.00  0.00     0.089 C 
HETATM    4  C1  UNL     1      -2.315   4.347  84.284  1.00  0.00     0.025 C 
BRANCH   3   5
HETATM    5  C11 UNL     1      -1.853   1.917  84.646  1.00  0.00     0.289 C 
BRANCH   5   6
HETATM    6  N1  UNL     1      -2.080   1.538  86.049  1.00  0.00     0.089 N 
HETATM    7  C12 UNL     1      -1.782   0.141  86.173  1.00  0.00     0.272 C 
HETATM    8  C13 UNL     1      -2.728  -0.475  87.148  1.00  0.00     0.032 C 
HETATM    9  C14 UNL     1      -3.832   0.524  87.278  1.00  0.00     0.032 C 
HETATM   10  C15 UNL     1      -3.452   1.690  86.432  1.00  0.00     0.272 C 
ENDBRANCH   5   6
ENDBRANCH   3   5
ENDBRANCH   1   3
BRANCH   2  11
HETATM   11  C5  UNL     1       1.896   3.588  82.062  1.00  0.00     0.121 C 
HETATM   12  C6  UNL     1       1.361   3.632  80.646  1.00  0.00     0.051 C 
HETATM   13  C7  UNL     1       0.521   4.866  80.408  1.00  0.00     0.004 C 
HETATM   14  C8  UNL     1       1.190   6.115  80.932  1.00  0.00     0.000 C 
HETATM   15  C9  UNL     1       1.653   5.987  82.359  1.00  0.00     0.004 C 
HETATM   16  C10 UNL     1       2.647   4.836  82.419  1.00  0.00     0.051 C 
BRANCH  11  17
HETATM   17  O1  UNL     1       2.762   2.506  82.153  1.00  0.00    -0.378 OA
ATOM     18  H1  UNL     1       2.361   1.707  81.831  1.00  0.00     0.211 HD
ENDBRANCH  11  17
ENDBRANCH   2  11
TORSDOF 5
ENDMDL
MODEL 5
REMARK VINA RESULT: -5.596007185      2.202      2.936
REMARK  5 active torsions:
REMARK  status: ('A' for Active; 'I' for Inactive)
REMARK    1  A    between atoms: C2_2  and  C3_3 
REMARK    2  A    between atoms: C2_2  and  C11_13 
REMARK    3  A    between atoms: C4_4  and  C5_5 
REMARK    4  A    between atoms: C5_5  and  O1_6 
REMARK    5  A    between atoms: C11_13  and  N1_14 
ROOT
HETATM    1  C3  UNL     1      -0.732   2.906  82.666  1.00  0.00    -0.097 C 
HETATM    2  C4  UNL     1      -0.700   3.457  81.597  1.00  0.00    -0.068 C 
ENDROOT
BRANCH   1   3
HETATM    3  C2  UNL     1      -0.751   2.256  83.974  1.00  0.00     0.089 C 
HETATM    4  C1  UNL     1       0.046   3.087  84.938  1.00  0.00     0.025 C 
BRANCH   3   5
HETATM    5  C11 UNL     1      -2.191   2.104  84.410  1.00  0.00     0.289 C 
BRANCH   5   6
HETATM    6  N1  UNL     1      -2.127   1.674  85.815  1.00  0.00     0.089 N 
HETATM    7  C12 UNL     1      -1.968   0.249  85.824  1.00  0.00     0.272 C 
HETATM    8  C13 UNL     1      -2.725  -0.319  86.977  1.00  0.00     0.032 C 
HETATM    9  C14 UNL     1      -3.648   0.780  87.395  1.00  0.00     0.032 C 
HETATM   10  C15 UNL     1      -3.346   1.945  86.517  1.00  0.00     0.272 C 
ENDBRANCH   5   6
ENDBRANCH   3   5
ENDBRANCH   1   3
BRANCH   2  11
HETATM   11  C5  UNL     1      -0.638   4.158  80.288  1.00  0.00     0.121 C 
HETATM   12  C6  UNL     1      -1.812   5.107  80.155  1.00  0.00     0.051 C 
HETATM   13  C7  UNL     1      -1.755   6.207  81.189  1.00  0.00     0.004 C 
HETATM   14  C8  UNL     1      -0.379   6.822  81.288  1.00  0.00     0.000 C 
HETATM   15  C9  UNL     1       0.717   5.802  81.456  1.00  0.00     0.004 C 
HETATM   16  C10 UNL     1       0.676   4.878  80.247  1.00  0.00     0.051 C 
BRANCH  11  17
HETATM   17  O1  UNL     1      -0.693   3.268  79.223  1.00  0.00    -0.378 OA
ATOM     18  H1  UNL     1       0.175   3.019  78.928  1.00  0.00     0.211 HD
ENDBRANCH  11  17
ENDBRANCH   2  11
TORSDOF 5
ENDMDL
