MODEL 1
REMARK VINA RESULT: -7.060204105      0.000      0.000
REMARK  3 active torsions:
REMARK  status: ('A' for Active; 'I' for Inactive)
REMARK    1  A    between atoms: N1_6  and  C6_7 
REMARK    2  A    between atoms: C6_7  and  C7_8 
REMARK    3  A    between atoms: C7_8  and  N3_12 
ROOT
HETATM    1  C7  UNL     1      -0.168   4.313  82.920  1.00  0.00     0.113 C 
HETATM    2  N2  UNL     1       0.791   4.863  83.570  1.00  0.00    -0.384 N 
ATOM      3  H21 UNL     1       1.741   4.842  83.200  1.00  0.00     0.157 HD
ATOM      4  H22 UNL     1       0.616   5.324  84.463  1.00  0.00     0.157 HD
ENDROOT
BRANCH   1   5
HETATM    5  C6  UNL     1      -1.526   4.343  83.449  1.00  0.00     0.133 C 
BRANCH   5   6
HETATM    6  N1  UNL     1      -1.756   3.870  84.744  1.00  0.00    -0.386 N 
HETATM    7  C5  UNL     1      -1.409   2.533  85.047  1.00  0.00     0.122 C 
HETATM    8  C4  UNL     1      -1.179   2.252  86.494  1.00  0.00     0.020 C 
HETATM    9  C3  UNL     1      -2.052   3.098  87.393  1.00  0.00     0.007 C 
HETATM   10  C2  UNL     1      -3.256   3.643  86.657  1.00  0.00    -0.001 C 
HETATM   11  C1  UNL     1      -4.298   2.592  86.402  1.00  0.00     0.011 C 
HETATM   12  C15 UNL     1      -2.863   4.416  85.448  1.00  0.00     0.126 C 
ENDBRANCH   5   6
ENDBRANCH   1   5
BRANCH   1  13
HETATM   13  N3  UNL     1       0.075   3.673  81.681  1.00  0.00    -0.358 N 
HETATM   14  C8  UNL     1       0.254   4.315  80.413  1.00  0.00     0.082 C 
HETATM   15  C9  UNL     1      -0.325   5.679  80.300  1.00  0.00     0.032 C 
HETATM   16  C10 UNL     1       1.725   4.246  80.080  1.00  0.00     0.025 C 
HETATM   17  C11 UNL     1       2.268   2.930  80.546  1.00  0.00     0.004 C 
HETATM   18  C12 UNL     1       1.221   1.848  80.668  1.00  0.00     0.025 C 
HETATM   19  C13 UNL     1       0.156   2.209  81.683  1.00  0.00     0.082 C 
HETATM   20  C14 UNL     1      -1.148   1.668  81.198  1.00  0.00     0.032 C 
ENDBRANCH   1  13
TORSDOF 3
ENDMDL
MODEL 2
REMARK VINA RESULT: -6.325399098      1.589      5.685
REMARK  3 active torsions:
REMARK  status: ('A' for Active; 'I' for Inactive)
REMARK    1  A    between atoms: N1_6  and  C6_7 
REMARK    2  A    between atoms: C6_7  and  C7_8 
REMARK    3  A    between atoms: C7_8  and  N3_12 
ROOT
HETATM    1  C7  UNL     1      -1.005   3.361  83.442  1.00  0.00     0.113 C 
HETATM    2  N2  UNL     1      -0.635   2.310  84.077  1.00  0.00    -0.384 N 
ATOM      3  H21 UNL     1      -0.549   2.327  85.093  1.00  0.00     0.157 HD
ATOM      4  H22 UNL     1      -0.420   1.449  83.575  1.00  0.00     0.157 HD
ENDROOT
BRANCH   1   5
HETATM    5  C6  UNL     1      -1.127   3.337  81.989  1.00  0.00     0.133 C 
BRANCH   5   6
HETATM    6  N1  UNL     1       0.020   3.523  81.214  1.00  0.00    -0.386 N 
HETATM    7  C5  UNL     1       1.082   2.599  81.343  1.00  0.00     0.122 C 
HETATM    8  C4  UNL     1       2.006   2.528  80.173  1.00  0.00     0.020 C 
HETATM    9  C3  UNL     1       2.158   3.861  79.475  1.00  0.00     0.007 C 
HETATM   10  C2  UNL     1       1.762   5.014  80.372  1.00  0.00    -0.001 C 
HETATM   11  C1  UNL     1       2.787   5.295  81.432  1.00  0.00     0.011 C 
HETATM   12  C15 UNL     1       0.376   4.862  80.891  1.00  0.00     0.126 C 
ENDBRANCH   5   6
ENDBRANCH   1   5
BRANCH   1  13
HETATM   13  N3  UNL     1      -1.303   4.557  84.140  1.00  0.00    -0.358 N 
HETATM   14  C8  UNL     1      -0.364   5.556  84.555  1.00  0.00     0.082 C 
HETATM   15  C9  UNL     1       1.041   5.092  84.695  1.00  0.00     0.032 C 
HETATM   16  C10 UNL     1      -0.529   6.737  83.628  1.00  0.00     0.025 C 
HETATM   17  C11 UNL     1      -1.981   6.899  83.300  1.00  0.00     0.004 C 
HETATM   18  C12 UNL     1      -2.910   6.304  84.333  1.00  0.00     0.025 C 
HETATM   19  C13 UNL     1      -2.708   4.809  84.475  1.00  0.00     0.082 C 
HETATM   20  C14 UNL     1      -2.919   4.448  85.908  1.00  0.00     0.032 C 
ENDBRANCH   1  13
TORSDOF 3
ENDMDL
MODEL 3
REMARK VINA RESULT: -6.227108629      2.308      5.247
REMARK  3 active torsions:
REMARK  status: ('A' for Active; 'I' for Inactive)
REMARK    1  A    between atoms: N1_6  and  C6_7 
REMARK    2  A    between atoms: C6_7  and  C7_8 
REMARK    3  A    between atoms: C7_8  and  N3_12 
ROOT
HETATM    1  C7  UNL     1      -0.618   4.518  83.441  1.00  0.00     0.113 C 
HETATM    2  N2  UNL     1       0.216   4.044  84.293  1.00  0.00    -0.384 N 
ATOM      3  H21 UNL     1       0.834   4.670  84.809  1.00  0.00     0.157 HD
ATOM      4  H22 UNL     1       0.271   3.040  84.463  1.00  0.00     0.157 HD
ENDROOT
BRANCH   1   5
HETATM    5  C6  UNL     1      -1.502   3.623  82.703  1.00  0.00     0.133 C 
BRANCH   5   6
HETATM    6  N1  UNL     1      -0.939   2.680  81.840  1.00  0.00    -0.386 N 
HETATM    7  C5  UNL     1      -0.664   1.385  82.338  1.00  0.00     0.122 C 
HETATM    8  C4  UNL     1      -0.576   0.314  81.303  1.00  0.00     0.020 C 
HETATM    9  C3  UNL     1      -0.025   0.823  79.990  1.00  0.00     0.007 C 
HETATM   10  C2  UNL     1       0.746   2.113  80.167  1.00  0.00    -0.001 C 
HETATM   11  C1  UNL     1       2.087   1.898  80.806  1.00  0.00     0.011 C 
HETATM   12  C15 UNL     1      -0.077   3.166  80.820  1.00  0.00     0.126 C 
ENDBRANCH   5   6
ENDBRANCH   1   5
BRANCH   1  13
HETATM   13  N3  UNL     1      -0.695   5.912  83.205  1.00  0.00    -0.358 N 
HETATM   14  C8  UNL     1      -1.409   6.869  83.996  1.00  0.00     0.082 C 
HETATM   15  C9  UNL     1      -2.519   6.319  84.817  1.00  0.00     0.032 C 
HETATM   16  C10 UNL     1      -0.386   7.645  84.791  1.00  0.00     0.025 C 
HETATM   17  C11 UNL     1       0.832   7.854  83.945  1.00  0.00     0.004 C 
HETATM   18  C12 UNL     1       0.559   7.793  82.460  1.00  0.00     0.025 C 
HETATM   19  C13 UNL     1       0.024   6.439  82.042  1.00  0.00     0.082 C 
HETATM   20  C14 UNL     1      -0.961   6.651  80.940  1.00  0.00     0.032 C 
ENDBRANCH   1  13
TORSDOF 3
ENDMDL
MODEL 4
REMARK VINA RESULT: -6.204395100      3.138      6.002
REMARK  3 active torsions:
REMARK  status: ('A' for Active; 'I' for Inactive)
REMARK    1  A    between atoms: N1_6  and  C6_7 
REMARK    2  A    between atoms: C6_7  and  C7_8 
REMARK    3  A    between atoms: C7_8  and  N3_12 
ROOT
HETATM    1  C7  UNL     1       0.496   5.048  84.291  1.00  0.00     0.113 C 
HETATM    2  N2  UNL     1       1.453   4.828  85.117  1.00  0.00    -0.384 N 
ATOM      3  H21 UNL     1       1.334   4.157  85.875  1.00  0.00     0.157 HD
ATOM      4  H22 UNL     1       2.341   5.322  85.026  1.00  0.00     0.157 HD
ENDROOT
BRANCH   1   5
HETATM    5  C6  UNL     1       0.667   6.008  83.207  1.00  0.00     0.133 C 
BRANCH   5   6
HETATM    6  N1  UNL     1       1.164   7.280  83.506  1.00  0.00    -0.386 N 
HETATM    7  C5  UNL     1       0.362   8.158  84.270  1.00  0.00     0.122 C 
HETATM    8  C4  UNL     1       1.106   9.236  84.984  1.00  0.00     0.020 C 
HETATM    9  C3  UNL     1       2.330   9.695  84.223  1.00  0.00     0.007 C 
HETATM   10  C2  UNL     1       2.246   9.336  82.755  1.00  0.00    -0.001 C 
HETATM   11  C1  UNL     1       1.281  10.209  82.006  1.00  0.00     0.011 C 
HETATM   12  C15 UNL     1       2.032   7.878  82.552  1.00  0.00     0.126 C 
ENDBRANCH   5   6
ENDBRANCH   1   5
BRANCH   1  13
HETATM   13  N3  UNL     1      -0.736   4.362  84.417  1.00  0.00    -0.358 N 
HETATM   14  C8  UNL     1      -1.072   3.101  83.826  1.00  0.00     0.082 C 
HETATM   15  C9  UNL     1      -0.274   2.724  82.631  1.00  0.00     0.032 C 
HETATM   16  C10 UNL     1      -1.047   2.070  84.929  1.00  0.00     0.025 C 
HETATM   17  C11 UNL     1      -1.583   2.686  86.184  1.00  0.00     0.004 C 
HETATM   18  C12 UNL     1      -2.497   3.866  85.942  1.00  0.00     0.025 C 
HETATM   19  C13 UNL     1      -1.779   4.995  85.231  1.00  0.00     0.082 C 
HETATM   20  C14 UNL     1      -2.752   5.656  84.312  1.00  0.00     0.032 C 
ENDBRANCH   1  13
TORSDOF 3
ENDMDL
MODEL 5
REMARK VINA RESULT: -6.163256018      1.787      6.033
REMARK  3 active torsions:
REMARK  status: ('A' for Active; 'I' for Inactive)
REMARK    1  A    between atoms: N1_6  and  C6_7 
REMARK    2  A    between atoms: C6_7  and  C7_8 
REMARK    3  A    between atoms: C7_8  and  N3_12 
ROOT
HETATM    1  C7  UNL     1      -0.618   3.520  83.156  1.00  0.00     0.113 C 
HETATM    2  N2  UNL     1      -0.430   2.304  83.520  1.00  0.00    -0.384 N 
ATOM      3  H21 UNL     1      -0.596   2.026  84.486  1.00  0.00     0.157 HD
ATOM      4  H22 UNL     1      -0.111   1.605  82.849  1.00  0.00     0.157 HD
ENDROOT
BRANCH   1   5
HETATM    5  C6  UNL     1      -0.380   3.919  81.774  1.00  0.00     0.133 C 
BRANCH   5   6
HETATM    6  N1  UNL     1       0.897   4.349  81.407  1.00  0.00    -0.386 N 
HETATM    7  C5  UNL     1       1.075   5.701  81.034  1.00  0.00     0.122 C 
HETATM    8  C4  UNL     1       2.469   6.216  81.167  1.00  0.00     0.020 C 
HETATM    9  C3  UNL     1       3.507   5.149  80.905  1.00  0.00     0.007 C 
HETATM   10  C2  UNL     1       2.937   3.992  80.113  1.00  0.00    -0.001 C 
HETATM   11  C1  UNL     1       2.724   4.336  78.667  1.00  0.00     0.011 C 
HETATM   12  C15 UNL     1       1.747   3.398  80.779  1.00  0.00     0.126 C 
ENDBRANCH   5   6
ENDBRANCH   1   5
BRANCH   1  13
HETATM   13  N3  UNL     1      -1.060   4.491  84.088  1.00  0.00    -0.358 N 
HETATM   14  C8  UNL     1      -0.256   5.499  84.711  1.00  0.00     0.082 C 
HETATM   15  C9  UNL     1       1.201   5.213  84.761  1.00  0.00     0.032 C 
HETATM   16  C10 UNL     1      -0.599   6.814  84.052  1.00  0.00     0.025 C 
HETATM   17  C11 UNL     1      -2.066   6.841  83.754  1.00  0.00     0.004 C 
HETATM   18  C12 UNL     1      -2.884   5.922  84.632  1.00  0.00     0.025 C 
HETATM   19  C13 UNL     1      -2.479   4.473  84.458  1.00  0.00     0.082 C 
HETATM   20  C14 UNL     1      -2.609   3.794  85.780  1.00  0.00     0.032 C 
ENDBRANCH   1  13
TORSDOF 3
ENDMDL
