MODEL 1
REMARK VINA RESULT: -7.806348516      0.000      0.000
REMARK  2 active torsions:
REMARK  status: ('A' for Active; 'I' for Inactive)
REMARK       I    between atoms: C1_2  and  N1_3 
REMARK    1  A    between atoms: C1_2  and  C13_16 
REMARK    2  A    between atoms: N1_3  and  C2_5 
ROOT
HETATM    1  C2  UNL     1      -0.254   4.188  84.402  1.00  0.00     0.089 C 
HETATM    2  C3  UNL     1      -0.745   3.976  83.049  1.00  0.00     0.030 C 
HETATM    3  C4  UNL     1      -0.514   5.021  82.019  1.00  0.00    -0.012 C 
HETATM    4  C5  UNL     1      -1.338   6.269  82.209  1.00  0.00     0.009 C 
HETATM    5  C6  UNL     1      -0.682   7.250  83.152  1.00  0.00    -0.013 C 
HETATM    6  C7  UNL     1       0.722   7.600  82.705  1.00  0.00     0.009 C 
HETATM    7  C8  UNL     1       1.525   6.340  82.693  1.00  0.00    -0.013 C 
HETATM    8  C9  UNL     1       0.924   5.347  81.764  1.00  0.00     0.009 C 
HETATM    9  C10 UNL     1       1.623   5.835  84.109  1.00  0.00     0.011 C 
HETATM   10  C11 UNL     1       0.279   5.563  84.727  1.00  0.00     0.009 C 
HETATM   11  C12 UNL     1      -0.717   6.662  84.521  1.00  0.00     0.011 C 
ENDROOT
BRANCH   1  12
HETATM   12  N1  UNL     1      -1.218   3.868  85.439  1.00  0.00    -0.354 N 
HETATM   13  C1  UNL     1      -1.174   2.665  86.190  1.00  0.00     0.247 C 
HETATM   14  O1  UNL     1      -0.248   1.861  85.924  1.00  0.00    -0.271 OA
ATOM     15  H1  UNL     1      -1.961   4.538  85.636  1.00  0.00     0.162 HD
BRANCH  13  16
HETATM   16  C13 UNL     1      -2.150   2.335  87.245  1.00  0.00     0.215 C 
HETATM   17  C14 UNL     1      -3.230   3.398  87.465  1.00  0.00     0.068 C 
HETATM   18  C15 UNL     1      -3.893   2.520  86.428  1.00  0.00     0.171 C 
HETATM   19  O2  UNL     1      -3.138   1.451  86.865  1.00  0.00    -0.376 OA
ENDBRANCH  13  16
ENDBRANCH   1  12
TORSDOF 2
ENDMDL
MODEL 2
REMARK VINA RESULT: -7.406065470      1.005      1.723
REMARK  2 active torsions:
REMARK  status: ('A' for Active; 'I' for Inactive)
REMARK       I    between atoms: C1_2  and  N1_3 
REMARK    1  A    between atoms: C1_2  and  C13_16 
REMARK    2  A    between atoms: N1_3  and  C2_5 
ROOT
HETATM    1  C2  UNL     1      -1.280   4.838  83.857  1.00  0.00     0.089 C 
HETATM    2  C3  UNL     1      -1.830   6.173  83.678  1.00  0.00     0.030 C 
HETATM    3  C4  UNL     1      -0.971   7.244  83.109  1.00  0.00    -0.012 C 
HETATM    4  C5  UNL     1       0.112   7.726  84.038  1.00  0.00     0.009 C 
HETATM    5  C6  UNL     1       1.358   6.876  83.956  1.00  0.00    -0.013 C 
HETATM    6  C7  UNL     1       1.876   6.779  82.536  1.00  0.00     0.009 C 
HETATM    7  C8  UNL     1       0.809   6.146  81.703  1.00  0.00    -0.013 C 
HETATM    8  C9  UNL     1      -0.435   6.959  81.741  1.00  0.00     0.009 C 
HETATM    9  C10 UNL     1       0.606   4.737  82.198  1.00  0.00     0.011 C 
HETATM   10  C11 UNL     1       0.207   4.678  83.646  1.00  0.00     0.009 C 
HETATM   11  C12 UNL     1       1.041   5.542  84.541  1.00  0.00     0.011 C 
ENDROOT
BRANCH   1  12
HETATM   12  N1  UNL     1      -1.576   4.244  85.148  1.00  0.00    -0.354 N 
HETATM   13  C1  UNL     1      -1.639   2.842  85.357  1.00  0.00     0.247 C 
HETATM   14  O1  UNL     1      -1.424   2.108  84.361  1.00  0.00    -0.271 OA
ATOM     15  H1  UNL     1      -1.746   4.862  85.941  1.00  0.00     0.162 HD
BRANCH  13  16
HETATM   16  C13 UNL     1      -1.938   2.232  86.665  1.00  0.00     0.215 C 
HETATM   17  C14 UNL     1      -2.756   3.121  87.606  1.00  0.00     0.068 C 
HETATM   18  C15 UNL     1      -3.854   2.372  86.886  1.00  0.00     0.171 C 
HETATM   19  O2  UNL     1      -2.980   1.328  86.660  1.00  0.00    -0.376 OA
ENDBRANCH  13  16
ENDBRANCH   1  12
TORSDOF 2
ENDMDL
MODEL 3
REMARK VINA RESULT: -7.166611468      1.588      2.247
REMARK  2 active torsions:
REMARK  status: ('A' for Active; 'I' for Inactive)
REMARK       I    between atoms: C1_2  and  N1_3 
REMARK    1  A    between atoms: C1_2  and  C13_16 
REMARK    2  A    between atoms: N1_3  and  C2_5 
ROOT
HETATM    1  C2  UNL     1      -0.184   3.216  83.594  1.00  0.00     0.089 C 
HETATM    2  C3  UNL     1      -0.626   2.151  82.707  1.00  0.00     0.030 C 
HETATM    3  C4  UNL     1      -0.492   2.325  81.238  1.00  0.00    -0.012 C 
HETATM    4  C5  UNL     1      -1.448   3.327  80.644  1.00  0.00     0.009 C 
HETATM    5  C6  UNL     1      -0.917   4.740  80.719  1.00  0.00    -0.013 C 
HETATM    6  C7  UNL     1       0.449   4.858  80.076  1.00  0.00     0.009 C 
HETATM    7  C8  UNL     1       1.382   3.957  80.817  1.00  0.00    -0.013 C 
HETATM    8  C9  UNL     1       0.907   2.549  80.756  1.00  0.00     0.009 C 
HETATM    9  C10 UNL     1       1.510   4.473  82.226  1.00  0.00     0.011 C 
HETATM   10  C11 UNL     1       0.194   4.529  82.950  1.00  0.00     0.009 C 
HETATM   11  C12 UNL     1      -0.911   5.150  82.153  1.00  0.00     0.011 C 
ENDROOT
BRANCH   1  12
HETATM   12  N1  UNL     1      -1.124   3.536  84.652  1.00  0.00    -0.354 N 
HETATM   13  C1  UNL     1      -1.082   2.929  85.933  1.00  0.00     0.247 C 
HETATM   14  O1  UNL     1      -0.179   2.080  86.132  1.00  0.00    -0.271 OA
ATOM     15  H1  UNL     1      -1.849   4.228  84.466  1.00  0.00     0.162 HD
BRANCH  13  16
HETATM   16  C13 UNL     1      -2.035   3.249  87.012  1.00  0.00     0.215 C 
HETATM   17  C14 UNL     1      -3.411   3.714  86.525  1.00  0.00     0.068 C 
HETATM   18  C15 UNL     1      -3.629   2.222  86.631  1.00  0.00     0.171 C 
HETATM   19  O2  UNL     1      -2.642   2.156  87.594  1.00  0.00    -0.376 OA
ENDBRANCH  13  16
ENDBRANCH   1  12
TORSDOF 2
ENDMDL
MODEL 4
REMARK VINA RESULT: -7.074404556      3.421      4.362
REMARK  2 active torsions:
REMARK  status: ('A' for Active; 'I' for Inactive)
REMARK       I    between atoms: C1_2  and  N1_3 
REMARK    1  A    between atoms: C1_2  and  C13_16 
REMARK    2  A    between atoms: N1_3  and  C2_5 
ROOT
HETATM    1  C2  UNL     1       0.663   5.180  82.023  1.00  0.00     0.089 C 
HETATM    2  C3  UNL     1      -0.392   5.954  81.386  1.00  0.00     0.030 C 
HETATM    3  C4  UNL     1      -0.952   7.137  82.089  1.00  0.00    -0.012 C 
HETATM    4  C5  UNL     1      -1.808   6.800  83.282  1.00  0.00     0.009 C 
HETATM    5  C6  UNL     1      -0.991   6.615  84.539  1.00  0.00    -0.013 C 
HETATM    6  C7  UNL     1      -0.126   7.824  84.827  1.00  0.00     0.009 C 
HETATM    7  C8  UNL     1       0.806   8.004  83.673  1.00  0.00    -0.013 C 
HETATM    8  C9  UNL     1       0.044   8.206  82.412  1.00  0.00     0.009 C 
HETATM    9  C10 UNL     1       1.721   6.808  83.622  1.00  0.00     0.011 C 
HETATM   10  C11 UNL     1       0.978   5.510  83.463  1.00  0.00     0.009 C 
HETATM   11  C12 UNL     1      -0.193   5.365  84.386  1.00  0.00     0.011 C 
ENDROOT
BRANCH   1  12
HETATM   12  N1  UNL     1       0.461   3.744  81.968  1.00  0.00    -0.354 N 
HETATM   13  C1  UNL     1       0.802   2.959  80.837  1.00  0.00     0.247 C 
HETATM   14  O1  UNL     1       1.301   3.561  79.855  1.00  0.00    -0.271 OA
ATOM     15  H1  UNL     1       0.054   3.279  82.779  1.00  0.00     0.162 HD
BRANCH  13  16
HETATM   16  C13 UNL     1       0.600   1.500  80.775  1.00  0.00     0.215 C 
HETATM   17  C14 UNL     1      -0.580   0.988  81.607  1.00  0.00     0.068 C 
HETATM   18  C15 UNL     1      -1.252   1.245  80.278  1.00  0.00     0.171 C 
HETATM   19  O2  UNL     1      -0.043   1.050  79.640  1.00  0.00    -0.376 OA
ENDBRANCH  13  16
ENDBRANCH   1  12
TORSDOF 2
ENDMDL
MODEL 5
REMARK VINA RESULT: -6.856930188      3.183      4.309
REMARK  2 active torsions:
REMARK  status: ('A' for Active; 'I' for Inactive)
REMARK       I    between atoms: C1_2  and  N1_3 
REMARK    1  A    between atoms: C1_2  and  C13_16 
REMARK    2  A    between atoms: N1_3  and  C2_5 
ROOT
HETATM    1  C2  UNL     1       0.576   4.809  81.927  1.00  0.00     0.089 C 
HETATM    2  C3  UNL     1       0.448   6.058  81.192  1.00  0.00     0.030 C 
HETATM    3  C4  UNL     1      -0.012   7.278  81.904  1.00  0.00    -0.012 C 
HETATM    4  C5  UNL     1      -1.470   7.259  82.284  1.00  0.00     0.009 C 
HETATM    5  C6  UNL     1      -1.708   6.567  83.606  1.00  0.00    -0.013 C 
HETATM    6  C7  UNL     1      -0.875   7.177  84.714  1.00  0.00     0.009 C 
HETATM    7  C8  UNL     1       0.564   7.017  84.343  1.00  0.00    -0.013 C 
HETATM    8  C9  UNL     1       0.850   7.698  83.053  1.00  0.00     0.009 C 
HETATM    9  C10 UNL     1       0.878   5.544  84.312  1.00  0.00     0.011 C 
HETATM   10  C11 UNL     1       0.025   4.785  83.333  1.00  0.00     0.009 C 
HETATM   11  C12 UNL     1      -1.433   5.114  83.417  1.00  0.00     0.011 C 
ENDROOT
BRANCH   1  12
HETATM   12  N1  UNL     1       0.007   3.660  81.246  1.00  0.00    -0.354 N 
HETATM   13  C1  UNL     1       0.756   2.496  80.937  1.00  0.00     0.247 C 
HETATM   14  O1  UNL     1       1.964   2.488  81.281  1.00  0.00    -0.271 OA
ATOM     15  H1  UNL     1      -0.976   3.691  80.978  1.00  0.00     0.162 HD
BRANCH  13  16
HETATM   16  C13 UNL     1       0.185   1.326  80.247  1.00  0.00     0.215 C 
HETATM   17  C14 UNL     1       0.536  -0.021  80.886  1.00  0.00     0.068 C 
HETATM   18  C15 UNL     1      -0.750   0.315  81.605  1.00  0.00     0.171 C 
HETATM   19  O2  UNL     1      -1.143   1.078  80.524  1.00  0.00    -0.376 OA
ENDBRANCH  13  16
ENDBRANCH   1  12
TORSDOF 2
ENDMDL
