MODEL 1
REMARK VINA RESULT: -6.659690318      0.000      0.000
REMARK  2 active torsions:
REMARK  status: ('A' for Active; 'I' for Inactive)
REMARK       I    between atoms: C1_2  and  N1_3 
REMARK    1  A    between atoms: C1_2  and  C6_10 
REMARK    2  A    between atoms: N1_3  and  N2_5 
ROOT
HETATM    1  C6  UNL     1      -0.395   5.862  83.133  1.00  0.00     0.043 C 
HETATM    2  C7  UNL     1      -1.165   7.086  82.694  1.00  0.00     0.024 C 
HETATM    3  C8  UNL     1      -0.216   8.106  82.149  1.00  0.00    -0.013 C 
HETATM    4  C9  UNL     1       0.527   7.522  80.988  1.00  0.00     0.009 C 
HETATM    5  C10 UNL     1       1.281   6.289  81.410  1.00  0.00    -0.013 C 
HETATM    6  C11 UNL     1       2.258   6.694  82.505  1.00  0.00     0.009 C 
HETATM    7  C12 UNL     1       1.513   7.331  83.666  1.00  0.00    -0.013 C 
HETATM    8  C13 UNL     1       0.742   8.549  83.229  1.00  0.00     0.009 C 
HETATM    9  C14 UNL     1       0.566   6.321  84.223  1.00  0.00     0.024 C 
HETATM   10  C15 UNL     1       0.381   5.252  82.002  1.00  0.00     0.024 C 
ENDROOT
BRANCH   1  11
HETATM   11  C1  UNL     1      -1.275   4.848  83.730  1.00  0.00     0.240 C 
HETATM   12  O1  UNL     1      -2.102   4.245  82.959  1.00  0.00    -0.271 OA
HETATM   13  N1  UNL     1      -1.247   4.510  85.129  1.00  0.00    -0.289 N 
ATOM     14  H1  UNL     1      -0.602   4.975  85.769  1.00  0.00     0.184 HD
BRANCH  13  15
HETATM   15  N2  UNL     1      -2.114   3.545  85.579  1.00  0.00    -0.229 NA
HETATM   16  C2  UNL     1      -1.500   2.577  86.479  1.00  0.00     0.113 C 
HETATM   17  C3  UNL     1      -2.706   1.812  87.013  1.00  0.00     0.017 C 
HETATM   18  C4  UNL     1      -3.915   2.657  86.650  1.00  0.00     0.017 C 
HETATM   19  C5  UNL     1      -3.232   3.995  86.340  1.00  0.00     0.113 C 
ENDBRANCH  13  15
ENDBRANCH   1  11
TORSDOF 2
ENDMDL
MODEL 2
REMARK VINA RESULT: -6.621724576      0.096      1.728
REMARK  2 active torsions:
REMARK  status: ('A' for Active; 'I' for Inactive)
REMARK       I    between atoms: C1_2  and  N1_3 
REMARK    1  A    between atoms: C1_2  and  C6_10 
REMARK    2  A    between atoms: N1_3  and  N2_5 
ROOT
HETATM    1  C6  UNL     1      -0.388   5.931  83.209  1.00  0.00     0.043 C 
HETATM    2  C7  UNL     1       0.628   6.420  84.215  1.00  0.00     0.024 C 
HETATM    3  C8  UNL     1       1.541   7.411  83.564  1.00  0.00    -0.013 C 
HETATM    4  C9  UNL     1       0.736   8.561  83.046  1.00  0.00     0.009 C 
HETATM    5  C10 UNL     1      -0.294   8.082  82.058  1.00  0.00    -0.013 C 
HETATM    6  C11 UNL     1       0.442   7.401  80.913  1.00  0.00     0.009 C 
HETATM    7  C12 UNL     1       1.298   6.262  81.439  1.00  0.00    -0.013 C 
HETATM    8  C13 UNL     1       2.309   6.748  82.445  1.00  0.00     0.009 C 
HETATM    9  C14 UNL     1       0.397   5.263  82.087  1.00  0.00     0.024 C 
HETATM   10  C15 UNL     1      -1.209   7.056  82.648  1.00  0.00     0.024 C 
ENDROOT
BRANCH   1  11
HETATM   11  C1  UNL     1      -1.277   4.911  83.782  1.00  0.00     0.240 C 
HETATM   12  O1  UNL     1      -2.131   4.357  83.003  1.00  0.00    -0.271 OA
HETATM   13  N1  UNL     1      -1.230   4.516  85.165  1.00  0.00    -0.289 N 
ATOM     14  H1  UNL     1      -0.563   4.940  85.810  1.00  0.00     0.184 HD
BRANCH  13  15
HETATM   15  N2  UNL     1      -2.108   3.551  85.592  1.00  0.00    -0.229 NA
HETATM   16  C2  UNL     1      -1.508   2.559  86.476  1.00  0.00     0.113 C 
HETATM   17  C3  UNL     1      -2.723   1.796  86.990  1.00  0.00     0.017 C 
HETATM   18  C4  UNL     1      -3.923   2.659  86.637  1.00  0.00     0.017 C 
HETATM   19  C5  UNL     1      -3.225   3.996  86.357  1.00  0.00     0.113 C 
ENDBRANCH  13  15
ENDBRANCH   1  11
TORSDOF 2
ENDMDL
MODEL 3
REMARK VINA RESULT: -6.587823278      0.089      1.724
REMARK  2 active torsions:
REMARK  status: ('A' for Active; 'I' for Inactive)
REMARK       I    between atoms: C1_2  and  N1_3 
REMARK    1  A    between atoms: C1_2  and  C6_10 
REMARK    2  A    between atoms: N1_3  and  N2_5 
ROOT
HETATM    1  C6  UNL     1      -0.314   5.840  83.178  1.00  0.00     0.043 C 
HETATM    2  C7  UNL     1       0.370   5.314  81.938  1.00  0.00     0.024 C 
HETATM    3  C8  UNL     1       1.245   6.380  81.358  1.00  0.00    -0.013 C 
HETATM    4  C9  UNL     1       2.265   6.791  82.373  1.00  0.00     0.009 C 
HETATM    5  C10 UNL     1       1.594   7.297  83.622  1.00  0.00    -0.013 C 
HETATM    6  C11 UNL     1       0.733   8.491  83.235  1.00  0.00     0.009 C 
HETATM    7  C12 UNL     1      -0.273   8.091  82.170  1.00  0.00    -0.013 C 
HETATM    8  C13 UNL     1       0.407   7.562  80.934  1.00  0.00     0.009 C 
HETATM    9  C14 UNL     1      -1.157   7.031  82.738  1.00  0.00     0.024 C 
HETATM   10  C15 UNL     1       0.673   6.281  84.220  1.00  0.00     0.024 C 
ENDROOT
BRANCH   1  11
HETATM   11  C1  UNL     1      -1.232   4.850  83.758  1.00  0.00     0.240 C 
HETATM   12  O1  UNL     1      -2.110   4.326  82.987  1.00  0.00    -0.271 OA
HETATM   13  N1  UNL     1      -1.186   4.452  85.141  1.00  0.00    -0.289 N 
ATOM     14  H1  UNL     1      -0.500   4.853  85.780  1.00  0.00     0.184 HD
BRANCH  13  15
HETATM   15  N2  UNL     1      -2.092   3.517  85.575  1.00  0.00    -0.229 NA
HETATM   16  C2  UNL     1      -1.520   2.512  86.463  1.00  0.00     0.113 C 
HETATM   17  C3  UNL     1      -2.757   1.789  86.984  1.00  0.00     0.017 C 
HETATM   18  C4  UNL     1      -3.931   2.687  86.630  1.00  0.00     0.017 C 
HETATM   19  C5  UNL     1      -3.193   4.000  86.340  1.00  0.00     0.113 C 
ENDBRANCH  13  15
ENDBRANCH   1  11
TORSDOF 2
ENDMDL
MODEL 4
REMARK VINA RESULT: -6.474643336      1.190      1.676
REMARK  2 active torsions:
REMARK  status: ('A' for Active; 'I' for Inactive)
REMARK       I    between atoms: C1_2  and  N1_3 
REMARK    1  A    between atoms: C1_2  and  C6_10 
REMARK    2  A    between atoms: N1_3  and  N2_5 
ROOT
HETATM    1  C6  UNL     1       0.267   6.076  83.728  1.00  0.00     0.043 C 
HETATM    2  C7  UNL     1       0.060   7.486  84.231  1.00  0.00     0.024 C 
HETATM    3  C8  UNL     1       0.594   8.459  83.228  1.00  0.00    -0.013 C 
HETATM    4  C9  UNL     1      -0.117   8.269  81.924  1.00  0.00     0.009 C 
HETATM    5  C10 UNL     1       0.065   6.860  81.425  1.00  0.00    -0.013 C 
HETATM    6  C11 UNL     1       1.557   6.620  81.245  1.00  0.00     0.009 C 
HETATM    7  C12 UNL     1       2.290   6.859  82.554  1.00  0.00    -0.013 C 
HETATM    8  C13 UNL     1       2.082   8.263  83.059  1.00  0.00     0.009 C 
HETATM    9  C14 UNL     1       1.770   5.889  83.563  1.00  0.00     0.024 C 
HETATM   10  C15 UNL     1      -0.416   5.844  82.411  1.00  0.00     0.024 C 
ENDROOT
BRANCH   1  11
HETATM   11  C1  UNL     1      -0.190   5.076  84.702  1.00  0.00     0.240 C 
HETATM   12  O1  UNL     1       0.702   4.406  85.334  1.00  0.00    -0.271 OA
HETATM   13  N1  UNL     1      -1.580   4.818  84.970  1.00  0.00    -0.289 N 
ATOM     14  H1  UNL     1      -2.313   5.333  84.482  1.00  0.00     0.184 HD
BRANCH  13  15
HETATM   15  N2  UNL     1      -1.892   3.861  85.903  1.00  0.00    -0.229 NA
HETATM   16  C2  UNL     1      -3.243   3.980  86.438  1.00  0.00     0.113 C 
HETATM   17  C3  UNL     1      -3.404   2.681  87.220  1.00  0.00     0.017 C 
HETATM   18  C4  UNL     1      -2.271   1.783  86.752  1.00  0.00     0.017 C 
HETATM   19  C5  UNL     1      -1.864   2.506  85.462  1.00  0.00     0.113 C 
ENDBRANCH  13  15
ENDBRANCH   1  11
TORSDOF 2
ENDMDL
MODEL 5
REMARK VINA RESULT: -6.473543075      2.969      4.165
REMARK  2 active torsions:
REMARK  status: ('A' for Active; 'I' for Inactive)
REMARK       I    between atoms: C1_2  and  N1_3 
REMARK    1  A    between atoms: C1_2  and  C6_10 
REMARK    2  A    between atoms: N1_3  and  N2_5 
ROOT
HETATM    1  C6  UNL     1      -0.480   2.780  82.884  1.00  0.00     0.043 C 
HETATM    2  C7  UNL     1      -0.413   1.306  82.559  1.00  0.00     0.024 C 
HETATM    3  C8  UNL     1      -0.199   1.125  81.090  1.00  0.00    -0.013 C 
HETATM    4  C9  UNL     1       1.076   1.799  80.688  1.00  0.00     0.009 C 
HETATM    5  C10 UNL     1       1.029   3.265  81.027  1.00  0.00    -0.013 C 
HETATM    6  C11 UNL     1      -0.144   3.878  80.275  1.00  0.00     0.009 C 
HETATM    7  C12 UNL     1      -1.435   3.167  80.643  1.00  0.00    -0.013 C 
HETATM    8  C13 UNL     1      -1.369   1.696  80.323  1.00  0.00     0.009 C 
HETATM    9  C14 UNL     1      -1.664   3.344  82.107  1.00  0.00     0.024 C 
HETATM   10  C15 UNL     1       0.774   3.501  82.482  1.00  0.00     0.024 C 
ENDROOT
BRANCH   1  11
HETATM   11  C1  UNL     1      -0.747   3.014  84.310  1.00  0.00     0.240 C 
HETATM   12  O1  UNL     1       0.244   2.958  85.120  1.00  0.00    -0.271 OA
HETATM   13  N1  UNL     1      -2.059   3.299  84.827  1.00  0.00    -0.289 N 
ATOM     14  H1  UNL     1      -2.868   3.347  84.207  1.00  0.00     0.184 HD
BRANCH  13  15
HETATM   15  N2  UNL     1      -2.192   3.503  86.178  1.00  0.00    -0.229 NA
HETATM   16  C2  UNL     1      -3.260   4.431  86.530  1.00  0.00     0.113 C 
HETATM   17  C3  UNL     1      -3.352   4.268  88.043  1.00  0.00     0.017 C 
HETATM   18  C4  UNL     1      -2.585   2.996  88.362  1.00  0.00     0.017 C 
HETATM   19  C5  UNL     1      -2.516   2.361  86.968  1.00  0.00     0.113 C 
ENDBRANCH  13  15
ENDBRANCH   1  11
TORSDOF 2
ENDMDL
