MODEL 1
REMARK VINA RESULT: -5.555502140      0.000      0.000
REMARK  4 active torsions:
REMARK  status: ('A' for Active; 'I' for Inactive)
REMARK    1  A    between atoms: C2_2  and  C3_3 
REMARK    2  A    between atoms: C3_3  and  N1_4 
REMARK    3  A    between atoms: C7_8  and  C8_9 
REMARK    4  A    between atoms: C7_8  and  N3_16 
ROOT
HETATM    1  N1  UNL     1       8.757  -3.194  76.411  1.00  0.00    -0.391 N 
HETATM    2  C4  UNL     1       7.532  -2.760  75.930  1.00  0.00     0.122 C 
HETATM    3  C5  UNL     1       7.684  -2.664  74.408  1.00  0.00     0.022 C 
HETATM    4  C6  UNL     1       8.693  -1.615  74.126  1.00  0.00     0.036 C 
HETATM    5  C7  UNL     1       9.987  -1.711  74.862  1.00  0.00     0.072 C 
HETATM    6  C16 UNL     1       9.862  -2.291  76.254  1.00  0.00     0.154 C 
ENDROOT
BRANCH   5   7
HETATM    7  C8  UNL     1      10.445  -0.261  75.075  1.00  0.00     0.215 C 
HETATM    8  C9  UNL     1      10.125   0.651  73.953  1.00  0.00     0.037 C 
HETATM    9  C10 UNL     1       9.540   1.909  74.582  1.00  0.00     0.029 C 
HETATM   10  C11 UNL     1       9.567   1.666  76.057  1.00  0.00     0.233 C 
HETATM   11  N2  UNL     1       9.924   0.304  76.285  1.00  0.00    -0.069 N 
ATOM     12  H22 UNL     1       9.148  -0.241  76.662  1.00  0.00     0.277 HD
ATOM     13  H21 UNL     1      10.568   0.200  77.068  1.00  0.00     0.277 HD
ENDBRANCH   5   7
BRANCH   5  14
HETATM   14  N3  UNL     1      10.951  -2.444  74.171  1.00  0.00    -0.400 N 
HETATM   15  C12 UNL     1      12.196  -2.689  74.741  1.00  0.00     0.118 C 
HETATM   16  C13 UNL     1      13.074  -3.023  73.528  1.00  0.00     0.021 C 
HETATM   17  C14 UNL     1      12.066  -3.728  72.637  1.00  0.00     0.021 C 
HETATM   18  C15 UNL     1      10.835  -2.833  72.858  1.00  0.00     0.118 C 
ENDBRANCH   5  14
BRANCH   1  19
HETATM   19  C3  UNL     1       9.077  -4.517  76.698  1.00  0.00     0.058 C 
BRANCH  19  20
HETATM   20  C2  UNL     1       7.978  -5.489  76.995  1.00  0.00     0.040 C 
HETATM   21  C1  UNL     1       8.355  -6.935  77.031  1.00  0.00     0.010 C 
ENDBRANCH  19  20
ENDBRANCH   1  19
TORSDOF 4
ENDMDL
MODEL 2
REMARK VINA RESULT: -5.459789964      1.328      5.240
REMARK  4 active torsions:
REMARK  status: ('A' for Active; 'I' for Inactive)
REMARK    1  A    between atoms: C2_2  and  C3_3 
REMARK    2  A    between atoms: C3_3  and  N1_4 
REMARK    3  A    between atoms: C7_8  and  C8_9 
REMARK    4  A    between atoms: C7_8  and  N3_16 
ROOT
HETATM    1  N1  UNL     1      11.263  -2.419  73.508  1.00  0.00    -0.391 N 
HETATM    2  C4  UNL     1      10.527  -3.322  72.758  1.00  0.00     0.122 C 
HETATM    3  C5  UNL     1       9.119  -2.727  72.642  1.00  0.00     0.022 C 
HETATM    4  C6  UNL     1       8.543  -2.677  74.007  1.00  0.00     0.036 C 
HETATM    5  C7  UNL     1       9.382  -2.050  75.069  1.00  0.00     0.072 C 
HETATM    6  C16 UNL     1      10.869  -2.254  74.879  1.00  0.00     0.154 C 
ENDROOT
BRANCH   5   7
HETATM    7  C8  UNL     1       9.038  -2.806  76.361  1.00  0.00     0.215 C 
HETATM    8  C9  UNL     1       7.604  -2.771  76.725  1.00  0.00     0.037 C 
HETATM    9  C10 UNL     1       7.225  -4.198  77.097  1.00  0.00     0.029 C 
HETATM   10  C11 UNL     1       8.480  -4.996  76.944  1.00  0.00     0.233 C 
HETATM   11  N2  UNL     1       9.466  -4.174  76.323  1.00  0.00    -0.069 N 
ATOM     12  H22 UNL     1       9.686  -4.483  75.376  1.00  0.00     0.277 HD
ATOM     13  H21 UNL     1      10.390  -4.300  76.735  1.00  0.00     0.277 HD
ENDBRANCH   5   7
BRANCH   5  14
HETATM   14  N3  UNL     1       9.146  -0.683  75.211  1.00  0.00    -0.400 N 
HETATM   15  C12 UNL     1       8.104  -0.069  74.524  1.00  0.00     0.118 C 
HETATM   16  C13 UNL     1       8.507   1.411  74.532  1.00  0.00     0.021 C 
HETATM   17  C14 UNL     1       9.200   1.507  75.880  1.00  0.00     0.021 C 
HETATM   18  C15 UNL     1       9.981   0.181  75.880  1.00  0.00     0.118 C 
ENDBRANCH   5  14
BRANCH   1  19
HETATM   19  C3  UNL     1      12.090  -1.431  72.982  1.00  0.00     0.058 C 
BRANCH  19  20
HETATM   20  C2  UNL     1      11.504  -0.103  72.617  1.00  0.00     0.040 C 
HETATM   21  C1  UNL     1      12.228   1.107  73.115  1.00  0.00     0.010 C 
ENDBRANCH  19  20
ENDBRANCH   1  19
TORSDOF 4
ENDMDL
MODEL 3
REMARK VINA RESULT: -5.418836989      8.730     10.468
REMARK  4 active torsions:
REMARK  status: ('A' for Active; 'I' for Inactive)
REMARK    1  A    between atoms: C2_2  and  C3_3 
REMARK    2  A    between atoms: C3_3  and  N1_4 
REMARK    3  A    between atoms: C7_8  and  C8_9 
REMARK    4  A    between atoms: C7_8  and  N3_16 
ROOT
HETATM    1  N1  UNL     1      18.501   0.569  82.343  1.00  0.00    -0.391 N 
HETATM    2  C4  UNL     1      18.561  -0.309  83.413  1.00  0.00     0.122 C 
HETATM    3  C5  UNL     1      18.072  -1.660  82.878  1.00  0.00     0.022 C 
HETATM    4  C6  UNL     1      16.652  -1.498  82.488  1.00  0.00     0.036 C 
HETATM    5  C7  UNL     1      16.325  -0.340  81.605  1.00  0.00     0.072 C 
HETATM    6  C16 UNL     1      17.193   0.877  81.838  1.00  0.00     0.154 C 
ENDROOT
BRANCH   5   7
HETATM    7  C8  UNL     1      14.910   0.096  82.010  1.00  0.00     0.215 C 
HETATM    8  C9  UNL     1      14.205  -0.860  82.893  1.00  0.00     0.037 C 
HETATM    9  C10 UNL     1      13.588  -0.031  84.011  1.00  0.00     0.029 C 
HETATM   10  C11 UNL     1      13.956   1.386  83.706  1.00  0.00     0.233 C 
HETATM   11  N2  UNL     1      14.895   1.388  82.633  1.00  0.00    -0.069 N 
ATOM     12  H22 UNL     1      15.824   1.682  82.933  1.00  0.00     0.277 HD
ATOM     13  H21 UNL     1      14.715   2.136  81.964  1.00  0.00     0.277 HD
ENDBRANCH   5   7
BRANCH   5  14
HETATM   14  N3  UNL     1      16.381  -0.659  80.248  1.00  0.00    -0.400 N 
HETATM   15  C12 UNL     1      16.628  -1.965  79.838  1.00  0.00     0.118 C 
HETATM   16  C13 UNL     1      17.115  -1.789  78.394  1.00  0.00     0.021 C 
HETATM   17  C14 UNL     1      16.286  -0.593  77.961  1.00  0.00     0.021 C 
HETATM   18  C15 UNL     1      16.365   0.268  79.234  1.00  0.00     0.118 C 
ENDBRANCH   5  14
BRANCH   1  19
HETATM   19  C3  UNL     1      19.573   0.891  81.515  1.00  0.00     0.058 C 
BRANCH  19  20
HETATM   20  C2  UNL     1      19.947  -0.042  80.405  1.00  0.00     0.040 C 
HETATM   21  C1  UNL     1      20.023   0.547  79.033  1.00  0.00     0.010 C 
ENDBRANCH  19  20
ENDBRANCH   1  19
TORSDOF 4
ENDMDL
MODEL 4
REMARK VINA RESULT: -5.338366563      8.880     10.587
REMARK  4 active torsions:
REMARK  status: ('A' for Active; 'I' for Inactive)
REMARK    1  A    between atoms: C2_2  and  C3_3 
REMARK    2  A    between atoms: C3_3  and  N1_4 
REMARK    3  A    between atoms: C7_8  and  C8_9 
REMARK    4  A    between atoms: C7_8  and  N3_16 
ROOT
HETATM    1  N1  UNL     1      18.588   0.772  82.491  1.00  0.00    -0.391 N 
HETATM    2  C4  UNL     1      18.631  -0.044  83.611  1.00  0.00     0.122 C 
HETATM    3  C5  UNL     1      18.233  -1.444  83.130  1.00  0.00     0.022 C 
HETATM    4  C6  UNL     1      16.829  -1.371  82.661  1.00  0.00     0.036 C 
HETATM    5  C7  UNL     1      16.497  -0.281  81.698  1.00  0.00     0.072 C 
HETATM    6  C16 UNL     1      17.295   0.988  81.905  1.00  0.00     0.154 C 
ENDROOT
BRANCH   5   7
HETATM    7  C8  UNL     1      15.043   0.108  82.007  1.00  0.00     0.215 C 
HETATM    8  C9  UNL     1      14.305  -0.885  82.820  1.00  0.00     0.037 C 
HETATM    9  C10 UNL     1      13.585  -0.094  83.904  1.00  0.00     0.029 C 
HETATM   10  C11 UNL     1      13.932   1.338  83.651  1.00  0.00     0.233 C 
HETATM   11  N2  UNL     1      14.946   1.386  82.649  1.00  0.00    -0.069 N 
ATOM     12  H22 UNL     1      15.842   1.701  83.021  1.00  0.00     0.277 HD
ATOM     13  H21 UNL     1      14.793   2.142  81.982  1.00  0.00     0.277 HD
ENDBRANCH   5   7
BRANCH   5  14
HETATM   14  N3  UNL     1      16.638  -0.670  80.367  1.00  0.00    -0.400 N 
HETATM   15  C12 UNL     1      16.445   0.246  79.337  1.00  0.00     0.118 C 
HETATM   16  C13 UNL     1      16.175  -0.650  78.122  1.00  0.00     0.021 C 
HETATM   17  C14 UNL     1      17.066  -1.837  78.443  1.00  0.00     0.021 C 
HETATM   18  C15 UNL     1      16.807  -1.970  79.953  1.00  0.00     0.118 C 
ENDBRANCH   5  14
BRANCH   1  19
HETATM   19  C3  UNL     1      19.685   1.100  81.700  1.00  0.00     0.058 C 
BRANCH  19  20
HETATM   20  C2  UNL     1      19.810   0.499  80.335  1.00  0.00     0.040 C 
HETATM   21  C1  UNL     1      20.383  -0.880  80.260  1.00  0.00     0.010 C 
ENDBRANCH  19  20
ENDBRANCH   1  19
TORSDOF 4
ENDMDL
MODEL 5
REMARK VINA RESULT: -5.332166804      1.371      4.820
REMARK  4 active torsions:
REMARK  status: ('A' for Active; 'I' for Inactive)
REMARK    1  A    between atoms: C2_2  and  C3_3 
REMARK    2  A    between atoms: C3_3  and  N1_4 
REMARK    3  A    between atoms: C7_8  and  C8_9 
REMARK    4  A    between atoms: C7_8  and  N3_16 
ROOT
HETATM    1  N1  UNL     1       8.821   0.457  74.804  1.00  0.00    -0.391 N 
HETATM    2  C4  UNL     1       9.428   0.486  76.050  1.00  0.00     0.122 C 
HETATM    3  C5  UNL     1      10.592  -0.509  75.976  1.00  0.00     0.022 C 
HETATM    4  C6  UNL     1      10.013  -1.858  75.770  1.00  0.00     0.036 C 
HETATM    5  C7  UNL     1       9.018  -2.002  74.668  1.00  0.00     0.072 C 
HETATM    6  C16 UNL     1       8.173  -0.769  74.435  1.00  0.00     0.154 C 
ENDROOT
BRANCH   5   7
HETATM    7  C8  UNL     1       8.031  -3.078  75.145  1.00  0.00     0.215 C 
HETATM    8  C9  UNL     1       8.662  -4.366  75.511  1.00  0.00     0.037 C 
HETATM    9  C10 UNL     1       8.044  -4.779  76.841  1.00  0.00     0.029 C 
HETATM   10  C11 UNL     1       7.060  -3.704  77.174  1.00  0.00     0.233 C 
HETATM   11  N2  UNL     1       7.231  -2.632  76.248  1.00  0.00    -0.069 N 
ATOM     12  H22 UNL     1       7.615  -1.797  76.691  1.00  0.00     0.277 HD
ATOM     13  H21 UNL     1       6.341  -2.239  75.944  1.00  0.00     0.277 HD
ENDBRANCH   5   7
BRANCH   5  14
HETATM   14  N3  UNL     1       9.602  -2.364  73.454  1.00  0.00    -0.400 N 
HETATM   15  C12 UNL     1      10.986  -2.430  73.326  1.00  0.00     0.118 C 
HETATM   16  C13 UNL     1      11.200  -2.332  71.810  1.00  0.00     0.021 C 
HETATM   17  C14 UNL     1       9.969  -3.064  71.304  1.00  0.00     0.021 C 
HETATM   18  C15 UNL     1       8.909  -2.518  72.277  1.00  0.00     0.118 C 
ENDBRANCH   5  14
BRANCH   1  19
HETATM   19  C3  UNL     1       9.078   1.354  73.772  1.00  0.00     0.058 C 
BRANCH  19  20
HETATM   20  C2  UNL     1      10.432   1.982  73.667  1.00  0.00     0.040 C 
HETATM   21  C1  UNL     1      11.440   1.266  72.827  1.00  0.00     0.010 C 
ENDBRANCH  19  20
ENDBRANCH   1  19
TORSDOF 4
ENDMDL
