MODEL 1
REMARK VINA RESULT: -5.021371650      0.000      0.000
REMARK  6 active torsions:
REMARK  status: ('A' for Active; 'I' for Inactive)
REMARK    1  A    between atoms: C2_2  and  S1_5 
REMARK    2  A    between atoms: S1_5  and  C5_6 
REMARK    3  A    between atoms: C5_6  and  C6_7 
REMARK    4  A    between atoms: C6_7  and  N1_8 
REMARK    5  A    between atoms: N1_8  and  C7_10 
REMARK    6  A    between atoms: C7_10  and  N2_12 
ROOT
HETATM    1  N1  UNL     1       9.277  -3.934  73.303  1.00  0.00    -0.366 N 
ATOM      2  H1  UNL     1       8.995  -4.611  72.594  1.00  0.00     0.161 HD
ENDROOT
BRANCH   1   3
HETATM    3  C6  UNL     1       8.914  -2.590  73.025  1.00  0.00     0.132 C 
BRANCH   3   4
HETATM    4  C5  UNL     1       7.960  -2.122  74.137  1.00  0.00     0.094 C 
BRANCH   4   5
HETATM    5  S1  UNL     1       8.223  -0.417  74.546  1.00  0.00    -0.159 SA
BRANCH   5   6
HETATM    6  C2  UNL     1       9.814   0.103  75.090  1.00  0.00    -0.003 C 
HETATM    7  C1  UNL     1       9.630   1.344  75.996  1.00  0.00     0.026 C 
HETATM    8  C3  UNL     1      10.746   0.607  73.994  1.00  0.00     0.026 C 
HETATM    9  C4  UNL     1      10.487  -0.983  75.900  1.00  0.00     0.026 C 
ENDBRANCH   5   6
ENDBRANCH   4   5
ENDBRANCH   3   4
ENDBRANCH   1   3
BRANCH   1  10
HETATM   10  C7  UNL     1       9.964  -4.475  74.404  1.00  0.00     0.169 C 
HETATM   11  S2  UNL     1      11.590  -4.362  74.433  1.00  0.00    -0.041 SA
BRANCH  10  12
HETATM   12  N2  UNL     1       9.293  -5.103  75.488  1.00  0.00    -0.354 N 
HETATM   13  C8  UNL     1       8.945  -4.456  76.732  1.00  0.00     0.151 C 
HETATM   14  C9  UNL     1       7.707  -5.193  77.256  1.00  0.00     0.187 C 
HETATM   15  O1  UNL     1       7.953  -6.497  77.576  1.00  0.00    -0.388 OA
HETATM   16  C10 UNL     1       8.845  -7.137  76.764  1.00  0.00     0.187 C 
HETATM   17  C11 UNL     1       8.949  -6.517  75.386  1.00  0.00     0.151 C 
ENDBRANCH  10  12
ENDBRANCH   1  10
TORSDOF 6
ENDMDL
MODEL 2
REMARK VINA RESULT: -4.965699165      0.916      1.144
REMARK  6 active torsions:
REMARK  status: ('A' for Active; 'I' for Inactive)
REMARK    1  A    between atoms: C2_2  and  S1_5 
REMARK    2  A    between atoms: S1_5  and  C5_6 
REMARK    3  A    between atoms: C5_6  and  C6_7 
REMARK    4  A    between atoms: C6_7  and  N1_8 
REMARK    5  A    between atoms: N1_8  and  C7_10 
REMARK    6  A    between atoms: C7_10  and  N2_12 
ROOT
HETATM    1  N1  UNL     1       9.042  -3.720  73.328  1.00  0.00    -0.366 N 
ATOM      2  H1  UNL     1       8.521  -4.352  72.721  1.00  0.00     0.161 HD
ENDROOT
BRANCH   1   3
HETATM    3  C6  UNL     1       8.894  -2.341  73.025  1.00  0.00     0.132 C 
BRANCH   3   4
HETATM    4  C5  UNL     1       7.926  -1.736  74.056  1.00  0.00     0.094 C 
BRANCH   4   5
HETATM    5  S1  UNL     1       8.781  -0.734  75.242  1.00  0.00    -0.159 SA
BRANCH   5   6
HETATM    6  C2  UNL     1       8.805   1.014  75.037  1.00  0.00    -0.003 C 
HETATM    7  C1  UNL     1       7.356   1.487  74.770  1.00  0.00     0.026 C 
HETATM    8  C3  UNL     1       9.566   1.516  73.814  1.00  0.00     0.026 C 
HETATM    9  C4  UNL     1       9.307   1.696  76.290  1.00  0.00     0.026 C 
ENDBRANCH   5   6
ENDBRANCH   4   5
ENDBRANCH   3   4
ENDBRANCH   1   3
BRANCH   1  10
HETATM   10  C7  UNL     1       9.796  -4.348  74.335  1.00  0.00     0.169 C 
HETATM   11  S2  UNL     1      11.422  -4.319  74.217  1.00  0.00    -0.041 SA
BRANCH  10  12
HETATM   12  N2  UNL     1       9.194  -4.993  75.449  1.00  0.00    -0.354 N 
HETATM   13  C8  UNL     1       8.827  -4.340  76.685  1.00  0.00     0.151 C 
HETATM   14  C9  UNL     1       7.655  -5.148  77.254  1.00  0.00     0.187 C 
HETATM   15  O1  UNL     1       7.998  -6.422  77.600  1.00  0.00    -0.388 OA
HETATM   16  C10 UNL     1       8.916  -7.020  76.784  1.00  0.00     0.187 C 
HETATM   17  C11 UNL     1       8.948  -6.430  75.389  1.00  0.00     0.151 C 
ENDBRANCH  10  12
ENDBRANCH   1  10
TORSDOF 6
ENDMDL
MODEL 3
REMARK VINA RESULT: -4.961206955      0.160      1.606
REMARK  6 active torsions:
REMARK  status: ('A' for Active; 'I' for Inactive)
REMARK    1  A    between atoms: C2_2  and  S1_5 
REMARK    2  A    between atoms: S1_5  and  C5_6 
REMARK    3  A    between atoms: C5_6  and  C6_7 
REMARK    4  A    between atoms: C6_7  and  N1_8 
REMARK    5  A    between atoms: N1_8  and  C7_10 
REMARK    6  A    between atoms: C7_10  and  N2_12 
ROOT
HETATM    1  N1  UNL     1       9.259  -3.917  73.317  1.00  0.00    -0.366 N 
ATOM      2  H1  UNL     1       9.009  -4.590  72.593  1.00  0.00     0.161 HD
ENDROOT
BRANCH   1   3
HETATM    3  C6  UNL     1       8.864  -2.579  73.055  1.00  0.00     0.132 C 
BRANCH   3   4
HETATM    4  C5  UNL     1       7.941  -2.130  74.201  1.00  0.00     0.094 C 
BRANCH   4   5
HETATM    5  S1  UNL     1       8.066  -0.385  74.490  1.00  0.00    -0.159 SA
BRANCH   5   6
HETATM    6  C2  UNL     1       9.580   0.284  75.086  1.00  0.00    -0.003 C 
HETATM    7  C1  UNL     1      10.291  -0.806  75.923  1.00  0.00     0.026 C 
HETATM    8  C3  UNL     1       9.440   1.442  76.069  1.00  0.00     0.026 C 
HETATM    9  C4  UNL     1      10.486   0.671  73.938  1.00  0.00     0.026 C 
ENDBRANCH   5   6
ENDBRANCH   4   5
ENDBRANCH   3   4
ENDBRANCH   1   3
BRANCH   1  10
HETATM   10  C7  UNL     1       9.941  -4.458  74.422  1.00  0.00     0.169 C 
HETATM   11  S2  UNL     1      11.549  -4.214  74.534  1.00  0.00    -0.041 SA
BRANCH  10  12
HETATM   12  N2  UNL     1       9.280  -5.195  75.441  1.00  0.00    -0.354 N 
HETATM   13  C8  UNL     1       8.959  -6.603  75.369  1.00  0.00     0.151 C 
HETATM   14  C9  UNL     1       8.934  -7.101  76.818  1.00  0.00     0.187 C 
HETATM   15  O1  UNL     1       7.942  -6.536  77.565  1.00  0.00    -0.388 OA
HETATM   16  C10 UNL     1       7.674  -5.227  77.282  1.00  0.00     0.187 C 
HETATM   17  C11 UNL     1       8.845  -4.502  76.649  1.00  0.00     0.151 C 
ENDBRANCH  10  12
ENDBRANCH   1  10
TORSDOF 6
ENDMDL
MODEL 4
REMARK VINA RESULT: -4.913633852      1.914      2.635
REMARK  6 active torsions:
REMARK  status: ('A' for Active; 'I' for Inactive)
REMARK    1  A    between atoms: C2_2  and  S1_5 
REMARK    2  A    between atoms: S1_5  and  C5_6 
REMARK    3  A    between atoms: C5_6  and  C6_7 
REMARK    4  A    between atoms: C6_7  and  N1_8 
REMARK    5  A    between atoms: N1_8  and  C7_10 
REMARK    6  A    between atoms: C7_10  and  N2_12 
ROOT
HETATM    1  N1  UNL     1       7.550  -2.363  74.099  1.00  0.00    -0.366 N 
ATOM      2  H1  UNL     1       6.636  -2.812  74.046  1.00  0.00     0.161 HD
ENDROOT
BRANCH   1   3
HETATM    3  C6  UNL     1       7.531  -0.948  73.987  1.00  0.00     0.132 C 
BRANCH   3   4
HETATM    4  C5  UNL     1       8.140  -0.368  75.275  1.00  0.00     0.094 C 
BRANCH   4   5
HETATM    5  S1  UNL     1       9.228   0.988  74.927  1.00  0.00    -0.159 SA
BRANCH   5   6
HETATM    6  C2  UNL     1       8.545   2.562  74.534  1.00  0.00    -0.003 C 
HETATM    7  C1  UNL     1       9.094   3.591  75.551  1.00  0.00     0.026 C 
HETATM    8  C3  UNL     1       7.034   2.678  74.703  1.00  0.00     0.026 C 
HETATM    9  C4  UNL     1       8.959   2.996  73.145  1.00  0.00     0.026 C 
ENDBRANCH   5   6
ENDBRANCH   4   5
ENDBRANCH   3   4
ENDBRANCH   1   3
BRANCH   1  10
HETATM   10  C7  UNL     1       8.635  -3.241  74.272  1.00  0.00     0.169 C 
HETATM   11  S2  UNL     1       9.883  -3.145  73.227  1.00  0.00    -0.041 SA
BRANCH  10  12
HETATM   12  N2  UNL     1       8.685  -4.194  75.326  1.00  0.00    -0.354 N 
HETATM   13  C8  UNL     1       9.359  -5.470  75.256  1.00  0.00     0.151 C 
HETATM   14  C9  UNL     1       9.760  -5.811  76.695  1.00  0.00     0.187 C 
HETATM   15  O1  UNL     1       8.692  -6.005  77.521  1.00  0.00    -0.388 OA
HETATM   16  C10 UNL     1       7.615  -5.200  77.279  1.00  0.00     0.187 C 
HETATM   17  C11 UNL     1       7.982  -3.910  76.572  1.00  0.00     0.151 C 
ENDBRANCH  10  12
ENDBRANCH   1  10
TORSDOF 6
ENDMDL
MODEL 5
REMARK VINA RESULT: -4.890217116      1.877      2.385
REMARK  6 active torsions:
REMARK  status: ('A' for Active; 'I' for Inactive)
REMARK    1  A    between atoms: C2_2  and  S1_5 
REMARK    2  A    between atoms: S1_5  and  C5_6 
REMARK    3  A    between atoms: C5_6  and  C6_7 
REMARK    4  A    between atoms: C6_7  and  N1_8 
REMARK    5  A    between atoms: N1_8  and  C7_10 
REMARK    6  A    between atoms: C7_10  and  N2_12 
ROOT
HETATM    1  N1  UNL     1       7.602  -2.427  74.029  1.00  0.00    -0.366 N 
ATOM      2  H1  UNL     1       6.713  -2.902  73.873  1.00  0.00     0.161 HD
ENDROOT
BRANCH   1   3
HETATM    3  C6  UNL     1       7.554  -1.013  73.921  1.00  0.00     0.132 C 
BRANCH   3   4
HETATM    4  C5  UNL     1       7.872  -0.427  75.308  1.00  0.00     0.094 C 
BRANCH   4   5
HETATM    5  S1  UNL     1       9.055   0.890  75.201  1.00  0.00    -0.159 SA
BRANCH   5   6
HETATM    6  C2  UNL     1       8.515   2.498  74.730  1.00  0.00    -0.003 C 
HETATM    7  C1  UNL     1       9.017   2.771  73.292  1.00  0.00     0.026 C 
HETATM    8  C3  UNL     1       9.114   3.648  75.533  1.00  0.00     0.026 C 
HETATM    9  C4  UNL     1       7.004   2.580  74.732  1.00  0.00     0.026 C 
ENDBRANCH   5   6
ENDBRANCH   4   5
ENDBRANCH   3   4
ENDBRANCH   1   3
BRANCH   1  10
HETATM   10  C7  UNL     1       8.687  -3.275  74.316  1.00  0.00     0.169 C 
HETATM   11  S2  UNL     1       9.996  -3.213  73.347  1.00  0.00    -0.041 SA
BRANCH  10  12
HETATM   12  N2  UNL     1       8.684  -4.170  75.421  1.00  0.00    -0.354 N 
HETATM   13  C8  UNL     1       8.006  -3.934  76.675  1.00  0.00     0.151 C 
HETATM   14  C9  UNL     1       7.670  -5.320  77.236  1.00  0.00     0.187 C 
HETATM   15  O1  UNL     1       8.776  -6.056  77.549  1.00  0.00    -0.388 OA
HETATM   16  C10 UNL     1       9.841  -5.892  76.711  1.00  0.00     0.187 C 
HETATM   17  C11 UNL     1       9.444  -5.411  75.329  1.00  0.00     0.151 C 
ENDBRANCH  10  12
ENDBRANCH   1  10
TORSDOF 6
ENDMDL
