MODEL 1
REMARK VINA RESULT: -6.354387085      0.000      0.000
REMARK  5 active torsions:
REMARK  status: ('A' for Active; 'I' for Inactive)
REMARK    1  A    between atoms: N2_8  and  C7_9 
REMARK    2  A    between atoms: C7_9  and  C8_10 
REMARK    3  A    between atoms: C8_10  and  C9_11 
REMARK    4  A    between atoms: C9_11  and  O1_13 
REMARK    5  A    between atoms: C9_11  and  C11_15 
ROOT
HETATM    1  C7  UNL     1       7.816  -3.646  75.854  1.00  0.00     0.122 C 
ENDROOT
BRANCH   1   2
HETATM    2  N2  UNL     1       8.229  -2.306  75.679  1.00  0.00    -0.392 N 
HETATM    3  C6  UNL     1       7.953  -1.737  74.392  1.00  0.00     0.176 C 
HETATM    4  N1  UNL     1       9.036  -1.784  73.465  1.00  0.00    -0.396 N 
HETATM    5  C5  UNL     1       7.717  -0.241  74.665  1.00  0.00     0.047 C 
HETATM    6  C1  UNL     1       9.019  -2.847  72.536  1.00  0.00     0.145 C 
HETATM    7  C2  UNL     1      10.309  -1.436  73.998  1.00  0.00     0.124 C 
HETATM    8  C3  UNL     1      10.060  -0.818  75.363  1.00  0.00     0.021 C 
HETATM    9  C4  UNL     1       9.022   0.277  75.236  1.00  0.00     0.011 C 
HETATM   10  C15 UNL     1       9.489  -1.947  76.230  1.00  0.00     0.125 C 
ENDBRANCH   1   2
BRANCH   1  11
HETATM   11  C8  UNL     1       8.991  -4.573  75.854  1.00  0.00     0.057 C 
BRANCH  11  12
HETATM   12  C9  UNL     1       8.844  -5.650  76.918  1.00  0.00     0.062 C 
HETATM   13  C10 UNL     1       7.484  -5.522  77.522  1.00  0.00     0.046 C 
BRANCH  12  14
HETATM   14  O1  UNL     1       9.838  -5.418  77.866  1.00  0.00    -0.389 OA
ATOM     15  H1  UNL     1       9.398  -5.155  78.666  1.00  0.00     0.210 HD
ENDBRANCH  12  14
BRANCH  12  16
HETATM   16  C11 UNL     1       9.089  -7.022  76.325  1.00  0.00    -0.021 C 
HETATM   17  C12 UNL     1       8.635  -7.085  74.895  1.00  0.00     0.017 C 
HETATM   18  C13 UNL     1      10.564  -7.380  76.356  1.00  0.00     0.017 C 
HETATM   19  C14 UNL     1       8.359  -8.084  77.112  1.00  0.00     0.017 C 
ENDBRANCH  12  16
ENDBRANCH  11  12
ENDBRANCH   1  11
TORSDOF 5
ENDMDL
MODEL 2
REMARK VINA RESULT: -5.979772593      1.174      1.895
REMARK  5 active torsions:
REMARK  status: ('A' for Active; 'I' for Inactive)
REMARK    1  A    between atoms: N2_8  and  C7_9 
REMARK    2  A    between atoms: C7_9  and  C8_10 
REMARK    3  A    between atoms: C8_10  and  C9_11 
REMARK    4  A    between atoms: C9_11  and  O1_13 
REMARK    5  A    between atoms: C9_11  and  C11_15 
ROOT
HETATM    1  C7  UNL     1       9.986  -4.595  75.259  1.00  0.00     0.122 C 
ENDROOT
BRANCH   1   2
HETATM    2  N2  UNL     1       9.271  -3.383  75.128  1.00  0.00    -0.392 N 
HETATM    3  C6  UNL     1       9.620  -2.578  73.994  1.00  0.00     0.176 C 
HETATM    4  N1  UNL     1      10.564  -1.541  74.256  1.00  0.00    -0.396 N 
HETATM    5  C5  UNL     1       8.317  -1.854  73.610  1.00  0.00     0.047 C 
HETATM    6  C1  UNL     1      11.910  -1.827  73.941  1.00  0.00     0.145 C 
HETATM    7  C2  UNL     1      10.341  -0.802  75.451  1.00  0.00     0.124 C 
HETATM    8  C3  UNL     1       8.951  -1.169  75.941  1.00  0.00     0.021 C 
HETATM    9  C4  UNL     1       7.959  -1.001  74.810  1.00  0.00     0.011 C 
HETATM   10  C15 UNL     1       9.025  -2.653  76.322  1.00  0.00     0.125 C 
ENDBRANCH   1   2
BRANCH   1  11
HETATM   11  C8  UNL     1       9.058  -5.769  75.241  1.00  0.00     0.057 C 
BRANCH  11  12
HETATM   12  C9  UNL     1       9.052  -6.488  76.581  1.00  0.00     0.062 C 
HETATM   13  C10 UNL     1       7.846  -6.043  77.340  1.00  0.00     0.046 C 
BRANCH  12  14
HETATM   14  O1  UNL     1      10.224  -6.122  77.239  1.00  0.00    -0.389 OA
ATOM     15  H1  UNL     1      10.771  -6.898  77.278  1.00  0.00     0.210 HD
ENDBRANCH  12  14
BRANCH  12  16
HETATM   16  C11 UNL     1       9.091  -7.989  76.380  1.00  0.00    -0.021 C 
HETATM   17  C12 UNL     1       8.250  -8.696  77.405  1.00  0.00     0.017 C 
HETATM   18  C13 UNL     1       8.566  -8.375  75.009  1.00  0.00     0.017 C 
HETATM   19  C14 UNL     1      10.506  -8.506  76.474  1.00  0.00     0.017 C 
ENDBRANCH  12  16
ENDBRANCH  11  12
ENDBRANCH   1  11
TORSDOF 5
ENDMDL
MODEL 3
REMARK VINA RESULT: -5.728582798      1.224      2.493
REMARK  5 active torsions:
REMARK  status: ('A' for Active; 'I' for Inactive)
REMARK    1  A    between atoms: N2_8  and  C7_9 
REMARK    2  A    between atoms: C7_9  and  C8_10 
REMARK    3  A    between atoms: C8_10  and  C9_11 
REMARK    4  A    between atoms: C9_11  and  O1_13 
REMARK    5  A    between atoms: C9_11  and  C11_15 
ROOT
HETATM    1  C7  UNL     1      10.571  -4.726  75.475  1.00  0.00     0.122 C 
ENDROOT
BRANCH   1   2
HETATM    2  N2  UNL     1      10.435  -3.567  74.679  1.00  0.00    -0.392 N 
HETATM    3  C6  UNL     1      10.116  -2.362  75.390  1.00  0.00     0.176 C 
HETATM    4  N1  UNL     1       8.730  -2.029  75.424  1.00  0.00    -0.396 N 
HETATM    5  C5  UNL     1      10.784  -1.238  74.578  1.00  0.00     0.047 C 
HETATM    6  C1  UNL     1       8.024  -2.407  76.587  1.00  0.00     0.145 C 
HETATM    7  C2  UNL     1       8.036  -2.182  74.191  1.00  0.00     0.124 C 
HETATM    8  C3  UNL     1       9.090  -2.378  73.116  1.00  0.00     0.021 C 
HETATM    9  C4  UNL     1      10.121  -1.274  73.216  1.00  0.00     0.011 C 
HETATM   10  C15 UNL     1       9.764  -3.718  73.436  1.00  0.00     0.125 C 
ENDBRANCH   1   2
BRANCH   1  11
HETATM   11  C8  UNL     1       9.371  -5.610  75.343  1.00  0.00     0.057 C 
BRANCH  11  12
HETATM   12  C9  UNL     1       9.115  -6.390  76.624  1.00  0.00     0.062 C 
HETATM   13  C10 UNL     1       7.838  -5.894  77.219  1.00  0.00     0.046 C 
BRANCH  12  14
HETATM   14  O1  UNL     1      10.194  -6.140  77.469  1.00  0.00    -0.389 OA
ATOM     15  H1  UNL     1      10.173  -5.212  77.673  1.00  0.00     0.210 HD
ENDBRANCH  12  14
BRANCH  12  16
HETATM   16  C11 UNL     1       9.087  -7.878  76.346  1.00  0.00    -0.021 C 
HETATM   17  C12 UNL     1       8.247  -8.604  77.357  1.00  0.00     0.017 C 
HETATM   18  C13 UNL     1       8.510  -8.171  74.973  1.00  0.00     0.017 C 
HETATM   19  C14 UNL     1      10.482  -8.455  76.372  1.00  0.00     0.017 C 
ENDBRANCH  12  16
ENDBRANCH  11  12
ENDBRANCH   1  11
TORSDOF 5
ENDMDL
MODEL 4
REMARK VINA RESULT: -5.713501835      1.061      1.985
REMARK  5 active torsions:
REMARK  status: ('A' for Active; 'I' for Inactive)
REMARK    1  A    between atoms: N2_8  and  C7_9 
REMARK    2  A    between atoms: C7_9  and  C8_10 
REMARK    3  A    between atoms: C8_10  and  C9_11 
REMARK    4  A    between atoms: C9_11  and  O1_13 
REMARK    5  A    between atoms: C9_11  and  C11_15 
ROOT
HETATM    1  C7  UNL     1       8.556  -3.938  75.987  1.00  0.00     0.122 C 
ENDROOT
BRANCH   1   2
HETATM    2  N2  UNL     1       9.659  -3.124  75.642  1.00  0.00    -0.392 N 
HETATM    3  C6  UNL     1       9.389  -1.718  75.561  1.00  0.00     0.176 C 
HETATM    4  N1  UNL     1       9.116  -1.230  74.249  1.00  0.00    -0.396 N 
HETATM    5  C5  UNL     1      10.706  -1.040  75.981  1.00  0.00     0.047 C 
HETATM    6  C1  UNL     1       7.754  -1.087  73.906  1.00  0.00     0.145 C 
HETATM    7  C2  UNL     1       9.973  -1.721  73.226  1.00  0.00     0.124 C 
HETATM    8  C3  UNL     1      11.137  -2.408  73.919  1.00  0.00     0.021 C 
HETATM    9  C4  UNL     1      11.730  -1.472  74.951  1.00  0.00     0.011 C 
HETATM   10  C15 UNL     1      10.532  -3.621  74.637  1.00  0.00     0.125 C 
ENDBRANCH   1   2
BRANCH   1  11
HETATM   11  C8  UNL     1       8.804  -5.364  75.608  1.00  0.00     0.057 C 
BRANCH  11  12
HETATM   12  C9  UNL     1       8.826  -6.264  76.834  1.00  0.00     0.062 C 
HETATM   13  C10 UNL     1       7.550  -6.060  77.581  1.00  0.00     0.046 C 
BRANCH  12  14
HETATM   14  O1  UNL     1       9.924  -5.876  77.599  1.00  0.00    -0.389 OA
ATOM     15  H1  UNL     1      10.343  -6.672  77.901  1.00  0.00     0.210 HD
ENDBRANCH  12  14
BRANCH  12  16
HETATM   16  C11 UNL     1       9.038  -7.709  76.431  1.00  0.00    -0.021 C 
HETATM   17  C12 UNL     1       8.287  -8.642  77.337  1.00  0.00     0.017 C 
HETATM   18  C13 UNL     1       8.560  -7.961  75.012  1.00  0.00     0.017 C 
HETATM   19  C14 UNL     1      10.504  -8.067  76.474  1.00  0.00     0.017 C 
ENDBRANCH  12  16
ENDBRANCH  11  12
ENDBRANCH   1  11
TORSDOF 5
ENDMDL
MODEL 5
REMARK VINA RESULT: -5.695264444      1.116      1.426
REMARK  5 active torsions:
REMARK  status: ('A' for Active; 'I' for Inactive)
REMARK    1  A    between atoms: N2_8  and  C7_9 
REMARK    2  A    between atoms: C7_9  and  C8_10 
REMARK    3  A    between atoms: C8_10  and  C9_11 
REMARK    4  A    between atoms: C9_11  and  O1_13 
REMARK    5  A    between atoms: C9_11  and  C11_15 
ROOT
HETATM    1  C7  UNL     1       7.772  -3.578  75.689  1.00  0.00     0.122 C 
ENDROOT
BRANCH   1   2
HETATM    2  N2  UNL     1       8.154  -2.221  75.595  1.00  0.00    -0.392 N 
HETATM    3  C6  UNL     1       8.037  -1.635  74.291  1.00  0.00     0.176 C 
HETATM    4  N1  UNL     1       9.238  -1.623  73.523  1.00  0.00    -0.396 N 
HETATM    5  C5  UNL     1       7.709  -0.154  74.554  1.00  0.00     0.047 C 
HETATM    6  C1  UNL     1       9.389  -2.666  72.583  1.00  0.00     0.145 C 
HETATM    7  C2  UNL     1      10.411  -1.242  74.232  1.00  0.00     0.124 C 
HETATM    8  C3  UNL     1       9.953  -0.663  75.559  1.00  0.00     0.021 C 
HETATM    9  C4  UNL     1       8.901   0.397  75.308  1.00  0.00     0.011 C 
HETATM   10  C15 UNL     1       9.311  -1.829  76.320  1.00  0.00     0.125 C 
ENDBRANCH   1   2
BRANCH   1  11
HETATM   11  C8  UNL     1       8.817  -4.381  76.398  1.00  0.00     0.057 C 
BRANCH  11  12
HETATM   12  C9  UNL     1       9.414  -5.440  75.484  1.00  0.00     0.062 C 
HETATM   13  C10 UNL     1      10.843  -5.084  75.234  1.00  0.00     0.046 C 
BRANCH  12  14
HETATM   14  O1  UNL     1       8.675  -5.415  74.303  1.00  0.00    -0.389 OA
ATOM     15  H1  UNL     1       8.011  -4.744  74.410  1.00  0.00     0.210 HD
ENDBRANCH  12  14
BRANCH  12  16
HETATM   16  C11 UNL     1       9.257  -6.818  76.092  1.00  0.00    -0.021 C 
HETATM   17  C12 UNL     1       8.714  -7.796  75.089  1.00  0.00     0.017 C 
HETATM   18  C13 UNL     1      10.587  -7.357  76.586  1.00  0.00     0.017 C 
HETATM   19  C14 UNL     1       8.327  -6.777  77.281  1.00  0.00     0.017 C 
ENDBRANCH  12  16
ENDBRANCH  11  12
ENDBRANCH   1  11
TORSDOF 5
ENDMDL
