MODEL 1
REMARK VINA RESULT: -6.184915988      0.000      0.000
REMARK  4 active torsions:
REMARK  status: ('A' for Active; 'I' for Inactive)
REMARK    1  A    between atoms: C2_2  and  O1_3 
REMARK    2  A    between atoms: O1_3  and  C3_4 
REMARK    3  A    between atoms: C3_4  and  C4_5 
REMARK       I    between atoms: C4_5  and  N1_7 
REMARK    4  A    between atoms: N1_7  and  C5_9 
ROOT
HETATM    1  C5  UNL     1       9.355  -3.691  75.316  1.00  0.00     0.237 A 
HETATM    2  C6  UNL     1       8.376  -3.433  74.222  1.00  0.00     0.071 C 
HETATM    3  C7  UNL     1       7.801  -2.073  74.636  1.00  0.00     0.019 C 
HETATM    4  C8  UNL     1       7.893  -2.057  76.113  1.00  0.00     0.281 C 
HETATM    5  N2  UNL     1       9.105  -2.776  76.377  1.00  0.00     0.122 N 
HETATM    6  C9  UNL     1      10.292  -2.039  76.090  1.00  0.00     0.231 A 
HETATM    7  C10 UNL     1      10.149  -0.598  75.802  1.00  0.00     0.044 C 
HETATM    8  C11 UNL     1       9.417  -0.127  74.647  1.00  0.00    -0.045 C 
HETATM    9  C12 UNL     1      10.414   0.425  73.604  1.00  0.00     0.015 C 
HETATM   10  C13 UNL     1       8.614   1.129  75.045  1.00  0.00     0.015 C 
HETATM   11  C14 UNL     1       8.509  -1.017  73.906  1.00  0.00     0.015 C 
HETATM   12  C15 UNL     1      10.668  -2.992  75.037  1.00  0.00     0.100 A 
ENDROOT
BRANCH   1  13
HETATM   13  N1  UNL     1       9.472  -5.088  75.620  1.00  0.00    -0.324 N 
HETATM   14  C4  UNL     1       8.684  -5.775  76.552  1.00  0.00     0.243 C 
HETATM   15  O2  UNL     1       7.805  -5.151  77.178  1.00  0.00    -0.271 OA
ATOM     16  H1  UNL     1      10.183  -5.621  75.119  1.00  0.00     0.165 HD
BRANCH  14  17
HETATM   17  C3  UNL     1       8.887  -7.213  76.789  1.00  0.00     0.270 C 
BRANCH  17  18
HETATM   18  O1  UNL     1       8.016  -7.840  77.625  1.00  0.00    -0.382 OA
BRANCH  18  19
HETATM   19  C2  UNL     1       8.024  -9.194  77.531  1.00  0.00     0.163 C 
HETATM   20  C1  UNL     1       6.923  -9.780  78.415  1.00  0.00     0.033 C 
ENDBRANCH  18  19
ENDBRANCH  17  18
ENDBRANCH  14  17
ENDBRANCH   1  13
TORSDOF 4
ENDMDL
MODEL 2
REMARK VINA RESULT: -6.157946708      3.195      6.873
REMARK  4 active torsions:
REMARK  status: ('A' for Active; 'I' for Inactive)
REMARK    1  A    between atoms: C2_2  and  O1_3 
REMARK    2  A    between atoms: O1_3  and  C3_4 
REMARK    3  A    between atoms: C3_4  and  C4_5 
REMARK       I    between atoms: C4_5  and  N1_7 
REMARK    4  A    between atoms: N1_7  and  C5_9 
ROOT
HETATM    1  C5  UNL     1       7.946  -2.059  75.246  1.00  0.00     0.237 A 
HETATM    2  C6  UNL     1       8.303  -2.502  73.868  1.00  0.00     0.071 C 
HETATM    3  C7  UNL     1       9.643  -3.209  74.109  1.00  0.00     0.019 C 
HETATM    4  C8  UNL     1      10.234  -2.514  75.274  1.00  0.00     0.281 C 
HETATM    5  N2  UNL     1       9.093  -2.188  76.079  1.00  0.00     0.122 N 
HETATM    6  C9  UNL     1       8.531  -3.301  76.769  1.00  0.00     0.231 A 
HETATM    7  C10 UNL     1       9.300  -4.562  76.773  1.00  0.00     0.044 C 
HETATM    8  C11 UNL     1       9.573  -5.286  75.552  1.00  0.00    -0.045 C 
HETATM    9  C12 UNL     1       8.712  -6.568  75.518  1.00  0.00     0.015 C 
HETATM   10  C13 UNL     1      11.010  -5.845  75.615  1.00  0.00     0.015 C 
HETATM   11  C14 UNL     1       9.402  -4.649  74.236  1.00  0.00     0.015 C 
HETATM   12  C15 UNL     1       7.277  -3.178  76.013  1.00  0.00     0.100 A 
ENDROOT
BRANCH   1  13
HETATM   13  N1  UNL     1       7.226  -0.818  75.246  1.00  0.00    -0.324 N 
HETATM   14  C4  UNL     1       7.629   0.343  74.574  1.00  0.00     0.243 C 
HETATM   15  O2  UNL     1       8.688   0.325  73.917  1.00  0.00    -0.271 OA
ATOM     16  H1  UNL     1       6.355  -0.778  75.776  1.00  0.00     0.165 HD
BRANCH  14  17
HETATM   17  C3  UNL     1       6.815   1.567  74.640  1.00  0.00     0.270 C 
BRANCH  17  18
HETATM   18  O1  UNL     1       7.190   2.522  75.533  1.00  0.00    -0.382 OA
BRANCH  18  19
HETATM   19  C2  UNL     1       6.813   3.783  75.198  1.00  0.00     0.163 C 
HETATM   20  C1  UNL     1       7.040   4.009  73.704  1.00  0.00     0.033 C 
ENDBRANCH  18  19
ENDBRANCH  17  18
ENDBRANCH  14  17
ENDBRANCH   1  13
TORSDOF 4
ENDMDL
MODEL 3
REMARK VINA RESULT: -6.041789213      1.073      2.044
REMARK  4 active torsions:
REMARK  status: ('A' for Active; 'I' for Inactive)
REMARK    1  A    between atoms: C2_2  and  O1_3 
REMARK    2  A    between atoms: O1_3  and  C3_4 
REMARK    3  A    between atoms: C3_4  and  C4_5 
REMARK       I    between atoms: C4_5  and  N1_7 
REMARK    4  A    between atoms: N1_7  and  C5_9 
ROOT
HETATM    1  C5  UNL     1       9.147  -3.966  75.144  1.00  0.00     0.237 A 
HETATM    2  C6  UNL     1      10.601  -3.671  75.288  1.00  0.00     0.071 C 
HETATM    3  C7  UNL     1      10.785  -2.532  74.278  1.00  0.00     0.019 C 
HETATM    4  C8  UNL     1       9.769  -2.785  73.232  1.00  0.00     0.281 C 
HETATM    5  N2  UNL     1       8.665  -3.327  73.967  1.00  0.00     0.122 N 
HETATM    6  C9  UNL     1       7.941  -2.361  74.726  1.00  0.00     0.231 A 
HETATM    7  C10 UNL     1       8.244  -0.936  74.485  1.00  0.00     0.044 C 
HETATM    8  C11 UNL     1       9.548  -0.381  74.772  1.00  0.00    -0.045 C 
HETATM    9  C12 UNL     1       9.453   0.520  76.023  1.00  0.00     0.015 C 
HETATM   10  C13 UNL     1       9.918   0.622  73.660  1.00  0.00     0.015 C 
HETATM   11  C14 UNL     1      10.714  -1.252  74.989  1.00  0.00     0.015 C 
HETATM   12  C15 UNL     1       8.321  -3.017  75.985  1.00  0.00     0.100 A 
ENDROOT
BRANCH   1  13
HETATM   13  N1  UNL     1       8.854  -5.356  75.347  1.00  0.00    -0.324 N 
HETATM   14  C4  UNL     1       9.014  -6.041  76.558  1.00  0.00     0.243 C 
HETATM   15  O2  UNL     1       9.440  -5.420  77.553  1.00  0.00    -0.271 OA
ATOM     16  H1  UNL     1       8.502  -5.885  74.549  1.00  0.00     0.165 HD
BRANCH  14  17
HETATM   17  C3  UNL     1       8.684  -7.471  76.659  1.00  0.00     0.270 C 
BRANCH  17  18
HETATM   18  O1  UNL     1       7.941  -7.870  77.727  1.00  0.00    -0.382 OA
BRANCH  18  19
HETATM   19  C2  UNL     1       7.743  -9.210  77.804  1.00  0.00     0.163 C 
HETATM   20  C1  UNL     1       7.985  -9.847  76.436  1.00  0.00     0.033 C 
ENDBRANCH  18  19
ENDBRANCH  17  18
ENDBRANCH  14  17
ENDBRANCH   1  13
TORSDOF 4
ENDMDL
MODEL 4
REMARK VINA RESULT: -6.003618730      1.309      2.262
REMARK  4 active torsions:
REMARK  status: ('A' for Active; 'I' for Inactive)
REMARK    1  A    between atoms: C2_2  and  O1_3 
REMARK    2  A    between atoms: O1_3  and  C3_4 
REMARK    3  A    between atoms: C3_4  and  C4_5 
REMARK       I    between atoms: C4_5  and  N1_7 
REMARK    4  A    between atoms: N1_7  and  C5_9 
ROOT
HETATM    1  C5  UNL     1       8.902  -3.517  75.582  1.00  0.00     0.237 A 
HETATM    2  C6  UNL     1       9.397  -2.650  76.689  1.00  0.00     0.071 C 
HETATM    3  C7  UNL     1      10.064  -1.508  75.913  1.00  0.00     0.019 C 
HETATM    4  C8  UNL     1      10.530  -2.129  74.653  1.00  0.00     0.281 C 
HETATM    5  N2  UNL     1       9.516  -3.101  74.367  1.00  0.00     0.122 N 
HETATM    6  C9  UNL     1       8.297  -2.543  73.882  1.00  0.00     0.231 A 
HETATM    7  C10 UNL     1       8.300  -1.114  73.509  1.00  0.00     0.044 C 
HETATM    8  C11 UNL     1       8.540  -0.078  74.488  1.00  0.00    -0.045 C 
HETATM    9  C12 UNL     1       7.216   0.667  74.775  1.00  0.00     0.015 C 
HETATM   10  C13 UNL     1       9.414   1.020  73.848  1.00  0.00     0.015 C 
HETATM   11  C14 UNL     1       9.118  -0.393  75.804  1.00  0.00     0.015 C 
HETATM   12  C15 UNL     1       7.569  -3.019  75.066  1.00  0.00     0.100 A 
ENDROOT
BRANCH   1  13
HETATM   13  N1  UNL     1       8.927  -4.908  75.930  1.00  0.00    -0.324 N 
HETATM   14  C4  UNL     1       8.135  -5.501  76.921  1.00  0.00     0.243 C 
HETATM   15  O2  UNL     1       7.337  -4.791  77.564  1.00  0.00    -0.271 OA
ATOM     16  H1  UNL     1       9.571  -5.511  75.417  1.00  0.00     0.165 HD
BRANCH  14  17
HETATM   17  C3  UNL     1       8.240  -6.942  77.201  1.00  0.00     0.270 C 
BRANCH  17  18
HETATM   18  O1  UNL     1       9.420  -7.553  76.910  1.00  0.00    -0.382 OA
BRANCH  18  19
HETATM   19  C2  UNL     1       9.300  -8.849  76.521  1.00  0.00     0.163 C 
HETATM   20  C1  UNL     1       8.681  -8.913  75.125  1.00  0.00     0.033 C 
ENDBRANCH  18  19
ENDBRANCH  17  18
ENDBRANCH  14  17
ENDBRANCH   1  13
TORSDOF 4
ENDMDL
MODEL 5
REMARK VINA RESULT: -5.902127696      3.133      6.763
REMARK  4 active torsions:
REMARK  status: ('A' for Active; 'I' for Inactive)
REMARK    1  A    between atoms: C2_2  and  O1_3 
REMARK    2  A    between atoms: O1_3  and  C3_4 
REMARK    3  A    between atoms: C3_4  and  C4_5 
REMARK       I    between atoms: C4_5  and  N1_7 
REMARK    4  A    between atoms: N1_7  and  C5_9 
ROOT
HETATM    1  C5  UNL     1       9.197  -1.591  75.453  1.00  0.00     0.237 A 
HETATM    2  C6  UNL     1       8.250  -2.064  76.502  1.00  0.00     0.071 C 
HETATM    3  C7  UNL     1       7.751  -3.382  75.897  1.00  0.00     0.019 C 
HETATM    4  C8  UNL     1       7.825  -3.178  74.433  1.00  0.00     0.281 C 
HETATM    5  N2  UNL     1       8.988  -2.356  74.271  1.00  0.00     0.122 N 
HETATM    6  C9  UNL     1      10.220  -3.053  74.442  1.00  0.00     0.231 A 
HETATM    7  C10 UNL     1      10.167  -4.527  74.519  1.00  0.00     0.044 C 
HETATM    8  C11 UNL     1       9.480  -5.204  75.595  1.00  0.00    -0.045 C 
HETATM    9  C12 UNL     1      10.522  -5.840  76.543  1.00  0.00     0.015 C 
HETATM   10  C13 UNL     1       8.748  -6.435  75.022  1.00  0.00     0.015 C 
HETATM   11  C14 UNL     1       8.531  -4.487  76.462  1.00  0.00     0.015 C 
HETATM   12  C15 UNL     1      10.553  -2.242  75.621  1.00  0.00     0.100 A 
ENDROOT
BRANCH   1  13
HETATM   13  N1  UNL     1       9.227  -0.160  75.355  1.00  0.00    -0.324 N 
HETATM   14  C4  UNL     1       8.141   0.641  74.980  1.00  0.00     0.243 C 
HETATM   15  O2  UNL     1       7.054   0.096  74.705  1.00  0.00    -0.271 OA
ATOM     16  H1  UNL     1      10.105   0.309  75.576  1.00  0.00     0.165 HD
BRANCH  14  17
HETATM   17  C3  UNL     1       8.279   2.104  74.910  1.00  0.00     0.270 C 
BRANCH  17  18
HETATM   18  O1  UNL     1       7.921   2.821  76.010  1.00  0.00    -0.382 OA
BRANCH  18  19
HETATM   19  C2  UNL     1       8.802   3.794  76.357  1.00  0.00     0.163 C 
HETATM   20  C1  UNL     1       8.795   3.979  77.874  1.00  0.00     0.033 C 
ENDBRANCH  18  19
ENDBRANCH  17  18
ENDBRANCH  14  17
ENDBRANCH   1  13
TORSDOF 4
ENDMDL
