MODEL 1
REMARK VINA RESULT: -5.562425699      0.000      0.000
REMARK  5 active torsions:
REMARK  status: ('A' for Active; 'I' for Inactive)
REMARK    1  A    between atoms: C2_2  and  C3_3 
REMARK    2  A    between atoms: C3_3  and  C4_4 
REMARK    3  A    between atoms: C4_4  and  O1_5 
REMARK    4  A    between atoms: O1_5  and  C5_6 
REMARK    5  A    between atoms: C5_6  and  N1_8 
REMARK       I    between atoms: N2_13  and  C9_14 
ROOT
HETATM    1  C4  UNL     1       9.159  -5.036  75.838  1.00  0.00     0.073 C 
HETATM    2  C7  UNL     1       8.830  -5.388  77.264  1.00  0.00     0.058 C 
HETATM    3  C8  UNL     1       7.889  -6.567  77.392  1.00  0.00     0.129 C 
HETATM    4  N2  UNL     1       8.557  -7.735  76.821  1.00  0.00    -0.352 N 
HETATM    5  C9  UNL     1       8.276  -9.050  77.210  1.00  0.00     0.215 C 
HETATM    6  C10 UNL     1       7.270  -9.399  78.244  1.00  0.00     0.117 C 
HETATM    7  O2  UNL     1       8.897 -10.000  76.668  1.00  0.00    -0.274 OA
HETATM    8  C11 UNL     1       9.549  -7.440  75.806  1.00  0.00     0.129 C 
HETATM    9  C12 UNL     1       8.990  -6.275  74.987  1.00  0.00     0.058 C 
ENDROOT
BRANCH   1  10
HETATM   10  C3  UNL     1       8.351  -3.896  75.304  1.00  0.00     0.038 C 
BRANCH  10  11
HETATM   11  C2  UNL     1       7.735  -2.993  76.324  1.00  0.00    -0.002 C 
HETATM   12  C1  UNL     1       7.961  -1.568  75.789  1.00  0.00     0.005 C 
ENDBRANCH  10  11
ENDBRANCH   1  10
BRANCH   1  13
HETATM   13  O1  UNL     1      10.516  -4.656  75.782  1.00  0.00    -0.316 OA
BRANCH  13  14
HETATM   14  C5  UNL     1      11.081  -3.975  74.730  1.00  0.00     0.210 C 
HETATM   15  S1  UNL     1      11.576  -2.411  74.860  1.00  0.00    -0.033 SA
BRANCH  14  16
HETATM   16  N1  UNL     1      11.275  -4.583  73.463  1.00  0.00    -0.366 N 
HETATM   17  C6  UNL     1      12.312  -4.205  72.541  1.00  0.00     0.149 C 
ATOM     18  H1  UNL     1      10.640  -5.332  73.189  1.00  0.00     0.161 HD
ENDBRANCH  14  16
ENDBRANCH  13  14
ENDBRANCH   1  13
TORSDOF 5
ENDMDL
MODEL 2
REMARK VINA RESULT: -5.482120387      2.760      5.930
REMARK  5 active torsions:
REMARK  status: ('A' for Active; 'I' for Inactive)
REMARK    1  A    between atoms: C2_2  and  C3_3 
REMARK    2  A    between atoms: C3_3  and  C4_4 
REMARK    3  A    between atoms: C4_4  and  O1_5 
REMARK    4  A    between atoms: O1_5  and  C5_6 
REMARK    5  A    between atoms: C5_6  and  N1_8 
REMARK       I    between atoms: N2_13  and  C9_14 
ROOT
HETATM    1  C4  UNL     1       9.379  -3.178  75.299  1.00  0.00     0.073 C 
HETATM    2  C7  UNL     1       9.009  -2.412  74.057  1.00  0.00     0.058 C 
HETATM    3  C8  UNL     1       7.975  -1.334  74.300  1.00  0.00     0.129 C 
HETATM    4  N2  UNL     1       8.553  -0.363  75.227  1.00  0.00    -0.352 N 
HETATM    5  C9  UNL     1       8.164   0.982  75.278  1.00  0.00     0.215 C 
HETATM    6  C10 UNL     1       7.122   1.563  74.394  1.00  0.00     0.117 C 
HETATM    7  O2  UNL     1       8.712   1.752  76.106  1.00  0.00    -0.274 OA
HETATM    8  C11 UNL     1       9.576  -0.888  76.109  1.00  0.00     0.129 C 
HETATM    9  C12 UNL     1       9.120  -2.296  76.500  1.00  0.00     0.058 C 
ENDROOT
BRANCH   1  10
HETATM   10  C3  UNL     1       8.671  -4.489  75.424  1.00  0.00     0.038 C 
BRANCH  10  11
HETATM   11  C2  UNL     1       7.979  -4.740  76.725  1.00  0.00    -0.002 C 
HETATM   12  C1  UNL     1       8.253  -6.219  77.048  1.00  0.00     0.005 C 
ENDBRANCH  10  11
ENDBRANCH   1  10
BRANCH   1  13
HETATM   13  O1  UNL     1      10.763  -3.447  75.251  1.00  0.00    -0.316 OA
BRANCH  13  14
HETATM   14  C5  UNL     1      11.308  -4.573  74.682  1.00  0.00     0.210 C 
HETATM   15  S1  UNL     1      11.841  -5.842  75.584  1.00  0.00    -0.033 SA
BRANCH  14  16
HETATM   16  N1  UNL     1      11.445  -4.712  73.277  1.00  0.00    -0.366 N 
HETATM   17  C6  UNL     1      12.109  -3.753  72.436  1.00  0.00     0.149 C 
ATOM     18  H1  UNL     1      11.047  -5.541  72.837  1.00  0.00     0.161 HD
ENDBRANCH  14  16
ENDBRANCH  13  14
ENDBRANCH   1  13
TORSDOF 5
ENDMDL
MODEL 3
REMARK VINA RESULT: -5.291861420      2.588      5.707
REMARK  5 active torsions:
REMARK  status: ('A' for Active; 'I' for Inactive)
REMARK    1  A    between atoms: C2_2  and  C3_3 
REMARK    2  A    between atoms: C3_3  and  C4_4 
REMARK    3  A    between atoms: C4_4  and  O1_5 
REMARK    4  A    between atoms: O1_5  and  C5_6 
REMARK    5  A    between atoms: C5_6  and  N1_8 
REMARK       I    between atoms: N2_13  and  C9_14 
ROOT
HETATM    1  C4  UNL     1       9.418  -3.486  75.306  1.00  0.00     0.073 C 
HETATM    2  C7  UNL     1       9.015  -2.740  74.062  1.00  0.00     0.058 C 
HETATM    3  C8  UNL     1       7.967  -1.677  74.311  1.00  0.00     0.129 C 
HETATM    4  N2  UNL     1       8.543  -0.686  75.218  1.00  0.00    -0.352 N 
HETATM    5  C9  UNL     1       8.132   0.652  75.261  1.00  0.00     0.215 C 
HETATM    6  C10 UNL     1       7.066   1.206  74.389  1.00  0.00     0.117 C 
HETATM    7  O2  UNL     1       8.680   1.440  76.072  1.00  0.00    -0.274 OA
HETATM    8  C11 UNL     1       9.589  -1.185  76.088  1.00  0.00     0.129 C 
HETATM    9  C12 UNL     1       9.164  -2.596  76.501  1.00  0.00     0.058 C 
ENDROOT
BRANCH   1  10
HETATM   10  C3  UNL     1       8.734  -4.807  75.457  1.00  0.00     0.038 C 
BRANCH  10  11
HETATM   11  C2  UNL     1       8.020  -5.034  76.750  1.00  0.00    -0.002 C 
HETATM   12  C1  UNL     1       8.283  -6.508  77.103  1.00  0.00     0.005 C 
ENDBRANCH  10  11
ENDBRANCH   1  10
BRANCH   1  13
HETATM   13  O1  UNL     1      10.805  -3.732  75.238  1.00  0.00    -0.316 OA
BRANCH  13  14
HETATM   14  C5  UNL     1      11.560  -3.569  74.101  1.00  0.00     0.210 C 
HETATM   15  S1  UNL     1      12.480  -2.229  73.843  1.00  0.00    -0.033 SA
BRANCH  14  16
HETATM   16  N1  UNL     1      11.592  -4.549  73.076  1.00  0.00    -0.366 N 
HETATM   17  C6  UNL     1      12.588  -4.596  72.039  1.00  0.00     0.149 C 
ATOM     18  H1  UNL     1      10.865  -5.263  73.073  1.00  0.00     0.161 HD
ENDBRANCH  14  16
ENDBRANCH  13  14
ENDBRANCH   1  13
TORSDOF 5
ENDMDL
MODEL 4
REMARK VINA RESULT: -5.291213373      2.670      5.968
REMARK  5 active torsions:
REMARK  status: ('A' for Active; 'I' for Inactive)
REMARK    1  A    between atoms: C2_2  and  C3_3 
REMARK    2  A    between atoms: C3_3  and  C4_4 
REMARK    3  A    between atoms: C4_4  and  O1_5 
REMARK    4  A    between atoms: O1_5  and  C5_6 
REMARK    5  A    between atoms: C5_6  and  N1_8 
REMARK       I    between atoms: N2_13  and  C9_14 
ROOT
HETATM    1  C4  UNL     1       9.205  -3.357  74.841  1.00  0.00     0.073 C 
HETATM    2  C7  UNL     1       8.490  -2.384  73.942  1.00  0.00     0.058 C 
HETATM    3  C8  UNL     1       8.040  -1.126  74.652  1.00  0.00     0.129 C 
HETATM    4  N2  UNL     1       9.233  -0.437  75.139  1.00  0.00    -0.352 N 
HETATM    5  C9  UNL     1       9.293   0.945  75.352  1.00  0.00     0.215 C 
HETATM    6  C10 UNL     1       8.149   1.859  75.104  1.00  0.00     0.117 C 
HETATM    7  O2  UNL     1      10.359   1.460  75.773  1.00  0.00    -0.274 OA
HETATM    8  C11 UNL     1      10.376  -1.293  75.392  1.00  0.00     0.129 C 
HETATM    9  C12 UNL     1       9.816  -2.586  75.990  1.00  0.00     0.058 C 
ENDROOT
BRANCH   1  10
HETATM   10  C3  UNL     1       8.332  -4.466  75.335  1.00  0.00     0.038 C 
BRANCH  10  11
HETATM   11  C2  UNL     1       7.997  -4.439  76.791  1.00  0.00    -0.002 C 
HETATM   12  C1  UNL     1       7.976  -5.915  77.226  1.00  0.00     0.005 C 
ENDBRANCH  10  11
ENDBRANCH   1  10
BRANCH   1  13
HETATM   13  O1  UNL     1      10.257  -3.942  74.106  1.00  0.00    -0.316 OA
BRANCH  13  14
HETATM   14  C5  UNL     1      11.250  -4.711  74.663  1.00  0.00     0.210 C 
HETATM   15  S1  UNL     1      12.808  -4.192  74.767  1.00  0.00    -0.033 SA
BRANCH  14  16
HETATM   16  N1  UNL     1      10.992  -6.004  75.186  1.00  0.00    -0.366 N 
HETATM   17  C6  UNL     1      11.612  -6.530  76.372  1.00  0.00     0.149 C 
ATOM     18  H1  UNL     1      10.327  -6.597  74.691  1.00  0.00     0.161 HD
ENDBRANCH  14  16
ENDBRANCH  13  14
ENDBRANCH   1  13
TORSDOF 5
ENDMDL
MODEL 5
REMARK VINA RESULT: -5.250803065      3.209      6.359
REMARK  5 active torsions:
REMARK  status: ('A' for Active; 'I' for Inactive)
REMARK    1  A    between atoms: C2_2  and  C3_3 
REMARK    2  A    between atoms: C3_3  and  C4_4 
REMARK    3  A    between atoms: C4_4  and  O1_5 
REMARK    4  A    between atoms: O1_5  and  C5_6 
REMARK    5  A    between atoms: C5_6  and  N1_8 
REMARK       I    between atoms: N2_13  and  C9_14 
ROOT
HETATM    1  C4  UNL     1       9.051  -2.524  74.931  1.00  0.00     0.073 C 
HETATM    2  C7  UNL     1       8.436  -1.714  73.821  1.00  0.00     0.058 C 
HETATM    3  C8  UNL     1       7.563  -0.581  74.314  1.00  0.00     0.129 C 
HETATM    4  N2  UNL     1       8.411   0.337  75.074  1.00  0.00    -0.352 N 
HETATM    5  C9  UNL     1       8.130   1.701  75.223  1.00  0.00     0.215 C 
HETATM    6  C10 UNL     1       6.942   2.360  74.625  1.00  0.00     0.117 C 
HETATM    7  O2  UNL     1       8.912   2.421  75.893  1.00  0.00    -0.274 OA
HETATM    8  C11 UNL     1       9.584  -0.266  75.674  1.00  0.00     0.129 C 
HETATM    9  C12 UNL     1       9.151  -1.651  76.161  1.00  0.00     0.058 C 
ENDROOT
BRANCH   1  10
HETATM   10  C3  UNL     1       8.315  -3.792  75.222  1.00  0.00     0.038 C 
BRANCH  10  11
HETATM   11  C2  UNL     1       7.756  -3.925  76.602  1.00  0.00    -0.002 C 
HETATM   12  C1  UNL     1       7.941  -5.407  76.970  1.00  0.00     0.005 C 
ENDBRANCH  10  11
ENDBRANCH   1  10
BRANCH   1  13
HETATM   13  O1  UNL     1      10.361  -2.874  74.543  1.00  0.00    -0.316 OA
BRANCH  13  14
HETATM   14  C5  UNL     1      10.871  -2.669  73.282  1.00  0.00     0.210 C 
HETATM   15  S1  UNL     1      11.907  -1.436  72.944  1.00  0.00    -0.033 SA
BRANCH  14  16
HETATM   16  N1  UNL     1      10.533  -3.511  72.192  1.00  0.00    -0.366 N 
HETATM   17  C6  UNL     1      10.553  -3.093  70.817  1.00  0.00     0.149 C 
ATOM     18  H1  UNL     1      10.260  -4.472  72.396  1.00  0.00     0.161 HD
ENDBRANCH  14  16
ENDBRANCH  13  14
ENDBRANCH   1  13
TORSDOF 5
ENDMDL
