MODEL 1
REMARK VINA RESULT: -6.827613971      0.000      0.000
REMARK  2 active torsions:
REMARK  status: ('A' for Active; 'I' for Inactive)
REMARK       I    between atoms: C1_2  and  N1_3 
REMARK    1  A    between atoms: C1_2  and  C7_13 
REMARK    2  A    between atoms: N1_3  and  N2_5 
ROOT
HETATM    1  O1  UNL     1      -1.285   5.969  85.209  1.00  0.00    -0.271 OA
HETATM    2  C1  UNL     1      -1.519   5.416  84.110  1.00  0.00     0.244 C 
HETATM    3  N1  UNL     1      -2.414   4.314  84.025  1.00  0.00    -0.270 N 
ATOM      4  H1  UNL     1      -2.598   3.871  83.125  1.00  0.00     0.190 HD
ENDROOT
BRANCH   2   5
HETATM    5  C7  UNL     1      -0.839   5.943  82.898  1.00  0.00     0.043 C 
HETATM    6  C8  UNL     1      -1.747   5.775  81.713  1.00  0.00     0.024 C 
HETATM    7  C9  UNL     1      -1.084   6.365  80.473  1.00  0.00    -0.013 C 
HETATM    8  C10 UNL     1       0.214   5.640  80.236  1.00  0.00     0.009 C 
HETATM    9  C14 UNL     1      -0.862   7.834  80.764  1.00  0.00     0.009 C 
HETATM   10  C11 UNL     1       1.107   5.850  81.432  1.00  0.00    -0.013 C 
HETATM   11  C12 UNL     1       1.380   7.327  81.612  1.00  0.00     0.009 C 
HETATM   12  C16 UNL     1       0.454   5.241  82.630  1.00  0.00     0.024 C 
HETATM   13  C13 UNL     1       0.081   8.020  81.916  1.00  0.00    -0.013 C 
HETATM   14  C15 UNL     1      -0.518   7.406  83.161  1.00  0.00     0.024 C 
ENDBRANCH   2   5
BRANCH   3  15
HETATM   15  N2  UNL     1      -3.039   3.842  85.181  1.00  0.00    -0.306 N 
HETATM   16  C2  UNL     1      -2.860   2.660  85.620  1.00  0.00     0.013 C 
HETATM   17  C3  UNL     1      -3.554   2.227  86.851  1.00  0.00     0.056 C 
HETATM   18  C6  UNL     1      -1.972   1.704  84.926  1.00  0.00     0.127 C 
HETATM   19  C4  UNL     1      -4.100   0.823  86.567  1.00  0.00     0.016 C 
HETATM   20  C5  UNL     1      -3.001  -0.149  86.945  1.00  0.00     0.074 C 
HETATM   21  S1  UNL     1      -1.518   0.323  86.012  1.00  0.00    -0.163 SA
ATOM     22  H2  UNL     1      -3.662   4.467  85.693  1.00  0.00     0.186 HD
ENDBRANCH   3  15
TORSDOF 2
ENDMDL
MODEL 2
REMARK VINA RESULT: -6.797096433      1.848      2.747
REMARK  2 active torsions:
REMARK  status: ('A' for Active; 'I' for Inactive)
REMARK       I    between atoms: C1_2  and  N1_3 
REMARK    1  A    between atoms: C1_2  and  C7_13 
REMARK    2  A    between atoms: N1_3  and  N2_5 
ROOT
HETATM    1  O1  UNL     1      -0.813   3.245  82.664  1.00  0.00    -0.271 OA
HETATM    2  C1  UNL     1      -0.270   3.843  83.622  1.00  0.00     0.244 C 
HETATM    3  N1  UNL     1      -0.035   3.177  84.856  1.00  0.00    -0.270 N 
ATOM      4  H1  UNL     1       0.408   3.673  85.630  1.00  0.00     0.190 HD
ENDROOT
BRANCH   2   5
HETATM    5  C7  UNL     1       0.123   5.264  83.433  1.00  0.00     0.043 C 
HETATM    6  C8  UNL     1      -0.405   6.076  84.582  1.00  0.00     0.024 C 
HETATM    7  C9  UNL     1       0.041   7.526  84.431  1.00  0.00    -0.013 C 
HETATM    8  C10 UNL     1      -0.499   8.058  83.130  1.00  0.00     0.009 C 
HETATM    9  C14 UNL     1       1.554   7.512  84.448  1.00  0.00     0.009 C 
HETATM   10  C11 UNL     1       0.071   7.237  82.002  1.00  0.00    -0.013 C 
HETATM   11  C12 UNL     1       1.580   7.343  82.004  1.00  0.00     0.009 C 
HETATM   12  C16 UNL     1      -0.400   5.826  82.151  1.00  0.00     0.024 C 
HETATM   13  C13 UNL     1       2.101   6.744  83.280  1.00  0.00    -0.013 C 
HETATM   14  C15 UNL     1       1.642   5.305  83.365  1.00  0.00     0.024 C 
ENDBRANCH   2   5
BRANCH   3  15
HETATM   15  N2  UNL     1      -0.415   1.841  85.003  1.00  0.00    -0.306 N 
HETATM   16  C2  UNL     1      -1.523   1.500  85.532  1.00  0.00     0.013 C 
HETATM   17  C3  UNL     1      -1.860   0.067  85.656  1.00  0.00     0.056 C 
HETATM   18  C6  UNL     1      -2.484   2.507  86.030  1.00  0.00     0.127 C 
HETATM   19  C4  UNL     1      -2.425  -0.123  87.068  1.00  0.00     0.016 C 
HETATM   20  C5  UNL     1      -3.915   0.134  86.972  1.00  0.00     0.074 C 
HETATM   21  S1  UNL     1      -4.133   1.785  86.252  1.00  0.00    -0.163 SA
ATOM     22  H2  UNL     1       0.218   1.112  84.675  1.00  0.00     0.186 HD
ENDBRANCH   3  15
TORSDOF 2
ENDMDL
MODEL 3
REMARK VINA RESULT: -6.792941115      0.121      1.667
REMARK  2 active torsions:
REMARK  status: ('A' for Active; 'I' for Inactive)
REMARK       I    between atoms: C1_2  and  N1_3 
REMARK    1  A    between atoms: C1_2  and  C7_13 
REMARK    2  A    between atoms: N1_3  and  N2_5 
ROOT
HETATM    1  O1  UNL     1      -1.284   5.945  85.251  1.00  0.00    -0.271 OA
HETATM    2  C1  UNL     1      -1.514   5.398  84.148  1.00  0.00     0.244 C 
HETATM    3  N1  UNL     1      -2.401   4.291  84.055  1.00  0.00    -0.270 N 
ATOM      4  H1  UNL     1      -2.583   3.853  83.152  1.00  0.00     0.190 HD
ENDROOT
BRANCH   2   5
HETATM    5  C7  UNL     1      -0.837   5.937  82.940  1.00  0.00     0.043 C 
HETATM    6  C8  UNL     1       0.456   5.201  82.732  1.00  0.00     0.024 C 
HETATM    7  C9  UNL     1       1.133   5.705  81.462  1.00  0.00    -0.013 C 
HETATM    8  C10 UNL     1       1.396   7.179  81.615  1.00  0.00     0.009 C 
HETATM    9  C14 UNL     1       0.175   5.419  80.325  1.00  0.00     0.009 C 
HETATM   10  C11 UNL     1       0.078   7.886  81.796  1.00  0.00    -0.013 C 
HETATM   11  C12 UNL     1      -0.798   7.653  80.585  1.00  0.00     0.009 C 
HETATM   12  C16 UNL     1      -0.557   7.401  83.059  1.00  0.00     0.024 C 
HETATM   13  C13 UNL     1      -1.105   6.184  80.492  1.00  0.00    -0.013 C 
HETATM   14  C15 UNL     1      -1.789   5.748  81.768  1.00  0.00     0.024 C 
ENDBRANCH   2   5
BRANCH   3  15
HETATM   15  N2  UNL     1      -3.023   3.807  85.208  1.00  0.00    -0.306 N 
HETATM   16  C2  UNL     1      -2.847   2.618  85.632  1.00  0.00     0.013 C 
HETATM   17  C3  UNL     1      -3.538   2.173  86.860  1.00  0.00     0.056 C 
HETATM   18  C6  UNL     1      -1.966   1.668  84.922  1.00  0.00     0.127 C 
HETATM   19  C4  UNL     1      -4.090   0.775  86.561  1.00  0.00     0.016 C 
HETATM   20  C5  UNL     1      -2.993  -0.205  86.923  1.00  0.00     0.074 C 
HETATM   21  S1  UNL     1      -1.512   0.272  85.989  1.00  0.00    -0.163 SA
ATOM     22  H2  UNL     1      -3.642   4.428  85.730  1.00  0.00     0.186 HD
ENDBRANCH   3  15
TORSDOF 2
ENDMDL
MODEL 4
REMARK VINA RESULT: -6.787553305      0.127      1.663
REMARK  2 active torsions:
REMARK  status: ('A' for Active; 'I' for Inactive)
REMARK       I    between atoms: C1_2  and  N1_3 
REMARK    1  A    between atoms: C1_2  and  C7_13 
REMARK    2  A    between atoms: N1_3  and  N2_5 
ROOT
HETATM    1  O1  UNL     1      -1.318   5.939  85.298  1.00  0.00    -0.271 OA
HETATM    2  C1  UNL     1      -1.563   5.409  84.190  1.00  0.00     0.244 C 
HETATM    3  N1  UNL     1      -2.460   4.309  84.091  1.00  0.00    -0.270 N 
ATOM      4  H1  UNL     1      -2.653   3.884  83.184  1.00  0.00     0.190 HD
ENDROOT
BRANCH   2   5
HETATM    5  C7  UNL     1      -0.893   5.958  82.982  1.00  0.00     0.043 C 
HETATM    6  C8  UNL     1      -0.579   7.409  83.212  1.00  0.00     0.024 C 
HETATM    7  C9  UNL     1       0.161   7.970  82.003  1.00  0.00    -0.013 C 
HETATM    8  C10 UNL     1      -0.720   7.818  80.792  1.00  0.00     0.009 C 
HETATM    9  C14 UNL     1       1.439   7.168  81.874  1.00  0.00     0.009 C 
HETATM   10  C11 UNL     1      -0.994   6.352  80.578  1.00  0.00    -0.013 C 
HETATM   11  C12 UNL     1       0.309   5.617  80.350  1.00  0.00     0.009 C 
HETATM   12  C16 UNL     1      -1.744   5.827  81.760  1.00  0.00     0.024 C 
HETATM   13  C13 UNL     1       1.143   5.723  81.595  1.00  0.00    -0.013 C 
HETATM   14  C15 UNL     1       0.366   5.137  82.753  1.00  0.00     0.024 C 
ENDBRANCH   2   5
BRANCH   3  15
HETATM   15  N2  UNL     1      -3.075   3.815  85.244  1.00  0.00    -0.306 N 
HETATM   16  C2  UNL     1      -2.882   2.628  85.665  1.00  0.00     0.013 C 
HETATM   17  C3  UNL     1      -3.566   2.172  86.893  1.00  0.00     0.056 C 
HETATM   18  C6  UNL     1      -1.989   1.690  84.953  1.00  0.00     0.127 C 
HETATM   19  C4  UNL     1      -4.101   0.767  86.592  1.00  0.00     0.016 C 
HETATM   20  C5  UNL     1      -2.991  -0.200  86.951  1.00  0.00     0.074 C 
HETATM   21  S1  UNL     1      -1.517   0.299  86.017  1.00  0.00    -0.163 SA
ATOM     22  H2  UNL     1      -3.700   4.427  85.767  1.00  0.00     0.186 HD
ENDBRANCH   3  15
TORSDOF 2
ENDMDL
MODEL 5
REMARK VINA RESULT: -6.783046436      1.856      2.859
REMARK  2 active torsions:
REMARK  status: ('A' for Active; 'I' for Inactive)
REMARK       I    between atoms: C1_2  and  N1_3 
REMARK    1  A    between atoms: C1_2  and  C7_13 
REMARK    2  A    between atoms: N1_3  and  N2_5 
ROOT
HETATM    1  O1  UNL     1      -0.970   3.325  82.810  1.00  0.00    -0.271 OA
HETATM    2  C1  UNL     1      -0.339   3.862  83.749  1.00  0.00     0.244 C 
HETATM    3  N1  UNL     1      -0.021   3.130  84.925  1.00  0.00    -0.270 N 
ATOM      4  H1  UNL     1       0.493   3.576  85.685  1.00  0.00     0.190 HD
ENDROOT
BRANCH   2   5
HETATM    5  C7  UNL     1       0.069   5.284  83.602  1.00  0.00     0.043 C 
HETATM    6  C8  UNL     1       1.554   5.393  83.803  1.00  0.00     0.024 C 
HETATM    7  C9  UNL     1       1.994   6.838  83.596  1.00  0.00    -0.013 C 
HETATM    8  C10 UNL     1       1.272   7.703  84.595  1.00  0.00     0.009 C 
HETATM    9  C14 UNL     1       1.627   7.197  82.172  1.00  0.00     0.009 C 
HETATM   10  C11 UNL     1      -0.210   7.588  84.348  1.00  0.00    -0.013 C 
HETATM   11  C12 UNL     1      -0.532   8.059  82.947  1.00  0.00     0.009 C 
HETATM   12  C16 UNL     1      -0.627   6.172  84.583  1.00  0.00     0.024 C 
HETATM   13  C13 UNL     1       0.142   7.141  81.966  1.00  0.00    -0.013 C 
HETATM   14  C15 UNL     1      -0.346   5.729  82.208  1.00  0.00     0.024 C 
ENDBRANCH   2   5
BRANCH   3  15
HETATM   15  N2  UNL     1      -0.417   1.795  85.035  1.00  0.00    -0.306 N 
HETATM   16  C2  UNL     1      -1.523   1.452  85.566  1.00  0.00     0.013 C 
HETATM   17  C3  UNL     1      -1.878   0.020  85.648  1.00  0.00     0.056 C 
HETATM   18  C6  UNL     1      -2.465   2.455  86.107  1.00  0.00     0.127 C 
HETATM   19  C4  UNL     1      -2.430  -0.207  87.061  1.00  0.00     0.016 C 
HETATM   20  C5  UNL     1      -3.917   0.072  86.990  1.00  0.00     0.074 C 
HETATM   21  S1  UNL     1      -4.122   1.748  86.325  1.00  0.00    -0.163 SA
ATOM     22  H2  UNL     1       0.202   1.068  84.677  1.00  0.00     0.186 HD
ENDBRANCH   3  15
TORSDOF 2
ENDMDL
