MODEL 1
REMARK VINA RESULT: -6.331503311      0.000      0.000
REMARK  2 active torsions:
REMARK  status: ('A' for Active; 'I' for Inactive)
REMARK    1  A    between atoms: N1_2  and  C2_3 
REMARK    2  A    between atoms: N1_2  and  C6_10 
ROOT
HETATM    1  C6  UNL     1      16.494   7.536  14.675  1.00  0.00     0.032 C 
HETATM    2  C7  UNL     1      17.856   8.071  14.982  1.00  0.00     0.035 C 
HETATM    3  C8  UNL     1      17.612   9.578  14.786  1.00  0.00    -0.011 C 
HETATM    4  C9  UNL     1      16.438   9.716  15.768  1.00  0.00     0.012 C 
HETATM    5  C10 UNL     1      15.556   8.575  15.233  1.00  0.00     0.015 C 
HETATM    6  C11 UNL     1      14.857   9.197  14.018  1.00  0.00     0.016 C 
HETATM    7  C12 UNL     1      15.976   9.068  12.985  1.00  0.00    -0.041 C 
HETATM    8  C13 UNL     1      15.505   9.350  11.605  1.00  0.00     0.015 C 
HETATM    9  C14 UNL     1      17.148   9.911  13.415  1.00  0.00     0.014 C 
HETATM   10  C15 UNL     1      16.337   7.616  13.147  1.00  0.00     0.040 C 
ENDROOT
BRANCH   1  11
HETATM   11  N1  UNL     1      16.208   6.256  15.142  1.00  0.00    -0.402 N 
HETATM   12  C1  UNL     1      14.989   6.027  15.792  1.00  0.00     0.144 C 
BRANCH  11  13
HETATM   13  C2  UNL     1      17.124   5.204  15.008  1.00  0.00     0.106 C 
HETATM   14  C3  UNL     1      17.171   4.405  16.293  1.00  0.00     0.054 C 
HETATM   15  C4  UNL     1      16.686   3.021  16.006  1.00  0.00     0.234 C 
HETATM   16  N2  UNL     1      16.984   2.857  14.610  1.00  0.00    -0.073 N 
HETATM   17  C5  UNL     1      16.649   4.132  14.006  1.00  0.00     0.257 C 
ATOM     18  H22 UNL     1      17.938   2.548  14.423  1.00  0.00     0.277 HD
ATOM     19  H21 UNL     1      16.517   2.059  14.178  1.00  0.00     0.277 HD
ENDBRANCH  11  13
ENDBRANCH   1  11
TORSDOF 2
ENDMDL
MODEL 2
REMARK VINA RESULT: -6.263070431      1.643      2.468
REMARK  2 active torsions:
REMARK  status: ('A' for Active; 'I' for Inactive)
REMARK    1  A    between atoms: N1_2  and  C2_3 
REMARK    2  A    between atoms: N1_2  and  C6_10 
ROOT
HETATM    1  C6  UNL     1      17.188   6.011  14.870  1.00  0.00     0.032 C 
HETATM    2  C7  UNL     1      18.582   6.027  15.410  1.00  0.00     0.035 C 
HETATM    3  C8  UNL     1      19.190   7.169  14.575  1.00  0.00    -0.011 C 
HETATM    4  C9  UNL     1      18.157   8.249  14.940  1.00  0.00     0.012 C 
HETATM    5  C10 UNL     1      16.877   7.463  14.610  1.00  0.00     0.015 C 
HETATM    6  C11 UNL     1      16.754   7.593  13.086  1.00  0.00     0.016 C 
HETATM    7  C12 UNL     1      17.751   6.517  12.656  1.00  0.00    -0.041 C 
HETATM    8  C13 UNL     1      17.662   6.213  11.205  1.00  0.00     0.015 C 
HETATM    9  C14 UNL     1      19.132   6.906  13.115  1.00  0.00     0.014 C 
HETATM   10  C15 UNL     1      17.275   5.352  13.482  1.00  0.00     0.040 C 
ENDROOT
BRANCH   1  11
HETATM   11  N1  UNL     1      16.223   5.393  15.658  1.00  0.00    -0.402 N 
HETATM   12  C1  UNL     1      14.888   5.806  15.546  1.00  0.00     0.144 C 
BRANCH  11  13
HETATM   13  C2  UNL     1      16.557   4.395  16.583  1.00  0.00     0.106 C 
HETATM   14  C3  UNL     1      15.481   4.304  17.644  1.00  0.00     0.054 C 
HETATM   15  C4  UNL     1      14.845   2.956  17.557  1.00  0.00     0.234 C 
HETATM   16  N2  UNL     1      15.884   2.143  16.988  1.00  0.00    -0.073 N 
HETATM   17  C5  UNL     1      16.497   2.980  15.974  1.00  0.00     0.257 C 
ATOM     18  H22 UNL     1      16.543   1.773  17.673  1.00  0.00     0.277 HD
ATOM     19  H21 UNL     1      15.560   1.241  16.639  1.00  0.00     0.277 HD
ENDBRANCH  11  13
ENDBRANCH   1  11
TORSDOF 2
ENDMDL
MODEL 3
REMARK VINA RESULT: -6.069736689      1.141      2.742
REMARK  2 active torsions:
REMARK  status: ('A' for Active; 'I' for Inactive)
REMARK    1  A    between atoms: N1_2  and  C2_3 
REMARK    2  A    between atoms: N1_2  and  C6_10 
ROOT
HETATM    1  C6  UNL     1      16.783   7.333  14.045  1.00  0.00     0.032 C 
HETATM    2  C7  UNL     1      15.654   7.308  15.025  1.00  0.00     0.035 C 
HETATM    3  C8  UNL     1      15.338   8.811  15.123  1.00  0.00    -0.011 C 
HETATM    4  C9  UNL     1      15.115   9.063  13.623  1.00  0.00     0.012 C 
HETATM    5  C10 UNL     1      16.416   8.440  13.090  1.00  0.00     0.015 C 
HETATM    6  C11 UNL     1      17.461   9.541  13.311  1.00  0.00     0.016 C 
HETATM    7  C12 UNL     1      17.748   9.327  14.798  1.00  0.00    -0.041 C 
HETATM    8  C13 UNL     1      18.938  10.087  15.258  1.00  0.00     0.015 C 
HETATM    9  C14 UNL     1      16.498   9.612  15.589  1.00  0.00     0.014 C 
HETATM   10  C15 UNL     1      18.009   7.846  14.820  1.00  0.00     0.040 C 
ENDROOT
BRANCH   1  11
HETATM   11  N1  UNL     1      17.067   6.138  13.391  1.00  0.00    -0.402 N 
HETATM   12  C1  UNL     1      18.071   6.121  12.415  1.00  0.00     0.144 C 
BRANCH  11  13
HETATM   13  C2  UNL     1      16.350   4.965  13.661  1.00  0.00     0.106 C 
HETATM   14  C3  UNL     1      16.425   4.038  12.466  1.00  0.00     0.054 C 
HETATM   15  C4  UNL     1      17.145   2.796  12.876  1.00  0.00     0.234 C 
HETATM   16  N2  UNL     1      16.900   2.732  14.290  1.00  0.00    -0.073 N 
HETATM   17  C5  UNL     1      17.016   4.103  14.750  1.00  0.00     0.257 C 
ATOM     18  H22 UNL     1      16.017   2.285  14.538  1.00  0.00     0.277 HD
ATOM     19  H21 UNL     1      17.504   2.076  14.786  1.00  0.00     0.277 HD
ENDBRANCH  11  13
ENDBRANCH   1  11
TORSDOF 2
ENDMDL
MODEL 4
REMARK VINA RESULT: -6.047323529      0.776      1.881
REMARK  2 active torsions:
REMARK  status: ('A' for Active; 'I' for Inactive)
REMARK    1  A    between atoms: N1_2  and  C2_3 
REMARK    2  A    between atoms: N1_2  and  C6_10 
ROOT
HETATM    1  C6  UNL     1      16.405   7.593  14.964  1.00  0.00     0.032 C 
HETATM    2  C7  UNL     1      15.721   8.639  15.784  1.00  0.00     0.035 C 
HETATM    3  C8  UNL     1      15.846   9.853  14.845  1.00  0.00    -0.011 C 
HETATM    4  C9  UNL     1      15.184   9.216  13.612  1.00  0.00     0.012 C 
HETATM    5  C10 UNL     1      16.018   7.925  13.546  1.00  0.00     0.015 C 
HETATM    6  C11 UNL     1      17.314   8.367  12.855  1.00  0.00     0.016 C 
HETATM    7  C12 UNL     1      18.038   8.995  14.046  1.00  0.00    -0.041 C 
HETATM    8  C13 UNL     1      19.464   9.287  13.750  1.00  0.00     0.015 C 
HETATM    9  C14 UNL     1      17.257  10.189  14.528  1.00  0.00     0.014 C 
HETATM   10  C15 UNL     1      17.911   7.891  15.061  1.00  0.00     0.040 C 
ENDROOT
BRANCH   1  11
HETATM   11  N1  UNL     1      16.134   6.268  15.293  1.00  0.00    -0.402 N 
HETATM   12  C1  UNL     1      14.902   5.953  15.881  1.00  0.00     0.144 C 
BRANCH  11  13
HETATM   13  C2  UNL     1      17.075   5.251  15.082  1.00  0.00     0.106 C 
HETATM   14  C3  UNL     1      17.170   4.383  16.318  1.00  0.00     0.054 C 
HETATM   15  C4  UNL     1      16.718   3.004  15.962  1.00  0.00     0.234 C 
HETATM   16  N2  UNL     1      16.991   2.928  14.554  1.00  0.00    -0.073 N 
HETATM   17  C5  UNL     1      16.610   4.225  14.030  1.00  0.00     0.257 C 
ATOM     18  H22 UNL     1      17.949   2.656  14.332  1.00  0.00     0.277 HD
ATOM     19  H21 UNL     1      16.537   2.142  14.086  1.00  0.00     0.277 HD
ENDBRANCH  11  13
ENDBRANCH   1  11
TORSDOF 2
ENDMDL
MODEL 5
REMARK VINA RESULT: -6.009093462      1.644      2.281
REMARK  2 active torsions:
REMARK  status: ('A' for Active; 'I' for Inactive)
REMARK    1  A    between atoms: N1_2  and  C2_3 
REMARK    2  A    between atoms: N1_2  and  C6_10 
ROOT
HETATM    1  C6  UNL     1      17.570   6.128  14.239  1.00  0.00     0.032 C 
HETATM    2  C7  UNL     1      18.743   6.514  15.082  1.00  0.00     0.035 C 
HETATM    3  C8  UNL     1      18.853   8.010  14.735  1.00  0.00    -0.011 C 
HETATM    4  C9  UNL     1      17.413   8.403  15.105  1.00  0.00     0.012 C 
HETATM    5  C10 UNL     1      16.667   7.333  14.290  1.00  0.00     0.015 C 
HETATM    6  C11 UNL     1      16.657   7.904  12.867  1.00  0.00     0.016 C 
HETATM    7  C12 UNL     1      18.070   7.521  12.427  1.00  0.00    -0.041 C 
HETATM    8  C13 UNL     1      18.278   7.710  10.969  1.00  0.00     0.015 C 
HETATM    9  C14 UNL     1      19.071   8.248  13.286  1.00  0.00     0.014 C 
HETATM   10  C15 UNL     1      18.088   6.061  12.792  1.00  0.00     0.040 C 
ENDROOT
BRANCH   1  11
HETATM   11  N1  UNL     1      16.911   4.954  14.590  1.00  0.00    -0.402 N 
HETATM   12  C1  UNL     1      16.313   4.184  13.584  1.00  0.00     0.144 C 
BRANCH  11  13
HETATM   13  C2  UNL     1      16.803   4.543  15.926  1.00  0.00     0.106 C 
HETATM   14  C3  UNL     1      15.413   4.853  16.441  1.00  0.00     0.054 C 
HETATM   15  C4  UNL     1      14.737   3.565  16.778  1.00  0.00     0.234 C 
HETATM   16  N2  UNL     1      15.836   2.689  17.071  1.00  0.00    -0.073 N 
HETATM   17  C5  UNL     1      16.843   3.010  16.078  1.00  0.00     0.257 C 
ATOM     18  H22 UNL     1      16.169   2.750  18.033  1.00  0.00     0.277 HD
ATOM     19  H21 UNL     1      15.583   1.701  17.099  1.00  0.00     0.277 HD
ENDBRANCH  11  13
ENDBRANCH   1  11
TORSDOF 2
ENDMDL
