MODEL 1
REMARK VINA RESULT: -6.918172414      0.000      0.000
REMARK  1 active torsions:
REMARK  status: ('A' for Active; 'I' for Inactive)
REMARK    1  A    between atoms: C5_5  and  C6_6 
ROOT
HETATM    1  C6  UNL     1      16.653   6.391  14.612  1.00  0.00     0.064 C 
HETATM    2  N1  UNL     1      16.694   7.720  14.477  1.00  0.00    -0.381 N 
HETATM    3  C7  UNL     1      17.594   8.706  14.842  1.00  0.00     0.091 C 
HETATM    4  C8  UNL     1      16.500   9.273  15.727  1.00  0.00     0.053 C 
HETATM    5  C9  UNL     1      15.619   8.631  14.663  1.00  0.00     0.116 C 
HETATM    6  C10 UNL     1      15.538   9.520  13.441  1.00  0.00     0.209 C 
HETATM    7  C11 UNL     1      16.625  10.570  13.436  1.00  0.00     0.043 C 
HETATM    8  C12 UNL     1      17.795   9.626  13.617  1.00  0.00     0.036 C 
HETATM    9  C13 UNL     1      17.492   8.756  12.386  1.00  0.00     0.239 C 
HETATM   10  N2  UNL     1      16.033   8.698  12.317  1.00  0.00    -0.069 N 
ATOM     11  H21 UNL     1      15.657   8.979  11.411  1.00  0.00     0.277 HD
ATOM     12  H22 UNL     1      15.664   7.746  12.316  1.00  0.00     0.277 HD
ENDROOT
BRANCH   1  13
HETATM   13  C5  UNL     1      16.444   5.663  15.885  1.00  0.00     0.024 C 
HETATM   14  C4  UNL     1      14.987   5.171  15.885  1.00  0.00     0.010 C 
HETATM   15  C3  UNL     1      14.518   5.108  17.315  1.00  0.00     0.001 C 
HETATM   16  C2  UNL     1      15.159   3.912  17.976  1.00  0.00     0.000 C 
HETATM   17  C1  UNL     1      15.541   2.839  17.021  1.00  0.00     0.000 C 
HETATM   18  C15 UNL     1      16.621   3.143  16.058  1.00  0.00     0.001 C 
HETATM   19  C14 UNL     1      17.277   4.478  16.172  1.00  0.00     0.010 C 
ENDBRANCH   1  13
TORSDOF 1
ENDMDL
MODEL 2
REMARK VINA RESULT: -6.756206074      2.107      3.290
REMARK  1 active torsions:
REMARK  status: ('A' for Active; 'I' for Inactive)
REMARK    1  A    between atoms: C5_5  and  C6_6 
ROOT
HETATM    1  C6  UNL     1      17.525   5.920  14.846  1.00  0.00     0.064 C 
HETATM    2  N1  UNL     1      17.830   6.268  13.592  1.00  0.00    -0.381 N 
HETATM    3  C7  UNL     1      17.222   7.053  12.626  1.00  0.00     0.091 C 
HETATM    4  C8  UNL     1      17.111   5.797  11.782  1.00  0.00     0.053 C 
HETATM    5  C9  UNL     1      18.357   5.424  12.576  1.00  0.00     0.116 C 
HETATM    6  C10 UNL     1      19.576   6.101  11.989  1.00  0.00     0.209 C 
HETATM    7  C11 UNL     1      19.199   7.235  11.062  1.00  0.00     0.043 C 
HETATM    8  C12 UNL     1      18.308   7.979  12.034  1.00  0.00     0.036 C 
HETATM    9  C13 UNL     1      19.369   8.139  13.136  1.00  0.00     0.239 C 
HETATM   10  N2  UNL     1      20.151   6.906  13.086  1.00  0.00    -0.069 N 
ATOM     11  H21 UNL     1      21.155   7.065  12.990  1.00  0.00     0.277 HD
ATOM     12  H22 UNL     1      20.188   6.411  13.977  1.00  0.00     0.277 HD
ENDROOT
BRANCH   1  13
HETATM   13  C5  UNL     1      16.433   5.000  15.241  1.00  0.00     0.024 C 
HETATM   14  C4  UNL     1      16.908   4.256  16.501  1.00  0.00     0.010 C 
HETATM   15  C3  UNL     1      16.257   2.898  16.511  1.00  0.00     0.001 C 
HETATM   16  C2  UNL     1      14.804   3.067  16.885  1.00  0.00     0.000 C 
HETATM   17  C1  UNL     1      14.535   4.291  17.686  1.00  0.00     0.000 C 
HETATM   18  C15 UNL     1      14.726   5.595  17.015  1.00  0.00     0.001 C 
HETATM   19  C14 UNL     1      15.111   5.567  15.574  1.00  0.00     0.010 C 
ENDBRANCH   1  13
TORSDOF 1
ENDMDL
MODEL 3
REMARK VINA RESULT: -6.755992862      0.962      1.115
REMARK  1 active torsions:
REMARK  status: ('A' for Active; 'I' for Inactive)
REMARK    1  A    between atoms: C5_5  and  C6_6 
ROOT
HETATM    1  C6  UNL     1      17.029   5.608  14.492  1.00  0.00     0.064 C 
HETATM    2  N1  UNL     1      17.308   6.870  14.152  1.00  0.00    -0.381 N 
HETATM    3  C7  UNL     1      18.353   7.739  14.418  1.00  0.00     0.091 C 
HETATM    4  C8  UNL     1      17.342   8.620  15.126  1.00  0.00     0.053 C 
HETATM    5  C9  UNL     1      16.404   7.966  14.120  1.00  0.00     0.116 C 
HETATM    6  C10 UNL     1      16.528   8.639  12.771  1.00  0.00     0.209 C 
HETATM    7  C11 UNL     1      17.783   9.477  12.673  1.00  0.00     0.043 C 
HETATM    8  C12 UNL     1      18.760   8.394  13.078  1.00  0.00     0.036 C 
HETATM    9  C13 UNL     1      18.356   7.394  11.983  1.00  0.00     0.239 C 
HETATM   10  N2  UNL     1      16.914   7.570  11.827  1.00  0.00    -0.069 N 
ATOM     11  H21 UNL     1      16.629   7.755  10.864  1.00  0.00     0.277 HD
ATOM     12  H22 UNL     1      16.383   6.707  11.950  1.00  0.00     0.277 HD
ENDROOT
BRANCH   1  13
HETATM   13  C5  UNL     1      16.646   5.149  15.848  1.00  0.00     0.024 C 
HETATM   14  C4  UNL     1      15.121   4.944  15.837  1.00  0.00     0.010 C 
HETATM   15  C3  UNL     1      14.608   5.204  17.229  1.00  0.00     0.001 C 
HETATM   16  C2  UNL     1      14.985   4.032  18.103  1.00  0.00     0.000 C 
HETATM   17  C1  UNL     1      15.178   2.765  17.348  1.00  0.00     0.000 C 
HETATM   18  C15 UNL     1      16.324   2.702  16.416  1.00  0.00     0.001 C 
HETATM   19  C14 UNL     1      17.223   3.891  16.362  1.00  0.00     0.010 C 
ENDBRANCH   1  13
TORSDOF 1
ENDMDL
MODEL 4
REMARK VINA RESULT: -6.679032118      0.975      1.960
REMARK  1 active torsions:
REMARK  status: ('A' for Active; 'I' for Inactive)
REMARK    1  A    between atoms: C5_5  and  C6_6 
ROOT
HETATM    1  C6  UNL     1      17.343   6.306  15.140  1.00  0.00     0.064 C 
HETATM    2  N1  UNL     1      16.996   7.551  14.802  1.00  0.00    -0.381 N 
HETATM    3  C7  UNL     1      16.436   8.621  15.479  1.00  0.00     0.091 C 
HETATM    4  C8  UNL     1      15.257   8.508  14.531  1.00  0.00     0.053 C 
HETATM    5  C9  UNL     1      16.340   7.961  13.610  1.00  0.00     0.116 C 
HETATM    6  C10 UNL     1      17.135   9.096  13.001  1.00  0.00     0.209 C 
HETATM    7  C11 UNL     1      16.921  10.395  13.745  1.00  0.00     0.043 C 
HETATM    8  C12 UNL     1      17.265   9.877  15.126  1.00  0.00     0.036 C 
HETATM    9  C13 UNL     1      18.667   9.364  14.761  1.00  0.00     0.239 C 
HETATM   10  N2  UNL     1      18.538   8.856  13.397  1.00  0.00    -0.069 N 
ATOM     11  H21 UNL     1      19.218   9.255  12.748  1.00  0.00     0.277 HD
ATOM     12  H22 UNL     1      18.828   7.882  13.296  1.00  0.00     0.277 HD
ENDROOT
BRANCH   1  13
HETATM   13  C5  UNL     1      16.400   5.205  15.448  1.00  0.00     0.024 C 
HETATM   14  C4  UNL     1      17.084   4.311  16.497  1.00  0.00     0.010 C 
HETATM   15  C3  UNL     1      16.580   2.905  16.307  1.00  0.00     0.001 C 
HETATM   16  C2  UNL     1      15.167   2.828  16.834  1.00  0.00     0.000 C 
HETATM   17  C1  UNL     1      14.864   3.848  17.873  1.00  0.00     0.000 C 
HETATM   18  C15 UNL     1      14.847   5.264  17.448  1.00  0.00     0.001 C 
HETATM   19  C14 UNL     1      15.072   5.540  15.999  1.00  0.00     0.010 C 
ENDBRANCH   1  13
TORSDOF 1
ENDMDL
MODEL 5
REMARK VINA RESULT: -6.327751784      1.026      1.298
REMARK  1 active torsions:
REMARK  status: ('A' for Active; 'I' for Inactive)
REMARK    1  A    between atoms: C5_5  and  C6_6 
ROOT
HETATM    1  C6  UNL     1      15.346   6.874  15.169  1.00  0.00     0.064 C 
HETATM    2  N1  UNL     1      16.080   7.902  14.732  1.00  0.00    -0.381 N 
HETATM    3  C7  UNL     1      17.170   8.029  13.889  1.00  0.00     0.091 C 
HETATM    4  C8  UNL     1      17.938   8.561  15.083  1.00  0.00     0.053 C 
HETATM    5  C9  UNL     1      16.542   9.007  15.497  1.00  0.00     0.116 C 
HETATM    6  C10 UNL     1      16.159  10.277  14.770  1.00  0.00     0.209 C 
HETATM    7  C11 UNL     1      17.054  10.534  13.578  1.00  0.00     0.043 C 
HETATM    8  C12 UNL     1      16.867   9.187  12.912  1.00  0.00     0.036 C 
HETATM    9  C13 UNL     1      15.334   9.265  12.818  1.00  0.00     0.239 C 
HETATM   10  N2  UNL     1      14.917   9.956  14.036  1.00  0.00    -0.069 N 
ATOM     11  H21 UNL     1      14.327  10.770  13.860  1.00  0.00     0.277 HD
ATOM     12  H22 UNL     1      14.242   9.430  14.591  1.00  0.00     0.277 HD
ENDROOT
BRANCH   1  13
HETATM   13  C5  UNL     1      15.803   5.839  16.126  1.00  0.00     0.024 C 
HETATM   14  C4  UNL     1      14.596   4.928  16.410  1.00  0.00     0.010 C 
HETATM   15  C3  UNL     1      14.742   4.386  17.807  1.00  0.00     0.001 C 
HETATM   16  C2  UNL     1      15.822   3.331  17.801  1.00  0.00     0.000 C 
HETATM   17  C1  UNL     1      16.018   2.690  16.474  1.00  0.00     0.000 C 
HETATM   18  C15 UNL     1      16.552   3.536  15.385  1.00  0.00     0.001 C 
HETATM   19  C14 UNL     1      16.908   4.943  15.731  1.00  0.00     0.010 C 
ENDBRANCH   1  13
TORSDOF 1
ENDMDL
