MODEL 1
REMARK VINA RESULT: -6.870531821      0.000      0.000
REMARK  3 active torsions:
REMARK  status: ('A' for Active; 'I' for Inactive)
REMARK    1  A    between atoms: O1_1  and  C1_3 
REMARK    2  A    between atoms: C1_3  and  C2_4 
REMARK    3  A    between atoms: C2_4  and  N1_5 
ROOT
HETATM    1  N1  UNL     1      17.020   4.897  13.590  1.00  0.00    -0.377 N 
HETATM    2  C3  UNL     1      17.361   6.146  13.024  1.00  0.00     0.089 C 
HETATM    3  C4  UNL     1      18.824   6.364  13.403  1.00  0.00     0.030 C 
HETATM    4  C5  UNL     1      18.754   6.704  14.895  1.00  0.00    -0.010 C 
HETATM    5  C6  UNL     1      18.388   8.171  14.939  1.00  0.00     0.005 C 
HETATM    6  C7  UNL     1      17.400   8.495  13.811  1.00  0.00     0.007 C 
HETATM    7  C8  UNL     1      16.531   7.302  13.504  1.00  0.00     0.009 C 
HETATM    8  C9  UNL     1      15.646   7.073  14.661  1.00  0.00     0.013 C 
HETATM    9  C10 UNL     1      15.476   5.681  15.133  1.00  0.00     0.014 C 
HETATM   10  C11 UNL     1      15.169   5.487  16.576  1.00  0.00     0.007 C 
HETATM   11  C12 UNL     1      15.715   4.108  16.876  1.00  0.00     0.003 C 
HETATM   12  C13 UNL     1      16.650   3.746  15.750  1.00  0.00     0.031 C 
HETATM   13  C14 UNL     1      16.848   5.006  14.976  1.00  0.00     0.036 C 
HETATM   14  C15 UNL     1      17.881   5.826  15.673  1.00  0.00     0.036 C 
ENDROOT
BRANCH   1  15
HETATM   15  C2  UNL     1      16.356   3.947  12.840  1.00  0.00     0.085 C 
BRANCH  15  16
HETATM   16  C1  UNL     1      16.314   4.190  11.348  1.00  0.00     0.208 C 
BRANCH  16  17
HETATM   17  O1  UNL     1      15.107   4.001  10.742  1.00  0.00    -0.396 OA
ATOM     18  H1  UNL     1      14.980   3.164  10.312  1.00  0.00     0.209 HD
ENDBRANCH  16  17
ENDBRANCH  15  16
ENDBRANCH   1  15
TORSDOF 3
ENDMDL
MODEL 2
REMARK VINA RESULT: -6.360270016      1.004      1.036
REMARK  3 active torsions:
REMARK  status: ('A' for Active; 'I' for Inactive)
REMARK    1  A    between atoms: O1_1  and  C1_3 
REMARK    2  A    between atoms: C1_3  and  C2_4 
REMARK    3  A    between atoms: C2_4  and  N1_5 
ROOT
HETATM    1  N1  UNL     1      16.956   4.963  13.574  1.00  0.00    -0.377 N 
HETATM    2  C3  UNL     1      17.386   6.174  12.986  1.00  0.00     0.089 C 
HETATM    3  C4  UNL     1      18.853   6.308  13.389  1.00  0.00     0.030 C 
HETATM    4  C5  UNL     1      18.777   6.688  14.870  1.00  0.00    -0.010 C 
HETATM    5  C6  UNL     1      18.505   8.176  14.873  1.00  0.00     0.005 C 
HETATM    6  C7  UNL     1      17.560   8.534  13.718  1.00  0.00     0.007 C 
HETATM    7  C8  UNL     1      16.623   7.391  13.422  1.00  0.00     0.009 C 
HETATM    8  C9  UNL     1      15.705   7.247  14.567  1.00  0.00     0.013 C 
HETATM    9  C10 UNL     1      15.437   5.881  15.068  1.00  0.00     0.014 C 
HETATM   10  C11 UNL     1      15.093   5.742  16.509  1.00  0.00     0.007 C 
HETATM   11  C12 UNL     1      15.544   4.340  16.852  1.00  0.00     0.003 C 
HETATM   12  C13 UNL     1      16.475   3.892  15.753  1.00  0.00     0.031 C 
HETATM   13  C14 UNL     1      16.767   5.117  14.953  1.00  0.00     0.036 C 
HETATM   14  C15 UNL     1      17.836   5.887  15.652  1.00  0.00     0.036 C 
ENDROOT
BRANCH   1  15
HETATM   15  C2  UNL     1      16.247   4.039  12.834  1.00  0.00     0.085 C 
BRANCH  15  16
HETATM   16  C1  UNL     1      17.028   2.840  12.346  1.00  0.00     0.208 C 
BRANCH  16  17
HETATM   17  O1  UNL     1      16.994   1.734  13.144  1.00  0.00    -0.396 OA
ATOM     18  H1  UNL     1      17.759   1.586  13.688  1.00  0.00     0.209 HD
ENDBRANCH  16  17
ENDBRANCH  15  16
ENDBRANCH   1  15
TORSDOF 3
ENDMDL
MODEL 3
REMARK VINA RESULT: -5.848143575      1.884      3.274
REMARK  3 active torsions:
REMARK  status: ('A' for Active; 'I' for Inactive)
REMARK    1  A    between atoms: O1_1  and  C1_3 
REMARK    2  A    between atoms: C1_3  and  C2_4 
REMARK    3  A    between atoms: C2_4  and  N1_5 
ROOT
HETATM    1  N1  UNL     1      16.322   7.424  14.250  1.00  0.00    -0.377 N 
HETATM    2  C3  UNL     1      17.440   7.845  13.496  1.00  0.00     0.089 C 
HETATM    3  C4  UNL     1      17.191   7.308  12.088  1.00  0.00     0.030 C 
HETATM    4  C5  UNL     1      17.456   5.806  12.232  1.00  0.00    -0.010 C 
HETATM    5  C6  UNL     1      18.961   5.672  12.158  1.00  0.00     0.005 C 
HETATM    6  C7  UNL     1      19.625   6.859  12.868  1.00  0.00     0.007 C 
HETATM    7  C8  UNL     1      18.764   7.350  14.004  1.00  0.00     0.009 C 
HETATM    8  C9  UNL     1      18.748   6.308  15.047  1.00  0.00     0.013 C 
HETATM    9  C10 UNL     1      17.447   5.976  15.670  1.00  0.00     0.014 C 
HETATM   10  C11 UNL     1      17.278   4.592  16.188  1.00  0.00     0.007 C 
HETATM   11  C12 UNL     1      15.785   4.360  16.107  1.00  0.00     0.003 C 
HETATM   12  C13 UNL     1      15.221   5.416  15.191  1.00  0.00     0.031 C 
HETATM   13  C14 UNL     1      16.403   6.057  14.545  1.00  0.00     0.036 C 
HETATM   14  C15 UNL     1      16.839   5.195  13.409  1.00  0.00     0.036 C 
ENDROOT
BRANCH   1  15
HETATM   15  C2  UNL     1      15.655   8.313  15.068  1.00  0.00     0.085 C 
BRANCH  15  16
HETATM   16  C1  UNL     1      14.838   9.376  14.367  1.00  0.00     0.208 C 
BRANCH  16  17
HETATM   17  O1  UNL     1      14.081   8.954  13.314  1.00  0.00    -0.396 OA
ATOM     18  H1  UNL     1      13.169   9.222  13.319  1.00  0.00     0.209 HD
ENDBRANCH  16  17
ENDBRANCH  15  16
ENDBRANCH   1  15
TORSDOF 3
ENDMDL
MODEL 4
REMARK VINA RESULT: -5.822765547      2.376      4.389
REMARK  3 active torsions:
REMARK  status: ('A' for Active; 'I' for Inactive)
REMARK    1  A    between atoms: O1_1  and  C1_3 
REMARK    2  A    between atoms: C1_3  and  C2_4 
REMARK    3  A    between atoms: C2_4  and  N1_5 
ROOT
HETATM    1  N1  UNL     1      17.432   6.935  14.828  1.00  0.00    -0.377 N 
HETATM    2  C3  UNL     1      16.551   7.857  15.435  1.00  0.00     0.089 C 
HETATM    3  C4  UNL     1      15.338   7.912  14.508  1.00  0.00     0.030 C 
HETATM    4  C5  UNL     1      15.851   8.711  13.306  1.00  0.00    -0.010 C 
HETATM    5  C6  UNL     1      15.752  10.158  13.735  1.00  0.00     0.005 C 
HETATM    6  C7  UNL     1      16.108  10.285  15.222  1.00  0.00     0.007 C 
HETATM    7  C8  UNL     1      17.115   9.237  15.621  1.00  0.00     0.009 C 
HETATM    8  C9  UNL     1      18.389   9.550  14.949  1.00  0.00     0.013 C 
HETATM    9  C10 UNL     1      19.128   8.432  14.320  1.00  0.00     0.014 C 
HETATM   10  C11 UNL     1      19.989   8.763  13.152  1.00  0.00     0.007 C 
HETATM   11  C12 UNL     1      20.031   7.473  12.362  1.00  0.00     0.003 C 
HETATM   12  C13 UNL     1      18.899   6.611  12.861  1.00  0.00     0.031 C 
HETATM   13  C14 UNL     1      18.063   7.503  13.715  1.00  0.00     0.036 C 
HETATM   14  C15 UNL     1      17.168   8.298  12.824  1.00  0.00     0.036 C 
ENDROOT
BRANCH   1  15
HETATM   15  C2  UNL     1      18.022   5.935  15.576  1.00  0.00     0.085 C 
BRANCH  15  16
HETATM   16  C1  UNL     1      17.132   4.770  15.945  1.00  0.00     0.208 C 
BRANCH  16  17
HETATM   17  O1  UNL     1      17.753   3.693  16.507  1.00  0.00    -0.396 OA
ATOM     18  H1  UNL     1      17.365   2.845  16.326  1.00  0.00     0.209 HD
ENDBRANCH  16  17
ENDBRANCH  15  16
ENDBRANCH   1  15
TORSDOF 3
ENDMDL
MODEL 5
REMARK VINA RESULT: -5.703230190      0.795      3.543
REMARK  3 active torsions:
REMARK  status: ('A' for Active; 'I' for Inactive)
REMARK    1  A    between atoms: O1_1  and  C1_3 
REMARK    2  A    between atoms: C1_3  and  C2_4 
REMARK    3  A    between atoms: C2_4  and  N1_5 
ROOT
HETATM    1  N1  UNL     1      16.527   5.263  13.482  1.00  0.00    -0.377 N 
HETATM    2  C3  UNL     1      16.253   4.315  14.493  1.00  0.00     0.089 C 
HETATM    3  C4  UNL     1      14.826   4.619  14.943  1.00  0.00     0.030 C 
HETATM    4  C5  UNL     1      14.980   5.909  15.754  1.00  0.00    -0.010 C 
HETATM    5  C6  UNL     1      15.451   5.453  17.117  1.00  0.00     0.005 C 
HETATM    6  C7  UNL     1      16.413   4.268  16.965  1.00  0.00     0.007 C 
HETATM    7  C8  UNL     1      17.182   4.368  15.672  1.00  0.00     0.009 C 
HETATM    8  C9  UNL     1      18.094   5.522  15.772  1.00  0.00     0.013 C 
HETATM    9  C10 UNL     1      18.183   6.432  14.608  1.00  0.00     0.014 C 
HETATM   10  C11 UNL     1      18.532   7.852  14.883  1.00  0.00     0.007 C 
HETATM   11  C12 UNL     1      17.902   8.605  13.732  1.00  0.00     0.003 C 
HETATM   12  C13 UNL     1      16.900   7.679  13.092  1.00  0.00     0.031 C 
HETATM   13  C14 UNL     1      16.761   6.529  14.032  1.00  0.00     0.036 C 
HETATM   14  C15 UNL     1      15.818   6.925  15.118  1.00  0.00     0.036 C 
ENDROOT
BRANCH   1  15
HETATM   15  C2  UNL     1      17.091   4.866  12.286  1.00  0.00     0.085 C 
BRANCH  15  16
HETATM   16  C1  UNL     1      16.361   3.773  11.538  1.00  0.00     0.208 C 
BRANCH  16  17
HETATM   17  O1  UNL     1      15.153   4.113  11.004  1.00  0.00    -0.396 OA
ATOM     18  H1  UNL     1      15.142   4.886  10.450  1.00  0.00     0.209 HD
ENDBRANCH  16  17
ENDBRANCH  15  16
ENDBRANCH   1  15
TORSDOF 3
ENDMDL
