MODEL 1
REMARK VINA RESULT: -6.106819868      0.000      0.000
REMARK  4 active torsions:
REMARK  status: ('A' for Active; 'I' for Inactive)
REMARK    1  A    between atoms: O1_1  and  C1_3 
REMARK    2  A    between atoms: C1_3  and  C2_4 
REMARK    3  A    between atoms: N1_9  and  C7_10 
REMARK    4  A    between atoms: C7_10  and  C8_12 
ROOT
HETATM    1  C2  UNL     1      17.755   7.106  14.934  1.00  0.00     0.108 C 
HETATM    2  C3  UNL     1      17.309   8.530  14.945  1.00  0.00     0.027 C 
HETATM    3  C4  UNL     1      17.405   9.132  13.562  1.00  0.00     0.004 C 
HETATM    4  C5  UNL     1      16.525   8.339  12.647  1.00  0.00     0.020 C 
HETATM    5  C6  UNL     1      17.119   6.918  12.570  1.00  0.00     0.124 C 
HETATM    6  N1  UNL     1      17.124   6.316  13.860  1.00  0.00    -0.368 N 
ENDROOT
BRANCH   6   7
HETATM    7  C7  UNL     1      16.595   5.071  14.162  1.00  0.00     0.080 C 
HETATM    8  S1  UNL     1      16.735   3.944  12.900  1.00  0.00    -0.065 SA
BRANCH   7   9
HETATM    9  C8  UNL     1      15.948   4.538  15.339  1.00  0.00     0.047 C 
HETATM   10  C9  UNL     1      14.968   5.424  16.062  1.00  0.00     0.011 C 
HETATM   11  C10 UNL     1      14.522   4.432  17.161  1.00  0.00     0.001 C 
HETATM   12  C11 UNL     1      15.736   3.556  17.430  1.00  0.00     0.001 C 
HETATM   13  C12 UNL     1      16.824   4.063  16.463  1.00  0.00     0.011 C 
ENDBRANCH   7   9
ENDBRANCH   6   7
BRANCH   1  14
HETATM   14  C1  UNL     1      19.274   7.073  14.736  1.00  0.00     0.189 C 
BRANCH  14  15
HETATM   15  O1  UNL     1      19.826   5.987  15.386  1.00  0.00    -0.399 OA
ATOM     16  H1  UNL     1      19.458   5.176  15.056  1.00  0.00     0.209 HD
ENDBRANCH  14  15
ENDBRANCH   1  14
TORSDOF 4
ENDMDL
MODEL 2
REMARK VINA RESULT: -5.867924551      1.602      2.051
REMARK  4 active torsions:
REMARK  status: ('A' for Active; 'I' for Inactive)
REMARK    1  A    between atoms: O1_1  and  C1_3 
REMARK    2  A    between atoms: C1_3  and  C2_4 
REMARK    3  A    between atoms: N1_9  and  C7_10 
REMARK    4  A    between atoms: C7_10  and  C8_12 
ROOT
HETATM    1  C2  UNL     1      17.961   6.909  13.679  1.00  0.00     0.108 C 
HETATM    2  C3  UNL     1      17.982   7.430  12.281  1.00  0.00     0.027 C 
HETATM    3  C4  UNL     1      18.180   6.304  11.292  1.00  0.00     0.004 C 
HETATM    4  C5  UNL     1      17.045   5.341  11.450  1.00  0.00     0.020 C 
HETATM    5  C6  UNL     1      17.161   4.736  12.864  1.00  0.00     0.124 C 
HETATM    6  N1  UNL     1      17.053   5.758  13.848  1.00  0.00    -0.368 N 
ENDROOT
BRANCH   6   7
HETATM    7  C7  UNL     1      16.182   5.741  14.925  1.00  0.00     0.080 C 
HETATM    8  S1  UNL     1      15.609   7.278  15.365  1.00  0.00    -0.065 SA
BRANCH   7   9
HETATM    9  C8  UNL     1      15.659   4.676  15.749  1.00  0.00     0.047 C 
HETATM   10  C9  UNL     1      14.626   5.033  16.786  1.00  0.00     0.011 C 
HETATM   11  C10 UNL     1      14.350   3.616  17.340  1.00  0.00     0.001 C 
HETATM   12  C11 UNL     1      15.666   2.866  17.200  1.00  0.00     0.001 C 
HETATM   13  C12 UNL     1      16.640   3.871  16.554  1.00  0.00     0.011 C 
ENDBRANCH   7   9
ENDBRANCH   6   7
BRANCH   1  14
HETATM   14  C1  UNL     1      19.379   6.471  14.057  1.00  0.00     0.189 C 
BRANCH  14  15
HETATM   15  O1  UNL     1      19.421   6.032  15.365  1.00  0.00    -0.399 OA
ATOM     16  H1  UNL     1      19.740   6.719  15.939  1.00  0.00     0.209 HD
ENDBRANCH  14  15
ENDBRANCH   1  14
TORSDOF 4
ENDMDL
MODEL 3
REMARK VINA RESULT: -5.803025736      1.130      1.310
REMARK  4 active torsions:
REMARK  status: ('A' for Active; 'I' for Inactive)
REMARK    1  A    between atoms: O1_1  and  C1_3 
REMARK    2  A    between atoms: C1_3  and  C2_4 
REMARK    3  A    between atoms: N1_9  and  C7_10 
REMARK    4  A    between atoms: C7_10  and  C8_12 
ROOT
HETATM    1  C2  UNL     1      18.867   6.495  13.874  1.00  0.00     0.108 C 
HETATM    2  C3  UNL     1      19.204   7.810  14.494  1.00  0.00     0.027 C 
HETATM    3  C4  UNL     1      18.601   8.946  13.700  1.00  0.00     0.004 C 
HETATM    4  C5  UNL     1      17.115   8.766  13.685  1.00  0.00     0.020 C 
HETATM    5  C6  UNL     1      16.827   7.464  12.912  1.00  0.00     0.124 C 
HETATM    6  N1  UNL     1      17.430   6.356  13.571  1.00  0.00    -0.368 N 
ENDROOT
BRANCH   6   7
HETATM    7  C7  UNL     1      16.777   5.188  13.932  1.00  0.00     0.080 C 
HETATM    8  S1  UNL     1      16.750   4.014  12.706  1.00  0.00    -0.065 SA
BRANCH   7   9
HETATM    9  C8  UNL     1      16.113   4.767  15.144  1.00  0.00     0.047 C 
HETATM   10  C9  UNL     1      15.182   5.747  15.810  1.00  0.00     0.011 C 
HETATM   11  C10 UNL     1      14.697   4.853  16.976  1.00  0.00     0.001 C 
HETATM   12  C11 UNL     1      15.870   3.939  17.298  1.00  0.00     0.001 C 
HETATM   13  C12 UNL     1      16.974   4.327  16.295  1.00  0.00     0.011 C 
ENDBRANCH   7   9
ENDBRANCH   6   7
BRANCH   1  14
HETATM   14  C1  UNL     1      19.657   6.355  12.569  1.00  0.00     0.189 C 
BRANCH  14  15
HETATM   15  O1  UNL     1      20.525   5.284  12.639  1.00  0.00    -0.399 OA
ATOM     16  H1  UNL     1      21.186   5.430  13.306  1.00  0.00     0.209 HD
ENDBRANCH  14  15
ENDBRANCH   1  14
TORSDOF 4
ENDMDL
MODEL 4
REMARK VINA RESULT: -5.757755896      0.452      1.072
REMARK  4 active torsions:
REMARK  status: ('A' for Active; 'I' for Inactive)
REMARK    1  A    between atoms: O1_1  and  C1_3 
REMARK    2  A    between atoms: C1_3  and  C2_4 
REMARK    3  A    between atoms: N1_9  and  C7_10 
REMARK    4  A    between atoms: C7_10  and  C8_12 
ROOT
HETATM    1  C2  UNL     1      17.791   7.195  14.911  1.00  0.00     0.108 C 
HETATM    2  C3  UNL     1      17.286   8.588  14.732  1.00  0.00     0.027 C 
HETATM    3  C4  UNL     1      17.370   9.005  13.281  1.00  0.00     0.004 C 
HETATM    4  C5  UNL     1      16.532   8.062  12.476  1.00  0.00     0.020 C 
HETATM    5  C6  UNL     1      17.185   6.670  12.591  1.00  0.00     0.124 C 
HETATM    6  N1  UNL     1      17.202   6.244  13.949  1.00  0.00    -0.368 N 
ENDROOT
BRANCH   6   7
HETATM    7  C7  UNL     1      16.723   5.029  14.411  1.00  0.00     0.080 C 
HETATM    8  S1  UNL     1      16.639   3.827  13.216  1.00  0.00    -0.065 SA
BRANCH   7   9
HETATM    9  C8  UNL     1      16.279   4.579  15.711  1.00  0.00     0.047 C 
HETATM   10  C9  UNL     1      16.239   3.094  15.962  1.00  0.00     0.011 C 
HETATM   11  C10 UNL     1      15.780   3.119  17.439  1.00  0.00     0.001 C 
HETATM   12  C11 UNL     1      14.907   4.358  17.569  1.00  0.00     0.001 C 
HETATM   13  C12 UNL     1      14.915   5.008  16.171  1.00  0.00     0.011 C 
ENDBRANCH   7   9
ENDBRANCH   6   7
BRANCH   1  14
HETATM   14  C1  UNL     1      19.311   7.200  14.725  1.00  0.00     0.189 C 
BRANCH  14  15
HETATM   15  O1  UNL     1      19.875   6.076  15.294  1.00  0.00    -0.399 OA
ATOM     16  H1  UNL     1      19.366   5.302  15.082  1.00  0.00     0.209 HD
ENDBRANCH  14  15
ENDBRANCH   1  14
TORSDOF 4
ENDMDL
MODEL 5
REMARK VINA RESULT: -5.604496479      1.744      2.283
REMARK  4 active torsions:
REMARK  status: ('A' for Active; 'I' for Inactive)
REMARK    1  A    between atoms: O1_1  and  C1_3 
REMARK    2  A    between atoms: C1_3  and  C2_4 
REMARK    3  A    between atoms: N1_9  and  C7_10 
REMARK    4  A    between atoms: C7_10  and  C8_12 
ROOT
HETATM    1  C2  UNL     1      16.439   7.446  14.191  1.00  0.00     0.108 C 
HETATM    2  C3  UNL     1      17.321   8.305  13.348  1.00  0.00     0.027 C 
HETATM    3  C4  UNL     1      18.627   8.587  14.055  1.00  0.00     0.004 C 
HETATM    4  C5  UNL     1      19.305   7.280  14.319  1.00  0.00     0.020 C 
HETATM    5  C6  UNL     1      18.411   6.499  15.303  1.00  0.00     0.124 C 
HETATM    6  N1  UNL     1      17.133   6.259  14.723  1.00  0.00    -0.368 N 
ENDROOT
BRANCH   6   7
HETATM    7  C7  UNL     1      16.516   5.022  14.634  1.00  0.00     0.080 C 
HETATM    8  S1  UNL     1      16.634   4.308  13.098  1.00  0.00    -0.065 SA
BRANCH   7   9
HETATM    9  C8  UNL     1      15.791   4.215  15.588  1.00  0.00     0.047 C 
HETATM   10  C9  UNL     1      14.793   4.908  16.478  1.00  0.00     0.011 C 
HETATM   11  C10 UNL     1      14.263   3.672  17.243  1.00  0.00     0.001 C 
HETATM   12  C11 UNL     1      15.439   2.710  17.319  1.00  0.00     0.001 C 
HETATM   13  C12 UNL     1      16.591   3.419  16.581  1.00  0.00     0.011 C 
ENDBRANCH   7   9
ENDBRANCH   6   7
BRANCH   1  14
HETATM   14  C1  UNL     1      15.926   8.282  15.368  1.00  0.00     0.189 C 
BRANCH  14  15
HETATM   15  O1  UNL     1      15.130   9.317  14.921  1.00  0.00    -0.399 OA
ATOM     16  H1  UNL     1      14.713   9.758  15.652  1.00  0.00     0.209 HD
ENDBRANCH  14  15
ENDBRANCH   1  14
TORSDOF 4
ENDMDL
