MODEL 1
REMARK VINA RESULT: -6.919281228      0.000      0.000
REMARK  2 active torsions:
REMARK  status: ('A' for Active; 'I' for Inactive)
REMARK       I    between atoms: C1_2  and  N1_3 
REMARK    1  A    between atoms: C1_2  and  C12_15 
REMARK    2  A    between atoms: N1_3  and  C2_5 
ROOT
HETATM    1  C2  UNL     1      16.302   5.748  14.289  1.00  0.00     0.034 C 
HETATM    2  C3  UNL     1      15.123   6.679  14.122  1.00  0.00     0.035 C 
HETATM    3  C4  UNL     1      15.549   8.060  13.662  1.00  0.00    -0.012 C 
HETATM    4  C5  UNL     1      16.574   8.580  14.612  1.00  0.00     0.009 C 
HETATM    5  C6  UNL     1      17.802   7.713  14.576  1.00  0.00    -0.012 C 
HETATM    6  C7  UNL     1      18.376   7.521  13.211  1.00  0.00     0.009 C 
HETATM    7  C8  UNL     1      17.288   6.869  12.354  1.00  0.00    -0.012 C 
HETATM    8  C9  UNL     1      16.160   7.863  12.279  1.00  0.00     0.009 C 
HETATM    9  C10 UNL     1      16.876   5.531  12.907  1.00  0.00     0.035 C 
HETATM   10  C11 UNL     1      17.413   6.358  15.114  1.00  0.00     0.035 C 
ENDROOT
BRANCH   1  11
HETATM   11  N1  UNL     1      15.819   4.532  14.892  1.00  0.00    -0.350 N 
HETATM   12  C1  UNL     1      16.563   3.464  15.370  1.00  0.00     0.247 C 
HETATM   13  O1  UNL     1      17.809   3.464  15.317  1.00  0.00    -0.271 OA
ATOM     14  H1  UNL     1      14.806   4.448  14.978  1.00  0.00     0.163 HD
BRANCH  12  15
HETATM   15  C12 UNL     1      15.890   2.288  15.958  1.00  0.00     0.213 C 
HETATM   16  C13 UNL     1      14.550   2.622  16.553  1.00  0.00     0.043 C 
HETATM   17  C14 UNL     1      14.323   1.472  17.502  1.00  0.00     0.029 C 
HETATM   18  C15 UNL     1      15.681   0.803  17.514  1.00  0.00     0.168 C 
HETATM   19  O2  UNL     1      16.580   1.746  17.024  1.00  0.00    -0.376 OA
ENDBRANCH  12  15
ENDBRANCH   1  11
TORSDOF 2
ENDMDL
MODEL 2
REMARK VINA RESULT: -6.874299900      0.755      1.357
REMARK  2 active torsions:
REMARK  status: ('A' for Active; 'I' for Inactive)
REMARK       I    between atoms: C1_2  and  N1_3 
REMARK    1  A    between atoms: C1_2  and  C12_15 
REMARK    2  A    between atoms: N1_3  and  C2_5 
ROOT
HETATM    1  C2  UNL     1      16.908   5.725  14.605  1.00  0.00     0.034 C 
HETATM    2  C3  UNL     1      16.540   5.900  13.150  1.00  0.00     0.035 C 
HETATM    3  C4  UNL     1      17.012   7.231  12.598  1.00  0.00    -0.012 C 
HETATM    4  C5  UNL     1      16.482   8.319  13.469  1.00  0.00     0.009 C 
HETATM    5  C6  UNL     1      17.051   8.197  14.855  1.00  0.00    -0.012 C 
HETATM    6  C7  UNL     1      18.543   8.143  14.903  1.00  0.00     0.009 C 
HETATM    7  C8  UNL     1      18.974   6.924  14.084  1.00  0.00    -0.012 C 
HETATM    8  C9  UNL     1      18.535   7.189  12.670  1.00  0.00     0.009 C 
HETATM    9  C10 UNL     1      18.418   5.648  14.658  1.00  0.00     0.035 C 
HETATM   10  C11 UNL     1      16.519   6.917  15.451  1.00  0.00     0.035 C 
ENDROOT
BRANCH   1  11
HETATM   11  N1  UNL     1      16.269   4.525  15.079  1.00  0.00    -0.350 N 
HETATM   12  C1  UNL     1      16.868   3.393  15.612  1.00  0.00     0.247 C 
HETATM   13  O1  UNL     1      18.106   3.313  15.740  1.00  0.00    -0.271 OA
ATOM     14  H1  UNL     1      15.251   4.505  15.013  1.00  0.00     0.163 HD
BRANCH  12  15
HETATM   15  C12 UNL     1      16.046   2.246  16.046  1.00  0.00     0.213 C 
HETATM   16  C13 UNL     1      14.671   2.654  16.497  1.00  0.00     0.043 C 
HETATM   17  C14 UNL     1      14.248   1.478  17.342  1.00  0.00     0.029 C 
HETATM   18  C15 UNL     1      15.543   0.706  17.475  1.00  0.00     0.168 C 
HETATM   19  O2  UNL     1      16.560   1.599  17.152  1.00  0.00    -0.376 OA
ENDBRANCH  12  15
ENDBRANCH   1  11
TORSDOF 2
ENDMDL
MODEL 3
REMARK VINA RESULT: -6.844356706      0.255      1.641
REMARK  2 active torsions:
REMARK  status: ('A' for Active; 'I' for Inactive)
REMARK       I    between atoms: C1_2  and  N1_3 
REMARK    1  A    between atoms: C1_2  and  C12_15 
REMARK    2  A    between atoms: N1_3  and  C2_5 
ROOT
HETATM    1  C2  UNL     1      16.216   5.860  14.309  1.00  0.00     0.034 C 
HETATM    2  C3  UNL     1      17.033   6.586  15.353  1.00  0.00     0.035 C 
HETATM    3  C4  UNL     1      17.720   7.813  14.786  1.00  0.00    -0.012 C 
HETATM    4  C5  UNL     1      18.523   7.401  13.601  1.00  0.00     0.009 C 
HETATM    5  C6  UNL     1      17.621   6.872  12.521  1.00  0.00    -0.012 C 
HETATM    6  C7  UNL     1      16.520   7.803  12.132  1.00  0.00     0.009 C 
HETATM    7  C8  UNL     1      15.686   8.062  13.389  1.00  0.00    -0.012 C 
HETATM    8  C9  UNL     1      16.598   8.756  14.364  1.00  0.00     0.009 C 
HETATM    9  C10 UNL     1      15.086   6.790  13.927  1.00  0.00     0.035 C 
HETATM   10  C11 UNL     1      16.995   5.600  13.038  1.00  0.00     0.035 C 
ENDROOT
BRANCH   1  11
HETATM   11  N1  UNL     1      15.754   4.627  14.893  1.00  0.00    -0.350 N 
HETATM   12  C1  UNL     1      16.516   3.563  15.351  1.00  0.00     0.247 C 
HETATM   13  O1  UNL     1      17.762   3.585  15.296  1.00  0.00    -0.271 OA
ATOM     14  H1  UNL     1      14.743   4.525  14.979  1.00  0.00     0.163 HD
BRANCH  12  15
HETATM   15  C12 UNL     1      15.864   2.367  15.922  1.00  0.00     0.213 C 
HETATM   16  C13 UNL     1      14.551   2.682  16.586  1.00  0.00     0.043 C 
HETATM   17  C14 UNL     1      14.360   1.496  17.499  1.00  0.00     0.029 C 
HETATM   18  C15 UNL     1      15.715   0.824  17.426  1.00  0.00     0.168 C 
HETATM   19  O2  UNL     1      16.596   1.782  16.935  1.00  0.00    -0.376 OA
ENDBRANCH  12  15
ENDBRANCH   1  11
TORSDOF 2
ENDMDL
MODEL 4
REMARK VINA RESULT: -6.769968259      0.803      1.057
REMARK  2 active torsions:
REMARK  status: ('A' for Active; 'I' for Inactive)
REMARK       I    between atoms: C1_2  and  N1_3 
REMARK    1  A    between atoms: C1_2  and  C12_15 
REMARK    2  A    between atoms: N1_3  and  C2_5 
ROOT
HETATM    1  C2  UNL     1      16.875   5.784  14.655  1.00  0.00     0.034 C 
HETATM    2  C3  UNL     1      16.353   7.016  15.358  1.00  0.00     0.035 C 
HETATM    3  C4  UNL     1      17.052   8.278  14.891  1.00  0.00    -0.012 C 
HETATM    4  C5  UNL     1      18.522   8.092  15.055  1.00  0.00     0.009 C 
HETATM    5  C6  UNL     1      19.006   6.976  14.171  1.00  0.00    -0.012 C 
HETATM    6  C7  UNL     1      18.636   7.130  12.733  1.00  0.00     0.009 C 
HETATM    7  C8  UNL     1      17.108   7.185  12.665  1.00  0.00    -0.012 C 
HETATM    8  C9  UNL     1      16.698   8.423  13.415  1.00  0.00     0.009 C 
HETATM    9  C10 UNL     1      16.485   5.923  13.200  1.00  0.00     0.035 C 
HETATM   10  C11 UNL     1      18.385   5.697  14.678  1.00  0.00     0.035 C 
ENDROOT
BRANCH   1  11
HETATM   11  N1  UNL     1      16.282   4.634  15.286  1.00  0.00    -0.350 N 
HETATM   12  C1  UNL     1      16.638   3.301  15.138  1.00  0.00     0.247 C 
HETATM   13  O1  UNL     1      17.575   2.959  14.390  1.00  0.00    -0.271 OA
ATOM     14  H1  UNL     1      15.505   4.822  15.920  1.00  0.00     0.163 HD
BRANCH  12  15
HETATM   15  C12 UNL     1      15.908   2.246  15.870  1.00  0.00     0.213 C 
HETATM   16  C13 UNL     1      14.663   2.759  16.539  1.00  0.00     0.043 C 
HETATM   17  C14 UNL     1      14.409   1.709  17.592  1.00  0.00     0.029 C 
HETATM   18  C15 UNL     1      15.692   0.907  17.551  1.00  0.00     0.168 C 
HETATM   19  O2  UNL     1      16.632   1.714  16.918  1.00  0.00    -0.376 OA
ENDBRANCH  12  15
ENDBRANCH   1  11
TORSDOF 2
ENDMDL
MODEL 5
REMARK VINA RESULT: -6.751643154      0.829      2.136
REMARK  2 active torsions:
REMARK  status: ('A' for Active; 'I' for Inactive)
REMARK       I    between atoms: C1_2  and  N1_3 
REMARK    1  A    between atoms: C1_2  and  C12_15 
REMARK    2  A    between atoms: N1_3  and  C2_5 
ROOT
HETATM    1  C2  UNL     1      16.879   5.780  14.744  1.00  0.00     0.034 C 
HETATM    2  C3  UNL     1      18.379   5.661  14.887  1.00  0.00     0.035 C 
HETATM    3  C4  UNL     1      19.111   6.755  14.135  1.00  0.00    -0.012 C 
HETATM    4  C5  UNL     1      18.657   6.739  12.715  1.00  0.00     0.009 C 
HETATM    5  C6  UNL     1      17.192   7.064  12.635  1.00  0.00    -0.012 C 
HETATM    6  C7  UNL     1      16.809   8.339  13.312  1.00  0.00     0.009 C 
HETATM    7  C8  UNL     1      17.204   8.202  14.784  1.00  0.00    -0.012 C 
HETATM    8  C9  UNL     1      18.702   8.062  14.807  1.00  0.00     0.009 C 
HETATM    9  C10 UNL     1      16.482   7.059  15.446  1.00  0.00     0.035 C 
HETATM   10  C11 UNL     1      16.442   5.938  13.304  1.00  0.00     0.035 C 
ENDROOT
BRANCH   1  11
HETATM   11  N1  UNL     1      16.288   4.608  15.337  1.00  0.00    -0.350 N 
HETATM   12  C1  UNL     1      16.638   3.281  15.136  1.00  0.00     0.247 C 
HETATM   13  O1  UNL     1      17.567   2.965  14.367  1.00  0.00    -0.271 OA
ATOM     14  H1  UNL     1      15.517   4.775  15.985  1.00  0.00     0.163 HD
BRANCH  12  15
HETATM   15  C12 UNL     1      15.911   2.202  15.834  1.00  0.00     0.213 C 
HETATM   16  C13 UNL     1      14.647   2.683  16.492  1.00  0.00     0.043 C 
HETATM   17  C14 UNL     1      14.390   1.609  17.519  1.00  0.00     0.029 C 
HETATM   18  C15 UNL     1      15.686   0.826  17.484  1.00  0.00     0.168 C 
HETATM   19  O2  UNL     1      16.624   1.660  16.884  1.00  0.00    -0.376 OA
ENDBRANCH  12  15
ENDBRANCH   1  11
TORSDOF 2
ENDMDL
