MODEL 1
REMARK VINA RESULT: -5.795112640      0.000      0.000
REMARK  2 active torsions:
REMARK  status: ('A' for Active; 'I' for Inactive)
REMARK    1  A    between atoms: N2_11  and  C8_12 
REMARK    2  A    between atoms: C8_12  and  C9_13 
ROOT
HETATM    1  C1  UNL     1      15.620   2.275  16.296  1.00  0.00     0.032 C 
HETATM    2  C2  UNL     1      17.115   2.154  16.437  1.00  0.00     0.235 C 
HETATM    3  N1  UNL     1      17.698   3.203  15.577  1.00  0.00    -0.038 N 
ATOM      4  H11 UNL     1      18.656   3.027  15.274  1.00  0.00     0.280 HD
ATOM      5  H12 UNL     1      17.905   4.082  16.050  1.00  0.00     0.280 HD
HETATM    6  C3  UNL     1      16.746   3.296  14.531  1.00  0.00     0.320 C 
HETATM    7  C4  UNL     1      15.441   3.447  15.351  1.00  0.00     0.074 C 
HETATM    8  C5  UNL     1      16.519   2.013  13.767  1.00  0.00     0.074 C 
HETATM    9  C6  UNL     1      17.357   2.196  12.558  1.00  0.00     0.035 C 
HETATM   10  C7  UNL     1      17.207   3.679  12.294  1.00  0.00     0.276 C 
HETATM   11  N2  UNL     1      16.880   4.334  13.573  1.00  0.00     0.126 N 
ENDROOT
BRANCH  11  12
HETATM   12  C8  UNL     1      17.960   5.251  13.807  1.00  0.00     0.285 C 
BRANCH  12  13
HETATM   13  C9  UNL     1      17.585   6.656  14.151  1.00  0.00    -0.009 C 
HETATM   14  C10 UNL     1      17.146   7.280  12.800  1.00  0.00     0.041 C 
HETATM   15  C11 UNL     1      16.723   8.705  12.973  1.00  0.00     0.273 C 
HETATM   16  N3  UNL     1      17.122   9.143  14.289  1.00  0.00     0.088 N 
HETATM   17  C12 UNL     1      16.319   8.424  15.240  1.00  0.00     0.273 C 
HETATM   18  C14 UNL     1      18.524   8.927  14.446  1.00  0.00     0.273 C 
HETATM   19  C13 UNL     1      16.526   6.901  15.140  1.00  0.00     0.041 C 
HETATM   20  C15 UNL     1      18.811   7.474  14.538  1.00  0.00     0.041 C 
ENDBRANCH  12  13
ENDBRANCH  11  12
TORSDOF 2
ENDMDL
MODEL 2
REMARK VINA RESULT: -5.707920070      0.194      1.385
REMARK  2 active torsions:
REMARK  status: ('A' for Active; 'I' for Inactive)
REMARK    1  A    between atoms: N2_11  and  C8_12 
REMARK    2  A    between atoms: C8_12  and  C9_13 
ROOT
HETATM    1  C1  UNL     1      15.483   2.280  16.310  1.00  0.00     0.032 C 
HETATM    2  C2  UNL     1      16.960   2.036  16.487  1.00  0.00     0.235 C 
HETATM    3  N1  UNL     1      17.648   3.088  15.713  1.00  0.00    -0.038 N 
ATOM      4  H11 UNL     1      18.600   2.859  15.427  1.00  0.00     0.280 HD
ATOM      5  H12 UNL     1      17.904   3.918  16.248  1.00  0.00     0.280 HD
HETATM    6  C3  UNL     1      16.742   3.318  14.648  1.00  0.00     0.320 C 
HETATM    7  C4  UNL     1      15.425   3.519  15.438  1.00  0.00     0.074 C 
HETATM    8  C5  UNL     1      16.445   2.107  13.797  1.00  0.00     0.074 C 
HETATM    9  C6  UNL     1      17.334   2.300  12.627  1.00  0.00     0.035 C 
HETATM   10  C7  UNL     1      17.304   3.803  12.455  1.00  0.00     0.276 C 
HETATM   11  N2  UNL     1      16.985   4.401  13.763  1.00  0.00     0.126 N 
ENDROOT
BRANCH  11  12
HETATM   12  C8  UNL     1      18.122   5.216  14.086  1.00  0.00     0.285 C 
BRANCH  12  13
HETATM   13  C9  UNL     1      17.902   6.694  14.112  1.00  0.00    -0.009 C 
HETATM   14  C10 UNL     1      16.700   6.889  15.073  1.00  0.00     0.041 C 
HETATM   15  C11 UNL     1      16.352   8.336  15.219  1.00  0.00     0.273 C 
HETATM   16  N3  UNL     1      17.057   9.080  14.202  1.00  0.00     0.088 N 
HETATM   17  C12 UNL     1      18.456   9.025  14.526  1.00  0.00     0.273 C 
HETATM   18  C14 UNL     1      16.744   8.530  12.923  1.00  0.00     0.273 C 
HETATM   19  C13 UNL     1      18.990   7.580  14.545  1.00  0.00     0.041 C 
HETATM   20  C15 UNL     1      17.371   7.194  12.774  1.00  0.00     0.041 C 
ENDBRANCH  12  13
ENDBRANCH  11  12
TORSDOF 2
ENDMDL
MODEL 3
REMARK VINA RESULT: -5.699697197      0.178      1.433
REMARK  2 active torsions:
REMARK  status: ('A' for Active; 'I' for Inactive)
REMARK    1  A    between atoms: N2_11  and  C8_12 
REMARK    2  A    between atoms: C8_12  and  C9_13 
ROOT
HETATM    1  C1  UNL     1      15.624   2.267  16.305  1.00  0.00     0.032 C 
HETATM    2  C2  UNL     1      17.120   2.149  16.439  1.00  0.00     0.235 C 
HETATM    3  N1  UNL     1      17.696   3.193  15.568  1.00  0.00    -0.038 N 
ATOM      4  H11 UNL     1      18.652   3.017  15.260  1.00  0.00     0.280 HD
ATOM      5  H12 UNL     1      17.904   4.076  16.033  1.00  0.00     0.280 HD
HETATM    6  C3  UNL     1      16.738   3.276  14.527  1.00  0.00     0.320 C 
HETATM    7  C4  UNL     1      15.437   3.431  15.353  1.00  0.00     0.074 C 
HETATM    8  C5  UNL     1      16.509   1.987  13.774  1.00  0.00     0.074 C 
HETATM    9  C6  UNL     1      17.340   2.163  12.558  1.00  0.00     0.035 C 
HETATM   10  C7  UNL     1      17.185   3.644  12.284  1.00  0.00     0.276 C 
HETATM   11  N2  UNL     1      16.865   4.307  13.560  1.00  0.00     0.126 N 
ENDROOT
BRANCH  11  12
HETATM   12  C8  UNL     1      17.944   5.228  13.781  1.00  0.00     0.285 C 
BRANCH  12  13
HETATM   13  C9  UNL     1      17.592   6.680  13.809  1.00  0.00    -0.009 C 
HETATM   14  C10 UNL     1      18.813   7.361  14.483  1.00  0.00     0.041 C 
HETATM   15  C11 UNL     1      18.622   8.841  14.582  1.00  0.00     0.273 C 
HETATM   16  N3  UNL     1      17.244   9.146  14.279  1.00  0.00     0.088 N 
HETATM   17  C12 UNL     1      17.041   8.861  12.885  1.00  0.00     0.273 C 
HETATM   18  C14 UNL     1      16.400   8.389  15.146  1.00  0.00     0.273 C 
HETATM   19  C13 UNL     1      17.307   7.381  12.550  1.00  0.00     0.041 C 
HETATM   20  C15 UNL     1      16.452   6.951  14.785  1.00  0.00     0.041 C 
ENDBRANCH  12  13
ENDBRANCH  11  12
TORSDOF 2
ENDMDL
MODEL 4
REMARK VINA RESULT: -5.539348802      1.610      5.580
REMARK  2 active torsions:
REMARK  status: ('A' for Active; 'I' for Inactive)
REMARK    1  A    between atoms: N2_11  and  C8_12 
REMARK    2  A    between atoms: C8_12  and  C9_13 
ROOT
HETATM    1  C1  UNL     1      15.637   7.987  10.591  1.00  0.00     0.032 C 
HETATM    2  C2  UNL     1      17.141   7.936  10.511  1.00  0.00     0.235 C 
HETATM    3  N1  UNL     1      17.603   7.341  11.780  1.00  0.00    -0.038 N 
ATOM      4  H11 UNL     1      18.563   7.570  12.039  1.00  0.00     0.280 HD
ATOM      5  H12 UNL     1      17.747   6.331  11.755  1.00  0.00     0.280 HD
HETATM    6  C3  UNL     1      16.615   7.781  12.695  1.00  0.00     0.320 C 
HETATM    7  C4  UNL     1      15.328   7.367  11.940  1.00  0.00     0.074 C 
HETATM    8  C5  UNL     1      16.476   9.281  12.803  1.00  0.00     0.074 C 
HETATM    9  C6  UNL     1      17.256   9.598  14.023  1.00  0.00     0.035 C 
HETATM   10  C7  UNL     1      16.969   8.397  14.899  1.00  0.00     0.276 C 
HETATM   11  N2  UNL     1      16.627   7.267  14.018  1.00  0.00     0.126 N 
ENDROOT
BRANCH  11  12
HETATM   12  C8  UNL     1      17.630   6.274  14.282  1.00  0.00     0.285 C 
BRANCH  12  13
HETATM   13  C9  UNL     1      17.159   4.860  14.402  1.00  0.00    -0.009 C 
HETATM   14  C10 UNL     1      15.759   4.975  15.061  1.00  0.00     0.041 C 
HETATM   15  C11 UNL     1      15.135   3.628  15.245  1.00  0.00     0.273 C 
HETATM   16  N3  UNL     1      16.144   2.622  15.016  1.00  0.00     0.088 N 
HETATM   17  C12 UNL     1      16.476   2.662  13.619  1.00  0.00     0.273 C 
HETATM   18  C14 UNL     1      17.255   2.874  15.876  1.00  0.00     0.273 C 
HETATM   19  C13 UNL     1      17.037   4.033  13.195  1.00  0.00     0.041 C 
HETATM   20  C15 UNL     1      17.975   4.094  15.436  1.00  0.00     0.041 C 
ENDBRANCH  12  13
ENDBRANCH  11  12
TORSDOF 2
ENDMDL
MODEL 5
REMARK VINA RESULT: -5.538487625      1.389      5.680
REMARK  2 active torsions:
REMARK  status: ('A' for Active; 'I' for Inactive)
REMARK    1  A    between atoms: N2_11  and  C8_12 
REMARK    2  A    between atoms: C8_12  and  C9_13 
ROOT
HETATM    1  C1  UNL     1      16.079   9.503  12.035  1.00  0.00     0.032 C 
HETATM    2  C2  UNL     1      17.202   8.894  11.236  1.00  0.00     0.235 C 
HETATM    3  N1  UNL     1      17.797   7.846  12.088  1.00  0.00    -0.038 N 
ATOM      4  H11 UNL     1      18.762   7.605  11.863  1.00  0.00     0.280 HD
ATOM      5  H12 UNL     1      17.424   6.908  11.941  1.00  0.00     0.280 HD
HETATM    6  C3  UNL     1      17.599   8.371  13.390  1.00  0.00     0.320 C 
HETATM    7  C4  UNL     1      16.089   8.712  13.329  1.00  0.00     0.074 C 
HETATM    8  C5  UNL     1      18.240   9.717  13.633  1.00  0.00     0.074 C 
HETATM    9  C6  UNL     1      19.494   9.361  14.340  1.00  0.00     0.035 C 
HETATM   10  C7  UNL     1      19.058   8.179  15.178  1.00  0.00     0.276 C 
HETATM   11  N2  UNL     1      17.901   7.556  14.511  1.00  0.00     0.126 N 
ENDROOT
BRANCH  11  12
HETATM   12  C8  UNL     1      18.326   6.219  14.203  1.00  0.00     0.285 C 
BRANCH  12  13
HETATM   13  C9  UNL     1      17.333   5.128  14.442  1.00  0.00    -0.009 C 
HETATM   14  C10 UNL     1      18.059   4.150  15.404  1.00  0.00     0.041 C 
HETATM   15  C11 UNL     1      17.185   2.988  15.756  1.00  0.00     0.273 C 
HETATM   16  N3  UNL     1      16.046   2.988  14.870  1.00  0.00     0.088 N 
HETATM   17  C12 UNL     1      15.248   4.136  15.203  1.00  0.00     0.273 C 
HETATM   18  C14 UNL     1      16.507   2.985  13.520  1.00  0.00     0.273 C 
HETATM   19  C13 UNL     1      16.022   5.455  15.016  1.00  0.00     0.041 C 
HETATM   20  C15 UNL     1      17.119   4.294  13.185  1.00  0.00     0.041 C 
ENDBRANCH  12  13
ENDBRANCH  11  12
TORSDOF 2
ENDMDL
