MODEL 1
REMARK VINA RESULT: -6.398038839      0.000      0.000
REMARK  2 active torsions:
REMARK  status: ('A' for Active; 'I' for Inactive)
REMARK       I    between atoms: C1_2  and  N1_3 
REMARK       I    between atoms: C1_2  and  N2_13 
REMARK    1  A    between atoms: N1_3  and  C2_5 
REMARK    2  A    between atoms: C2_5  and  C3_6 
ROOT
HETATM    1  O1  UNL     1      19.313   4.120  14.149  1.00  0.00    -0.247 OA
HETATM    2  C1  UNL     1      18.575   4.540  13.226  1.00  0.00     0.318 C 
HETATM    3  N1  UNL     1      17.235   4.874  13.527  1.00  0.00    -0.343 N 
ATOM      4  H1  UNL     1      16.609   5.218  12.799  1.00  0.00     0.164 HD
HETATM    5  N2  UNL     1      19.068   4.682  11.903  1.00  0.00    -0.330 N 
HETATM    6  C10 UNL     1      18.262   5.156  10.826  1.00  0.00     0.153 C 
HETATM    7  C11 UNL     1      18.780   4.829   9.467  1.00  0.00     0.187 C 
HETATM    8  O2  UNL     1      20.138   4.750   9.354  1.00  0.00    -0.388 OA
HETATM    9  C12 UNL     1      20.855   5.197  10.429  1.00  0.00     0.187 C 
HETATM   10  C13 UNL     1      20.446   4.331  11.628  1.00  0.00     0.153 C 
ENDROOT
BRANCH   3  11
HETATM   11  C2  UNL     1      16.767   4.717  14.886  1.00  0.00     0.129 C 
BRANCH  11  12
HETATM   12  C3  UNL     1      15.686   3.665  14.991  1.00  0.00     0.003 C 
HETATM   13  C4  UNL     1      16.356   2.319  14.993  1.00  0.00     0.006 C 
HETATM   14  C5  UNL     1      17.068   2.038  16.288  1.00  0.00     0.000 C 
HETATM   15  C6  UNL     1      16.195   1.164  17.155  1.00  0.00     0.000 C 
HETATM   16  C7  UNL     1      15.228   2.075  17.880  1.00  0.00     0.000 C 
HETATM   17  C8  UNL     1      14.302   2.728  16.862  1.00  0.00     0.000 C 
HETATM   18  C9  UNL     1      14.896   3.943  16.235  1.00  0.00     0.006 C 
ENDBRANCH  11  12
ENDBRANCH   3  11
TORSDOF 2
ENDMDL
MODEL 2
REMARK VINA RESULT: -6.208385049      1.434      2.335
REMARK  2 active torsions:
REMARK  status: ('A' for Active; 'I' for Inactive)
REMARK       I    between atoms: C1_2  and  N1_3 
REMARK       I    between atoms: C1_2  and  N2_13 
REMARK    1  A    between atoms: N1_3  and  C2_5 
REMARK    2  A    between atoms: C2_5  and  C3_6 
ROOT
HETATM    1  O1  UNL     1      16.474   3.744  11.498  1.00  0.00    -0.247 OA
HETATM    2  C1  UNL     1      17.654   3.721  11.920  1.00  0.00     0.318 C 
HETATM    3  N1  UNL     1      17.943   2.983  13.090  1.00  0.00    -0.343 N 
ATOM      4  H1  UNL     1      18.893   2.946  13.459  1.00  0.00     0.164 HD
HETATM    5  N2  UNL     1      18.686   4.420  11.240  1.00  0.00    -0.330 N 
HETATM    6  C10 UNL     1      20.040   4.420  11.687  1.00  0.00     0.153 C 
HETATM    7  C11 UNL     1      20.878   5.526  11.141  1.00  0.00     0.187 C 
HETATM    8  O2  UNL     1      20.545   5.961   9.892  1.00  0.00    -0.388 OA
HETATM    9  C12 UNL     1      19.644   5.189   9.210  1.00  0.00     0.187 C 
HETATM   10  C13 UNL     1      18.356   5.167  10.044  1.00  0.00     0.153 C 
ENDROOT
BRANCH   3  11
HETATM   11  C2  UNL     1      16.867   2.283  13.755  1.00  0.00     0.129 C 
BRANCH  11  12
HETATM   12  C3  UNL     1      17.039   2.287  15.257  1.00  0.00     0.003 C 
HETATM   13  C4  UNL     1      16.413   3.547  15.788  1.00  0.00     0.006 C 
HETATM   14  C5  UNL     1      14.912   3.504  15.735  1.00  0.00     0.000 C 
HETATM   15  C6  UNL     1      14.376   3.136  17.097  1.00  0.00     0.000 C 
HETATM   16  C7  UNL     1      14.420   1.628  17.204  1.00  0.00     0.000 C 
HETATM   17  C8  UNL     1      15.872   1.168  17.176  1.00  0.00     0.000 C 
HETATM   18  C9  UNL     1      16.410   1.034  15.792  1.00  0.00     0.006 C 
ENDBRANCH  11  12
ENDBRANCH   3  11
TORSDOF 2
ENDMDL
MODEL 3
REMARK VINA RESULT: -6.086074941      3.227      6.610
REMARK  2 active torsions:
REMARK  status: ('A' for Active; 'I' for Inactive)
REMARK       I    between atoms: C1_2  and  N1_3 
REMARK       I    between atoms: C1_2  and  N2_13 
REMARK    1  A    between atoms: N1_3  and  C2_5 
REMARK    2  A    between atoms: C2_5  and  C3_6 
ROOT
HETATM    1  O1  UNL     1      17.344   4.016  14.251  1.00  0.00    -0.247 OA
HETATM    2  C1  UNL     1      16.323   4.071  14.977  1.00  0.00     0.318 C 
HETATM    3  N1  UNL     1      15.440   5.164  14.828  1.00  0.00    -0.343 N 
ATOM      4  H1  UNL     1      14.602   5.238  15.403  1.00  0.00     0.164 HD
HETATM    5  N2  UNL     1      16.051   3.056  15.933  1.00  0.00    -0.330 N 
HETATM    6  C10 UNL     1      14.902   3.081  16.777  1.00  0.00     0.153 C 
HETATM    7  C11 UNL     1      14.997   2.215  17.987  1.00  0.00     0.187 C 
HETATM    8  O2  UNL     1      15.751   1.086  17.850  1.00  0.00    -0.388 OA
HETATM    9  C12 UNL     1      16.133   0.773  16.574  1.00  0.00     0.187 C 
HETATM   10  C13 UNL     1      16.975   1.949  16.061  1.00  0.00     0.153 C 
ENDROOT
BRANCH   3  11
HETATM   11  C2  UNL     1      15.748   6.178  13.844  1.00  0.00     0.129 C 
BRANCH  11  12
HETATM   12  C3  UNL     1      15.893   7.545  14.473  1.00  0.00     0.003 C 
HETATM   13  C4  UNL     1      17.022   7.478  15.463  1.00  0.00     0.006 C 
HETATM   14  C5  UNL     1      18.365   7.397  14.793  1.00  0.00     0.000 C 
HETATM   15  C6  UNL     1      18.993   8.769  14.770  1.00  0.00     0.000 C 
HETATM   16  C7  UNL     1      18.433   9.499  13.570  1.00  0.00     0.000 C 
HETATM   17  C8  UNL     1      16.938   9.716  13.771  1.00  0.00     0.000 C 
HETATM   18  C9  UNL     1      16.123   8.534  13.369  1.00  0.00     0.006 C 
ENDBRANCH  11  12
ENDBRANCH   3  11
TORSDOF 2
ENDMDL
MODEL 4
REMARK VINA RESULT: -6.025870494      1.449      1.583
REMARK  2 active torsions:
REMARK  status: ('A' for Active; 'I' for Inactive)
REMARK       I    between atoms: C1_2  and  N1_3 
REMARK       I    between atoms: C1_2  and  N2_13 
REMARK    1  A    between atoms: N1_3  and  C2_5 
REMARK    2  A    between atoms: C2_5  and  C3_6 
ROOT
HETATM    1  O1  UNL     1      18.763   6.409  14.512  1.00  0.00    -0.247 OA
HETATM    2  C1  UNL     1      18.961   5.352  13.867  1.00  0.00     0.318 C 
HETATM    3  N1  UNL     1      18.244   4.190  14.230  1.00  0.00    -0.343 N 
ATOM      4  H1  UNL     1      18.383   3.315  13.726  1.00  0.00     0.164 HD
HETATM    5  N2  UNL     1      19.886   5.316  12.791  1.00  0.00    -0.330 N 
HETATM    6  C10 UNL     1      20.141   4.135  12.033  1.00  0.00     0.153 C 
HETATM    7  C11 UNL     1      21.418   4.149  11.264  1.00  0.00     0.187 C 
HETATM    8  O2  UNL     1      21.834   5.374  10.829  1.00  0.00    -0.388 OA
HETATM    9  C12 UNL     1      20.928   6.392  10.950  1.00  0.00     0.187 C 
HETATM   10  C13 UNL     1      20.605   6.525  12.444  1.00  0.00     0.153 C 
ENDROOT
BRANCH   3  11
HETATM   11  C2  UNL     1      17.309   4.264  15.331  1.00  0.00     0.129 C 
BRANCH  11  12
HETATM   12  C3  UNL     1      16.105   3.378  15.106  1.00  0.00     0.003 C 
HETATM   13  C4  UNL     1      16.562   1.949  15.205  1.00  0.00     0.006 C 
HETATM   14  C5  UNL     1      16.874   1.547  16.619  1.00  0.00     0.000 C 
HETATM   15  C6  UNL     1      15.699   0.795  17.193  1.00  0.00     0.000 C 
HETATM   16  C7  UNL     1      14.712   1.824  17.700  1.00  0.00     0.000 C 
HETATM   17  C8  UNL     1      14.175   2.622  16.519  1.00  0.00     0.000 C 
HETATM   18  C9  UNL     1      15.069   3.748  16.126  1.00  0.00     0.006 C 
ENDBRANCH  11  12
ENDBRANCH   3  11
TORSDOF 2
ENDMDL
MODEL 5
REMARK VINA RESULT: -5.936194941      1.602      1.792
REMARK  2 active torsions:
REMARK  status: ('A' for Active; 'I' for Inactive)
REMARK       I    between atoms: C1_2  and  N1_3 
REMARK       I    between atoms: C1_2  and  N2_13 
REMARK    1  A    between atoms: N1_3  and  C2_5 
REMARK    2  A    between atoms: C2_5  and  C3_6 
ROOT
HETATM    1  O1  UNL     1      18.030   3.249  12.468  1.00  0.00    -0.247 OA
HETATM    2  C1  UNL     1      17.437   4.351  12.387  1.00  0.00     0.318 C 
HETATM    3  N1  UNL     1      16.848   4.893  13.552  1.00  0.00    -0.343 N 
ATOM      4  H1  UNL     1      16.359   5.786  13.519  1.00  0.00     0.164 HD
HETATM    5  N2  UNL     1      17.354   5.047  11.152  1.00  0.00    -0.330 N 
HETATM    6  C10 UNL     1      16.688   6.301  11.018  1.00  0.00     0.153 C 
HETATM    7  C11 UNL     1      16.315   6.664   9.621  1.00  0.00     0.187 C 
HETATM    8  O2  UNL     1      17.146   6.195   8.645  1.00  0.00    -0.388 OA
HETATM    9  C12 UNL     1      18.326   5.652   9.074  1.00  0.00     0.187 C 
HETATM   10  C13 UNL     1      17.967   4.464   9.977  1.00  0.00     0.153 C 
ENDROOT
BRANCH   3  11
HETATM   11  C2  UNL     1      16.954   4.156  14.792  1.00  0.00     0.129 C 
BRANCH  11  12
HETATM   12  C3  UNL     1      15.780   3.225  14.994  1.00  0.00     0.003 C 
HETATM   13  C4  UNL     1      16.325   1.844  15.228  1.00  0.00     0.006 C 
HETATM   14  C5  UNL     1      16.958   1.702  16.584  1.00  0.00     0.000 C 
HETATM   15  C6  UNL     1      15.978   1.045  17.524  1.00  0.00     0.000 C 
HETATM   16  C7  UNL     1      15.070   2.131  18.057  1.00  0.00     0.000 C 
HETATM   17  C8  UNL     1      14.246   2.699  16.909  1.00  0.00     0.000 C 
HETATM   18  C9  UNL     1      14.970   3.752  16.142  1.00  0.00     0.006 C 
ENDBRANCH  11  12
ENDBRANCH   3  11
TORSDOF 2
ENDMDL
