MODEL 1
REMARK VINA RESULT: -5.465608628      0.000      0.000
REMARK  2 active torsions:
REMARK  status: ('A' for Active; 'I' for Inactive)
REMARK    1  A    between atoms: N1_2  and  C2_4 
REMARK    2  A    between atoms: C10_12  and  N2_13 
ROOT
HETATM    1  C2  UNL     1      17.212   3.610  12.957  1.00  0.00     0.082 C 
HETATM    2  C3  UNL     1      17.184   4.683  11.943  1.00  0.00     0.032 C 
HETATM    3  C4  UNL     1      16.827   6.043  12.349  1.00  0.00     0.023 C 
HETATM    4  C5  UNL     1      18.067   6.931  12.466  1.00  0.00     0.042 C 
HETATM    5  C6  UNL     1      18.233   7.195  13.925  1.00  0.00     0.223 C 
HETATM    6  C7  UNL     1      19.035   6.208  14.684  1.00  0.00     0.036 C 
HETATM    7  C8  UNL     1      19.074   4.825  14.160  1.00  0.00     0.011 C 
HETATM    8  C9  UNL     1      17.865   3.990  14.267  1.00  0.00     0.030 C 
HETATM    9  C10 UNL     1      16.781   4.479  15.182  1.00  0.00     0.086 C 
HETATM   10  C13 UNL     1      15.699   5.254  14.506  1.00  0.00     0.061 C 
HETATM   11  C14 UNL     1      16.107   6.325  13.571  1.00  0.00     0.229 C 
HETATM   12  N3  UNL     1      16.855   7.306  14.363  1.00  0.00     0.093 N 
HETATM   13  C15 UNL     1      16.414   8.666  14.059  1.00  0.00     0.310 C 
ENDROOT
BRANCH   1  14
HETATM   14  N1  UNL     1      17.751   2.397  12.405  1.00  0.00    -0.421 N 
HETATM   15  C1  UNL     1      17.035   1.208  12.702  1.00  0.00     0.140 C 
ATOM     16  H1  UNL     1      18.596   2.391  11.834  1.00  0.00     0.153 HD
ENDBRANCH   1  14
BRANCH   9  17
HETATM   17  N2  UNL     1      16.165   3.293  15.741  1.00  0.00    -0.416 N 
HETATM   18  C11 UNL     1      14.883   3.387  16.261  1.00  0.00     0.143 C 
HETATM   19  C12 UNL     1      17.083   2.389  16.348  1.00  0.00     0.143 C 
ENDBRANCH   9  17
TORSDOF 2
ENDMDL
MODEL 2
REMARK VINA RESULT: -5.149921139      1.415      3.480
REMARK  2 active torsions:
REMARK  status: ('A' for Active; 'I' for Inactive)
REMARK    1  A    between atoms: N1_2  and  C2_4 
REMARK    2  A    between atoms: C10_12  and  N2_13 
ROOT
HETATM    1  C2  UNL     1      17.172   3.260  14.902  1.00  0.00     0.082 C 
HETATM    2  C3  UNL     1      18.213   4.153  15.449  1.00  0.00     0.032 C 
HETATM    3  C4  UNL     1      19.022   4.957  14.532  1.00  0.00     0.023 C 
HETATM    4  C5  UNL     1      18.554   6.413  14.509  1.00  0.00     0.042 C 
HETATM    5  C6  UNL     1      17.935   6.612  13.166  1.00  0.00     0.223 C 
HETATM    6  C7  UNL     1      16.494   6.290  13.053  1.00  0.00     0.036 C 
HETATM    7  C8  UNL     1      15.954   5.279  13.987  1.00  0.00     0.011 C 
HETATM    8  C9  UNL     1      16.330   3.866  13.802  1.00  0.00     0.030 C 
HETATM    9  C10 UNL     1      16.971   3.501  12.495  1.00  0.00     0.086 C 
HETATM   10  C13 UNL     1      18.464   3.477  12.520  1.00  0.00     0.061 C 
HETATM   11  C14 UNL     1      19.155   4.634  13.128  1.00  0.00     0.229 C 
HETATM   12  N3  UNL     1      18.795   5.805  12.322  1.00  0.00     0.093 N 
HETATM   13  C15 UNL     1      19.977   6.610  12.016  1.00  0.00     0.310 C 
ENDROOT
BRANCH   1  14
HETATM   14  N1  UNL     1      16.375   2.695  15.957  1.00  0.00    -0.421 N 
HETATM   15  C1  UNL     1      16.619   1.329  16.255  1.00  0.00     0.140 C 
ATOM     16  H1  UNL     1      15.677   3.243  16.461  1.00  0.00     0.153 HD
ENDBRANCH   1  14
BRANCH   9  17
HETATM   17  N2  UNL     1      16.533   2.152  12.199  1.00  0.00    -0.416 N 
HETATM   18  C11 UNL     1      17.245   1.086  12.728  1.00  0.00     0.143 C 
HETATM   19  C12 UNL     1      15.933   2.002  10.916  1.00  0.00     0.143 C 
ENDBRANCH   9  17
TORSDOF 2
ENDMDL
MODEL 3
REMARK VINA RESULT: -5.137562995      1.730      4.351
REMARK  2 active torsions:
REMARK  status: ('A' for Active; 'I' for Inactive)
REMARK    1  A    between atoms: N1_2  and  C2_4 
REMARK    2  A    between atoms: C10_12  and  N2_13 
ROOT
HETATM    1  C2  UNL     1      19.098   5.435  13.339  1.00  0.00     0.082 C 
HETATM    2  C3  UNL     1      19.133   4.827  14.684  1.00  0.00     0.032 C 
HETATM    3  C4  UNL     1      17.873   4.524  15.365  1.00  0.00     0.023 C 
HETATM    4  C5  UNL     1      17.549   3.030  15.293  1.00  0.00     0.042 C 
HETATM    5  C6  UNL     1      16.374   2.921  14.381  1.00  0.00     0.223 C 
HETATM    6  C7  UNL     1      16.674   2.786  12.937  1.00  0.00     0.036 C 
HETATM    7  C8  UNL     1      17.948   3.363  12.456  1.00  0.00     0.011 C 
HETATM    8  C9  UNL     1      18.086   4.829  12.393  1.00  0.00     0.030 C 
HETATM    9  C10 UNL     1      16.826   5.635  12.512  1.00  0.00     0.086 C 
HETATM   10  C13 UNL     1      16.527   6.124  13.891  1.00  0.00     0.061 C 
HETATM   11  C14 UNL     1      16.622   5.148  14.997  1.00  0.00     0.229 C 
HETATM   12  N3  UNL     1      15.621   4.111  14.724  1.00  0.00     0.093 N 
HETATM   13  C15 UNL     1      14.851   3.802  15.928  1.00  0.00     0.310 C 
ENDROOT
BRANCH   1  14
HETATM   14  N1  UNL     1      20.418   5.493  12.769  1.00  0.00    -0.421 N 
HETATM   15  C1  UNL     1      20.495   5.951  11.428  1.00  0.00     0.140 C 
ATOM     16  H1  UNL     1      21.247   5.221  13.297  1.00  0.00     0.153 HD
ENDBRANCH   1  14
BRANCH   9  17
HETATM   17  N2  UNL     1      17.020   6.806  11.682  1.00  0.00    -0.416 N 
HETATM   18  C11 UNL     1      16.619   8.042  12.164  1.00  0.00     0.143 C 
HETATM   19  C12 UNL     1      16.919   6.554  10.284  1.00  0.00     0.143 C 
ENDBRANCH   9  17
TORSDOF 2
ENDMDL
MODEL 4
REMARK VINA RESULT: -4.923114136      1.784      2.846
REMARK  2 active torsions:
REMARK  status: ('A' for Active; 'I' for Inactive)
REMARK    1  A    between atoms: N1_2  and  C2_4 
REMARK    2  A    between atoms: C10_12  and  N2_13 
ROOT
HETATM    1  C2  UNL     1      19.353   4.292  12.232  1.00  0.00     0.082 C 
HETATM    2  C3  UNL     1      19.578   5.738  12.027  1.00  0.00     0.032 C 
HETATM    3  C4  UNL     1      18.431   6.647  12.029  1.00  0.00     0.023 C 
HETATM    4  C5  UNL     1      18.326   7.405  13.354  1.00  0.00     0.042 C 
HETATM    5  C6  UNL     1      17.115   6.858  14.031  1.00  0.00     0.223 C 
HETATM    6  C7  UNL     1      17.321   5.666  14.886  1.00  0.00     0.036 C 
HETATM    7  C8  UNL     1      18.457   4.782  14.545  1.00  0.00     0.011 C 
HETATM    8  C9  UNL     1      18.372   3.951  13.331  1.00  0.00     0.030 C 
HETATM    9  C10 UNL     1      17.020   3.813  12.697  1.00  0.00     0.086 C 
HETATM   10  C13 UNL     1      16.757   4.766  11.577  1.00  0.00     0.061 C 
HETATM   11  C14 UNL     1      17.078   6.191  11.805  1.00  0.00     0.229 C 
HETATM   12  N3  UNL     1      16.223   6.639  12.910  1.00  0.00     0.093 N 
HETATM   13  C15 UNL     1      15.599   7.924  12.597  1.00  0.00     0.310 C 
ENDROOT
BRANCH   1  14
HETATM   14  N1  UNL     1      20.603   3.595  12.373  1.00  0.00    -0.421 N 
HETATM   15  C1  UNL     1      21.598   3.904  11.409  1.00  0.00     0.140 C 
ATOM     16  H1  UNL     1      20.764   2.918  13.119  1.00  0.00     0.153 HD
ENDBRANCH   1  14
BRANCH   9  17
HETATM   17  N2  UNL     1      16.977   2.478  12.133  1.00  0.00    -0.416 N 
HETATM   18  C11 UNL     1      16.218   2.258  10.994  1.00  0.00     0.143 C 
HETATM   19  C12 UNL     1      17.081   1.435  13.096  1.00  0.00     0.143 C 
ENDBRANCH   9  17
TORSDOF 2
ENDMDL
MODEL 5
REMARK VINA RESULT: -4.885156401      1.987      4.227
REMARK  2 active torsions:
REMARK  status: ('A' for Active; 'I' for Inactive)
REMARK    1  A    between atoms: N1_2  and  C2_4 
REMARK    2  A    between atoms: C10_12  and  N2_13 
ROOT
HETATM    1  C2  UNL     1      19.553   4.540  12.788  1.00  0.00     0.082 C 
HETATM    2  C3  UNL     1      19.439   4.624  14.258  1.00  0.00     0.032 C 
HETATM    3  C4  UNL     1      18.203   5.136  14.852  1.00  0.00     0.023 C 
HETATM    4  C5  UNL     1      17.334   4.000  15.393  1.00  0.00     0.042 C 
HETATM    5  C6  UNL     1      16.151   3.937  14.487  1.00  0.00     0.223 C 
HETATM    6  C7  UNL     1      16.286   3.079  13.288  1.00  0.00     0.036 C 
HETATM    7  C8  UNL     1      17.652   2.874  12.757  1.00  0.00     0.011 C 
HETATM    8  C9  UNL     1      18.330   3.996  12.086  1.00  0.00     0.030 C 
HETATM    9  C10 UNL     1      17.478   5.169  11.698  1.00  0.00     0.086 C 
HETATM   10  C13 UNL     1      17.474   6.289  12.687  1.00  0.00     0.061 C 
HETATM   11  C14 UNL     1      17.261   5.943  14.109  1.00  0.00     0.229 C 
HETATM   12  N3  UNL     1      15.927   5.339  14.195  1.00  0.00     0.093 N 
HETATM   13  C15 UNL     1      15.174   5.899  15.316  1.00  0.00     0.310 C 
ENDROOT
BRANCH   1  14
HETATM   14  N1  UNL     1      20.758   3.854  12.407  1.00  0.00    -0.421 N 
HETATM   15  C1  UNL     1      21.400   4.333  11.235  1.00  0.00     0.140 C 
ATOM     16  H1  UNL     1      21.128   3.070  12.945  1.00  0.00     0.153 HD
ENDBRANCH   1  14
BRANCH   9  17
HETATM   17  N2  UNL     1      18.050   5.691  10.473  1.00  0.00    -0.416 N 
HETATM   18  C11 UNL     1      17.787   7.006  10.119  1.00  0.00     0.143 C 
HETATM   19  C12 UNL     1      18.196   4.723   9.439  1.00  0.00     0.143 C 
ENDBRANCH   9  17
TORSDOF 2
ENDMDL
