MODEL 1
REMARK VINA RESULT: -6.597259307      0.000      0.000
REMARK  4 active torsions:
REMARK  status: ('A' for Active; 'I' for Inactive)
REMARK       I    between atoms: N1_2  and  C2_4 
REMARK    1  A    between atoms: C2_4  and  O2_6 
REMARK    2  A    between atoms: O2_6  and  C3_7 
REMARK    3  A    between atoms: C12_17  and  N3_18 
REMARK    4  A    between atoms: N3_18  and  N4_20 
ROOT
HETATM    1  C3  UNL     1      16.124   2.940  14.755  1.00  0.00     0.184 C 
HETATM    2  C4  UNL     1      16.563   3.899  13.720  1.00  0.00     0.272 C 
HETATM    3  N2  UNL     1      16.811   5.235  14.179  1.00  0.00    -0.065 N 
HETATM    4  C5  UNL     1      18.054   5.259  14.938  1.00  0.00     0.237 C 
HETATM    5  C6  UNL     1      19.139   6.030  14.250  1.00  0.00     0.028 C 
HETATM    6  C7  UNL     1      19.380   5.450  12.859  1.00  0.00     0.003 C 
HETATM    7  C8  UNL     1      18.082   5.597  12.102  1.00  0.00     0.028 C 
HETATM    8  C9  UNL     1      16.980   6.071  13.004  1.00  0.00     0.237 C 
HETATM    9  C10 UNL     1      15.724   5.804  14.931  1.00  0.00     0.239 C 
HETATM   10  C11 UNL     1      14.937   4.815  15.723  1.00  0.00     0.057 C 
HETATM   11  C12 UNL     1      15.739   3.579  16.074  1.00  0.00     0.133 C 
ENDROOT
BRANCH  11  12
HETATM   12  N3  UNL     1      14.852   2.639  16.746  1.00  0.00    -0.315 N 
ATOM     13  H3  UNL     1      13.839   2.757  16.752  1.00  0.00     0.182 HD
BRANCH  12  14
HETATM   14  N4  UNL     1      15.411   1.685  17.310  1.00  0.00    -0.253 N 
HETATM   15  N5  UNL     1      15.561   0.499  17.600  1.00  0.00    -0.331 N 
ATOM     16  H52 UNL     1      14.790   0.086  17.076  1.00  0.00     0.178 HD
ATOM     17  H51 UNL     1      16.020  -0.286  18.063  1.00  0.00     0.178 HD
ATOM     18  H4  UNL     1      16.170   2.138  17.818  1.00  0.00     0.207 HD
ENDBRANCH  12  14
ENDBRANCH  11  12
BRANCH   1  19
HETATM   19  O2  UNL     1      17.074   1.904  14.996  1.00  0.00    -0.295 OA
BRANCH  19  20
HETATM   20  C2  UNL     1      17.027   0.685  14.317  1.00  0.00     0.360 C 
HETATM   21  N1  UNL     1      17.309   0.584  12.926  1.00  0.00    -0.341 N 
HETATM   22  C1  UNL     1      17.234  -0.720  12.309  1.00  0.00     0.151 C 
ATOM     23  H1  UNL     1      17.557   1.408  12.380  1.00  0.00     0.164 HD
HETATM   24  O1  UNL     1      16.719  -0.319  15.008  1.00  0.00    -0.239 OA
ENDBRANCH  19  20
ENDBRANCH   1  19
TORSDOF 4
ENDMDL
MODEL 2
REMARK VINA RESULT: -6.283999348      1.609      1.686
REMARK  4 active torsions:
REMARK  status: ('A' for Active; 'I' for Inactive)
REMARK       I    between atoms: N1_2  and  C2_4 
REMARK    1  A    between atoms: C2_4  and  O2_6 
REMARK    2  A    between atoms: O2_6  and  C3_7 
REMARK    3  A    between atoms: C12_17  and  N3_18 
REMARK    4  A    between atoms: N3_18  and  N4_20 
ROOT
HETATM    1  C3  UNL     1      16.049   3.183  14.132  1.00  0.00     0.184 C 
HETATM    2  C4  UNL     1      15.982   4.542  13.554  1.00  0.00     0.272 C 
HETATM    3  N2  UNL     1      16.241   5.616  14.468  1.00  0.00    -0.065 N 
HETATM    4  C5  UNL     1      17.665   5.655  14.773  1.00  0.00     0.237 C 
HETATM    5  C6  UNL     1      18.342   6.874  14.224  1.00  0.00     0.028 C 
HETATM    6  C7  UNL     1      18.121   6.951  12.715  1.00  0.00     0.003 C 
HETATM    7  C8  UNL     1      16.630   7.049  12.505  1.00  0.00     0.028 C 
HETATM    8  C9  UNL     1      15.887   6.852  13.792  1.00  0.00     0.237 C 
HETATM    9  C10 UNL     1      15.447   5.565  15.668  1.00  0.00     0.239 C 
HETATM   10  C11 UNL     1      15.107   4.187  16.124  1.00  0.00     0.057 C 
HETATM   11  C12 UNL     1      16.104   3.152  15.646  1.00  0.00     0.133 C 
ENDROOT
BRANCH  11  12
HETATM   12  N3  UNL     1      15.622   1.838  16.049  1.00  0.00    -0.315 N 
ATOM     13  H3  UNL     1      14.642   1.663  16.272  1.00  0.00     0.182 HD
BRANCH  12  14
HETATM   14  N4  UNL     1      16.482   0.945  16.104  1.00  0.00    -0.253 N 
HETATM   15  N5  UNL     1      17.271   0.130  15.626  1.00  0.00    -0.331 N 
ATOM     16  H52 UNL     1      17.120   0.295  14.631  1.00  0.00     0.178 HD
ATOM     17  H51 UNL     1      17.978  -0.604  15.672  1.00  0.00     0.178 HD
ATOM     18  H4  UNL     1      16.603   0.811  17.108  1.00  0.00     0.207 HD
ENDBRANCH  12  14
ENDBRANCH  11  12
BRANCH   1  19
HETATM   19  O2  UNL     1      17.123   2.405  13.607  1.00  0.00    -0.295 OA
BRANCH  19  20
HETATM   20  C2  UNL     1      16.946   1.530  12.534  1.00  0.00     0.360 C 
HETATM   21  N1  UNL     1      16.140   1.865  11.410  1.00  0.00    -0.341 N 
HETATM   22  C1  UNL     1      16.015   0.895  10.347  1.00  0.00     0.151 C 
ATOM     23  H1  UNL     1      15.664   2.765  11.357  1.00  0.00     0.164 HD
HETATM   24  O1  UNL     1      17.542   0.426  12.619  1.00  0.00    -0.239 OA
ENDBRANCH  19  20
ENDBRANCH   1  19
TORSDOF 4
ENDMDL
MODEL 3
REMARK VINA RESULT: -6.280182399      1.840      3.763
REMARK  4 active torsions:
REMARK  status: ('A' for Active; 'I' for Inactive)
REMARK       I    between atoms: N1_2  and  C2_4 
REMARK    1  A    between atoms: C2_4  and  O2_6 
REMARK    2  A    between atoms: O2_6  and  C3_7 
REMARK    3  A    between atoms: C12_17  and  N3_18 
REMARK    4  A    between atoms: N3_18  and  N4_20 
ROOT
HETATM    1  C3  UNL     1      16.993   3.475  14.468  1.00  0.00     0.184 C 
HETATM    2  C4  UNL     1      17.472   4.839  14.773  1.00  0.00     0.272 C 
HETATM    3  N2  UNL     1      17.366   5.786  13.702  1.00  0.00    -0.065 N 
HETATM    4  C5  UNL     1      15.969   6.157  13.524  1.00  0.00     0.237 C 
HETATM    5  C6  UNL     1      15.696   7.583  13.894  1.00  0.00     0.028 C 
HETATM    6  C7  UNL     1      16.131   7.834  15.336  1.00  0.00     0.003 C 
HETATM    7  C8  UNL     1      17.615   7.561  15.389  1.00  0.00     0.028 C 
HETATM    8  C9  UNL     1      18.104   6.972  14.100  1.00  0.00     0.237 C 
HETATM    9  C10 UNL     1      17.952   5.336  12.466  1.00  0.00     0.239 C 
HETATM   10  C11 UNL     1      17.875   3.864  12.247  1.00  0.00     0.057 C 
HETATM   11  C12 UNL     1      16.727   3.222  12.998  1.00  0.00     0.133 C 
ENDROOT
BRANCH  11  12
HETATM   12  N3  UNL     1      16.809   1.780  12.806  1.00  0.00    -0.315 N 
ATOM     13  H3  UNL     1      16.582   1.337  11.916  1.00  0.00     0.182 HD
BRANCH  12  14
HETATM   14  N4  UNL     1      17.173   1.127  13.796  1.00  0.00    -0.253 N 
HETATM   15  N5  UNL     1      17.177   0.148  14.542  1.00  0.00    -0.331 N 
ATOM     16  H52 UNL     1      16.498  -0.445  14.065  1.00  0.00     0.178 HD
ATOM     17  H51 UNL     1      17.477  -0.389  15.356  1.00  0.00     0.178 HD
ATOM     18  H4  UNL     1      17.846   1.750  14.241  1.00  0.00     0.207 HD
ENDBRANCH  12  14
ENDBRANCH  11  12
BRANCH   1  19
HETATM   19  O2  UNL     1      15.841   3.105  15.224  1.00  0.00    -0.295 OA
BRANCH  19  20
HETATM   20  C2  UNL     1      15.935   2.651  16.541  1.00  0.00     0.360 C 
HETATM   21  N1  UNL     1      14.920   2.911  17.504  1.00  0.00    -0.341 N 
HETATM   22  C1  UNL     1      15.105   2.401  18.843  1.00  0.00     0.151 C 
ATOM     23  H1  UNL     1      14.086   3.441  17.256  1.00  0.00     0.164 HD
HETATM   24  O1  UNL     1      16.971   1.998  16.826  1.00  0.00    -0.239 OA
ENDBRANCH  19  20
ENDBRANCH   1  19
TORSDOF 4
ENDMDL
MODEL 4
REMARK VINA RESULT: -6.230781397      1.890      4.034
REMARK  4 active torsions:
REMARK  status: ('A' for Active; 'I' for Inactive)
REMARK       I    between atoms: N1_2  and  C2_4 
REMARK    1  A    between atoms: C2_4  and  O2_6 
REMARK    2  A    between atoms: O2_6  and  C3_7 
REMARK    3  A    between atoms: C12_17  and  N3_18 
REMARK    4  A    between atoms: N3_18  and  N4_20 
ROOT
HETATM    1  C3  UNL     1      17.407   4.236  14.255  1.00  0.00     0.184 C 
HETATM    2  C4  UNL     1      17.301   5.644  14.690  1.00  0.00     0.272 C 
HETATM    3  N2  UNL     1      17.161   6.608  13.638  1.00  0.00    -0.065 N 
HETATM    4  C5  UNL     1      15.817   6.524  13.085  1.00  0.00     0.237 C 
HETATM    5  C6  UNL     1      14.992   7.741  13.375  1.00  0.00     0.028 C 
HETATM    6  C7  UNL     1      14.931   7.974  14.883  1.00  0.00     0.003 C 
HETATM    7  C8  UNL     1      16.352   8.190  15.342  1.00  0.00     0.028 C 
HETATM    8  C9  UNL     1      17.326   7.923  14.233  1.00  0.00     0.237 C 
HETATM    9  C10 UNL     1      18.162   6.498  12.609  1.00  0.00     0.239 C 
HETATM   10  C11 UNL     1      18.646   5.109  12.366  1.00  0.00     0.057 C 
HETATM   11  C12 UNL     1      17.630   4.059  12.766  1.00  0.00     0.133 C 
ENDROOT
BRANCH  11  12
HETATM   12  N3  UNL     1      18.241   2.748  12.594  1.00  0.00    -0.315 N 
ATOM     13  H3  UNL     1      19.228   2.634  12.365  1.00  0.00     0.182 HD
BRANCH  12  14
HETATM   14  N4  UNL     1      17.481   1.778  12.743  1.00  0.00    -0.253 N 
HETATM   15  N5  UNL     1      17.174   0.659  13.153  1.00  0.00    -0.331 N 
ATOM     16  H52 UNL     1      18.036   0.401  13.634  1.00  0.00     0.178 HD
ATOM     17  H51 UNL     1      16.549  -0.138  13.276  1.00  0.00     0.178 HD
ATOM     18  H4  UNL     1      16.639   2.075  12.251  1.00  0.00     0.207 HD
ENDBRANCH  12  14
ENDBRANCH  11  12
BRANCH   1  19
HETATM   19  O2  UNL     1      16.295   3.440  14.660  1.00  0.00    -0.295 OA
BRANCH  19  20
HETATM   20  C2  UNL     1      16.305   2.706  15.847  1.00  0.00     0.360 C 
HETATM   21  N1  UNL     1      15.272   2.825  16.818  1.00  0.00    -0.341 N 
HETATM   22  C1  UNL     1      15.368   2.024  18.017  1.00  0.00     0.151 C 
ATOM     23  H1  UNL     1      14.486   3.458  16.672  1.00  0.00     0.164 HD
HETATM   24  O1  UNL     1      17.282   1.931  16.007  1.00  0.00    -0.239 OA
ENDBRANCH  19  20
ENDBRANCH   1  19
TORSDOF 4
ENDMDL
MODEL 5
REMARK VINA RESULT: -5.958971361      2.389      4.713
REMARK  4 active torsions:
REMARK  status: ('A' for Active; 'I' for Inactive)
REMARK       I    between atoms: N1_2  and  C2_4 
REMARK    1  A    between atoms: C2_4  and  O2_6 
REMARK    2  A    between atoms: O2_6  and  C3_7 
REMARK    3  A    between atoms: C12_17  and  N3_18 
REMARK    4  A    between atoms: N3_18  and  N4_20 
ROOT
HETATM    1  C3  UNL     1      18.072   5.051  14.746  1.00  0.00     0.184 C 
HETATM    2  C4  UNL     1      17.245   6.256  14.968  1.00  0.00     0.272 C 
HETATM    3  N2  UNL     1      17.227   7.201  13.890  1.00  0.00    -0.065 N 
HETATM    4  C5  UNL     1      16.423   6.670  12.798  1.00  0.00     0.237 C 
HETATM    5  C6  UNL     1      15.155   7.440  12.583  1.00  0.00     0.028 C 
HETATM    6  C7  UNL     1      14.342   7.466  13.875  1.00  0.00     0.003 C 
HETATM    7  C8  UNL     1      15.199   8.158  14.907  1.00  0.00     0.028 C 
HETATM    8  C9  UNL     1      16.583   8.406  14.384  1.00  0.00     0.237 C 
HETATM    9  C10 UNL     1      18.535   7.595  13.437  1.00  0.00     0.239 C 
HETATM   10  C11 UNL     1      19.574   6.532  13.556  1.00  0.00     0.057 C 
HETATM   11  C12 UNL     1      18.985   5.136  13.540  1.00  0.00     0.133 C 
ENDROOT
BRANCH  11  12
HETATM   12  N3  UNL     1      20.064   4.186  13.771  1.00  0.00    -0.315 N 
ATOM     13  H3  UNL     1      20.361   3.918  14.709  1.00  0.00     0.182 HD
BRANCH  12  14
HETATM   14  N4  UNL     1      20.599   3.723  12.751  1.00  0.00    -0.253 N 
HETATM   15  N5  UNL     1      21.365   3.750  11.788  1.00  0.00    -0.331 N 
ATOM     16  H52 UNL     1      21.786   4.670  11.917  1.00  0.00     0.178 HD
ATOM     17  H51 UNL     1      21.805   3.370  10.950  1.00  0.00     0.178 HD
ATOM     18  H4  UNL     1      20.155   2.811  12.658  1.00  0.00     0.207 HD
ENDBRANCH  12  14
ENDBRANCH  11  12
BRANCH   1  19
HETATM   19  O2  UNL     1      17.304   3.852  14.669  1.00  0.00    -0.295 OA
BRANCH  19  20
HETATM   20  C2  UNL     1      17.042   3.069  15.795  1.00  0.00     0.360 C 
HETATM   21  N1  UNL     1      15.748   3.000  16.382  1.00  0.00    -0.341 N 
HETATM   22  C1  UNL     1      15.572   2.163  17.547  1.00  0.00     0.151 C 
ATOM     23  H1  UNL     1      14.966   3.526  15.992  1.00  0.00     0.164 HD
HETATM   24  O1  UNL     1      18.018   2.428  16.260  1.00  0.00    -0.239 OA
ENDBRANCH  19  20
ENDBRANCH   1  19
TORSDOF 4
ENDMDL
