MODEL 1
REMARK VINA RESULT: -6.026163809      0.000      0.000
REMARK  4 active torsions:
REMARK  status: ('A' for Active; 'I' for Inactive)
REMARK    1  A    between atoms: N2_10  and  C9_11 
REMARK    2  A    between atoms: C9_11  and  C10_12 
REMARK    3  A    between atoms: C15_17  and  C16_18 
REMARK    4  A    between atoms: C16_18  and  O1_19 
ROOT
HETATM    1  C1  UNL     1      18.118   3.922  12.029  1.00  0.00     0.310 C 
HETATM    2  N1  UNL     1      17.545   4.301  13.273  1.00  0.00     0.091 N 
HETATM    3  C2  UNL     1      16.714   5.456  13.230  1.00  0.00     0.284 C 
HETATM    4  C3  UNL     1      16.422   6.275  14.382  1.00  0.00     0.008 C 
HETATM    5  C4  UNL     1      17.366   6.989  15.277  1.00  0.00     0.018 C 
HETATM    6  C5  UNL     1      18.403   7.236  14.233  1.00  0.00    -0.011 C 
HETATM    7  C6  UNL     1      19.028   5.960  13.988  1.00  0.00     0.042 C 
HETATM    8  C7  UNL     1      18.531   4.643  14.308  1.00  0.00     0.240 C 
HETATM    9  C8  UNL     1      17.798   4.183  15.501  1.00  0.00     0.157 C 
HETATM   10  N2  UNL     1      16.385   4.241  15.479  1.00  0.00    -0.390 N 
HETATM   11  C13 UNL     1      15.679   5.484  15.326  1.00  0.00     0.133 C 
HETATM   12  C14 UNL     1      17.465   7.904  13.265  1.00  0.00     0.012 C 
HETATM   13  C15 UNL     1      16.015   7.539  13.697  1.00  0.00     0.021 C 
ENDROOT
BRANCH  10  14
HETATM   14  C9  UNL     1      15.635   3.088  15.230  1.00  0.00     0.062 C 
BRANCH  14  15
HETATM   15  C10 UNL     1      15.579   2.037  16.301  1.00  0.00     0.024 A 
HETATM   16  C11 UNL     1      14.164   1.803  16.927  1.00  0.00     0.010 A 
HETATM   17  C12 UNL     1      15.304   2.300  17.711  1.00  0.00     0.010 A 
ENDBRANCH  14  15
ENDBRANCH  10  14
BRANCH  13  18
HETATM   18  C16 UNL     1      15.085   7.493  12.580  1.00  0.00     0.169 C 
BRANCH  18  19
HETATM   19  O1  UNL     1      13.791   7.097  13.006  1.00  0.00    -0.400 OA
ATOM     20  H1  UNL     1      13.427   6.435  12.430  1.00  0.00     0.209 HD
ENDBRANCH  18  19
ENDBRANCH  13  18
TORSDOF 4
ENDMDL
MODEL 2
REMARK VINA RESULT: -5.798873641      1.813      2.651
REMARK  4 active torsions:
REMARK  status: ('A' for Active; 'I' for Inactive)
REMARK    1  A    between atoms: N2_10  and  C9_11 
REMARK    2  A    between atoms: C9_11  and  C10_12 
REMARK    3  A    between atoms: C15_17  and  C16_18 
REMARK    4  A    between atoms: C16_18  and  O1_19 
ROOT
HETATM    1  C1  UNL     1      19.512   6.909  13.742  1.00  0.00     0.310 C 
HETATM    2  N1  UNL     1      18.130   6.895  14.072  1.00  0.00     0.091 N 
HETATM    3  C2  UNL     1      17.241   6.962  12.962  1.00  0.00     0.284 C 
HETATM    4  C3  UNL     1      15.877   7.422  13.057  1.00  0.00     0.008 C 
HETATM    5  C4  UNL     1      15.368   8.730  13.541  1.00  0.00     0.018 C 
HETATM    6  C5  UNL     1      16.561   9.519  13.114  1.00  0.00    -0.011 C 
HETATM    7  C6  UNL     1      17.614   9.173  14.036  1.00  0.00     0.042 C 
HETATM    8  C7  UNL     1      17.701   8.025  14.907  1.00  0.00     0.240 C 
HETATM    9  C8  UNL     1      16.643   7.361  15.689  1.00  0.00     0.157 C 
HETATM   10  N2  UNL     1      15.926   6.306  15.079  1.00  0.00    -0.390 N 
HETATM   11  C13 UNL     1      15.144   6.507  13.889  1.00  0.00     0.133 C 
HETATM   12  C14 UNL     1      16.523   9.061  11.682  1.00  0.00     0.012 C 
HETATM   13  C15 UNL     1      15.633   7.784  11.628  1.00  0.00     0.021 C 
ENDROOT
BRANCH  10  14
HETATM   14  C9  UNL     1      16.240   4.975  15.375  1.00  0.00     0.062 C 
BRANCH  14  15
HETATM   15  C10 UNL     1      15.112   3.989  15.470  1.00  0.00     0.024 A 
HETATM   16  C11 UNL     1      14.523   3.793  16.906  1.00  0.00     0.010 A 
HETATM   17  C12 UNL     1      15.183   2.708  16.168  1.00  0.00     0.010 A 
ENDBRANCH  14  15
ENDBRANCH  10  14
BRANCH  13  18
HETATM   18  C16 UNL     1      16.021   6.867  10.569  1.00  0.00     0.169 C 
BRANCH  18  19
HETATM   19  O1  UNL     1      14.903   6.480   9.789  1.00  0.00    -0.400 OA
ATOM     20  H1  UNL     1      15.147   6.343   8.881  1.00  0.00     0.209 HD
ENDBRANCH  18  19
ENDBRANCH  13  18
TORSDOF 4
ENDMDL
MODEL 3
REMARK VINA RESULT: -5.670235362      2.262      3.540
REMARK  4 active torsions:
REMARK  status: ('A' for Active; 'I' for Inactive)
REMARK    1  A    between atoms: N2_10  and  C9_11 
REMARK    2  A    between atoms: C9_11  and  C10_12 
REMARK    3  A    between atoms: C15_17  and  C16_18 
REMARK    4  A    between atoms: C16_18  and  O1_19 
ROOT
HETATM    1  C1  UNL     1      17.296   7.225  15.399  1.00  0.00     0.310 C 
HETATM    2  N1  UNL     1      16.913   5.969  14.856  1.00  0.00     0.091 N 
HETATM    3  C2  UNL     1      17.877   5.357  14.006  1.00  0.00     0.284 C 
HETATM    4  C3  UNL     1      17.551   4.366  13.009  1.00  0.00     0.008 C 
HETATM    5  C4  UNL     1      16.613   4.475  11.864  1.00  0.00     0.018 C 
HETATM    6  C5  UNL     1      16.805   5.940  11.654  1.00  0.00    -0.011 C 
HETATM    7  C6  UNL     1      16.123   6.589  12.746  1.00  0.00     0.042 C 
HETATM    8  C7  UNL     1      15.713   6.022  14.009  1.00  0.00     0.240 C 
HETATM    9  C8  UNL     1      15.153   4.691  14.301  1.00  0.00     0.157 C 
HETATM   10  N2  UNL     1      16.050   3.643  14.611  1.00  0.00    -0.390 N 
HETATM   11  C13 UNL     1      17.048   3.196  13.677  1.00  0.00     0.133 C 
HETATM   12  C14 UNL     1      18.302   5.865  11.533  1.00  0.00     0.012 C 
HETATM   13  C15 UNL     1      18.747   4.495  12.124  1.00  0.00     0.021 C 
ENDROOT
BRANCH  10  14
HETATM   14  C9  UNL     1      16.255   3.259  15.940  1.00  0.00     0.062 C 
BRANCH  14  15
HETATM   15  C10 UNL     1      15.051   3.113  16.825  1.00  0.00     0.024 A 
HETATM   16  C11 UNL     1      15.217   2.102  18.008  1.00  0.00     0.010 A 
HETATM   17  C12 UNL     1      14.237   1.906  16.931  1.00  0.00     0.010 A 
ENDBRANCH  14  15
ENDBRANCH  10  14
BRANCH  13  18
HETATM   18  C16 UNL     1      20.080   4.533  12.704  1.00  0.00     0.169 C 
BRANCH  18  19
HETATM   19  O1  UNL     1      20.798   3.344  12.420  1.00  0.00    -0.400 OA
ATOM     20  H1  UNL     1      21.710   3.530  12.231  1.00  0.00     0.209 HD
ENDBRANCH  18  19
ENDBRANCH  13  18
TORSDOF 4
ENDMDL
MODEL 4
REMARK VINA RESULT: -5.636748046      2.626      5.216
REMARK  4 active torsions:
REMARK  status: ('A' for Active; 'I' for Inactive)
REMARK    1  A    between atoms: N2_10  and  C9_11 
REMARK    2  A    between atoms: C9_11  and  C10_12 
REMARK    3  A    between atoms: C15_17  and  C16_18 
REMARK    4  A    between atoms: C16_18  and  O1_19 
ROOT
HETATM    1  C1  UNL     1      16.444   3.460  11.243  1.00  0.00     0.310 C 
HETATM    2  N1  UNL     1      17.344   4.093  12.142  1.00  0.00     0.091 N 
HETATM    3  C2  UNL     1      17.238   3.676  13.499  1.00  0.00     0.284 C 
HETATM    4  C3  UNL     1      17.684   4.470  14.617  1.00  0.00     0.008 C 
HETATM    5  C4  UNL     1      17.268   5.840  15.009  1.00  0.00     0.018 C 
HETATM    6  C5  UNL     1      15.878   5.731  14.474  1.00  0.00    -0.011 C 
HETATM    7  C6  UNL     1      16.002   5.783  13.038  1.00  0.00     0.042 C 
HETATM    8  C7  UNL     1      17.176   5.551  12.232  1.00  0.00     0.240 C 
HETATM    9  C8  UNL     1      18.576   5.939  12.480  1.00  0.00     0.157 C 
HETATM   10  N2  UNL     1      19.405   5.034  13.182  1.00  0.00    -0.390 N 
HETATM   11  C13 UNL     1      19.111   4.622  14.528  1.00  0.00     0.133 C 
HETATM   12  C14 UNL     1      15.537   4.479  15.236  1.00  0.00     0.012 C 
HETATM   13  C15 UNL     1      16.878   3.845  15.709  1.00  0.00     0.021 C 
ENDROOT
BRANCH  10  14
HETATM   14  C9  UNL     1      20.313   4.226  12.490  1.00  0.00     0.062 C 
BRANCH  14  15
HETATM   15  C10 UNL     1      20.917   4.766  11.227  1.00  0.00     0.024 A 
HETATM   16  C11 UNL     1      22.342   4.216  10.886  1.00  0.00     0.010 A 
HETATM   17  C12 UNL     1      22.089   5.636  11.170  1.00  0.00     0.010 A 
ENDBRANCH  14  15
ENDBRANCH  10  14
BRANCH  13  18
HETATM   18  C16 UNL     1      16.811   2.397  15.824  1.00  0.00     0.169 C 
BRANCH  18  19
HETATM   19  O1  UNL     1      17.940   1.884  16.510  1.00  0.00    -0.400 OA
ATOM     20  H1  UNL     1      17.987   0.937  16.437  1.00  0.00     0.209 HD
ENDBRANCH  18  19
ENDBRANCH  13  18
TORSDOF 4
ENDMDL
MODEL 5
REMARK VINA RESULT: -5.573265078      2.080      5.192
REMARK  4 active torsions:
REMARK  status: ('A' for Active; 'I' for Inactive)
REMARK    1  A    between atoms: N2_10  and  C9_11 
REMARK    2  A    between atoms: C9_11  and  C10_12 
REMARK    3  A    between atoms: C15_17  and  C16_18 
REMARK    4  A    between atoms: C16_18  and  O1_19 
ROOT
HETATM    1  C1  UNL     1      14.815   7.324  13.147  1.00  0.00     0.310 C 
HETATM    2  N1  UNL     1      16.053   6.889  13.692  1.00  0.00     0.091 N 
HETATM    3  C2  UNL     1      16.483   5.600  13.265  1.00  0.00     0.284 C 
HETATM    4  C3  UNL     1      17.413   4.782  14.004  1.00  0.00     0.008 C 
HETATM    5  C4  UNL     1      17.307   4.282  15.398  1.00  0.00     0.018 C 
HETATM    6  C5  UNL     1      15.817   4.195  15.410  1.00  0.00    -0.011 C 
HETATM    7  C6  UNL     1      15.342   5.555  15.473  1.00  0.00     0.042 C 
HETATM    8  C7  UNL     1      16.056   6.768  15.157  1.00  0.00     0.240 C 
HETATM    9  C8  UNL     1      17.460   7.127  15.426  1.00  0.00     0.157 C 
HETATM   10  N2  UNL     1      18.428   6.810  14.446  1.00  0.00    -0.390 N 
HETATM   11  C13 UNL     1      18.683   5.454  14.040  1.00  0.00     0.133 C 
HETATM   12  C14 UNL     1      15.721   3.334  14.181  1.00  0.00     0.012 C 
HETATM   13  C15 UNL     1      17.081   3.442  13.431  1.00  0.00     0.021 C 
ENDROOT
BRANCH  10  14
HETATM   14  C9  UNL     1      18.902   7.797  13.576  1.00  0.00     0.062 C 
BRANCH  14  15
HETATM   15  C10 UNL     1      19.210   9.151  14.147  1.00  0.00     0.024 A 
HETATM   16  C11 UNL     1      20.585   9.757  13.710  1.00  0.00     0.010 A 
HETATM   17  C12 UNL     1      20.274   9.427  15.108  1.00  0.00     0.010 A 
ENDBRANCH  14  15
ENDBRANCH  10  14
BRANCH  13  18
HETATM   18  C16 UNL     1      16.951   3.280  11.992  1.00  0.00     0.169 C 
BRANCH  18  19
HETATM   19  O1  UNL     1      15.817   2.495  11.665  1.00  0.00    -0.400 OA
ATOM     20  H1  UNL     1      15.288   2.315  12.434  1.00  0.00     0.209 HD
ENDBRANCH  18  19
ENDBRANCH  13  18
TORSDOF 4
ENDMDL
