MODEL 1
REMARK VINA RESULT: -5.977037118      0.000      0.000
REMARK  4 active torsions:
REMARK  status: ('A' for Active; 'I' for Inactive)
REMARK    1  A    between atoms: C3_3  and  C6_6 
REMARK    2  A    between atoms: C11_11  and  C12_12 
REMARK    3  A    between atoms: C12_12  and  C13_14 
REMARK    4  A    between atoms: C13_14  and  O2_15 
ROOT
HETATM    1  C1  UNL     1      18.212   7.366  11.934  1.00  0.00     0.013 C 
HETATM    2  C2  UNL     1      17.827   7.453  13.066  1.00  0.00    -0.106 C 
HETATM    3  C3  UNL     1      17.352   7.568  14.431  1.00  0.00     0.035 C 
HETATM    4  C4  UNL     1      18.478   7.900  15.390  1.00  0.00     0.031 C 
HETATM    5  C5  UNL     1      16.436   8.810  14.453  1.00  0.00     0.031 C 
ENDROOT
BRANCH   3   6
HETATM    6  C6  UNL     1      16.559   6.457  14.932  1.00  0.00     0.099 C 
HETATM    7  C7  UNL     1      15.294   6.330  14.056  1.00  0.00     0.029 C 
HETATM    8  C8  UNL     1      14.825   4.895  14.296  1.00  0.00     0.033 C 
HETATM    9  C9  UNL     1      15.845   4.354  15.282  1.00  0.00     0.035 C 
HETATM   10  C10 UNL     1      15.328   4.661  16.664  1.00  0.00     0.039 C 
HETATM   11  C11 UNL     1      16.017   2.878  15.045  1.00  0.00     0.085 C 
HETATM   12  N1  UNL     1      16.967   5.152  14.993  1.00  0.00    -0.397 N 
HETATM   13  C14 UNL     1      16.718   2.584  13.778  1.00  0.00     0.016 C 
HETATM   14  C15 UNL     1      17.627   3.678  13.282  1.00  0.00     0.020 C 
HETATM   15  C16 UNL     1      18.075   4.582  14.445  1.00  0.00     0.118 C 
BRANCH  11  16
HETATM   16  C12 UNL     1      16.581   2.148  16.179  1.00  0.00     0.156 C 
HETATM   17  O1  UNL     1      17.775   2.055  16.427  1.00  0.00    -0.295 OA
BRANCH  16  18
HETATM   18  C13 UNL     1      15.670   1.455  17.124  1.00  0.00     0.242 C 
BRANCH  18  19
HETATM   19  O2  UNL     1      15.579   0.073  16.847  1.00  0.00    -0.394 OA
ATOM     20  H2  UNL     1      15.170  -0.092  16.006  1.00  0.00     0.209 HD
ENDBRANCH  18  19
ENDBRANCH  16  18
ENDBRANCH  11  16
ENDBRANCH   3   6
TORSDOF 4
ENDMDL
MODEL 2
REMARK VINA RESULT: -5.747779810      1.773      3.285
REMARK  4 active torsions:
REMARK  status: ('A' for Active; 'I' for Inactive)
REMARK    1  A    between atoms: C3_3  and  C6_6 
REMARK    2  A    between atoms: C11_11  and  C12_12 
REMARK    3  A    between atoms: C12_12  and  C13_14 
REMARK    4  A    between atoms: C13_14  and  O2_15 
ROOT
HETATM    1  C1  UNL     1      15.691   8.603  15.370  1.00  0.00     0.013 C 
HETATM    2  C2  UNL     1      16.400   8.321  14.445  1.00  0.00    -0.106 C 
HETATM    3  C3  UNL     1      17.267   7.986  13.333  1.00  0.00     0.035 C 
HETATM    4  C4  UNL     1      16.664   8.403  12.007  1.00  0.00     0.031 C 
HETATM    5  C5  UNL     1      18.519   8.876  13.495  1.00  0.00     0.031 C 
ENDROOT
BRANCH   3   6
HETATM    6  C6  UNL     1      17.739   6.612  13.276  1.00  0.00     0.099 C 
HETATM    7  C7  UNL     1      18.697   6.378  14.464  1.00  0.00     0.029 C 
HETATM    8  C8  UNL     1      18.712   4.858  14.627  1.00  0.00     0.033 C 
HETATM    9  C9  UNL     1      17.786   4.378  13.524  1.00  0.00     0.035 C 
HETATM   10  C10 UNL     1      18.635   4.167  12.297  1.00  0.00     0.039 C 
HETATM   11  C11 UNL     1      17.101   3.116  13.976  1.00  0.00     0.085 C 
HETATM   12  N1  UNL     1      16.950   5.497  13.352  1.00  0.00    -0.397 N 
HETATM   13  C14 UNL     1      16.109   3.360  15.043  1.00  0.00     0.016 C 
HETATM   14  C15 UNL     1      15.526   4.748  15.068  1.00  0.00     0.020 C 
HETATM   15  C16 UNL     1      15.633   5.408  13.682  1.00  0.00     0.118 C 
BRANCH  11  16
HETATM   16  C12 UNL     1      16.566   2.300  12.889  1.00  0.00     0.156 C 
HETATM   17  O1  UNL     1      15.700   2.661  12.104  1.00  0.00    -0.295 OA
BRANCH  16  18
HETATM   18  C13 UNL     1      17.085   0.924  12.687  1.00  0.00     0.242 C 
BRANCH  18  19
HETATM   19  O2  UNL     1      17.005   0.155  13.869  1.00  0.00    -0.394 OA
ATOM     20  H2  UNL     1      17.794  -0.355  14.012  1.00  0.00     0.209 HD
ENDBRANCH  18  19
ENDBRANCH  16  18
ENDBRANCH  11  16
ENDBRANCH   3   6
TORSDOF 4
ENDMDL
MODEL 3
REMARK VINA RESULT: -5.731064327      1.780      3.026
REMARK  4 active torsions:
REMARK  status: ('A' for Active; 'I' for Inactive)
REMARK    1  A    between atoms: C3_3  and  C6_6 
REMARK    2  A    between atoms: C11_11  and  C12_12 
REMARK    3  A    between atoms: C12_12  and  C13_14 
REMARK    4  A    between atoms: C13_14  and  O2_15 
ROOT
HETATM    1  C1  UNL     1      16.863   9.966  12.714  1.00  0.00     0.013 C 
HETATM    2  C2  UNL     1      16.530   8.965  13.285  1.00  0.00    -0.106 C 
HETATM    3  C3  UNL     1      16.117   7.755  13.967  1.00  0.00     0.035 C 
HETATM    4  C4  UNL     1      16.057   7.951  15.468  1.00  0.00     0.031 C 
HETATM    5  C5  UNL     1      14.653   7.513  13.542  1.00  0.00     0.031 C 
ENDROOT
BRANCH   3   6
HETATM    6  C6  UNL     1      16.852   6.545  13.634  1.00  0.00     0.099 C 
HETATM    7  C7  UNL     1      18.089   6.460  14.555  1.00  0.00     0.029 C 
HETATM    8  C8  UNL     1      18.475   4.982  14.513  1.00  0.00     0.033 C 
HETATM    9  C9  UNL     1      17.445   4.377  13.576  1.00  0.00     0.035 C 
HETATM   10  C10 UNL     1      18.007   4.474  12.181  1.00  0.00     0.039 C 
HETATM   11  C11 UNL     1      17.179   2.956  13.994  1.00  0.00     0.085 C 
HETATM   12  N1  UNL     1      16.367   5.269  13.729  1.00  0.00    -0.397 N 
HETATM   13  C14 UNL     1      16.435   2.869  15.267  1.00  0.00     0.016 C 
HETATM   14  C15 UNL     1      15.585   4.068  15.594  1.00  0.00     0.020 C 
HETATM   15  C16 UNL     1      15.216   4.839  14.314  1.00  0.00     0.118 C 
BRANCH  11  16
HETATM   16  C12 UNL     1      16.596   2.120  12.947  1.00  0.00     0.156 C 
HETATM   17  O1  UNL     1      15.643   2.437  12.248  1.00  0.00    -0.295 OA
BRANCH  16  18
HETATM   18  C13 UNL     1      17.174   0.780  12.678  1.00  0.00     0.242 C 
BRANCH  18  19
HETATM   19  O2  UNL     1      16.859  -0.142  13.701  1.00  0.00    -0.394 OA
ATOM     20  H2  UNL     1      17.637  -0.446  14.154  1.00  0.00     0.209 HD
ENDBRANCH  18  19
ENDBRANCH  16  18
ENDBRANCH  11  16
ENDBRANCH   3   6
TORSDOF 4
ENDMDL
MODEL 4
REMARK VINA RESULT: -5.525605966      1.867      3.467
REMARK  4 active torsions:
REMARK  status: ('A' for Active; 'I' for Inactive)
REMARK    1  A    between atoms: C3_3  and  C6_6 
REMARK    2  A    between atoms: C11_11  and  C12_12 
REMARK    3  A    between atoms: C12_12  and  C13_14 
REMARK    4  A    between atoms: C13_14  and  O2_15 
ROOT
HETATM    1  C1  UNL     1      18.220   8.646  11.627  1.00  0.00     0.013 C 
HETATM    2  C2  UNL     1      17.602   7.715  11.191  1.00  0.00    -0.106 C 
HETATM    3  C3  UNL     1      16.862   6.591  10.653  1.00  0.00     0.035 C 
HETATM    4  C4  UNL     1      15.383   6.896  10.539  1.00  0.00     0.031 C 
HETATM    5  C5  UNL     1      17.345   6.430   9.195  1.00  0.00     0.031 C 
ENDROOT
BRANCH   3   6
HETATM    6  C6  UNL     1      17.076   5.309  11.305  1.00  0.00     0.099 C 
HETATM    7  C7  UNL     1      18.579   4.963  11.215  1.00  0.00     0.029 C 
HETATM    8  C8  UNL     1      18.785   3.937  12.329  1.00  0.00     0.033 C 
HETATM    9  C9  UNL     1      17.398   3.788  12.929  1.00  0.00     0.035 C 
HETATM   10  C10 UNL     1      16.703   2.690  12.166  1.00  0.00     0.039 C 
HETATM   11  C11 UNL     1      17.532   3.476  14.396  1.00  0.00     0.085 C 
HETATM   12  N1  UNL     1      16.823   5.035  12.622  1.00  0.00    -0.397 N 
HETATM   13  C14 UNL     1      18.017   4.630  15.180  1.00  0.00     0.016 C 
HETATM   14  C15 UNL     1      17.723   5.979  14.579  1.00  0.00     0.020 C 
HETATM   15  C16 UNL     1      16.517   5.900  13.627  1.00  0.00     0.118 C 
BRANCH  11  16
HETATM   16  C12 UNL     1      16.350   2.854  14.989  1.00  0.00     0.156 C 
HETATM   17  O1  UNL     1      15.256   3.391  15.097  1.00  0.00    -0.295 OA
BRANCH  16  18
HETATM   18  C13 UNL     1      16.440   1.467  15.509  1.00  0.00     0.242 C 
BRANCH  18  19
HETATM   19  O2  UNL     1      17.564   1.292  16.345  1.00  0.00    -0.394 OA
ATOM     20  H2  UNL     1      18.000   0.464  16.183  1.00  0.00     0.209 HD
ENDBRANCH  18  19
ENDBRANCH  16  18
ENDBRANCH  11  16
ENDBRANCH   3   6
TORSDOF 4
ENDMDL
MODEL 5
REMARK VINA RESULT: -5.500607366      2.161      3.780
REMARK  4 active torsions:
REMARK  status: ('A' for Active; 'I' for Inactive)
REMARK    1  A    between atoms: C3_3  and  C6_6 
REMARK    2  A    between atoms: C11_11  and  C12_12 
REMARK    3  A    between atoms: C12_12  and  C13_14 
REMARK    4  A    between atoms: C13_14  and  O2_15 
ROOT
HETATM    1  C1  UNL     1      14.594   7.387  10.143  1.00  0.00     0.013 C 
HETATM    2  C2  UNL     1      15.700   6.925  10.151  1.00  0.00    -0.106 C 
HETATM    3  C3  UNL     1      17.042   6.377  10.167  1.00  0.00     0.035 C 
HETATM    4  C4  UNL     1      17.560   6.122   8.766  1.00  0.00     0.031 C 
HETATM    5  C5  UNL     1      17.947   7.498  10.723  1.00  0.00     0.031 C 
ENDROOT
BRANCH   3   6
HETATM    6  C6  UNL     1      17.253   5.215  11.014  1.00  0.00     0.099 C 
HETATM    7  C7  UNL     1      18.771   4.946  11.102  1.00  0.00     0.029 C 
HETATM    8  C8  UNL     1      18.921   4.101  12.367  1.00  0.00     0.033 C 
HETATM    9  C9  UNL     1      17.493   3.959  12.864  1.00  0.00     0.035 C 
HETATM   10  C10 UNL     1      16.921   2.726  12.213  1.00  0.00     0.039 C 
HETATM   11  C11 UNL     1      17.507   3.866  14.366  1.00  0.00     0.085 C 
HETATM   12  N1  UNL     1      16.893   5.115  12.331  1.00  0.00    -0.397 N 
HETATM   13  C14 UNL     1      17.867   5.145  15.012  1.00  0.00     0.016 C 
HETATM   14  C15 UNL     1      17.569   6.377  14.198  1.00  0.00     0.020 C 
HETATM   15  C16 UNL     1      16.459   6.095  13.170  1.00  0.00     0.118 C 
BRANCH  11  16
HETATM   16  C12 UNL     1      16.305   3.267  14.943  1.00  0.00     0.156 C 
HETATM   17  O1  UNL     1      15.180   3.741  14.864  1.00  0.00    -0.295 OA
BRANCH  16  18
HETATM   18  C13 UNL     1      16.413   1.987  15.686  1.00  0.00     0.242 C 
BRANCH  18  19
HETATM   19  O2  UNL     1      17.638   1.887  16.382  1.00  0.00    -0.394 OA
ATOM     20  H2  UNL     1      17.506   1.675  17.299  1.00  0.00     0.209 HD
ENDBRANCH  18  19
ENDBRANCH  16  18
ENDBRANCH  11  16
ENDBRANCH   3   6
TORSDOF 4
ENDMDL
