MODEL 1
REMARK VINA RESULT: -5.012777098      0.000      0.000
REMARK  5 active torsions:
REMARK  status: ('A' for Active; 'I' for Inactive)
REMARK    1  A    between atoms: C2_2  and  N1_4 
REMARK    2  A    between atoms: N1_4  and  C4_6 
REMARK    3  A    between atoms: C4_6  and  N2_8 
REMARK    4  A    between atoms: C7_12  and  C8_13 
REMARK    5  A    between atoms: C8_13  and  C9_15 
ROOT
HETATM    1  N2  UNL     1      17.173   4.027  12.603  1.00  0.00    -0.337 N 
HETATM    2  C5  UNL     1      16.970   3.589  11.264  1.00  0.00     0.137 C 
HETATM    3  C6  UNL     1      16.166   2.345  11.175  1.00  0.00     0.096 C 
HETATM    4  S2  UNL     1      16.839   1.491  12.668  1.00  0.00    -0.134 SA
HETATM    5  C7  UNL     1      17.049   3.036  13.644  1.00  0.00     0.218 C 
ENDROOT
BRANCH   1   6
HETATM    6  C4  UNL     1      17.486   5.387  12.891  1.00  0.00     0.171 C 
HETATM    7  S1  UNL     1      19.031   5.890  13.129  1.00  0.00    -0.041 SA
BRANCH   6   8
HETATM    8  N1  UNL     1      16.483   6.354  12.982  1.00  0.00    -0.363 N 
ATOM      9  H1  UNL     1      15.695   6.294  12.337  1.00  0.00     0.162 HD
BRANCH   8  10
HETATM   10  C2  UNL     1      16.499   7.441  13.948  1.00  0.00     0.075 C 
HETATM   11  C1  UNL     1      16.176   6.928  15.338  1.00  0.00     0.032 C 
HETATM   12  C3  UNL     1      15.476   8.452  13.535  1.00  0.00     0.032 C 
ENDBRANCH   8  10
ENDBRANCH   6   8
ENDBRANCH   1   6
BRANCH   5  13
HETATM   13  C8  UNL     1      15.849   3.247  14.479  1.00  0.00     0.163 C 
HETATM   14  O1  UNL     1      14.966   3.977  14.084  1.00  0.00    -0.294 OA
BRANCH  13  15
HETATM   15  C9  UNL     1      15.706   2.586  15.784  1.00  0.00     0.050 C 
HETATM   16  C10 UNL     1      17.058   2.410  16.474  1.00  0.00     0.017 C 
HETATM   17  C11 UNL     1      14.816   3.419  16.679  1.00  0.00     0.017 C 
ENDBRANCH  13  15
ENDBRANCH   5  13
TORSDOF 5
ENDMDL
MODEL 2
REMARK VINA RESULT: -4.923631953      0.737      1.280
REMARK  5 active torsions:
REMARK  status: ('A' for Active; 'I' for Inactive)
REMARK    1  A    between atoms: C2_2  and  N1_4 
REMARK    2  A    between atoms: N1_4  and  C4_6 
REMARK    3  A    between atoms: C4_6  and  N2_8 
REMARK    4  A    between atoms: C7_12  and  C8_13 
REMARK    5  A    between atoms: C8_13  and  C9_15 
ROOT
HETATM    1  N2  UNL     1      17.433   4.163  12.962  1.00  0.00    -0.337 N 
HETATM    2  C5  UNL     1      17.256   3.941  11.567  1.00  0.00     0.137 C 
HETATM    3  C6  UNL     1      16.341   2.811  11.270  1.00  0.00     0.096 C 
HETATM    4  S2  UNL     1      16.853   1.690  12.647  1.00  0.00    -0.134 SA
HETATM    5  C7  UNL     1      17.162   3.053  13.843  1.00  0.00     0.218 C 
ENDROOT
BRANCH   1   6
HETATM    6  C4  UNL     1      17.862   5.429  13.456  1.00  0.00     0.171 C 
HETATM    7  S1  UNL     1      19.344   5.642  14.128  1.00  0.00    -0.041 SA
BRANCH   6   8
HETATM    8  N1  UNL     1      17.030   6.548  13.386  1.00  0.00    -0.363 N 
ATOM      9  H1  UNL     1      17.171   7.207  12.620  1.00  0.00     0.162 HD
BRANCH   8  10
HETATM   10  C2  UNL     1      15.972   6.826  14.345  1.00  0.00     0.075 C 
HETATM   11  C1  UNL     1      14.709   7.275  13.635  1.00  0.00     0.032 C 
HETATM   12  C3  UNL     1      16.444   7.908  15.265  1.00  0.00     0.032 C 
ENDBRANCH   8  10
ENDBRANCH   6   8
ENDBRANCH   1   6
BRANCH   5  13
HETATM   13  C8  UNL     1      15.948   3.266  14.657  1.00  0.00     0.163 C 
HETATM   14  O1  UNL     1      14.911   3.579  14.114  1.00  0.00    -0.294 OA
BRANCH  13  15
HETATM   15  C9  UNL     1      15.975   3.105  16.117  1.00  0.00     0.050 C 
HETATM   16  C10 UNL     1      14.638   3.489  16.749  1.00  0.00     0.017 C 
HETATM   17  C11 UNL     1      16.272   1.663  16.464  1.00  0.00     0.017 C 
ENDBRANCH  13  15
ENDBRANCH   5  13
TORSDOF 5
ENDMDL
MODEL 3
REMARK VINA RESULT: -4.882197133      1.077      1.288
REMARK  5 active torsions:
REMARK  status: ('A' for Active; 'I' for Inactive)
REMARK    1  A    between atoms: C2_2  and  N1_4 
REMARK    2  A    between atoms: N1_4  and  C4_6 
REMARK    3  A    between atoms: C4_6  and  N2_8 
REMARK    4  A    between atoms: C7_12  and  C8_13 
REMARK    5  A    between atoms: C8_13  and  C9_15 
ROOT
HETATM    1  N2  UNL     1      17.038   4.171  12.477  1.00  0.00    -0.337 N 
HETATM    2  C5  UNL     1      16.842   3.592  11.191  1.00  0.00     0.137 C 
HETATM    3  C6  UNL     1      16.140   2.285  11.245  1.00  0.00     0.096 C 
HETATM    4  S2  UNL     1      16.916   1.634  12.790  1.00  0.00    -0.134 SA
HETATM    5  C7  UNL     1      17.020   3.278  13.609  1.00  0.00     0.218 C 
ENDROOT
BRANCH   1   6
HETATM    6  C4  UNL     1      17.246   5.572  12.627  1.00  0.00     0.171 C 
HETATM    7  S1  UNL     1      16.836   6.642  11.450  1.00  0.00    -0.041 SA
BRANCH   6   8
HETATM    8  N1  UNL     1      17.812   6.097  13.791  1.00  0.00    -0.363 N 
ATOM      9  H1  UNL     1      18.512   5.538  14.280  1.00  0.00     0.162 HD
BRANCH   8  10
HETATM   10  C2  UNL     1      17.458   7.395  14.343  1.00  0.00     0.075 C 
HETATM   11  C1  UNL     1      18.689   8.103  14.876  1.00  0.00     0.032 C 
HETATM   12  C3  UNL     1      16.480   7.181  15.456  1.00  0.00     0.032 C 
ENDBRANCH   8  10
ENDBRANCH   6   8
ENDBRANCH   1   6
BRANCH   5  13
HETATM   13  C8  UNL     1      15.827   3.471  14.458  1.00  0.00     0.163 C 
HETATM   14  O1  UNL     1      14.976   4.266  14.120  1.00  0.00    -0.294 OA
BRANCH  13  15
HETATM   15  C9  UNL     1      15.651   2.717  15.706  1.00  0.00     0.050 C 
HETATM   16  C10 UNL     1      16.985   2.489  16.416  1.00  0.00     0.017 C 
HETATM   17  C11 UNL     1      14.738   3.482  16.637  1.00  0.00     0.017 C 
ENDBRANCH  13  15
ENDBRANCH   5  13
TORSDOF 5
ENDMDL
MODEL 4
REMARK VINA RESULT: -4.878023391      2.178      4.473
REMARK  5 active torsions:
REMARK  status: ('A' for Active; 'I' for Inactive)
REMARK    1  A    between atoms: C2_2  and  N1_4 
REMARK    2  A    between atoms: N1_4  and  C4_6 
REMARK    3  A    between atoms: C4_6  and  N2_8 
REMARK    4  A    between atoms: C7_12  and  C8_13 
REMARK    5  A    between atoms: C8_13  and  C9_15 
ROOT
HETATM    1  N2  UNL     1      17.631   4.607  13.767  1.00  0.00    -0.337 N 
HETATM    2  C5  UNL     1      18.223   5.898  13.677  1.00  0.00     0.137 C 
HETATM    3  C6  UNL     1      18.722   6.214  12.315  1.00  0.00     0.096 C 
HETATM    4  S2  UNL     1      19.343   4.534  11.867  1.00  0.00    -0.134 SA
HETATM    5  C7  UNL     1      18.017   3.637  12.772  1.00  0.00     0.218 C 
ENDROOT
BRANCH   1   6
HETATM    6  C4  UNL     1      16.701   4.296  14.800  1.00  0.00     0.171 C 
HETATM    7  S1  UNL     1      15.274   5.094  14.953  1.00  0.00    -0.041 SA
BRANCH   6   8
HETATM    8  N1  UNL     1      16.969   3.292  15.733  1.00  0.00    -0.363 N 
ATOM      9  H1  UNL     1      17.879   3.295  16.197  1.00  0.00     0.162 HD
BRANCH   8  10
HETATM   10  C2  UNL     1      16.023   2.244  16.081  1.00  0.00     0.075 C 
HETATM   11  C1  UNL     1      15.528   2.420  17.504  1.00  0.00     0.032 C 
HETATM   12  C3  UNL     1      16.717   0.923  15.950  1.00  0.00     0.032 C 
ENDBRANCH   8  10
ENDBRANCH   6   8
ENDBRANCH   1   6
BRANCH   5  13
HETATM   13  C8  UNL     1      16.918   3.326  11.835  1.00  0.00     0.163 C 
HETATM   14  O1  UNL     1      16.585   4.148  11.009  1.00  0.00    -0.294 OA
BRANCH  13  15
HETATM   15  C9  UNL     1      16.218   2.035  11.887  1.00  0.00     0.050 C 
HETATM   16  C10 UNL     1      15.825   1.553  10.492  1.00  0.00     0.017 C 
HETATM   17  C11 UNL     1      17.117   0.995  12.518  1.00  0.00     0.017 C 
ENDBRANCH  13  15
ENDBRANCH   5  13
TORSDOF 5
ENDMDL
MODEL 5
REMARK VINA RESULT: -4.815645839      1.952      4.028
REMARK  5 active torsions:
REMARK  status: ('A' for Active; 'I' for Inactive)
REMARK    1  A    between atoms: C2_2  and  N1_4 
REMARK    2  A    between atoms: N1_4  and  C4_6 
REMARK    3  A    between atoms: C4_6  and  N2_8 
REMARK    4  A    between atoms: C7_12  and  C8_13 
REMARK    5  A    between atoms: C8_13  and  C9_15 
ROOT
HETATM    1  N2  UNL     1      16.934   4.724  13.561  1.00  0.00    -0.337 N 
HETATM    2  C5  UNL     1      17.186   6.121  13.676  1.00  0.00     0.137 C 
HETATM    3  C6  UNL     1      16.856   6.661  15.019  1.00  0.00     0.096 C 
HETATM    4  S2  UNL     1      15.350   5.643  15.348  1.00  0.00    -0.134 SA
HETATM    5  C7  UNL     1      15.986   4.150  14.483  1.00  0.00     0.218 C 
ENDROOT
BRANCH   1   6
HETATM    6  C4  UNL     1      17.594   3.939  12.572  1.00  0.00     0.171 C 
HETATM    7  S1  UNL     1      18.240   4.609  11.219  1.00  0.00    -0.041 SA
BRANCH   6   8
HETATM    8  N1  UNL     1      17.718   2.555  12.715  1.00  0.00    -0.363 N 
ATOM      9  H1  UNL     1      18.610   2.182  13.041  1.00  0.00     0.162 HD
BRANCH   8  10
HETATM   10  C2  UNL     1      16.644   1.617  12.426  1.00  0.00     0.075 C 
HETATM   11  C1  UNL     1      17.149   0.188  12.492  1.00  0.00     0.032 C 
HETATM   12  C3  UNL     1      16.126   1.905  11.051  1.00  0.00     0.032 C 
ENDBRANCH   8  10
ENDBRANCH   6   8
ENDBRANCH   1   6
BRANCH   5  13
HETATM   13  C8  UNL     1      16.632   3.258  15.469  1.00  0.00     0.163 C 
HETATM   14  O1  UNL     1      17.782   3.460  15.793  1.00  0.00    -0.294 OA
BRANCH  13  15
HETATM   15  C9  UNL     1      15.903   2.130  16.065  1.00  0.00     0.050 C 
HETATM   16  C10 UNL     1      16.735   0.849  16.039  1.00  0.00     0.017 C 
HETATM   17  C11 UNL     1      15.560   2.450  17.502  1.00  0.00     0.017 C 
ENDBRANCH  13  15
ENDBRANCH   5  13
TORSDOF 5
ENDMDL
