MODEL 1
REMARK VINA RESULT: -7.337761976      0.000      0.000
REMARK  3 active torsions:
REMARK  status: ('A' for Active; 'I' for Inactive)
REMARK    1  A    between atoms: C9_9  and  C10_10 
REMARK    2  A    between atoms: C10_10  and  O2_12 
REMARK    3  A    between atoms: O2_12  and  C11_13 
ROOT
HETATM    1  C1  UNL     1       2.570   9.561  84.273  1.00  0.00     0.015 C 
HETATM    2  C2  UNL     1       1.100   9.333  84.187  1.00  0.00    -0.042 C 
HETATM    3  C3  UNL     1       0.351  10.349  84.977  1.00  0.00     0.014 C 
HETATM    4  C4  UNL     1      -1.101  10.084  85.137  1.00  0.00    -0.013 C 
HETATM    5  C5  UNL     1      -1.924  10.555  83.940  1.00  0.00     0.005 C 
HETATM    6  C6  UNL     1      -1.870   9.572  82.809  1.00  0.00     0.006 C 
HETATM    7  C7  UNL     1      -0.736   8.586  82.927  1.00  0.00     0.005 C 
HETATM    8  C8  UNL     1       0.584   9.290  82.759  1.00  0.00     0.015 C 
HETATM    9  C9  UNL     1      -0.710   7.862  84.234  1.00  0.00     0.053 C 
HETATM   10  C16 UNL     1      -1.444   8.626  85.329  1.00  0.00     0.025 C 
HETATM   11  C17 UNL     1       0.765   7.918  84.654  1.00  0.00     0.029 C 
ENDROOT
BRANCH   9  12
HETATM   12  C10 UNL     1      -1.162   6.468  84.121  1.00  0.00     0.268 C 
HETATM   13  O1  UNL     1      -0.781   5.672  83.223  1.00  0.00    -0.264 OA
BRANCH  12  14
HETATM   14  O2  UNL     1      -2.062   5.991  85.055  1.00  0.00    -0.315 OA
BRANCH  14  15
HETATM   15  C11 UNL     1      -1.702   5.275  86.211  1.00  0.00     0.135 C 
HETATM   16  C12 UNL     1      -2.790   4.376  86.711  1.00  0.00     0.060 C 
HETATM   17  C13 UNL     1      -2.252   3.700  87.962  1.00  0.00     0.235 C 
HETATM   18  N1  UNL     1      -1.297   2.700  87.534  1.00  0.00    -0.075 N 
HETATM   19  C14 UNL     1      -0.650   3.003  86.305  1.00  0.00     0.235 C 
ATOM     20  H12 UNL     1      -0.609   2.526  88.268  1.00  0.00     0.277 HD
ATOM     21  H11 UNL     1      -1.738   1.782  87.489  1.00  0.00     0.277 HD
HETATM   22  C15 UNL     1      -0.454   4.457  86.030  1.00  0.00     0.060 C 
ENDBRANCH  14  15
ENDBRANCH  12  14
ENDBRANCH   9  12
TORSDOF 3
ENDMDL
MODEL 2
REMARK VINA RESULT: -7.138225485      0.449      1.160
REMARK  3 active torsions:
REMARK  status: ('A' for Active; 'I' for Inactive)
REMARK    1  A    between atoms: C9_9  and  C10_10 
REMARK    2  A    between atoms: C10_10  and  O2_12 
REMARK    3  A    between atoms: O2_12  and  C11_13 
ROOT
HETATM    1  C1  UNL     1       2.670  10.043  83.950  1.00  0.00     0.015 C 
HETATM    2  C2  UNL     1       1.209   9.742  83.957  1.00  0.00    -0.042 C 
HETATM    3  C3  UNL     1       0.443  10.814  84.649  1.00  0.00     0.014 C 
HETATM    4  C4  UNL     1      -0.988  10.508  84.904  1.00  0.00    -0.013 C 
HETATM    5  C5  UNL     1      -1.877  10.791  83.695  1.00  0.00     0.005 C 
HETATM    6  C6  UNL     1      -1.819   9.678  82.691  1.00  0.00     0.006 C 
HETATM    7  C7  UNL     1      -0.634   8.766  82.878  1.00  0.00     0.005 C 
HETATM    8  C8  UNL     1       0.642   9.500  82.569  1.00  0.00     0.015 C 
HETATM    9  C9  UNL     1      -0.523   8.211  84.262  1.00  0.00     0.053 C 
HETATM   10  C16 UNL     1      -1.251   9.071  85.287  1.00  0.00     0.025 C 
HETATM   11  C17 UNL     1       0.961   8.382  84.607  1.00  0.00     0.029 C 
ENDROOT
BRANCH   9  12
HETATM   12  C10 UNL     1      -0.911   6.794  84.339  1.00  0.00     0.268 C 
HETATM   13  O1  UNL     1      -0.858   5.994  83.370  1.00  0.00    -0.264 OA
BRANCH  12  14
HETATM   14  O2  UNL     1      -1.364   6.303  85.549  1.00  0.00    -0.315 OA
BRANCH  14  15
HETATM   15  C11 UNL     1      -1.566   4.939  85.826  1.00  0.00     0.135 C 
HETATM   16  C12 UNL     1      -0.316   4.229  86.246  1.00  0.00     0.060 C 
HETATM   17  C13 UNL     1      -0.701   2.778  86.484  1.00  0.00     0.235 C 
HETATM   18  N1  UNL     1      -1.432   2.726  87.732  1.00  0.00    -0.075 N 
HETATM   19  C14 UNL     1      -2.131   3.924  88.046  1.00  0.00     0.235 C 
ATOM     20  H12 UNL     1      -2.068   1.928  87.740  1.00  0.00     0.277 HD
ATOM     21  H11 UNL     1      -0.813   2.463  88.498  1.00  0.00     0.277 HD
HETATM   22  C15 UNL     1      -2.621   4.703  86.871  1.00  0.00     0.060 C 
ENDBRANCH  14  15
ENDBRANCH  12  14
ENDBRANCH   9  12
TORSDOF 3
ENDMDL
MODEL 3
REMARK VINA RESULT: -7.126680421      1.313      2.821
REMARK  3 active torsions:
REMARK  status: ('A' for Active; 'I' for Inactive)
REMARK    1  A    between atoms: C9_9  and  C10_10 
REMARK    2  A    between atoms: C10_10  and  O2_12 
REMARK    3  A    between atoms: O2_12  and  C11_13 
ROOT
HETATM    1  C1  UNL     1      -2.748  10.185  84.248  1.00  0.00     0.015 C 
HETATM    2  C2  UNL     1      -1.295   9.871  84.142  1.00  0.00    -0.042 C 
HETATM    3  C3  UNL     1      -0.631  10.732  83.125  1.00  0.00     0.014 C 
HETATM    4  C4  UNL     1       0.763  10.353  82.784  1.00  0.00    -0.013 C 
HETATM    5  C5  UNL     1       1.785  10.907  83.775  1.00  0.00     0.005 C 
HETATM    6  C6  UNL     1       1.862  10.072  85.018  1.00  0.00     0.006 C 
HETATM    7  C7  UNL     1       0.677   9.159  85.199  1.00  0.00     0.005 C 
HETATM    8  C8  UNL     1      -0.564   9.964  85.470  1.00  0.00     0.015 C 
HETATM    9  C9  UNL     1       0.412   8.287  84.014  1.00  0.00     0.053 C 
HETATM   10  C16 UNL     1       1.001   8.863  82.732  1.00  0.00     0.025 C 
HETATM   11  C17 UNL     1      -1.106   8.391  83.815  1.00  0.00     0.029 C 
ENDROOT
BRANCH   9  12
HETATM   12  C10 UNL     1       0.809   6.888  84.236  1.00  0.00     0.268 C 
HETATM   13  O1  UNL     1       1.473   6.203  83.416  1.00  0.00    -0.264 OA
BRANCH  12  14
HETATM   14  O2  UNL     1       0.433   6.280  85.418  1.00  0.00    -0.315 OA
BRANCH  14  15
HETATM   15  C11 UNL     1      -0.451   5.190  85.504  1.00  0.00     0.135 C 
HETATM   16  C12 UNL     1      -0.069   4.200  86.562  1.00  0.00     0.060 C 
HETATM   17  C13 UNL     1      -1.104   3.088  86.508  1.00  0.00     0.235 C 
HETATM   18  N1  UNL     1      -2.321   3.603  87.096  1.00  0.00    -0.075 N 
HETATM   19  C14 UNL     1      -2.480   5.010  86.964  1.00  0.00     0.235 C 
ATOM     20  H12 UNL     1      -3.134   3.115  86.720  1.00  0.00     0.277 HD
ATOM     21  H11 UNL     1      -2.390   3.326  88.075  1.00  0.00     0.277 HD
HETATM   22  C15 UNL     1      -1.877   5.607  85.736  1.00  0.00     0.060 C 
ENDBRANCH  14  15
ENDBRANCH  12  14
ENDBRANCH   9  12
TORSDOF 3
ENDMDL
MODEL 4
REMARK VINA RESULT: -7.018074321      1.323      2.712
REMARK  3 active torsions:
REMARK  status: ('A' for Active; 'I' for Inactive)
REMARK    1  A    between atoms: C9_9  and  C10_10 
REMARK    2  A    between atoms: C10_10  and  O2_12 
REMARK    3  A    between atoms: O2_12  and  C11_13 
ROOT
HETATM    1  C1  UNL     1      -2.771   9.807  83.815  1.00  0.00     0.015 C 
HETATM    2  C2  UNL     1      -1.297   9.636  83.964  1.00  0.00    -0.042 C 
HETATM    3  C3  UNL     1      -0.556  10.485  82.992  1.00  0.00     0.014 C 
HETATM    4  C4  UNL     1       0.904  10.227  82.907  1.00  0.00    -0.013 C 
HETATM    5  C5  UNL     1       1.696  10.953  83.993  1.00  0.00     0.005 C 
HETATM    6  C6  UNL     1       1.643  10.222  85.301  1.00  0.00     0.006 C 
HETATM    7  C7  UNL     1       0.531   9.207  85.374  1.00  0.00     0.005 C 
HETATM    8  C8  UNL     1      -0.805   9.898  85.377  1.00  0.00     0.015 C 
HETATM    9  C9  UNL     1       0.543   8.230  84.243  1.00  0.00     0.053 C 
HETATM   10  C16 UNL     1       1.279   8.769  83.024  1.00  0.00     0.025 C 
HETATM   11  C17 UNL     1      -0.925   8.164  83.802  1.00  0.00     0.029 C 
ENDROOT
BRANCH   9  12
HETATM   12  C10 UNL     1       1.021   6.899  84.646  1.00  0.00     0.268 C 
HETATM   13  O1  UNL     1       2.221   6.631  84.915  1.00  0.00    -0.264 OA
BRANCH  12  14
HETATM   14  O2  UNL     1       0.102   5.871  84.739  1.00  0.00    -0.315 OA
BRANCH  14  15
HETATM   15  C11 UNL     1      -0.483   5.435  85.941  1.00  0.00     0.135 C 
HETATM   16  C12 UNL     1      -1.980   5.414  85.897  1.00  0.00     0.060 C 
HETATM   17  C13 UNL     1      -2.447   4.945  87.266  1.00  0.00     0.235 C 
HETATM   18  N1  UNL     1      -2.193   3.523  87.343  1.00  0.00    -0.075 N 
HETATM   19  C14 UNL     1      -1.099   3.083  86.547  1.00  0.00     0.235 C 
ATOM     20  H12 UNL     1      -2.067   3.234  88.314  1.00  0.00     0.277 HD
ATOM     21  H11 UNL     1      -3.036   2.996  87.113  1.00  0.00     0.277 HD
HETATM   22  C15 UNL     1      -0.001   4.078  86.371  1.00  0.00     0.060 C 
ENDBRANCH  14  15
ENDBRANCH  12  14
ENDBRANCH   9  12
TORSDOF 3
ENDMDL
MODEL 5
REMARK VINA RESULT: -6.969689502      1.139      2.153
REMARK  3 active torsions:
REMARK  status: ('A' for Active; 'I' for Inactive)
REMARK    1  A    between atoms: C9_9  and  C10_10 
REMARK    2  A    between atoms: C10_10  and  O2_12 
REMARK    3  A    between atoms: O2_12  and  C11_13 
ROOT
HETATM    1  C1  UNL     1       0.194  10.507  81.202  1.00  0.00     0.015 C 
HETATM    2  C2  UNL     1       0.059   9.757  82.483  1.00  0.00    -0.042 C 
HETATM    3  C3  UNL     1       0.841  10.405  83.571  1.00  0.00     0.014 C 
HETATM    4  C4  UNL     1       0.953   9.621  84.827  1.00  0.00    -0.013 C 
HETATM    5  C5  UNL     1      -0.262   9.787  85.737  1.00  0.00     0.005 C 
HETATM    6  C6  UNL     1      -1.406   8.923  85.299  1.00  0.00     0.006 C 
HETATM    7  C7  UNL     1      -1.270   8.421  83.885  1.00  0.00     0.005 C 
HETATM    8  C8  UNL     1      -1.385   9.564  82.914  1.00  0.00     0.015 C 
HETATM    9  C9  UNL     1       0.026   7.723  83.624  1.00  0.00     0.053 C 
HETATM   10  C16 UNL     1       1.110   8.134  84.612  1.00  0.00     0.025 C 
HETATM   11  C17 UNL     1       0.493   8.306  82.284  1.00  0.00     0.029 C 
ENDROOT
BRANCH   9  12
HETATM   12  C10 UNL     1      -0.123   6.263  83.528  1.00  0.00     0.268 C 
HETATM   13  O1  UNL     1      -0.484   5.657  82.486  1.00  0.00    -0.264 OA
BRANCH  12  14
HETATM   14  O2  UNL     1       0.148   5.501  84.648  1.00  0.00    -0.315 OA
BRANCH  14  15
HETATM   15  C11 UNL     1      -0.778   4.644  85.269  1.00  0.00     0.135 C 
HETATM   16  C12 UNL     1      -0.231   3.962  86.485  1.00  0.00     0.060 C 
HETATM   17  C13 UNL     1      -1.340   3.068  87.016  1.00  0.00     0.235 C 
HETATM   18  N1  UNL     1      -2.320   3.925  87.646  1.00  0.00    -0.075 N 
HETATM   19  C14 UNL     1      -2.383   5.236  87.100  1.00  0.00     0.235 C 
ATOM     20  H12 UNL     1      -3.241   3.486  87.630  1.00  0.00     0.277 HD
ATOM     21  H11 UNL     1      -2.164   3.965  88.654  1.00  0.00     0.277 HD
HETATM   22  C15 UNL     1      -2.058   5.337  85.647  1.00  0.00     0.060 C 
ENDBRANCH  14  15
ENDBRANCH  12  14
ENDBRANCH   9  12
TORSDOF 3
ENDMDL
