MODEL 1
REMARK VINA RESULT: -7.067408177      0.000      0.000
REMARK  3 active torsions:
REMARK  status: ('A' for Active; 'I' for Inactive)
REMARK    1  A    between atoms: C2_2  and  C4_4 
REMARK    2  A    between atoms: C6_6  and  C7_7 
REMARK    3  A    between atoms: N1_9  and  O1_11 
ROOT
HETATM    1  C4  UNL     1       1.035   6.997  83.258  1.00  0.00     0.065 C 
HETATM    2  C5  UNL     1       0.230   6.097  82.366  1.00  0.00     0.044 C 
HETATM    3  C6  UNL     1       0.940   6.894  84.725  1.00  0.00     0.088 C 
HETATM    4  C10 UNL     1       0.617   8.322  84.686  1.00  0.00     0.105 C 
HETATM    5  C11 UNL     1      -0.614   8.922  85.227  1.00  0.00     0.010 C 
HETATM    6  C12 UNL     1      -1.896   8.669  84.516  1.00  0.00     0.008 C 
HETATM    7  C13 UNL     1      -2.248   9.895  83.685  1.00  0.00     0.019 C 
HETATM    8  C14 UNL     1      -0.846  10.475  83.499  1.00  0.00     0.038 C 
HETATM    9  C15 UNL     1      -0.845  11.842  82.921  1.00  0.00     0.025 C 
HETATM   10  C16 UNL     1      -0.417  10.441  84.970  1.00  0.00     0.025 C 
HETATM   11  C17 UNL     1      -0.125   9.483  82.672  1.00  0.00     0.229 C 
HETATM   12  O2  UNL     1      -0.031   9.692  81.444  1.00  0.00    -0.272 OA
HETATM   13  N2  UNL     1       0.448   8.330  83.222  1.00  0.00    -0.332 N 
ENDROOT
BRANCH   3  14
HETATM   14  C7  UNL     1       0.106   5.925  85.379  1.00  0.00     0.015 C 
HETATM   15  C8  UNL     1      -1.384   5.893  85.354  1.00  0.00     0.066 C 
HETATM   16  N1  UNL     1       0.652   4.968  86.036  1.00  0.00    -0.275 N 
ATOM     17  H1  UNL     1       1.671   4.948  86.057  1.00  0.00     0.193 HD
BRANCH  16  18
HETATM   18  O1  UNL     1       0.009   3.983  86.701  1.00  0.00    -0.286 OA
HETATM   19  C9  UNL     1      -0.454   2.780  86.169  1.00  0.00     0.237 C 
ENDBRANCH  16  18
ENDBRANCH   3  14
BRANCH   1  20
HETATM   20  C2  UNL     1       2.436   7.060  82.736  1.00  0.00    -0.065 C 
HETATM   21  C1  UNL     1       3.011   6.073  82.057  1.00  0.00     0.016 C 
HETATM   22  C3  UNL     1       3.281   8.284  82.950  1.00  0.00     0.045 C 
ENDBRANCH   1  20
TORSDOF 3
ENDMDL
MODEL 2
REMARK VINA RESULT: -6.659177383      1.979      5.523
REMARK  3 active torsions:
REMARK  status: ('A' for Active; 'I' for Inactive)
REMARK    1  A    between atoms: C2_2  and  C4_4 
REMARK    2  A    between atoms: C6_6  and  C7_7 
REMARK    3  A    between atoms: N1_9  and  O1_11 
ROOT
HETATM    1  C4  UNL     1      -0.023   5.789  84.404  1.00  0.00     0.065 C 
HETATM    2  C5  UNL     1       1.233   6.383  84.973  1.00  0.00     0.044 C 
HETATM    3  C6  UNL     1      -1.261   6.582  84.306  1.00  0.00     0.088 C 
HETATM    4  C10 UNL     1      -1.879   5.494  85.066  1.00  0.00     0.105 C 
HETATM    5  C11 UNL     1      -2.565   5.654  86.359  1.00  0.00     0.010 C 
HETATM    6  C12 UNL     1      -1.744   5.955  87.562  1.00  0.00     0.008 C 
HETATM    7  C13 UNL     1      -1.568   4.677  88.371  1.00  0.00     0.019 C 
HETATM    8  C14 UNL     1      -1.759   3.653  87.252  1.00  0.00     0.038 C 
HETATM    9  C15 UNL     1      -1.892   2.259  87.746  1.00  0.00     0.025 C 
HETATM   10  C16 UNL     1      -3.064   4.218  86.682  1.00  0.00     0.025 C 
HETATM   11  C17 UNL     1      -0.607   3.851  86.347  1.00  0.00     0.229 C 
HETATM   12  O2  UNL     1       0.371   3.081  86.455  1.00  0.00    -0.272 OA
HETATM   13  N2  UNL     1      -0.583   4.867  85.383  1.00  0.00    -0.332 N 
ENDROOT
BRANCH   3  14
HETATM   14  C7  UNL     1      -1.333   7.957  84.715  1.00  0.00     0.015 C 
HETATM   15  C8  UNL     1      -2.523   8.845  84.592  1.00  0.00     0.066 C 
HETATM   16  N1  UNL     1      -0.311   8.503  85.264  1.00  0.00    -0.275 N 
ATOM     17  H1  UNL     1       0.516   7.917  85.383  1.00  0.00     0.193 HD
BRANCH  16  18
HETATM   18  O1  UNL     1      -0.220   9.777  85.702  1.00  0.00    -0.286 OA
HETATM   19  C9  UNL     1       0.498  10.815  85.108  1.00  0.00     0.237 C 
ENDBRANCH  16  18
ENDBRANCH   3  14
BRANCH   1  20
HETATM   20  C2  UNL     1       0.325   5.036  83.159  1.00  0.00    -0.065 C 
HETATM   21  C1  UNL     1      -0.014   3.767  82.949  1.00  0.00     0.016 C 
HETATM   22  C3  UNL     1       1.084   5.701  82.046  1.00  0.00     0.045 C 
ENDBRANCH   1  20
TORSDOF 3
ENDMDL
MODEL 3
REMARK VINA RESULT: -6.536588830      1.351      1.615
REMARK  3 active torsions:
REMARK  status: ('A' for Active; 'I' for Inactive)
REMARK    1  A    between atoms: C2_2  and  C4_4 
REMARK    2  A    between atoms: C6_6  and  C7_7 
REMARK    3  A    between atoms: N1_9  and  O1_11 
ROOT
HETATM    1  C4  UNL     1       1.211   7.505  82.661  1.00  0.00     0.065 C 
HETATM    2  C5  UNL     1      -0.077   7.217  81.946  1.00  0.00     0.044 C 
HETATM    3  C6  UNL     1       1.401   7.112  84.069  1.00  0.00     0.088 C 
HETATM    4  C10 UNL     1       1.730   8.521  84.295  1.00  0.00     0.105 C 
HETATM    5  C11 UNL     1       1.030   9.408  85.240  1.00  0.00     0.010 C 
HETATM    6  C12 UNL     1      -0.354   9.840  84.912  1.00  0.00     0.008 C 
HETATM    7  C13 UNL     1      -0.311  11.263  84.371  1.00  0.00     0.019 C 
HETATM    8  C14 UNL     1       1.127  11.282  83.852  1.00  0.00     0.038 C 
HETATM    9  C15 UNL     1       1.595  12.637  83.463  1.00  0.00     0.025 C 
HETATM   10  C16 UNL     1       1.806  10.749  85.117  1.00  0.00     0.025 C 
HETATM   11  C17 UNL     1       1.148  10.309  82.739  1.00  0.00     0.229 C 
HETATM   12  O2  UNL     1       1.054  10.742  81.570  1.00  0.00    -0.272 OA
HETATM   13  N2  UNL     1       1.268   8.930  82.956  1.00  0.00    -0.332 N 
ENDROOT
BRANCH   3  14
HETATM   14  C7  UNL     1       0.393   6.418  84.820  1.00  0.00     0.015 C 
HETATM   15  C8  UNL     1      -1.073   6.681  84.770  1.00  0.00     0.066 C 
HETATM   16  N1  UNL     1       0.739   5.460  85.599  1.00  0.00    -0.275 N 
ATOM     17  H1  UNL     1       1.734   5.239  85.643  1.00  0.00     0.193 HD
BRANCH  16  18
HETATM   18  O1  UNL     1      -0.084   4.713  86.367  1.00  0.00    -0.286 OA
HETATM   19  C9  UNL     1      -0.372   3.358  86.210  1.00  0.00     0.237 C 
ENDBRANCH  16  18
ENDBRANCH   3  14
BRANCH   1  20
HETATM   20  C2  UNL     1       2.351   7.141  81.763  1.00  0.00    -0.065 C 
HETATM   21  C1  UNL     1       2.649   7.804  80.650  1.00  0.00     0.016 C 
HETATM   22  C3  UNL     1       3.247   5.981  82.092  1.00  0.00     0.045 C 
ENDBRANCH   1  20
TORSDOF 3
ENDMDL
MODEL 4
REMARK VINA RESULT: -6.494390571      1.811      4.088
REMARK  3 active torsions:
REMARK  status: ('A' for Active; 'I' for Inactive)
REMARK    1  A    between atoms: C2_2  and  C4_4 
REMARK    2  A    between atoms: C6_6  and  C7_7 
REMARK    3  A    between atoms: N1_9  and  O1_11 
ROOT
HETATM    1  C4  UNL     1       0.362   7.330  84.112  1.00  0.00     0.065 C 
HETATM    2  C5  UNL     1       1.015   6.645  85.277  1.00  0.00     0.044 C 
HETATM    3  C6  UNL     1      -0.269   6.553  83.031  1.00  0.00     0.088 C 
HETATM    4  C10 UNL     1       0.608   7.309  82.135  1.00  0.00     0.105 C 
HETATM    5  C11 UNL     1       1.585   6.711  81.210  1.00  0.00     0.010 C 
HETATM    6  C12 UNL     1       2.804   6.079  81.780  1.00  0.00     0.008 C 
HETATM    7  C13 UNL     1       3.976   7.037  81.620  1.00  0.00     0.019 C 
HETATM    8  C14 UNL     1       3.206   8.356  81.552  1.00  0.00     0.038 C 
HETATM    9  C15 UNL     1       4.047   9.509  81.146  1.00  0.00     0.025 C 
HETATM   10  C16 UNL     1       2.191   7.942  80.481  1.00  0.00     0.025 C 
HETATM   11  C17 UNL     1       2.593   8.513  82.888  1.00  0.00     0.229 C 
HETATM   12  O2  UNL     1       3.162   9.253  83.719  1.00  0.00    -0.272 OA
HETATM   13  N2  UNL     1       1.405   7.862  83.245  1.00  0.00    -0.332 N 
ENDROOT
BRANCH   3  14
HETATM   14  C7  UNL     1      -0.321   5.117  83.040  1.00  0.00     0.015 C 
HETATM   15  C8  UNL     1      -0.637   4.246  81.873  1.00  0.00     0.066 C 
HETATM   16  N1  UNL     1      -0.055   4.486  84.124  1.00  0.00    -0.275 N 
ATOM     17  H1  UNL     1       0.184   5.051  84.938  1.00  0.00     0.193 HD
BRANCH  16  18
HETATM   18  O1  UNL     1      -0.061   3.146  84.294  1.00  0.00    -0.286 OA
HETATM   19  C9  UNL     1      -0.151   2.458  85.504  1.00  0.00     0.237 C 
ENDBRANCH  16  18
ENDBRANCH   3  14
BRANCH   1  20
HETATM   20  C2  UNL     1      -0.475   8.458  84.627  1.00  0.00    -0.065 C 
HETATM   21  C1  UNL     1      -1.797   8.506  84.504  1.00  0.00     0.016 C 
HETATM   22  C3  UNL     1       0.156   9.619  85.342  1.00  0.00     0.045 C 
ENDBRANCH   1  20
TORSDOF 3
ENDMDL
MODEL 5
REMARK VINA RESULT: -6.476572365      1.162      1.418
REMARK  3 active torsions:
REMARK  status: ('A' for Active; 'I' for Inactive)
REMARK    1  A    between atoms: C2_2  and  C4_4 
REMARK    2  A    between atoms: C6_6  and  C7_7 
REMARK    3  A    between atoms: N1_9  and  O1_11 
ROOT
HETATM    1  C4  UNL     1       1.151   7.311  82.200  1.00  0.00     0.065 C 
HETATM    2  C5  UNL     1       0.178   6.947  81.117  1.00  0.00     0.044 C 
HETATM    3  C6  UNL     1       1.142   6.608  83.496  1.00  0.00     0.088 C 
HETATM    4  C10 UNL     1       1.006   7.942  84.084  1.00  0.00     0.105 C 
HETATM    5  C11 UNL     1      -0.098   8.365  84.962  1.00  0.00     0.010 C 
HETATM    6  C12 UNL     1      -1.447   8.551  84.363  1.00  0.00     0.008 C 
HETATM    7  C13 UNL     1      -1.692  10.040  84.156  1.00  0.00     0.019 C 
HETATM    8  C14 UNL     1      -0.243  10.515  84.065  1.00  0.00     0.038 C 
HETATM    9  C15 UNL     1      -0.104  11.993  84.103  1.00  0.00     0.025 C 
HETATM   10  C16 UNL     1       0.276   9.827  85.331  1.00  0.00     0.025 C 
HETATM   11  C17 UNL     1       0.286   9.905  82.826  1.00  0.00     0.229 C 
HETATM   12  O2  UNL     1       0.324  10.603  81.790  1.00  0.00    -0.272 OA
HETATM   13  N2  UNL     1       0.741   8.581  82.783  1.00  0.00    -0.332 N 
ENDROOT
BRANCH   3  14
HETATM   14  C7  UNL     1       0.236   5.532  83.785  1.00  0.00     0.015 C 
HETATM   15  C8  UNL     1      -0.465   4.684  82.780  1.00  0.00     0.066 C 
HETATM   16  N1  UNL     1      -0.002   5.223  85.006  1.00  0.00    -0.275 N 
ATOM     17  H1  UNL     1       0.476   5.770  85.721  1.00  0.00     0.193 HD
BRANCH  16  18
HETATM   18  O1  UNL     1      -0.824   4.242  85.440  1.00  0.00    -0.286 OA
HETATM   19  C9  UNL     1      -0.460   3.106  86.161  1.00  0.00     0.237 C 
ENDBRANCH  16  18
ENDBRANCH   3  14
BRANCH   1  20
HETATM   20  C2  UNL     1       2.510   7.462  81.592  1.00  0.00    -0.065 C 
HETATM   21  C1  UNL     1       2.881   8.519  80.878  1.00  0.00     0.016 C 
HETATM   22  C3  UNL     1       3.556   6.399  81.778  1.00  0.00     0.045 C 
ENDBRANCH   1  20
TORSDOF 3
ENDMDL
