MODEL 1
REMARK VINA RESULT: -6.392089379      0.000      0.000
REMARK  2 active torsions:
REMARK  status: ('A' for Active; 'I' for Inactive)
REMARK       I    between atoms: N1_2  and  C2_4 
REMARK    1  A    between atoms: C2_4  and  C3_6 
REMARK    2  A    between atoms: C6_9  and  C8_11 
ROOT
HETATM    1  C3  UNL     1       1.171   8.257  82.800  1.00  0.00     0.118 C 
HETATM    2  C4  UNL     1       1.462   6.900  83.463  1.00  0.00     0.032 C 
HETATM    3  C5  UNL     1       2.301   7.184  84.647  1.00  0.00     0.014 C 
HETATM    4  C6  UNL     1       0.158   6.295  83.583  1.00  0.00     0.068 C 
HETATM    5  C7  UNL     1       0.096   5.106  82.599  1.00  0.00     0.047 C 
HETATM    6  O3  UNL     1      -0.845   7.156  83.147  1.00  0.00    -0.369 OA
HETATM    7  C14 UNL     1      -0.265   8.162  82.408  1.00  0.00     0.067 C 
HETATM    8  C15 UNL     1      -0.453   7.966  80.913  1.00  0.00     0.046 C 
HETATM    9  C16 UNL     1      -1.029   9.444  82.695  1.00  0.00     0.046 C 
ENDROOT
BRANCH   4  10
HETATM   10  C8  UNL     1      -0.317   5.723  84.898  1.00  0.00     0.044 C 
HETATM   11  C9  UNL     1      -1.507   6.394  85.477  1.00  0.00     0.012 C 
HETATM   12  C10 UNL     1      -2.373   5.534  86.347  1.00  0.00     0.032 C 
HETATM   13  C11 UNL     1      -1.601   4.339  86.823  1.00  0.00     0.117 C 
HETATM   14  C12 UNL     1      -2.437   3.480  87.725  1.00  0.00     0.039 C 
HETATM   15  O2  UNL     1      -1.305   3.631  85.643  1.00  0.00    -0.386 OA
HETATM   16  C13 UNL     1      -0.290   4.231  84.945  1.00  0.00     0.175 C 
ENDBRANCH   4  10
BRANCH   1  17
HETATM   17  C2  UNL     1       2.105   8.529  81.696  1.00  0.00     0.224 C 
HETATM   18  N1  UNL     1       2.826   7.488  81.048  1.00  0.00    -0.365 N 
HETATM   19  C1  UNL     1       3.749   7.735  79.961  1.00  0.00     0.149 C 
ATOM     20  H1  UNL     1       2.686   6.528  81.363  1.00  0.00     0.161 HD
HETATM   21  O1  UNL     1       2.310   9.697  81.273  1.00  0.00    -0.273 OA
ENDBRANCH   1  17
TORSDOF 2
ENDMDL
MODEL 2
REMARK VINA RESULT: -6.039733264      2.186      2.570
REMARK  2 active torsions:
REMARK  status: ('A' for Active; 'I' for Inactive)
REMARK       I    between atoms: N1_2  and  C2_4 
REMARK    1  A    between atoms: C2_4  and  C3_6 
REMARK    2  A    between atoms: C6_9  and  C8_11 
ROOT
HETATM    1  C3  UNL     1      -0.565  10.282  83.817  1.00  0.00     0.118 C 
HETATM    2  C4  UNL     1       0.416   9.124  84.066  1.00  0.00     0.032 C 
HETATM    3  C5  UNL     1       1.085   9.411  85.353  1.00  0.00     0.014 C 
HETATM    4  C6  UNL     1      -0.395   7.945  83.877  1.00  0.00     0.068 C 
HETATM    5  C7  UNL     1       0.075   7.252  82.580  1.00  0.00     0.047 C 
HETATM    6  O3  UNL     1      -1.724   8.277  83.628  1.00  0.00    -0.369 OA
HETATM    7  C14 UNL     1      -1.785   9.607  83.283  1.00  0.00     0.067 C 
HETATM    8  C15 UNL     1      -1.959   9.812  81.787  1.00  0.00     0.046 C 
HETATM    9  C16 UNL     1      -3.065  10.179  83.870  1.00  0.00     0.046 C 
ENDROOT
BRANCH   4  10
HETATM   10  C8  UNL     1      -0.419   6.843  84.908  1.00  0.00     0.044 C 
HETATM   11  C9  UNL     1      -1.722   6.657  85.593  1.00  0.00     0.012 C 
HETATM   12  C10 UNL     1      -2.000   5.269  86.087  1.00  0.00     0.032 C 
HETATM   13  C11 UNL     1      -0.718   4.499  86.208  1.00  0.00     0.117 C 
HETATM   14  C12 UNL     1      -0.965   3.117  86.735  1.00  0.00     0.039 C 
HETATM   15  O2  UNL     1      -0.241   4.419  84.886  1.00  0.00    -0.386 OA
HETATM   16  C13 UNL     1       0.304   5.609  84.481  1.00  0.00     0.175 C 
ENDBRANCH   4  10
BRANCH   1  17
HETATM   17  C2  UNL     1       0.020  11.305  82.938  1.00  0.00     0.224 C 
HETATM   18  N1  UNL     1       1.123  11.023  82.086  1.00  0.00    -0.365 N 
HETATM   19  C1  UNL     1       1.714  12.015  81.215  1.00  0.00     0.149 C 
ATOM     20  H1  UNL     1       1.514  10.080  82.089  1.00  0.00     0.161 HD
HETATM   21  O1  UNL     1      -0.428  12.481  82.899  1.00  0.00    -0.273 OA
ENDBRANCH   1  17
TORSDOF 2
ENDMDL
MODEL 3
REMARK VINA RESULT: -5.767687754      2.011      3.004
REMARK  2 active torsions:
REMARK  status: ('A' for Active; 'I' for Inactive)
REMARK       I    between atoms: N1_2  and  C2_4 
REMARK    1  A    between atoms: C2_4  and  C3_6 
REMARK    2  A    between atoms: C6_9  and  C8_11 
ROOT
HETATM    1  C3  UNL     1       0.853   8.923  82.791  1.00  0.00     0.118 C 
HETATM    2  C4  UNL     1      -0.383   8.007  82.792  1.00  0.00     0.032 C 
HETATM    3  C5  UNL     1      -0.097   6.918  81.834  1.00  0.00     0.014 C 
HETATM    4  C6  UNL     1      -0.611   7.747  84.193  1.00  0.00     0.068 C 
HETATM    5  C7  UNL     1      -1.912   8.472  84.602  1.00  0.00     0.047 C 
HETATM    6  O3  UNL     1       0.373   8.330  84.986  1.00  0.00    -0.369 OA
HETATM    7  C14 UNL     1       1.044   9.264  84.231  1.00  0.00     0.067 C 
HETATM    8  C15 UNL     1       0.621  10.687  84.557  1.00  0.00     0.046 C 
HETATM    9  C16 UNL     1       2.507   9.227  84.644  1.00  0.00     0.046 C 
ENDROOT
BRANCH   4  10
HETATM   10  C8  UNL     1      -0.788   6.337  84.704  1.00  0.00     0.044 C 
HETATM   11  C9  UNL     1       0.403   5.765  85.381  1.00  0.00     0.012 C 
HETATM   12  C10 UNL     1       0.116   4.728  86.425  1.00  0.00     0.032 C 
HETATM   13  C11 UNL     1      -1.256   4.157  86.220  1.00  0.00     0.117 C 
HETATM   14  C12 UNL     1      -1.554   3.089  87.231  1.00  0.00     0.039 C 
HETATM   15  O2  UNL     1      -2.116   5.251  86.425  1.00  0.00    -0.386 OA
HETATM   16  C13 UNL     1      -2.113   6.096  85.346  1.00  0.00     0.175 C 
ENDBRANCH   4  10
BRANCH   1  17
HETATM   17  C2  UNL     1       0.670  10.074  81.894  1.00  0.00     0.224 C 
HETATM   18  N1  UNL     1      -0.621  10.518  81.494  1.00  0.00    -0.365 N 
HETATM   19  C1  UNL     1      -0.822  11.647  80.611  1.00  0.00     0.149 C 
ATOM     20  H1  UNL     1      -1.439  10.019  81.843  1.00  0.00     0.161 HD
HETATM   21  O1  UNL     1       1.648  10.721  81.437  1.00  0.00    -0.273 OA
ENDBRANCH   1  17
TORSDOF 2
ENDMDL
MODEL 4
REMARK VINA RESULT: -5.698191278      2.584      5.696
REMARK  2 active torsions:
REMARK  status: ('A' for Active; 'I' for Inactive)
REMARK       I    between atoms: N1_2  and  C2_4 
REMARK    1  A    between atoms: C2_4  and  C3_6 
REMARK    2  A    between atoms: C6_9  and  C8_11 
ROOT
HETATM    1  C3  UNL     1       0.594   6.321  83.184  1.00  0.00     0.118 C 
HETATM    2  C4  UNL     1      -0.469   7.389  83.493  1.00  0.00     0.032 C 
HETATM    3  C5  UNL     1      -0.675   7.364  84.957  1.00  0.00     0.014 C 
HETATM    4  C6  UNL     1       0.023   8.563  82.814  1.00  0.00     0.068 C 
HETATM    5  C7  UNL     1      -0.920   8.851  81.625  1.00  0.00     0.047 C 
HETATM    6  O3  UNL     1       1.261   8.328  82.222  1.00  0.00    -0.369 OA
HETATM    7  C14 UNL     1       1.462   6.969  82.158  1.00  0.00     0.067 C 
HETATM    8  C15 UNL     1       1.233   6.413  80.762  1.00  0.00     0.046 C 
HETATM    9  C16 UNL     1       2.939   6.709  82.404  1.00  0.00     0.046 C 
ENDROOT
BRANCH   4  10
HETATM   10  C8  UNL     1       0.140   9.886  83.532  1.00  0.00     0.044 C 
HETATM   11  C9  UNL     1       1.491  10.189  84.066  1.00  0.00     0.012 C 
HETATM   12  C10 UNL     1       1.829  11.645  84.178  1.00  0.00     0.032 C 
HETATM   13  C11 UNL     1       0.574  12.467  84.181  1.00  0.00     0.117 C 
HETATM   14  C12 UNL     1       0.885  13.927  84.329  1.00  0.00     0.039 C 
HETATM   15  O2  UNL     1       0.009  12.233  82.914  1.00  0.00    -0.386 OA
HETATM   16  C13 UNL     1      -0.587  11.000  82.855  1.00  0.00     0.175 C 
ENDBRANCH   4  10
BRANCH   1  17
HETATM   17  C2  UNL     1      -0.022   5.051  82.771  1.00  0.00     0.224 C 
HETATM   18  N1  UNL     1       0.604   3.798  83.014  1.00  0.00    -0.365 N 
HETATM   19  C1  UNL     1       0.015   2.538  82.615  1.00  0.00     0.149 C 
ATOM     20  H1  UNL     1       1.507   3.786  83.489  1.00  0.00     0.161 HD
HETATM   21  O1  UNL     1      -1.135   5.013  82.182  1.00  0.00    -0.273 OA
ENDBRANCH   1  17
TORSDOF 2
ENDMDL
MODEL 5
REMARK VINA RESULT: -5.695509784      2.020      2.438
REMARK  2 active torsions:
REMARK  status: ('A' for Active; 'I' for Inactive)
REMARK       I    between atoms: N1_2  and  C2_4 
REMARK    1  A    between atoms: C2_4  and  C3_6 
REMARK    2  A    between atoms: C6_9  and  C8_11 
ROOT
HETATM    1  C3  UNL     1      -0.226  10.273  83.351  1.00  0.00     0.118 C 
HETATM    2  C4  UNL     1       0.620   9.397  84.290  1.00  0.00     0.032 C 
HETATM    3  C5  UNL     1       0.475   9.973  85.645  1.00  0.00     0.014 C 
HETATM    4  C6  UNL     1       0.186   8.055  83.985  1.00  0.00     0.068 C 
HETATM    5  C7  UNL     1       1.349   7.334  83.269  1.00  0.00     0.047 C 
HETATM    6  O3  UNL     1      -0.847   8.054  83.052  1.00  0.00    -0.369 OA
HETATM    7  C14 UNL     1      -0.888   9.289  82.446  1.00  0.00     0.067 C 
HETATM    8  C15 UNL     1      -0.280   9.273  81.053  1.00  0.00     0.046 C 
HETATM    9  C16 UNL     1      -2.347   9.630  82.192  1.00  0.00     0.046 C 
ENDROOT
BRANCH   4  10
HETATM   10  C8  UNL     1      -0.231   7.103  85.080  1.00  0.00     0.044 C 
HETATM   11  C9  UNL     1      -1.689   6.833  85.150  1.00  0.00     0.012 C 
HETATM   12  C10 UNL     1      -2.071   5.497  85.712  1.00  0.00     0.032 C 
HETATM   13  C11 UNL     1      -0.936   4.930  86.513  1.00  0.00     0.117 C 
HETATM   14  C12 UNL     1      -1.308   3.607  87.116  1.00  0.00     0.039 C 
HETATM   15  O2  UNL     1       0.089   4.744  85.568  1.00  0.00    -0.386 OA
HETATM   16  C13 UNL     1       0.683   5.934  85.237  1.00  0.00     0.175 C 
ENDBRANCH   4  10
BRANCH   1  17
HETATM   17  C2  UNL     1       0.597  11.290  82.677  1.00  0.00     0.224 C 
HETATM   18  N1  UNL     1       2.005  11.151  82.545  1.00  0.00    -0.365 N 
HETATM   19  C1  UNL     1       2.831  12.139  81.887  1.00  0.00     0.149 C 
ATOM     20  H1  UNL     1       2.453  10.319  82.931  1.00  0.00     0.161 HD
HETATM   21  O1  UNL     1       0.090  12.332  82.185  1.00  0.00    -0.273 OA
ENDBRANCH   1  17
TORSDOF 2
ENDMDL
