MODEL 1
REMARK VINA RESULT: -6.744060778      0.000      0.000
REMARK  3 active torsions:
REMARK  status: ('A' for Active; 'I' for Inactive)
REMARK    1  A    between atoms: C4_4  and  C5_5 
REMARK    2  A    between atoms: C9_10  and  N1_11 
REMARK    3  A    between atoms: C14_16  and  C15_17 
ROOT
HETATM    1  C5  UNL     1      -0.867   8.798  82.651  1.00  0.00     0.040 C 
HETATM    2  C6  UNL     1      -1.075   8.783  81.130  1.00  0.00     0.084 C 
HETATM    3  S1  UNL     1       0.510   8.527  80.354  1.00  0.00    -0.168 SA
HETATM    4  C7  UNL     1       1.811   7.983  81.443  1.00  0.00     0.076 C 
HETATM    5  C8  UNL     1       1.426   7.830  82.876  1.00  0.00     0.036 C 
HETATM    6  C9  UNL     1      -0.084   7.601  83.031  1.00  0.00     0.092 C 
ENDROOT
BRANCH   6   7
HETATM    7  N1  UNL     1      -0.309   6.970  84.242  1.00  0.00    -0.387 N 
HETATM    8  C10 UNL     1      -1.556   6.640  84.747  1.00  0.00     0.128 C 
HETATM    9  C11 UNL     1      -1.299   5.456  85.686  1.00  0.00     0.028 A 
HETATM   10  C12 UNL     1       0.166   5.464  85.891  1.00  0.00     0.045 A 
HETATM   11  C14 UNL     1      -0.480   4.340  85.154  1.00  0.00     0.102 A 
HETATM   12  C13 UNL     1       0.768   6.578  85.063  1.00  0.00     0.064 C 
BRANCH  11  13
HETATM   13  C15 UNL     1      -0.485   3.045  85.862  1.00  0.00     0.178 C 
HETATM   14  O1  UNL     1      -0.408   1.956  85.243  1.00  0.00    -0.648 OA
HETATM   15  O2  UNL     1      -0.573   2.978  87.245  1.00  0.00    -0.648 OA
ENDBRANCH  11  13
ENDBRANCH   6   7
BRANCH   1  16
HETATM   16  C4  UNL     1      -0.195  10.092  82.954  1.00  0.00    -0.017 C 
HETATM   17  C2  UNL     1      -0.461  10.818  84.018  1.00  0.00    -0.091 C 
HETATM   18  C1  UNL     1       0.255  12.092  84.245  1.00  0.00     0.042 C 
HETATM   19  C3  UNL     1      -1.486  10.384  84.998  1.00  0.00     0.042 C 
ENDBRANCH   1  16
TORSDOF 3
ENDMDL
MODEL 2
REMARK VINA RESULT: -6.565340562      1.800      3.324
REMARK  3 active torsions:
REMARK  status: ('A' for Active; 'I' for Inactive)
REMARK    1  A    between atoms: C4_4  and  C5_5 
REMARK    2  A    between atoms: C9_10  and  N1_11 
REMARK    3  A    between atoms: C14_16  and  C15_17 
ROOT
HETATM    1  C5  UNL     1       0.955   7.885  83.646  1.00  0.00     0.040 C 
HETATM    2  C6  UNL     1       2.125   8.750  84.137  1.00  0.00     0.084 C 
HETATM    3  S1  UNL     1       1.451  10.165  84.988  1.00  0.00    -0.168 SA
HETATM    4  C7  UNL     1      -0.279  10.053  85.399  1.00  0.00     0.076 C 
HETATM    5  C8  UNL     1      -0.962   8.802  84.961  1.00  0.00     0.036 C 
HETATM    6  C9  UNL     1       0.036   7.649  84.782  1.00  0.00     0.092 C 
ENDROOT
BRANCH   6   7
HETATM    7  N1  UNL     1      -0.652   6.453  84.892  1.00  0.00    -0.387 N 
HETATM    8  C10 UNL     1      -0.167   5.218  84.496  1.00  0.00     0.128 C 
HETATM    9  C11 UNL     1      -0.918   4.203  85.364  1.00  0.00     0.028 A 
HETATM   10  C12 UNL     1      -2.044   4.973  85.936  1.00  0.00     0.045 A 
HETATM   11  C14 UNL     1      -0.959   4.464  86.823  1.00  0.00     0.102 A 
HETATM   12  C13 UNL     1      -1.937   6.410  85.469  1.00  0.00     0.064 C 
BRANCH  11  13
HETATM   13  C15 UNL     1      -1.355   3.375  87.737  1.00  0.00     0.178 C 
HETATM   14  O1  UNL     1      -1.466   3.560  88.974  1.00  0.00    -0.648 OA
HETATM   15  O2  UNL     1      -1.623   2.098  87.266  1.00  0.00    -0.648 OA
ENDBRANCH  11  13
ENDBRANCH   6   7
BRANCH   1  16
HETATM   16  C4  UNL     1       0.347   8.632  82.511  1.00  0.00    -0.017 C 
HETATM   17  C2  UNL     1      -0.002   8.070  81.374  1.00  0.00    -0.091 C 
HETATM   18  C1  UNL     1      -0.602   8.885  80.297  1.00  0.00     0.042 C 
HETATM   19  C3  UNL     1       0.209   6.619  81.147  1.00  0.00     0.042 C 
ENDBRANCH   1  16
TORSDOF 3
ENDMDL
MODEL 3
REMARK VINA RESULT: -6.495399387      1.695      2.920
REMARK  3 active torsions:
REMARK  status: ('A' for Active; 'I' for Inactive)
REMARK    1  A    between atoms: C4_4  and  C5_5 
REMARK    2  A    between atoms: C9_10  and  N1_11 
REMARK    3  A    between atoms: C14_16  and  C15_17 
ROOT
HETATM    1  C5  UNL     1       0.862   8.717  83.170  1.00  0.00     0.040 C 
HETATM    2  C6  UNL     1       2.171   9.429  83.540  1.00  0.00     0.084 C 
HETATM    3  S1  UNL     1       1.850  10.493  84.935  1.00  0.00    -0.168 SA
HETATM    4  C7  UNL     1       0.304  10.205  85.772  1.00  0.00     0.076 C 
HETATM    5  C8  UNL     1      -0.548   9.126  85.193  1.00  0.00     0.036 C 
HETATM    6  C9  UNL     1       0.290   8.116  84.395  1.00  0.00     0.092 C 
ENDROOT
BRANCH   6   7
HETATM    7  N1  UNL     1      -0.407   6.922  84.332  1.00  0.00    -0.387 N 
HETATM    8  C10 UNL     1      -0.106   5.870  83.483  1.00  0.00     0.128 C 
HETATM    9  C11 UNL     1      -0.659   4.626  84.187  1.00  0.00     0.028 A 
HETATM   10  C12 UNL     1      -1.557   5.166  85.232  1.00  0.00     0.045 A 
HETATM   11  C14 UNL     1      -0.307   4.448  85.617  1.00  0.00     0.102 A 
HETATM   12  C13 UNL     1      -1.500   6.678  85.188  1.00  0.00     0.064 C 
BRANCH  11  13
HETATM   13  C15 UNL     1      -0.510   3.130  86.248  1.00  0.00     0.178 C 
HETATM   14  O1  UNL     1      -0.719   3.015  87.481  1.00  0.00    -0.648 OA
HETATM   15  O2  UNL     1      -0.477   1.960  85.503  1.00  0.00    -0.648 OA
ENDBRANCH  11  13
ENDBRANCH   6   7
BRANCH   1  16
HETATM   16  C4  UNL     1       0.002   9.755  82.538  1.00  0.00    -0.017 C 
HETATM   17  C2  UNL     1      -0.659   9.568  81.416  1.00  0.00    -0.091 C 
HETATM   18  C1  UNL     1      -1.493  10.653  80.856  1.00  0.00     0.042 C 
HETATM   19  C3  UNL     1      -0.572   8.278  80.689  1.00  0.00     0.042 C 
ENDBRANCH   1  16
TORSDOF 3
ENDMDL
MODEL 4
REMARK VINA RESULT: -6.431953852      1.594      1.758
REMARK  3 active torsions:
REMARK  status: ('A' for Active; 'I' for Inactive)
REMARK    1  A    between atoms: C4_4  and  C5_5 
REMARK    2  A    between atoms: C9_10  and  N1_11 
REMARK    3  A    between atoms: C14_16  and  C15_17 
ROOT
HETATM    1  C5  UNL     1      -0.204   8.097  83.101  1.00  0.00     0.040 C 
HETATM    2  C6  UNL     1      -0.442   8.047  81.585  1.00  0.00     0.084 C 
HETATM    3  S1  UNL     1       0.814   7.010  80.859  1.00  0.00    -0.168 SA
HETATM    4  C7  UNL     1       1.742   6.018  82.012  1.00  0.00     0.076 C 
HETATM    5  C8  UNL     1       1.375   6.191  83.447  1.00  0.00     0.036 C 
HETATM    6  C9  UNL     1      -0.062   6.711  83.601  1.00  0.00     0.092 C 
ENDROOT
BRANCH   6   7
HETATM    7  N1  UNL     1      -0.518   6.369  84.862  1.00  0.00    -0.387 N 
HETATM    8  C10 UNL     1      -1.791   6.629  85.344  1.00  0.00     0.128 C 
HETATM    9  C11 UNL     1      -2.031   5.559  86.415  1.00  0.00     0.028 A 
HETATM   10  C12 UNL     1      -0.687   5.002  86.683  1.00  0.00     0.045 A 
HETATM   11  C14 UNL     1      -1.734   4.154  86.043  1.00  0.00     0.102 A 
HETATM   12  C13 UNL     1       0.311   5.676  85.767  1.00  0.00     0.064 C 
BRANCH  11  13
HETATM   13  C15 UNL     1      -2.259   3.062  86.885  1.00  0.00     0.178 C 
HETATM   14  O1  UNL     1      -3.444   3.061  87.299  1.00  0.00    -0.648 OA
HETATM   15  O2  UNL     1      -1.463   1.988  87.254  1.00  0.00    -0.648 OA
ENDBRANCH  11  13
ENDBRANCH   6   7
BRANCH   1  16
HETATM   16  C4  UNL     1       1.005   8.945  83.293  1.00  0.00    -0.017 C 
HETATM   17  C2  UNL     1       1.183   9.733  84.331  1.00  0.00    -0.091 C 
HETATM   18  C1  UNL     1       2.415  10.542  84.445  1.00  0.00     0.042 C 
HETATM   19  C3  UNL     1       0.153   9.835  85.394  1.00  0.00     0.042 C 
ENDBRANCH   1  16
TORSDOF 3
ENDMDL
MODEL 5
REMARK VINA RESULT: -6.388803176      1.669      3.239
REMARK  3 active torsions:
REMARK  status: ('A' for Active; 'I' for Inactive)
REMARK    1  A    between atoms: C4_4  and  C5_5 
REMARK    2  A    between atoms: C9_10  and  N1_11 
REMARK    3  A    between atoms: C14_16  and  C15_17 
ROOT
HETATM    1  C5  UNL     1       1.315   8.299  83.521  1.00  0.00     0.040 C 
HETATM    2  C6  UNL     1       2.349   9.172  84.248  1.00  0.00     0.084 C 
HETATM    3  S1  UNL     1       1.504  10.592  84.919  1.00  0.00    -0.168 SA
HETATM    4  C7  UNL     1      -0.273  10.480  84.941  1.00  0.00     0.076 C 
HETATM    5  C8  UNL     1      -0.844   9.223  84.375  1.00  0.00     0.036 C 
HETATM    6  C9  UNL     1       0.170   8.071  84.430  1.00  0.00     0.092 C 
ENDROOT
BRANCH   6   7
HETATM    7  N1  UNL     1      -0.525   6.875  84.397  1.00  0.00    -0.387 N 
HETATM    8  C10 UNL     1      -0.259   5.825  83.534  1.00  0.00     0.128 C 
HETATM    9  C11 UNL     1      -0.775   4.578  84.261  1.00  0.00     0.028 A 
HETATM   10  C12 UNL     1      -1.626   5.113  85.345  1.00  0.00     0.045 A 
HETATM   11  C14 UNL     1      -0.358   4.400  85.673  1.00  0.00     0.102 A 
HETATM   12  C13 UNL     1      -1.577   6.626  85.301  1.00  0.00     0.064 C 
BRANCH  11  13
HETATM   13  C15 UNL     1      -0.527   3.081  86.311  1.00  0.00     0.178 C 
HETATM   14  O1  UNL     1      -0.750   2.967  87.542  1.00  0.00    -0.648 OA
HETATM   15  O2  UNL     1      -0.447   1.907  85.576  1.00  0.00    -0.648 OA
ENDBRANCH  11  13
ENDBRANCH   6   7
BRANCH   1  16
HETATM   16  C4  UNL     1       0.971   9.035  82.274  1.00  0.00    -0.017 C 
HETATM   17  C2  UNL     1       1.214   8.573  81.066  1.00  0.00    -0.091 C 
HETATM   18  C1  UNL     1       0.838   9.369  79.878  1.00  0.00     0.042 C 
HETATM   19  C3  UNL     1       1.877   7.260  80.874  1.00  0.00     0.042 C 
ENDBRANCH   1  16
TORSDOF 3
ENDMDL
