MODEL 1
REMARK VINA RESULT: -6.468657376      0.000      0.000
REMARK  3 active torsions:
REMARK  status: ('A' for Active; 'I' for Inactive)
REMARK    1  A    between atoms: C2_2  and  C3_3 
REMARK    2  A    between atoms: C3_3  and  C5_5 
REMARK       I    between atoms: N2_16  and  C15_17 
REMARK    3  A    between atoms: C15_17  and  O2_19 
ROOT
HETATM    1  C5  UNL     1      -0.020   7.905  85.063  1.00  0.00    -0.078 C 
HETATM    2  C6  UNL     1       0.985   6.996  84.509  1.00  0.00     0.036 C 
HETATM    3  C7  UNL     1       1.329   5.761  85.391  1.00  0.00     0.031 C 
HETATM    4  C8  UNL     1       0.081   5.412  85.967  1.00  0.00     0.116 C 
HETATM    5  C9  UNL     1      -0.335   4.251  86.740  1.00  0.00     0.261 C 
HETATM    6  N1  UNL     1      -1.751   4.491  87.003  1.00  0.00    -0.071 N 
HETATM    7  C10 UNL     1      -2.434   3.222  86.730  1.00  0.00     0.272 C 
HETATM    8  C11 UNL     1      -1.839   4.613  88.476  1.00  0.00     0.272 C 
HETATM    9  C12 UNL     1      -2.420   5.581  86.456  1.00  0.00     0.266 C 
HETATM   10  C13 UNL     1      -1.967   6.153  85.109  1.00  0.00     0.139 C 
HETATM   11  C14 UNL     1      -1.435   7.534  85.225  1.00  0.00     0.003 C 
HETATM   12  N2  UNL     1      -0.840   5.308  84.848  1.00  0.00    -0.312 N 
HETATM   13  C15 UNL     1      -0.708   4.531  83.724  1.00  0.00     0.363 C 
HETATM   14  O1  UNL     1      -1.613   4.571  82.846  1.00  0.00    -0.238 OA
ENDROOT
BRANCH   1  15
HETATM   15  C3  UNL     1       0.133   9.299  84.492  1.00  0.00     0.010 C 
HETATM   16  C4  UNL     1       1.472   9.921  84.990  1.00  0.00     0.015 C 
BRANCH  15  17
HETATM   17  C2  UNL     1      -0.887  10.322  84.681  1.00  0.00     0.004 C 
HETATM   18  C1  UNL     1      -1.572  10.916  83.488  1.00  0.00     0.006 C 
ENDBRANCH  15  17
ENDBRANCH   1  15
BRANCH  13  19
HETATM   19  O2  UNL     1       0.355   3.682  83.459  1.00  0.00    -0.309 OA
HETATM   20  C16 UNL     1       0.212   2.440  82.807  1.00  0.00     0.215 C 
ENDBRANCH  13  19
TORSDOF 3
ENDMDL
MODEL 2
REMARK VINA RESULT: -6.398142028      2.368      5.344
REMARK  3 active torsions:
REMARK  status: ('A' for Active; 'I' for Inactive)
REMARK    1  A    between atoms: C2_2  and  C3_3 
REMARK    2  A    between atoms: C3_3  and  C5_5 
REMARK       I    between atoms: N2_16  and  C15_17 
REMARK    3  A    between atoms: C15_17  and  O2_19 
ROOT
HETATM    1  C5  UNL     1      -1.385   5.620  84.871  1.00  0.00    -0.078 C 
HETATM    2  C6  UNL     1      -0.376   4.792  84.206  1.00  0.00     0.036 C 
HETATM    3  C7  UNL     1      -0.158   5.086  82.694  1.00  0.00     0.031 C 
HETATM    4  C8  UNL     1      -0.302   6.495  82.610  1.00  0.00     0.116 C 
HETATM    5  C9  UNL     1      -0.041   7.430  81.527  1.00  0.00     0.261 C 
HETATM    6  N1  UNL     1      -0.366   8.733  82.098  1.00  0.00    -0.071 N 
HETATM    7  C10 UNL     1       0.727   9.629  81.709  1.00  0.00     0.272 C 
HETATM    8  C11 UNL     1      -1.507   9.219  81.289  1.00  0.00     0.272 C 
HETATM    9  C12 UNL     1      -0.717   8.875  83.437  1.00  0.00     0.266 C 
HETATM   10  C13 UNL     1      -0.156   7.900  84.477  1.00  0.00     0.139 C 
HETATM   11  C14 UNL     1      -1.212   7.064  85.101  1.00  0.00     0.003 C 
HETATM   12  N2  UNL     1       0.594   7.030  83.622  1.00  0.00    -0.312 N 
HETATM   13  C15 UNL     1       1.939   6.792  83.759  1.00  0.00     0.363 C 
HETATM   14  O1  UNL     1       2.561   7.344  84.707  1.00  0.00    -0.238 OA
ENDROOT
BRANCH   1  15
HETATM   15  C3  UNL     1      -1.947   4.920  86.090  1.00  0.00     0.010 C 
HETATM   16  C4  UNL     1      -2.572   5.974  87.052  1.00  0.00     0.015 C 
BRANCH  15  17
HETATM   17  C2  UNL     1      -1.129   4.044  86.917  1.00  0.00     0.004 C 
HETATM   18  C1  UNL     1      -1.771   2.914  87.663  1.00  0.00     0.006 C 
ENDBRANCH  15  17
ENDBRANCH   1  15
BRANCH  13  19
HETATM   19  O2  UNL     1       2.697   5.980  82.930  1.00  0.00    -0.309 OA
HETATM   20  C16 UNL     1       3.476   6.472  81.863  1.00  0.00     0.215 C 
ENDBRANCH  13  19
TORSDOF 3
ENDMDL
MODEL 3
REMARK VINA RESULT: -6.331438584      2.281      5.654
REMARK  3 active torsions:
REMARK  status: ('A' for Active; 'I' for Inactive)
REMARK    1  A    between atoms: C2_2  and  C3_3 
REMARK    2  A    between atoms: C3_3  and  C5_5 
REMARK       I    between atoms: N2_16  and  C15_17 
REMARK    3  A    between atoms: C15_17  and  O2_19 
ROOT
HETATM    1  C5  UNL     1      -0.392   6.407  85.584  1.00  0.00    -0.078 C 
HETATM    2  C6  UNL     1      -1.618   7.044  85.098  1.00  0.00     0.036 C 
HETATM    3  C7  UNL     1      -1.625   8.599  85.136  1.00  0.00     0.031 C 
HETATM    4  C8  UNL     1      -0.290   8.941  84.800  1.00  0.00     0.116 C 
HETATM    5  C9  UNL     1       0.329  10.218  84.482  1.00  0.00     0.261 C 
HETATM    6  N1  UNL     1       1.720   9.876  84.201  1.00  0.00    -0.071 N 
HETATM    7  C10 UNL     1       2.079  10.609  82.982  1.00  0.00     0.272 C 
HETATM    8  C11 UNL     1       2.493  10.573  85.254  1.00  0.00     0.272 C 
HETATM    9  C12 UNL     1       2.155   8.555  84.173  1.00  0.00     0.266 C 
HETATM   10  C13 UNL     1       1.183   7.444  83.766  1.00  0.00     0.139 C 
HETATM   11  C14 UNL     1       0.895   6.503  84.878  1.00  0.00     0.003 C 
HETATM   12  N2  UNL     1      -0.008   8.215  83.573  1.00  0.00    -0.312 N 
HETATM   13  C15 UNL     1      -0.718   8.250  82.398  1.00  0.00     0.363 C 
HETATM   14  O1  UNL     1      -0.325   7.546  81.428  1.00  0.00    -0.238 OA
ENDROOT
BRANCH   1  15
HETATM   15  C3  UNL     1      -0.665   4.998  86.066  1.00  0.00     0.010 C 
HETATM   16  C4  UNL     1      -0.468   3.998  84.888  1.00  0.00     0.015 C 
BRANCH  15  17
HETATM   17  C2  UNL     1      -1.923   4.635  86.704  1.00  0.00     0.004 C 
HETATM   18  C1  UNL     1      -1.935   4.225  88.145  1.00  0.00     0.006 C 
ENDBRANCH  15  17
ENDBRANCH   1  15
BRANCH  13  19
HETATM   19  O2  UNL     1      -1.855   9.009  82.172  1.00  0.00    -0.309 OA
HETATM   20  C16 UNL     1      -2.080   9.736  80.985  1.00  0.00     0.215 C 
ENDBRANCH  13  19
TORSDOF 3
ENDMDL
MODEL 4
REMARK VINA RESULT: -6.241354742      2.416      5.730
REMARK  3 active torsions:
REMARK  status: ('A' for Active; 'I' for Inactive)
REMARK    1  A    between atoms: C2_2  and  C3_3 
REMARK    2  A    between atoms: C3_3  and  C5_5 
REMARK       I    between atoms: N2_16  and  C15_17 
REMARK    3  A    between atoms: C15_17  and  O2_19 
ROOT
HETATM    1  C5  UNL     1      -0.844   6.611  85.406  1.00  0.00    -0.078 C 
HETATM    2  C6  UNL     1      -1.971   7.361  84.849  1.00  0.00     0.036 C 
HETATM    3  C7  UNL     1      -1.814   8.909  84.857  1.00  0.00     0.031 C 
HETATM    4  C8  UNL     1      -0.436   9.101  84.581  1.00  0.00     0.116 C 
HETATM    5  C9  UNL     1       0.329  10.298  84.269  1.00  0.00     0.261 C 
HETATM    6  N1  UNL     1       1.688   9.805  84.064  1.00  0.00    -0.071 N 
HETATM    7  C10 UNL     1       2.179  10.466  82.851  1.00  0.00     0.272 C 
HETATM    8  C11 UNL     1       2.480  10.442  85.141  1.00  0.00     0.272 C 
HETATM    9  C12 UNL     1       1.981   8.445  84.082  1.00  0.00     0.266 C 
HETATM   10  C13 UNL     1       0.917   7.433  83.649  1.00  0.00     0.139 C 
HETATM   11  C14 UNL     1       0.479   6.554  84.762  1.00  0.00     0.003 C 
HETATM   12  N2  UNL     1      -0.176   8.320  83.383  1.00  0.00    -0.312 N 
HETATM   13  C15 UNL     1      -0.821   8.401  82.174  1.00  0.00     0.363 C 
HETATM   14  O1  UNL     1      -0.460   7.636  81.238  1.00  0.00    -0.238 OA
ENDROOT
BRANCH   1  15
HETATM   15  C3  UNL     1      -1.287   5.250  85.900  1.00  0.00     0.010 C 
HETATM   16  C4  UNL     1      -2.458   5.421  86.913  1.00  0.00     0.015 C 
BRANCH  15  17
HETATM   17  C2  UNL     1      -0.353   4.314  86.510  1.00  0.00     0.004 C 
HETATM   18  C1  UNL     1      -0.215   2.931  85.951  1.00  0.00     0.006 C 
ENDBRANCH  15  17
ENDBRANCH   1  15
BRANCH  13  19
HETATM   19  O2  UNL     1      -1.860   9.270  81.878  1.00  0.00    -0.309 OA
HETATM   20  C16 UNL     1      -2.218   9.632  80.563  1.00  0.00     0.215 C 
ENDBRANCH  13  19
TORSDOF 3
ENDMDL
MODEL 5
REMARK VINA RESULT: -6.136844915      2.733      5.995
REMARK  3 active torsions:
REMARK  status: ('A' for Active; 'I' for Inactive)
REMARK    1  A    between atoms: C2_2  and  C3_3 
REMARK    2  A    between atoms: C3_3  and  C5_5 
REMARK       I    between atoms: N2_16  and  C15_17 
REMARK    3  A    between atoms: C15_17  and  O2_19 
ROOT
HETATM    1  C5  UNL     1      -0.501   6.506  84.915  1.00  0.00    -0.078 C 
HETATM    2  C6  UNL     1      -1.135   7.778  85.268  1.00  0.00     0.036 C 
HETATM    3  C7  UNL     1      -0.193   9.016  85.279  1.00  0.00     0.031 C 
HETATM    4  C8  UNL     1       0.687   8.768  84.195  1.00  0.00     0.116 C 
HETATM    5  C9  UNL     1       1.682   9.608  83.546  1.00  0.00     0.261 C 
HETATM    6  N1  UNL     1       2.216   8.765  82.481  1.00  0.00    -0.071 N 
HETATM    7  C10 UNL     1       2.275   9.612  81.286  1.00  0.00     0.272 C 
HETATM    8  C11 UNL     1       3.642   8.579  82.835  1.00  0.00     0.272 C 
HETATM    9  C12 UNL     1       1.688   7.506  82.213  1.00  0.00     0.266 C 
HETATM   10  C13 UNL     1       0.210   7.226  82.499  1.00  0.00     0.139 C 
HETATM   11  C14 UNL     1       0.018   6.214  83.569  1.00  0.00     0.003 C 
HETATM   12  N2  UNL     1      -0.177   8.485  83.060  1.00  0.00    -0.312 N 
HETATM   13  C15 UNL     1      -1.186   9.270  82.561  1.00  0.00     0.363 C 
HETATM   14  O1  UNL     1      -1.840   8.860  81.563  1.00  0.00    -0.238 OA
ENDROOT
BRANCH   1  15
HETATM   15  C3  UNL     1      -1.275   5.335  85.484  1.00  0.00     0.010 C 
HETATM   16  C4  UNL     1      -2.359   5.859  86.473  1.00  0.00     0.015 C 
BRANCH  15  17
HETATM   17  C2  UNL     1      -0.608   4.229  86.158  1.00  0.00     0.004 C 
HETATM   18  C1  UNL     1      -1.342   3.444  87.202  1.00  0.00     0.006 C 
ENDBRANCH  15  17
ENDBRANCH   1  15
BRANCH  13  19
HETATM   19  O2  UNL     1      -1.563  10.505  83.064  1.00  0.00    -0.309 OA
HETATM   20  C16 UNL     1      -1.138  11.731  82.511  1.00  0.00     0.215 C 
ENDBRANCH  13  19
TORSDOF 3
ENDMDL
