MODEL 1
REMARK VINA RESULT: -5.692387743      0.000      0.000
REMARK  4 active torsions:
REMARK  status: ('A' for Active; 'I' for Inactive)
REMARK    1  A    between atoms: C2_2  and  C3_3 
REMARK       I    between atoms: C3_3  and  N1_5 
REMARK    2  A    between atoms: N1_5  and  C4_7 
REMARK       I    between atoms: N2_13  and  C10_14 
REMARK    3  A    between atoms: C10_14  and  O3_16 
REMARK    4  A    between atoms: O3_16  and  C11_17 
ROOT
HETATM    1  C4  UNL     1       0.443   5.720  84.432  1.00  0.00     0.102 C 
HETATM    2  C5  UNL     1       1.349   6.866  84.755  1.00  0.00     0.027 C 
HETATM    3  C6  UNL     1       0.683   8.148  85.105  1.00  0.00     0.008 C 
HETATM    4  C7  UNL     1       0.534   8.926  83.790  1.00  0.00    -0.000 C 
HETATM    5  C8  UNL     1       0.451  10.396  84.016  1.00  0.00     0.011 C 
HETATM    6  C9  UNL     1      -0.699   8.346  83.137  1.00  0.00     0.132 C 
HETATM    7  N2  UNL     1      -0.317   7.099  82.532  1.00  0.00    -0.326 N 
HETATM    8  C10 UNL     1      -0.007   7.190  81.157  1.00  0.00     0.363 C 
HETATM    9  O2  UNL     1       0.347   6.200  80.462  1.00  0.00    -0.238 OA
HETATM   10  C15 UNL     1      -0.203   5.795  83.088  1.00  0.00     0.153 C 
ENDROOT
BRANCH   8  11
HETATM   11  O3  UNL     1      -0.085   8.408  80.512  1.00  0.00    -0.294 OA
BRANCH  11  12
HETATM   12  C11 UNL     1       1.059   9.035  80.004  1.00  0.00     0.061 C 
HETATM   13  C12 UNL     1       1.189   8.877  78.506  1.00  0.00     0.046 C 
HETATM   14  C13 UNL     1       2.326   8.603  80.707  1.00  0.00     0.046 C 
HETATM   15  C14 UNL     1       0.927  10.542  80.260  1.00  0.00     0.046 C 
ENDBRANCH  11  12
ENDBRANCH   8  11
BRANCH   1  16
HETATM   16  N1  UNL     1      -0.603   5.560  85.417  1.00  0.00    -0.355 N 
HETATM   17  C3  UNL     1      -0.472   4.578  86.438  1.00  0.00     0.217 C 
HETATM   18  O1  UNL     1       0.548   3.826  86.513  1.00  0.00    -0.274 OA
ATOM     19  H1  UNL     1      -1.434   6.150  85.380  1.00  0.00     0.162 HD
BRANCH  17  20
HETATM   20  C2  UNL     1      -1.526   4.402  87.447  1.00  0.00     0.098 C 
HETATM   21  C1  UNL     1      -2.287   3.131  87.228  1.00  0.00     0.014 C 
ENDBRANCH  17  20
ENDBRANCH   1  16
TORSDOF 4
ENDMDL
MODEL 2
REMARK VINA RESULT: -5.427057808      2.104      2.665
REMARK  4 active torsions:
REMARK  status: ('A' for Active; 'I' for Inactive)
REMARK    1  A    between atoms: C2_2  and  C3_3 
REMARK       I    between atoms: C3_3  and  N1_5 
REMARK    2  A    between atoms: N1_5  and  C4_7 
REMARK       I    between atoms: N2_13  and  C10_14 
REMARK    3  A    between atoms: C10_14  and  O3_16 
REMARK    4  A    between atoms: O3_16  and  C11_17 
ROOT
HETATM    1  C4  UNL     1      -0.224   6.416  84.067  1.00  0.00     0.102 C 
HETATM    2  C5  UNL     1       1.145   6.932  83.754  1.00  0.00     0.027 C 
HETATM    3  C6  UNL     1       1.780   7.780  84.797  1.00  0.00     0.008 C 
HETATM    4  C7  UNL     1       1.401   9.228  84.461  1.00  0.00    -0.000 C 
HETATM    5  C8  UNL     1       2.385  10.205  85.003  1.00  0.00     0.011 C 
HETATM    6  C9  UNL     1       0.008   9.402  85.022  1.00  0.00     0.132 C 
HETATM    7  N2  UNL     1      -0.906   8.788  84.098  1.00  0.00    -0.326 N 
HETATM    8  C10 UNL     1      -1.497   9.685  83.181  1.00  0.00     0.363 C 
HETATM    9  O2  UNL     1      -2.322   9.326  82.299  1.00  0.00    -0.238 OA
HETATM   10  C15 UNL     1      -1.312   7.433  83.958  1.00  0.00     0.153 C 
ENDROOT
BRANCH   8  11
HETATM   11  O3  UNL     1      -1.176  11.026  83.225  1.00  0.00    -0.294 OA
BRANCH  11  12
HETATM   12  C11 UNL     1      -0.452  11.635  82.193  1.00  0.00     0.061 C 
HETATM   13  C12 UNL     1      -1.342  12.371  81.217  1.00  0.00     0.046 C 
HETATM   14  C13 UNL     1       0.463  10.671  81.470  1.00  0.00     0.046 C 
HETATM   15  C14 UNL     1       0.462  12.697  82.816  1.00  0.00     0.046 C 
ENDBRANCH  11  12
ENDBRANCH   8  11
BRANCH   1  16
HETATM   16  N1  UNL     1      -0.295   5.832  85.388  1.00  0.00    -0.355 N 
HETATM   17  C3  UNL     1      -0.375   4.420  85.535  1.00  0.00     0.217 C 
HETATM   18  O1  UNL     1      -0.386   3.644  84.530  1.00  0.00    -0.274 OA
ATOM     19  H1  UNL     1      -0.289   6.432  86.213  1.00  0.00     0.162 HD
BRANCH  17  20
HETATM   20  C2  UNL     1      -0.448   3.809  86.870  1.00  0.00     0.098 C 
HETATM   21  C1  UNL     1      -1.717   4.179  87.574  1.00  0.00     0.014 C 
ENDBRANCH  17  20
ENDBRANCH   1  16
TORSDOF 4
ENDMDL
MODEL 3
REMARK VINA RESULT: -5.411707517      2.292      2.842
REMARK  4 active torsions:
REMARK  status: ('A' for Active; 'I' for Inactive)
REMARK    1  A    between atoms: C2_2  and  C3_3 
REMARK       I    between atoms: C3_3  and  N1_5 
REMARK    2  A    between atoms: N1_5  and  C4_7 
REMARK       I    between atoms: N2_13  and  C10_14 
REMARK    3  A    between atoms: C10_14  and  O3_16 
REMARK    4  A    between atoms: O3_16  and  C11_17 
ROOT
HETATM    1  C4  UNL     1      -1.562   5.802  84.950  1.00  0.00     0.102 C 
HETATM    2  C5  UNL     1      -0.248   5.747  84.237  1.00  0.00     0.027 C 
HETATM    3  C6  UNL     1       0.904   6.373  84.937  1.00  0.00     0.008 C 
HETATM    4  C7  UNL     1       0.958   7.829  84.457  1.00  0.00    -0.000 C 
HETATM    5  C8  UNL     1       2.325   8.408  84.574  1.00  0.00     0.011 C 
HETATM    6  C9  UNL     1      -0.074   8.549  85.294  1.00  0.00     0.132 C 
HETATM    7  N2  UNL     1      -1.364   8.253  84.733  1.00  0.00    -0.326 N 
HETATM    8  C10 UNL     1      -1.851   9.234  83.842  1.00  0.00     0.363 C 
HETATM    9  O2  UNL     1      -2.963   9.144  83.256  1.00  0.00    -0.238 OA
HETATM   10  C15 UNL     1      -2.226   7.139  84.929  1.00  0.00     0.153 C 
ENDROOT
BRANCH   8  11
HETATM   11  O3  UNL     1      -1.097  10.359  83.577  1.00  0.00    -0.294 OA
BRANCH  11  12
HETATM   12  C11 UNL     1      -0.555  10.589  82.307  1.00  0.00     0.061 C 
HETATM   13  C12 UNL     1      -1.283  11.680  81.555  1.00  0.00     0.046 C 
HETATM   14  C13 UNL     1      -0.458   9.330  81.474  1.00  0.00     0.046 C 
HETATM   15  C14 UNL     1       0.884  11.087  82.487  1.00  0.00     0.046 C 
ENDBRANCH  11  12
ENDBRANCH   8  11
BRANCH   1  16
HETATM   16  N1  UNL     1      -1.449   5.386  86.330  1.00  0.00    -0.355 N 
HETATM   17  C3  UNL     1      -1.444   4.002  86.656  1.00  0.00     0.217 C 
HETATM   18  O1  UNL     1      -1.537   3.106  85.761  1.00  0.00    -0.274 OA
ATOM     19  H1  UNL     1      -1.373   6.085  87.070  1.00  0.00     0.162 HD
BRANCH  17  20
HETATM   20  C2  UNL     1      -1.330   3.561  88.053  1.00  0.00     0.098 C 
HETATM   21  C1  UNL     1      -2.015   4.511  88.985  1.00  0.00     0.014 C 
ENDBRANCH  17  20
ENDBRANCH   1  16
TORSDOF 4
ENDMDL
MODEL 4
REMARK VINA RESULT: -5.382014525      1.070      1.386
REMARK  4 active torsions:
REMARK  status: ('A' for Active; 'I' for Inactive)
REMARK    1  A    between atoms: C2_2  and  C3_3 
REMARK       I    between atoms: C3_3  and  N1_5 
REMARK    2  A    between atoms: N1_5  and  C4_7 
REMARK       I    between atoms: N2_13  and  C10_14 
REMARK    3  A    between atoms: C10_14  and  O3_16 
REMARK    4  A    between atoms: O3_16  and  C11_17 
ROOT
HETATM    1  C4  UNL     1       0.379   5.811  84.204  1.00  0.00     0.102 C 
HETATM    2  C5  UNL     1       1.398   6.797  84.681  1.00  0.00     0.027 C 
HETATM    3  C6  UNL     1       0.869   8.078  85.217  1.00  0.00     0.008 C 
HETATM    4  C7  UNL     1       0.813   9.049  84.029  1.00  0.00    -0.000 C 
HETATM    5  C8  UNL     1       0.883  10.471  84.465  1.00  0.00     0.011 C 
HETATM    6  C9  UNL     1      -0.469   8.702  83.308  1.00  0.00     0.132 C 
HETATM    7  N2  UNL     1      -0.217   7.522  82.528  1.00  0.00    -0.326 N 
HETATM    8  C10 UNL     1       0.112   7.776  81.177  1.00  0.00     0.363 C 
HETATM    9  O2  UNL     1       0.365   6.865  80.345  1.00  0.00    -0.238 OA
HETATM   10  C15 UNL     1      -0.245   6.147  82.889  1.00  0.00     0.153 C 
ENDROOT
BRANCH   8  11
HETATM   11  O3  UNL     1       0.169   9.075  80.716  1.00  0.00    -0.294 OA
BRANCH  11  12
HETATM   12  C11 UNL     1      -0.783   9.569  79.816  1.00  0.00     0.061 C 
HETATM   13  C12 UNL     1      -2.200   9.248  80.238  1.00  0.00     0.046 C 
HETATM   14  C13 UNL     1      -0.529   9.127  78.392  1.00  0.00     0.046 C 
HETATM   15  C14 UNL     1      -0.681  11.099  79.808  1.00  0.00     0.046 C 
ENDBRANCH  11  12
ENDBRANCH   8  11
BRANCH   1  16
HETATM   16  N1  UNL     1      -0.686   5.623  85.164  1.00  0.00    -0.355 N 
HETATM   17  C3  UNL     1      -0.550   4.651  86.193  1.00  0.00     0.217 C 
HETATM   18  O1  UNL     1       0.492   3.933  86.298  1.00  0.00    -0.274 OA
ATOM     19  H1  UNL     1      -1.535   6.186  85.102  1.00  0.00     0.162 HD
BRANCH  17  20
HETATM   20  C2  UNL     1      -1.622   4.446  87.176  1.00  0.00     0.098 C 
HETATM   21  C1  UNL     1      -1.834   2.992  87.462  1.00  0.00     0.014 C 
ENDBRANCH  17  20
ENDBRANCH   1  16
TORSDOF 4
ENDMDL
MODEL 5
REMARK VINA RESULT: -5.285447763      2.630      3.995
REMARK  4 active torsions:
REMARK  status: ('A' for Active; 'I' for Inactive)
REMARK    1  A    between atoms: C2_2  and  C3_3 
REMARK       I    between atoms: C3_3  and  N1_5 
REMARK    2  A    between atoms: N1_5  and  C4_7 
REMARK       I    between atoms: N2_13  and  C10_14 
REMARK    3  A    between atoms: C10_14  and  O3_16 
REMARK    4  A    between atoms: O3_16  and  C11_17 
ROOT
HETATM    1  C4  UNL     1      -0.286   6.684  84.117  1.00  0.00     0.102 C 
HETATM    2  C5  UNL     1       0.221   6.554  82.715  1.00  0.00     0.027 C 
HETATM    3  C6  UNL     1       1.668   6.249  82.568  1.00  0.00     0.008 C 
HETATM    4  C7  UNL     1       2.383   7.603  82.463  1.00  0.00    -0.000 C 
HETATM    5  C8  UNL     1       3.682   7.497  81.743  1.00  0.00     0.011 C 
HETATM    6  C9  UNL     1       2.523   8.077  83.891  1.00  0.00     0.132 C 
HETATM    7  N2  UNL     1       1.249   8.608  84.294  1.00  0.00    -0.326 N 
HETATM    8  C10 UNL     1       1.136  10.010  84.165  1.00  0.00     0.363 C 
HETATM    9  O2  UNL     1       0.094  10.650  84.469  1.00  0.00    -0.238 OA
HETATM   10  C15 UNL     1       0.091   7.957  84.800  1.00  0.00     0.153 C 
ENDROOT
BRANCH   8  11
HETATM   11  O3  UNL     1       2.201  10.745  83.684  1.00  0.00    -0.294 OA
BRANCH  11  12
HETATM   12  C11 UNL     1       2.899  11.637  84.507  1.00  0.00     0.061 C 
HETATM   13  C12 UNL     1       2.904  11.205  85.956  1.00  0.00     0.046 C 
HETATM   14  C13 UNL     1       2.417  13.064  84.369  1.00  0.00     0.046 C 
HETATM   15  C14 UNL     1       4.367  11.643  84.062  1.00  0.00     0.046 C 
ENDBRANCH  11  12
ENDBRANCH   8  11
BRANCH   1  16
HETATM   16  N1  UNL     1       0.147   5.588  84.955  1.00  0.00    -0.355 N 
HETATM   17  C3  UNL     1      -0.797   4.900  85.766  1.00  0.00     0.217 C 
HETATM   18  O1  UNL     1      -2.025   5.222  85.779  1.00  0.00    -0.274 OA
ATOM     19  H1  UNL     1       1.128   5.309  84.965  1.00  0.00     0.162 HD
BRANCH  17  20
HETATM   20  C2  UNL     1      -0.375   3.784  86.625  1.00  0.00     0.098 C 
HETATM   21  C1  UNL     1      -1.546   3.138  87.298  1.00  0.00     0.014 C 
ENDBRANCH  17  20
ENDBRANCH   1  16
TORSDOF 4
ENDMDL
