MODEL 1
REMARK VINA RESULT: -6.561952751      0.000      0.000
REMARK  3 active torsions:
REMARK  status: ('A' for Active; 'I' for Inactive)
REMARK       I    between atoms: N1_2  and  C3_4 
REMARK    1  A    between atoms: C3_4  and  C4_6 
REMARK    2  A    between atoms: C4_6  and  S1_7 
REMARK    3  A    between atoms: S1_7  and  C5_8 
REMARK       I    between atoms: N2_11  and  C8_12 
ROOT
HETATM    1  C5  UNL     1      -1.213  63.782   0.897  1.00  0.00     0.057 C 
HETATM    2  C6  UNL     1      -1.694  64.354   2.184  1.00  0.00     0.035 C 
HETATM    3  C7  UNL     1      -2.683  65.479   1.751  1.00  0.00     0.127 C 
HETATM    4  N2  UNL     1      -1.984  66.397   0.894  1.00  0.00    -0.351 N 
HETATM    5  C8  UNL     1      -2.678  67.539   0.446  1.00  0.00     0.184 C 
HETATM    6  N3  UNL     1      -3.674  67.492  -0.373  1.00  0.00    -0.374 N 
ATOM      7  H31 UNL     1      -4.176  68.319  -0.697  1.00  0.00     0.158 HD
ATOM      8  H32 UNL     1      -4.009  66.602  -0.739  1.00  0.00     0.158 HD
HETATM    9  N4  UNL     1      -2.207  68.788   0.959  1.00  0.00    -0.064 NA
HETATM   10  C9  UNL     1      -0.624  66.221   0.468  1.00  0.00     0.094 C 
HETATM   11  C10 UNL     1      -0.227  66.883  -0.712  1.00  0.00     0.026 C 
HETATM   12  C11 UNL     1       0.005  67.939  -1.606  1.00  0.00     0.004 C 
HETATM   13  C12 UNL     1       0.401  67.210  -2.932  1.00  0.00     0.026 C 
HETATM   14  C13 UNL     1       0.942  65.830  -2.743  1.00  0.00     0.167 C 
HETATM   15  O2  UNL     1       0.407  64.782  -2.251  1.00  0.00    -0.391 OA
HETATM   16  C14 UNL     1      -0.315  64.372  -1.286  1.00  0.00     0.175 C 
HETATM   17  C15 UNL     1      -0.297  64.734   0.168  1.00  0.00     0.046 C 
ENDROOT
BRANCH   1  18
HETATM   18  S1  UNL     1      -0.436  62.178   0.964  1.00  0.00    -0.154 SA
BRANCH  18  19
HETATM   19  C4  UNL     1      -0.047  61.599   2.596  1.00  0.00     0.177 C 
BRANCH  19  20
HETATM   20  C3  UNL     1      -0.740  60.347   2.937  1.00  0.00     0.228 C 
HETATM   21  N1  UNL     1      -1.903  60.414   3.777  1.00  0.00    -0.360 N 
HETATM   22  C1  UNL     1      -2.331  61.708   4.245  1.00  0.00     0.152 C 
HETATM   23  C2  UNL     1      -2.608  59.198   4.126  1.00  0.00     0.152 C 
HETATM   24  O1  UNL     1      -0.355  59.218   2.522  1.00  0.00    -0.273 OA
ENDBRANCH  19  20
ENDBRANCH  18  19
ENDBRANCH   1  18
TORSDOF 3
ENDMDL
MODEL 2
REMARK VINA RESULT: -6.532646833      1.248      1.323
REMARK  3 active torsions:
REMARK  status: ('A' for Active; 'I' for Inactive)
REMARK       I    between atoms: N1_2  and  C3_4 
REMARK    1  A    between atoms: C3_4  and  C4_6 
REMARK    2  A    between atoms: C4_6  and  S1_7 
REMARK    3  A    between atoms: S1_7  and  C5_8 
REMARK       I    between atoms: N2_11  and  C8_12 
ROOT
HETATM    1  C5  UNL     1      -1.142  62.856   1.419  1.00  0.00     0.057 C 
HETATM    2  C6  UNL     1      -1.624  63.306   2.754  1.00  0.00     0.035 C 
HETATM    3  C7  UNL     1      -2.790  64.287   2.424  1.00  0.00     0.127 C 
HETATM    4  N2  UNL     1      -2.283  65.327   1.571  1.00  0.00    -0.351 N 
HETATM    5  C8  UNL     1      -3.161  66.370   1.212  1.00  0.00     0.184 C 
HETATM    6  N3  UNL     1      -4.187  66.207   0.446  1.00  0.00    -0.374 N 
ATOM      7  H31 UNL     1      -4.822  66.962   0.186  1.00  0.00     0.158 HD
ATOM      8  H32 UNL     1      -4.410  65.290   0.060  1.00  0.00     0.158 HD
HETATM    9  N4  UNL     1      -2.847  67.656   1.754  1.00  0.00    -0.064 NA
HETATM   10  C9  UNL     1      -0.940  65.370   1.067  1.00  0.00     0.094 C 
HETATM   11  C10 UNL     1      -0.714  66.125  -0.102  1.00  0.00     0.026 C 
HETATM   12  C11 UNL     1      -0.691  67.235  -0.960  1.00  0.00     0.004 C 
HETATM   13  C12 UNL     1      -0.273  66.620  -2.337  1.00  0.00     0.026 C 
HETATM   14  C13 UNL     1       0.473  65.329  -2.238  1.00  0.00     0.167 C 
HETATM   15  O2  UNL     1       0.126  64.197  -1.765  1.00  0.00    -0.391 OA
HETATM   16  C14 UNL     1      -0.470  63.650  -0.782  1.00  0.00     0.175 C 
HETATM   17  C15 UNL     1      -0.418  63.959   0.684  1.00  0.00     0.046 C 
ENDROOT
BRANCH   1  18
HETATM   18  S1  UNL     1      -0.138  61.384   1.373  1.00  0.00    -0.154 SA
BRANCH  18  19
HETATM   19  C4  UNL     1      -0.901  59.933   2.055  1.00  0.00     0.177 C 
BRANCH  19  20
HETATM   20  C3  UNL     1      -0.894  59.925   3.527  1.00  0.00     0.228 C 
HETATM   21  N1  UNL     1      -2.153  59.918   4.218  1.00  0.00    -0.360 N 
HETATM   22  C1  UNL     1      -3.361  59.923   3.431  1.00  0.00     0.152 C 
HETATM   23  C2  UNL     1      -2.178  59.907   5.665  1.00  0.00     0.152 C 
HETATM   24  O1  UNL     1       0.171  59.924   4.205  1.00  0.00    -0.273 OA
ENDBRANCH  19  20
ENDBRANCH  18  19
ENDBRANCH   1  18
TORSDOF 3
ENDMDL
MODEL 3
REMARK VINA RESULT: -6.413536536      2.532      7.449
REMARK  3 active torsions:
REMARK  status: ('A' for Active; 'I' for Inactive)
REMARK       I    between atoms: N1_2  and  C3_4 
REMARK    1  A    between atoms: C3_4  and  C4_6 
REMARK    2  A    between atoms: C4_6  and  S1_7 
REMARK    3  A    between atoms: S1_7  and  C5_8 
REMARK       I    between atoms: N2_11  and  C8_12 
ROOT
HETATM    1  C5  UNL     1      -1.430  63.793   0.615  1.00  0.00     0.057 C 
HETATM    2  C6  UNL     1      -0.259  63.683  -0.299  1.00  0.00     0.035 C 
HETATM    3  C7  UNL     1      -0.185  62.163  -0.637  1.00  0.00     0.127 C 
HETATM    4  N2  UNL     1      -0.077  61.426   0.593  1.00  0.00    -0.351 N 
HETATM    5  C8  UNL     1       0.080  60.028   0.511  1.00  0.00     0.184 C 
HETATM    6  N3  UNL     1      -0.841  59.231   0.085  1.00  0.00    -0.374 N 
ATOM      7  H31 UNL     1      -0.727  58.218   0.026  1.00  0.00     0.158 HD
ATOM      8  H32 UNL     1      -1.745  59.591  -0.220  1.00  0.00     0.158 HD
HETATM    9  N4  UNL     1       1.347  59.523   0.938  1.00  0.00    -0.064 NA
HETATM   10  C9  UNL     1      -0.117  62.028   1.896  1.00  0.00     0.094 C 
HETATM   11  C10 UNL     1      -0.488  61.201   2.977  1.00  0.00     0.026 C 
HETATM   12  C11 UNL     1      -0.456  60.120   3.869  1.00  0.00     0.004 C 
HETATM   13  C12 UNL     1      -1.775  60.290   4.694  1.00  0.00     0.026 C 
HETATM   14  C13 UNL     1      -2.311  61.685   4.722  1.00  0.00     0.167 C 
HETATM   15  O2  UNL     1      -2.724  62.441   3.783  1.00  0.00    -0.391 OA
HETATM   16  C14 UNL     1      -2.454  62.827   2.600  1.00  0.00     0.175 C 
HETATM   17  C15 UNL     1      -1.144  63.189   1.968  1.00  0.00     0.046 C 
ENDROOT
BRANCH   1  18
HETATM   18  S1  UNL     1      -2.126  65.417   0.848  1.00  0.00    -0.154 SA
BRANCH  18  19
HETATM   19  C4  UNL     1      -2.116  66.453  -0.594  1.00  0.00     0.177 C 
BRANCH  19  20
HETATM   20  C3  UNL     1      -1.010  67.424  -0.590  1.00  0.00     0.228 C 
HETATM   21  N1  UNL     1      -0.094  67.423  -1.696  1.00  0.00    -0.360 N 
HETATM   22  C1  UNL     1      -0.305  66.466  -2.754  1.00  0.00     0.152 C 
HETATM   23  C2  UNL     1       1.002  68.368  -1.722  1.00  0.00     0.152 C 
HETATM   24  O1  UNL     1      -0.835  68.256   0.343  1.00  0.00    -0.273 OA
ENDBRANCH  19  20
ENDBRANCH  18  19
ENDBRANCH   1  18
TORSDOF 3
ENDMDL
MODEL 4
REMARK VINA RESULT: -6.372255165      2.655      7.549
REMARK  3 active torsions:
REMARK  status: ('A' for Active; 'I' for Inactive)
REMARK       I    between atoms: N1_2  and  C3_4 
REMARK    1  A    between atoms: C3_4  and  C4_6 
REMARK    2  A    between atoms: C4_6  and  S1_7 
REMARK    3  A    between atoms: S1_7  and  C5_8 
REMARK       I    between atoms: N2_11  and  C8_12 
ROOT
HETATM    1  C5  UNL     1      -1.441  63.806   0.736  1.00  0.00     0.057 C 
HETATM    2  C6  UNL     1      -0.272  63.729  -0.183  1.00  0.00     0.035 C 
HETATM    3  C7  UNL     1      -0.196  62.221  -0.572  1.00  0.00     0.127 C 
HETATM    4  N2  UNL     1      -0.084  61.443   0.631  1.00  0.00    -0.351 N 
HETATM    5  C8  UNL     1       0.075  60.049   0.502  1.00  0.00     0.184 C 
HETATM    6  N3  UNL     1      -0.846  59.265   0.051  1.00  0.00    -0.374 N 
ATOM      7  H31 UNL     1      -0.731  58.256  -0.042  1.00  0.00     0.158 HD
ATOM      8  H32 UNL     1      -1.751  59.635  -0.239  1.00  0.00     0.158 HD
HETATM    9  N4  UNL     1       1.344  59.532   0.909  1.00  0.00    -0.064 NA
HETATM   10  C9  UNL     1      -0.122  62.001   1.954  1.00  0.00     0.094 C 
HETATM   11  C10 UNL     1      -0.490  61.138   3.007  1.00  0.00     0.026 C 
HETATM   12  C11 UNL     1      -0.454  60.026   3.862  1.00  0.00     0.004 C 
HETATM   13  C12 UNL     1      -1.771  60.167   4.695  1.00  0.00     0.026 C 
HETATM   14  C13 UNL     1      -2.309  61.559   4.772  1.00  0.00     0.167 C 
HETATM   15  O2  UNL     1      -2.726  62.346   3.859  1.00  0.00    -0.391 OA
HETATM   16  C14 UNL     1      -2.459  62.772   2.689  1.00  0.00     0.175 C 
HETATM   17  C15 UNL     1      -1.151  63.158   2.068  1.00  0.00     0.046 C 
ENDROOT
BRANCH   1  18
HETATM   18  S1  UNL     1      -2.138  65.421   1.025  1.00  0.00    -0.154 SA
BRANCH  18  19
HETATM   19  C4  UNL     1      -1.283  66.761   0.236  1.00  0.00     0.177 C 
BRANCH  19  20
HETATM   20  C3  UNL     1      -2.088  67.992   0.173  1.00  0.00     0.228 C 
HETATM   21  N1  UNL     1      -2.501  68.476  -1.115  1.00  0.00    -0.360 N 
HETATM   22  C1  UNL     1      -2.102  67.731  -2.282  1.00  0.00     0.152 C 
HETATM   23  C2  UNL     1      -3.296  69.683  -1.207  1.00  0.00     0.152 C 
HETATM   24  O1  UNL     1      -2.429  68.638   1.203  1.00  0.00    -0.273 OA
ENDBRANCH  19  20
ENDBRANCH  18  19
ENDBRANCH   1  18
TORSDOF 3
ENDMDL
MODEL 5
REMARK VINA RESULT: -6.342165472      3.695      5.780
REMARK  3 active torsions:
REMARK  status: ('A' for Active; 'I' for Inactive)
REMARK       I    between atoms: N1_2  and  C3_4 
REMARK    1  A    between atoms: C3_4  and  C4_6 
REMARK    2  A    between atoms: C4_6  and  S1_7 
REMARK    3  A    between atoms: S1_7  and  C5_8 
REMARK       I    between atoms: N2_11  and  C8_12 
ROOT
HETATM    1  C5  UNL     1       0.109  60.592  -0.044  1.00  0.00     0.057 C 
HETATM    2  C6  UNL     1       0.672  59.727   1.030  1.00  0.00     0.035 C 
HETATM    3  C7  UNL     1      -0.513  59.537   2.023  1.00  0.00     0.127 C 
HETATM    4  N2  UNL     1      -0.963  60.833   2.451  1.00  0.00    -0.351 N 
HETATM    5  C8  UNL     1      -1.988  60.889   3.418  1.00  0.00     0.184 C 
HETATM    6  N3  UNL     1      -3.202  60.513   3.193  1.00  0.00    -0.374 N 
ATOM      7  H31 UNL     1      -3.943  60.554   3.893  1.00  0.00     0.158 HD
ATOM      8  H32 UNL     1      -3.476  60.150   2.280  1.00  0.00     0.158 HD
HETATM    9  N4  UNL     1      -1.602  61.398   4.697  1.00  0.00    -0.064 NA
HETATM   10  C9  UNL     1      -0.432  62.072   1.956  1.00  0.00     0.094 C 
HETATM   11  C10 UNL     1      -1.251  63.215   2.067  1.00  0.00     0.026 C 
HETATM   12  C11 UNL     1      -2.041  64.206   2.667  1.00  0.00     0.004 C 
HETATM   13  C12 UNL     1      -2.650  64.973   1.447  1.00  0.00     0.026 C 
HETATM   14  C13 UNL     1      -1.860  64.854   0.185  1.00  0.00     0.167 C 
HETATM   15  O2  UNL     1      -1.561  63.835  -0.522  1.00  0.00    -0.391 OA
HETATM   16  C14 UNL     1      -1.160  62.629  -0.442  1.00  0.00     0.175 C 
HETATM   17  C15 UNL     1      -0.120  62.004   0.437  1.00  0.00     0.046 C 
ENDROOT
BRANCH   1  18
HETATM   18  S1  UNL     1       0.998  60.650  -1.588  1.00  0.00    -0.154 SA
BRANCH  18  19
HETATM   19  C4  UNL     1      -0.015  60.556  -3.042  1.00  0.00     0.177 C 
BRANCH  19  20
HETATM   20  C3  UNL     1      -0.866  59.356  -3.066  1.00  0.00     0.228 C 
HETATM   21  N1  UNL     1      -2.248  59.503  -3.431  1.00  0.00    -0.360 N 
HETATM   22  C1  UNL     1      -2.730  60.822  -3.753  1.00  0.00     0.152 C 
HETATM   23  C2  UNL     1      -3.109  58.339  -3.466  1.00  0.00     0.152 C 
HETATM   24  O1  UNL     1      -0.433  58.205  -2.780  1.00  0.00    -0.273 OA
ENDBRANCH  19  20
ENDBRANCH  18  19
ENDBRANCH   1  18
TORSDOF 3
ENDMDL
