MODEL 1
REMARK VINA RESULT: -6.058790774      0.000      0.000
REMARK  4 active torsions:
REMARK  status: ('A' for Active; 'I' for Inactive)
REMARK    1  A    between atoms: C4_4  and  N1_5 
REMARK       I    between atoms: N1_5  and  C5_7 
REMARK    2  A    between atoms: C5_7  and  C6_9 
REMARK    3  A    between atoms: C12_15  and  O2_16 
REMARK    4  A    between atoms: C18_24  and  C19_25 
ROOT
HETATM    1  C1  UNL     1       0.492  67.399  -0.839  1.00  0.00     0.015 C 
HETATM    2  C2  UNL     1      -0.630  66.752  -0.503  1.00  0.00    -0.076 C 
HETATM    3  C3  UNL     1      -0.335  65.656   0.451  1.00  0.00     0.059 C 
HETATM    4  C4  UNL     1      -1.329  64.549   0.448  1.00  0.00     0.093 C 
HETATM    5  C9  UNL     1      -2.751  65.004   0.636  1.00  0.00     0.020 C 
HETATM    6  C10 UNL     1      -2.929  66.163   1.549  1.00  0.00     0.013 C 
HETATM    7  C11 UNL     1      -3.908  67.190   1.134  1.00  0.00     0.069 C 
HETATM    8  C12 UNL     1      -4.100  67.420  -0.316  1.00  0.00     0.170 C 
HETATM    9  O3  UNL     1      -5.239  66.663  -0.692  1.00  0.00    -0.354 OA
HETATM   10  C13 UNL     1      -4.848  65.335  -0.531  1.00  0.00     0.182 C 
HETATM   11  C14 UNL     1      -3.318  65.307  -0.714  1.00  0.00    -0.003 C 
HETATM   12  C15 UNL     1      -3.052  64.251  -1.750  1.00  0.00     0.019 C 
HETATM   13  C16 UNL     1      -3.075  66.677  -1.198  1.00  0.00     0.035 C 
HETATM   14  C17 UNL     1      -3.696  66.734  -2.610  1.00  0.00     0.023 C 
HETATM   15  C18 UNL     1      -1.796  67.319  -1.167  1.00  0.00     0.089 C 
ENDROOT
BRANCH   4  16
HETATM   16  N1  UNL     1      -0.918  63.586   1.447  1.00  0.00    -0.355 N 
HETATM   17  C5  UNL     1      -0.473  62.292   1.069  1.00  0.00     0.221 C 
HETATM   18  O1  UNL     1      -0.439  61.987  -0.153  1.00  0.00    -0.273 OA
ATOM     19  H1  UNL     1      -0.948  63.840   2.434  1.00  0.00     0.162 HD
BRANCH  17  20
HETATM   20  C6  UNL     1      -0.049  61.294   2.058  1.00  0.00     0.070 C 
HETATM   21  C7  UNL     1      -1.156  61.116   3.072  1.00  0.00     0.019 C 
HETATM   22  C8  UNL     1       0.270  60.006   1.332  1.00  0.00     0.019 C 
ENDBRANCH  17  20
ENDBRANCH   4  16
BRANCH  15  23
HETATM   23  C19 UNL     1      -1.356  67.606  -2.592  1.00  0.00     0.241 C 
HETATM   24  O4  UNL     1      -1.380  68.696  -3.090  1.00  0.00    -0.306 OA
ENDBRANCH  15  23
BRANCH   8  25
HETATM   25  O2  UNL     1      -4.200  68.723  -0.709  1.00  0.00    -0.365 OA
ATOM     26  H2  UNL     1      -5.080  69.071  -0.783  1.00  0.00     0.213 HD
ENDBRANCH   8  25
TORSDOF 4
ENDMDL
MODEL 2
REMARK VINA RESULT: -5.908224799      2.318      5.235
REMARK  4 active torsions:
REMARK  status: ('A' for Active; 'I' for Inactive)
REMARK    1  A    between atoms: C4_4  and  N1_5 
REMARK       I    between atoms: N1_5  and  C5_7 
REMARK    2  A    between atoms: C5_7  and  C6_9 
REMARK    3  A    between atoms: C12_15  and  O2_16 
REMARK    4  A    between atoms: C18_24  and  C19_25 
ROOT
HETATM    1  C1  UNL     1      -0.448  63.497   0.770  1.00  0.00     0.015 C 
HETATM    2  C2  UNL     1      -0.941  64.579   0.155  1.00  0.00    -0.076 C 
HETATM    3  C3  UNL     1      -0.006  65.056  -0.891  1.00  0.00     0.059 C 
HETATM    4  C4  UNL     1      -0.136  66.500  -1.224  1.00  0.00     0.093 C 
HETATM    5  C9  UNL     1      -1.537  66.923  -1.577  1.00  0.00     0.020 C 
HETATM    6  C10 UNL     1      -2.334  65.911  -2.319  1.00  0.00     0.013 C 
HETATM    7  C11 UNL     1      -3.750  65.764  -1.922  1.00  0.00     0.069 C 
HETATM    8  C12 UNL     1      -4.106  66.017  -0.508  1.00  0.00     0.170 C 
HETATM    9  O3  UNL     1      -4.577  67.354  -0.447  1.00  0.00    -0.354 OA
HETATM   10  C13 UNL     1      -3.462  68.134  -0.742  1.00  0.00     0.182 C 
HETATM   11  C14 UNL     1      -2.231  67.313  -0.311  1.00  0.00    -0.003 C 
HETATM   12  C15 UNL     1      -1.429  68.220   0.582  1.00  0.00     0.019 C 
HETATM   13  C16 UNL     1      -2.879  66.205   0.411  1.00  0.00     0.035 C 
HETATM   14  C17 UNL     1      -3.471  66.833   1.690  1.00  0.00     0.023 C 
HETATM   15  C18 UNL     1      -2.242  64.955   0.693  1.00  0.00     0.089 C 
ENDROOT
BRANCH   4  16
HETATM   16  N1  UNL     1       0.814  66.796  -2.275  1.00  0.00    -0.355 N 
HETATM   17  C5  UNL     1       1.685  67.913  -2.174  1.00  0.00     0.221 C 
HETATM   18  O1  UNL     1       1.623  68.649  -1.154  1.00  0.00    -0.273 OA
ATOM     19  H1  UNL     1       0.858  66.196  -3.099  1.00  0.00     0.162 HD
BRANCH  17  20
HETATM   20  C6  UNL     1       2.659  68.238  -3.222  1.00  0.00     0.070 C 
HETATM   21  C7  UNL     1       3.964  67.545  -2.903  1.00  0.00     0.019 C 
HETATM   22  C8  UNL     1       2.093  67.801  -4.554  1.00  0.00     0.019 C 
ENDBRANCH  17  20
ENDBRANCH   4  16
BRANCH  15  23
HETATM   23  C19 UNL     1      -2.125  64.793   2.199  1.00  0.00     0.241 C 
HETATM   24  O4  UNL     1      -2.632  63.898   2.814  1.00  0.00    -0.306 OA
ENDBRANCH  15  23
BRANCH   8  25
HETATM   25  O2  UNL     1      -4.984  65.139   0.058  1.00  0.00    -0.365 OA
ATOM     26  H2  UNL     1      -4.665  64.653   0.809  1.00  0.00     0.213 HD
ENDBRANCH   8  25
TORSDOF 4
ENDMDL
MODEL 3
REMARK VINA RESULT: -5.906155038      2.040      5.330
REMARK  4 active torsions:
REMARK  status: ('A' for Active; 'I' for Inactive)
REMARK    1  A    between atoms: C4_4  and  N1_5 
REMARK       I    between atoms: N1_5  and  C5_7 
REMARK    2  A    between atoms: C5_7  and  C6_9 
REMARK    3  A    between atoms: C12_15  and  O2_16 
REMARK    4  A    between atoms: C18_24  and  C19_25 
ROOT
HETATM    1  C1  UNL     1      -0.280  63.047   1.376  1.00  0.00     0.015 C 
HETATM    2  C2  UNL     1      -0.691  64.130   0.707  1.00  0.00    -0.076 C 
HETATM    3  C3  UNL     1      -1.302  65.115   1.632  1.00  0.00     0.059 C 
HETATM    4  C4  UNL     1      -2.276  66.041   0.993  1.00  0.00     0.093 C 
HETATM    5  C9  UNL     1      -1.736  66.759  -0.214  1.00  0.00     0.020 C 
HETATM    6  C10 UNL     1      -0.297  67.124  -0.141  1.00  0.00     0.013 C 
HETATM    7  C11 UNL     1       0.498  66.937  -1.373  1.00  0.00     0.069 C 
HETATM    8  C12 UNL     1       0.112  65.838  -2.287  1.00  0.00     0.170 C 
HETATM    9  O3  UNL     1      -0.694  66.422  -3.297  1.00  0.00    -0.354 OA
HETATM   10  C13 UNL     1      -1.847  66.834  -2.633  1.00  0.00     0.182 C 
HETATM   11  C14 UNL     1      -2.001  65.905  -1.413  1.00  0.00    -0.003 C 
HETATM   12  C15 UNL     1      -3.401  65.361  -1.489  1.00  0.00     0.019 C 
HETATM   13  C16 UNL     1      -0.965  64.899  -1.702  1.00  0.00     0.035 C 
HETATM   14  C17 UNL     1      -1.477  64.117  -2.929  1.00  0.00     0.023 C 
HETATM   15  C18 UNL     1      -0.411  64.018  -0.719  1.00  0.00     0.089 C 
ENDROOT
BRANCH   4  16
HETATM   16  N1  UNL     1      -2.751  66.951   2.014  1.00  0.00    -0.355 N 
HETATM   17  C5  UNL     1      -4.037  67.543   1.916  1.00  0.00     0.221 C 
HETATM   18  O1  UNL     1      -4.766  67.269   0.927  1.00  0.00    -0.273 OA
ATOM     19  H1  UNL     1      -2.155  67.169   2.812  1.00  0.00     0.162 HD
BRANCH  17  20
HETATM   20  C6  UNL     1      -4.548  68.469   2.935  1.00  0.00     0.070 C 
HETATM   21  C7  UNL     1      -3.406  69.332   3.422  1.00  0.00     0.019 C 
HETATM   22  C8  UNL     1      -5.660  69.290   2.321  1.00  0.00     0.019 C 
ENDBRANCH  17  20
ENDBRANCH   4  16
BRANCH  15  23
HETATM   23  C19 UNL     1      -0.756  62.587  -1.092  1.00  0.00     0.241 C 
HETATM   24  O4  UNL     1       0.051  61.781  -1.456  1.00  0.00    -0.306 OA
ENDBRANCH  15  23
BRANCH   8  25
HETATM   25  O2  UNL     1       1.137  65.104  -2.811  1.00  0.00    -0.365 OA
ATOM     26  H2  UNL     1       1.390  64.331  -2.323  1.00  0.00     0.213 HD
ENDBRANCH   8  25
TORSDOF 4
ENDMDL
MODEL 4
REMARK VINA RESULT: -5.784362168      4.112      6.687
REMARK  4 active torsions:
REMARK  status: ('A' for Active; 'I' for Inactive)
REMARK    1  A    between atoms: C4_4  and  N1_5 
REMARK       I    between atoms: N1_5  and  C5_7 
REMARK    2  A    between atoms: C5_7  and  C6_9 
REMARK    3  A    between atoms: C12_15  and  O2_16 
REMARK    4  A    between atoms: C18_24  and  C19_25 
ROOT
HETATM    1  C1  UNL     1      -7.625  67.580   2.073  1.00  0.00     0.015 C 
HETATM    2  C2  UNL     1      -6.599  68.440   2.051  1.00  0.00    -0.076 C 
HETATM    3  C3  UNL     1      -5.483  67.900   1.238  1.00  0.00     0.059 C 
HETATM    4  C4  UNL     1      -4.143  68.439   1.594  1.00  0.00     0.093 C 
HETATM    5  C9  UNL     1      -4.071  69.942   1.603  1.00  0.00     0.020 C 
HETATM    6  C10 UNL     1      -4.899  70.621   0.571  1.00  0.00     0.013 C 
HETATM    7  C11 UNL     1      -5.621  71.837   0.997  1.00  0.00     0.069 C 
HETATM    8  C12 UNL     1      -6.071  71.921   2.405  1.00  0.00     0.170 C 
HETATM    9  O3  UNL     1      -5.085  72.671   3.096  1.00  0.00    -0.354 OA
HETATM   10  C13 UNL     1      -3.949  71.866   3.070  1.00  0.00     0.182 C 
HETATM   11  C14 UNL     1      -4.449  70.411   2.971  1.00  0.00    -0.003 C 
HETATM   12  C15 UNL     1      -3.770  69.670   4.090  1.00  0.00     0.019 C 
HETATM   13  C16 UNL     1      -5.893  70.602   3.187  1.00  0.00     0.035 C 
HETATM   14  C17 UNL     1      -6.039  71.028   4.664  1.00  0.00     0.023 C 
HETATM   15  C18 UNL     1      -6.889  69.640   2.824  1.00  0.00     0.089 C 
ENDROOT
BRANCH   4  16
HETATM   16  N1  UNL     1      -3.177  67.843   0.695  1.00  0.00    -0.355 N 
HETATM   17  C5  UNL     1      -2.435  66.696   1.083  1.00  0.00     0.221 C 
HETATM   18  O1  UNL     1      -2.625  66.199   2.224  1.00  0.00    -0.273 OA
ATOM     19  H1  UNL     1      -3.027  68.251  -0.228  1.00  0.00     0.162 HD
BRANCH  17  20
HETATM   20  C6  UNL     1      -1.450  66.069   0.195  1.00  0.00     0.070 C 
HETATM   21  C7  UNL     1      -0.642  67.155  -0.479  1.00  0.00     0.019 C 
HETATM   22  C8  UNL     1      -0.583  65.143   1.019  1.00  0.00     0.019 C 
ENDBRANCH  17  20
ENDBRANCH   4  16
BRANCH  15  23
HETATM   23  C19 UNL     1      -7.589  69.158   4.083  1.00  0.00     0.241 C 
HETATM   24  O4  UNL     1      -8.611  69.626   4.497  1.00  0.00    -0.306 OA
ENDBRANCH  15  23
BRANCH   8  25
HETATM   25  O2  UNL     1      -7.327  72.418   2.606  1.00  0.00    -0.365 OA
ATOM     26  H2  UNL     1      -7.386  73.198   3.146  1.00  0.00     0.213 HD
ENDBRANCH   8  25
TORSDOF 4
ENDMDL
MODEL 5
REMARK VINA RESULT: -5.763932610      2.037      2.803
REMARK  4 active torsions:
REMARK  status: ('A' for Active; 'I' for Inactive)
REMARK    1  A    between atoms: C4_4  and  N1_5 
REMARK       I    between atoms: N1_5  and  C5_7 
REMARK    2  A    between atoms: C5_7  and  C6_9 
REMARK    3  A    between atoms: C12_15  and  O2_16 
REMARK    4  A    between atoms: C18_24  and  C19_25 
ROOT
HETATM    1  C1  UNL     1       0.336  67.685  -0.130  1.00  0.00     0.015 C 
HETATM    2  C2  UNL     1      -0.253  66.566  -0.569  1.00  0.00    -0.076 C 
HETATM    3  C3  UNL     1      -0.579  65.669   0.566  1.00  0.00     0.059 C 
HETATM    4  C4  UNL     1      -0.683  64.230   0.205  1.00  0.00     0.093 C 
HETATM    5  C9  UNL     1      -1.623  63.952  -0.937  1.00  0.00     0.020 C 
HETATM    6  C10 UNL     1      -2.826  64.824  -0.992  1.00  0.00     0.013 C 
HETATM    7  C11 UNL     1      -3.238  65.300  -2.329  1.00  0.00     0.069 C 
HETATM    8  C12 UNL     1      -2.182  65.518  -3.344  1.00  0.00     0.170 C 
HETATM    9  O3  UNL     1      -2.147  64.346  -4.142  1.00  0.00    -0.354 OA
HETATM   10  C13 UNL     1      -1.696  63.348  -3.282  1.00  0.00     0.182 C 
HETATM   11  C14 UNL     1      -0.843  64.052  -2.208  1.00  0.00    -0.003 C 
HETATM   12  C15 UNL     1       0.471  63.321  -2.189  1.00  0.00     0.019 C 
HETATM   13  C16 UNL     1      -0.751  65.407  -2.777  1.00  0.00     0.035 C 
HETATM   14  C17 UNL     1       0.133  65.270  -4.035  1.00  0.00     0.023 C 
HETATM   15  C18 UNL     1      -0.398  66.569  -2.019  1.00  0.00     0.089 C 
ENDROOT
BRANCH   4  16
HETATM   16  N1  UNL     1      -1.037  63.501   1.405  1.00  0.00    -0.355 N 
HETATM   17  C5  UNL     1      -0.561  62.180   1.619  1.00  0.00     0.221 C 
HETATM   18  O1  UNL     1       0.176  61.645   0.749  1.00  0.00    -0.273 OA
ATOM     19  H1  UNL     1      -1.634  63.940   2.104  1.00  0.00     0.162 HD
BRANCH  17  20
HETATM   20  C6  UNL     1      -0.901  61.416   2.825  1.00  0.00     0.070 C 
HETATM   21  C7  UNL     1      -2.225  61.915   3.358  1.00  0.00     0.019 C 
HETATM   22  C8  UNL     1      -0.949  59.948   2.463  1.00  0.00     0.019 C 
ENDBRANCH  17  20
ENDBRANCH   4  16
BRANCH  15  23
HETATM   23  C19 UNL     1       0.905  67.132  -2.560  1.00  0.00     0.241 C 
HETATM   24  O4  UNL     1       0.981  68.148  -3.189  1.00  0.00    -0.306 OA
ENDBRANCH  15  23
BRANCH   8  25
HETATM   25  O2  UNL     1      -2.300  66.649  -4.100  1.00  0.00    -0.365 OA
ATOM     26  H2  UNL     1      -2.597  66.525  -4.993  1.00  0.00     0.213 HD
ENDBRANCH   8  25
TORSDOF 4
ENDMDL
