MODEL 1
REMARK VINA RESULT: -6.389538343      0.000      0.000
REMARK  3 active torsions:
REMARK  status: ('A' for Active; 'I' for Inactive)
REMARK       I    between atoms: N2_3  and  C2_4 
REMARK    1  A    between atoms: N2_3  and  C9_14 
REMARK       I    between atoms: C2_4  and  N3_6 
REMARK    2  A    between atoms: N3_6  and  C3_8 
REMARK    3  A    between atoms: C14_19  and  N4_20 
ROOT
HETATM    1  N1  UNL     1      -0.078  64.711  -1.852  1.00  0.00    -0.172 NA
HETATM    2  C1  UNL     1      -0.212  63.648  -1.360  1.00  0.00     0.188 C 
HETATM    3  N2  UNL     1      -0.404  62.377  -0.737  1.00  0.00    -0.230 N 
HETATM    4  C2  UNL     1      -0.580  62.441   0.674  1.00  0.00     0.332 C 
HETATM    5  O1  UNL     1      -0.550  63.624   1.192  1.00  0.00    -0.246 OA
HETATM    6  N3  UNL     1      -0.779  61.384   1.561  1.00  0.00    -0.338 N 
ATOM      7  H3  UNL     1      -0.809  60.433   1.196  1.00  0.00     0.164 HD
ENDROOT
BRANCH   3   8
HETATM    8  C9  UNL     1      -0.470  61.152  -1.488  1.00  0.00     0.139 C 
HETATM    9  C10 UNL     1       0.808  60.391  -1.461  1.00  0.00     0.029 C 
HETATM   10  C11 UNL     1       1.890  61.037  -2.246  1.00  0.00     0.002 C 
HETATM   11  C12 UNL     1       1.442  61.359  -3.621  1.00  0.00     0.002 C 
HETATM   12  C13 UNL     1       0.045  60.879  -3.940  1.00  0.00     0.038 C 
HETATM   13  C14 UNL     1      -0.950  61.288  -2.896  1.00  0.00     0.247 C 
BRANCH  13  14
HETATM   14  N4  UNL     1      -2.187  60.597  -3.084  1.00  0.00     0.099 N 
HETATM   15  C15 UNL     1      -2.113  59.319  -3.703  1.00  0.00     0.299 C 
HETATM   16  C16 UNL     1      -3.436  58.599  -3.512  1.00  0.00     0.198 C 
HETATM   17  O2  UNL     1      -4.533  59.418  -3.644  1.00  0.00    -0.388 OA
HETATM   18  C17 UNL     1      -4.190  60.482  -4.459  1.00  0.00     0.198 C 
HETATM   19  C18 UNL     1      -3.203  61.385  -3.704  1.00  0.00     0.299 C 
ENDBRANCH  13  14
ENDBRANCH   3   8
BRANCH   6  20
HETATM   20  C3  UNL     1      -0.946  61.594   2.984  1.00  0.00     0.086 C 
HETATM   21  C4  UNL     1      -2.270  62.145   3.294  1.00  0.00     0.025 C 
HETATM   22  C5  UNL     1      -3.348  61.159   3.616  1.00  0.00     0.002 C 
HETATM   23  C6  UNL     1      -2.898  60.016   4.469  1.00  0.00     0.000 C 
HETATM   24  C7  UNL     1      -1.730  59.358   3.826  1.00  0.00     0.002 C 
HETATM   25  C8  UNL     1      -0.582  60.310   3.665  1.00  0.00     0.025 C 
ENDBRANCH   6  20
TORSDOF 3
ENDMDL
MODEL 2
REMARK VINA RESULT: -6.274310634      2.586      4.340
REMARK  3 active torsions:
REMARK  status: ('A' for Active; 'I' for Inactive)
REMARK       I    between atoms: N2_3  and  C2_4 
REMARK    1  A    between atoms: N2_3  and  C9_14 
REMARK       I    between atoms: C2_4  and  N3_6 
REMARK    2  A    between atoms: N3_6  and  C3_8 
REMARK    3  A    between atoms: C14_19  and  N4_20 
ROOT
HETATM    1  N1  UNL     1       2.118  60.709  -2.053  1.00  0.00    -0.172 NA
HETATM    2  C1  UNL     1       1.199  61.029  -1.386  1.00  0.00     0.188 C 
HETATM    3  N2  UNL     1       0.109  61.408  -0.544  1.00  0.00    -0.230 N 
HETATM    4  C2  UNL     1       0.015  60.656   0.661  1.00  0.00     0.332 C 
HETATM    5  O1  UNL     1       0.918  59.748   0.830  1.00  0.00    -0.246 OA
HETATM    6  N3  UNL     1      -0.933  60.779   1.676  1.00  0.00    -0.338 N 
ATOM      7  H3  UNL     1      -1.665  61.482   1.583  1.00  0.00     0.164 HD
ENDROOT
BRANCH   3   8
HETATM    8  C9  UNL     1      -0.773  62.497  -0.868  1.00  0.00     0.139 C 
HETATM    9  C10 UNL     1      -1.363  62.375  -2.228  1.00  0.00     0.029 C 
HETATM   10  C11 UNL     1      -0.378  62.598  -3.315  1.00  0.00     0.002 C 
HETATM   11  C12 UNL     1       0.362  63.868  -3.122  1.00  0.00     0.002 C 
HETATM   12  C13 UNL     1      -0.112  64.681  -1.939  1.00  0.00     0.038 C 
HETATM   13  C14 UNL     1      -0.199  63.864  -0.685  1.00  0.00     0.247 C 
BRANCH  13  14
HETATM   14  N4  UNL     1      -0.899  64.582   0.334  1.00  0.00     0.099 N 
HETATM   15  C15 UNL     1      -1.693  63.808   1.224  1.00  0.00     0.299 C 
HETATM   16  C16 UNL     1      -2.074  64.665   2.419  1.00  0.00     0.198 C 
HETATM   17  O2  UNL     1      -2.390  65.962   2.088  1.00  0.00    -0.388 OA
HETATM   18  C17 UNL     1      -2.836  65.985   0.779  1.00  0.00     0.198 C 
HETATM   19  C18 UNL     1      -1.649  65.696  -0.152  1.00  0.00     0.299 C 
ENDBRANCH  13  14
ENDBRANCH   3   8
BRANCH   6  20
HETATM   20  C3  UNL     1      -0.910  59.942   2.857  1.00  0.00     0.086 C 
HETATM   21  C4  UNL     1      -0.562  60.714   4.055  1.00  0.00     0.025 C 
HETATM   22  C5  UNL     1      -1.701  61.279   4.843  1.00  0.00     0.002 C 
HETATM   23  C6  UNL     1      -2.872  60.358   4.974  1.00  0.00     0.000 C 
HETATM   24  C7  UNL     1      -3.306  59.926   3.619  1.00  0.00     0.002 C 
HETATM   25  C8  UNL     1      -2.211  59.199   2.897  1.00  0.00     0.025 C 
ENDBRANCH   6  20
TORSDOF 3
ENDMDL
MODEL 3
REMARK VINA RESULT: -6.130835529      4.401      6.144
REMARK  3 active torsions:
REMARK  status: ('A' for Active; 'I' for Inactive)
REMARK       I    between atoms: N2_3  and  C2_4 
REMARK    1  A    between atoms: N2_3  and  C9_14 
REMARK       I    between atoms: C2_4  and  N3_6 
REMARK    2  A    between atoms: N3_6  and  C3_8 
REMARK    3  A    between atoms: C14_19  and  N4_20 
ROOT
HETATM    1  N1  UNL     1      -0.175  67.281  -0.180  1.00  0.00    -0.172 NA
HETATM    2  C1  UNL     1      -0.977  66.476   0.136  1.00  0.00     0.188 C 
HETATM    3  N2  UNL     1      -1.932  65.502   0.559  1.00  0.00    -0.230 N 
HETATM    4  C2  UNL     1      -1.441  64.590   1.535  1.00  0.00     0.332 C 
HETATM    5  O1  UNL     1      -0.216  64.767   1.906  1.00  0.00    -0.246 OA
HETATM    6  N3  UNL     1      -2.120  63.531   2.135  1.00  0.00    -0.338 N 
ATOM      7  H3  UNL     1      -3.089  63.353   1.871  1.00  0.00     0.164 HD
ENDROOT
BRANCH   3   8
HETATM    8  C9  UNL     1      -3.287  65.492   0.077  1.00  0.00     0.139 C 
HETATM    9  C10 UNL     1      -3.472  64.604  -1.103  1.00  0.00     0.029 C 
HETATM   10  C11 UNL     1      -2.836  65.129  -2.336  1.00  0.00     0.002 C 
HETATM   11  C12 UNL     1      -3.245  66.530  -2.601  1.00  0.00     0.002 C 
HETATM   12  C13 UNL     1      -4.274  67.063  -1.630  1.00  0.00     0.038 C 
HETATM   13  C14 UNL     1      -3.880  66.834  -0.201  1.00  0.00     0.247 C 
BRANCH  13  14
HETATM   14  N4  UNL     1      -4.981  67.099   0.671  1.00  0.00     0.099 N 
HETATM   15  C15 UNL     1      -6.168  67.590   0.062  1.00  0.00     0.299 C 
HETATM   16  C16 UNL     1      -7.313  67.487   1.056  1.00  0.00     0.198 C 
HETATM   17  O2  UNL     1      -6.955  67.814   2.343  1.00  0.00    -0.388 OA
HETATM   18  C17 UNL     1      -5.875  68.676   2.293  1.00  0.00     0.198 C 
HETATM   19  C18 UNL     1      -4.643  67.898   1.805  1.00  0.00     0.299 C 
ENDBRANCH  13  14
ENDBRANCH   3   8
BRANCH   6  20
HETATM   20  C3  UNL     1      -1.494  62.675   3.121  1.00  0.00     0.086 C 
HETATM   21  C4  UNL     1      -2.486  62.092   4.033  1.00  0.00     0.025 C 
HETATM   22  C5  UNL     1      -3.037  60.754   3.658  1.00  0.00     0.002 C 
HETATM   23  C6  UNL     1      -2.021  59.806   3.104  1.00  0.00     0.000 C 
HETATM   24  C7  UNL     1      -1.327  60.452   1.958  1.00  0.00     0.002 C 
HETATM   25  C8  UNL     1      -0.623  61.708   2.379  1.00  0.00     0.025 C 
ENDBRANCH   6  20
TORSDOF 3
ENDMDL
MODEL 4
REMARK VINA RESULT: -6.093065018      0.853      1.302
REMARK  3 active torsions:
REMARK  status: ('A' for Active; 'I' for Inactive)
REMARK       I    between atoms: N2_3  and  C2_4 
REMARK    1  A    between atoms: N2_3  and  C9_14 
REMARK       I    between atoms: C2_4  and  N3_6 
REMARK    2  A    between atoms: N3_6  and  C3_8 
REMARK    3  A    between atoms: C14_19  and  N4_20 
ROOT
HETATM    1  N1  UNL     1       0.118  65.267  -1.887  1.00  0.00    -0.172 NA
HETATM    2  C1  UNL     1      -0.132  64.189  -1.481  1.00  0.00     0.188 C 
HETATM    3  N2  UNL     1      -0.458  62.900  -0.957  1.00  0.00    -0.230 N 
HETATM    4  C2  UNL     1      -0.527  62.850   0.464  1.00  0.00     0.332 C 
HETATM    5  O1  UNL     1      -0.296  63.962   1.079  1.00  0.00    -0.246 OA
HETATM    6  N3  UNL     1      -0.813  61.748   1.269  1.00  0.00    -0.338 N 
ATOM      7  H3  UNL     1      -1.001  60.849   0.825  1.00  0.00     0.164 HD
ENDROOT
BRANCH   3   8
HETATM    8  C9  UNL     1      -0.746  61.774  -1.804  1.00  0.00     0.139 C 
HETATM    9  C10 UNL     1       0.173  60.628  -1.571  1.00  0.00     0.029 C 
HETATM   10  C11 UNL     1       1.555  60.879  -2.052  1.00  0.00     0.002 C 
HETATM   11  C12 UNL     1       1.560  61.343  -3.460  1.00  0.00     0.002 C 
HETATM   12  C13 UNL     1       0.194  61.362  -4.106  1.00  0.00     0.038 C 
HETATM   13  C14 UNL     1      -0.823  62.073  -3.265  1.00  0.00     0.247 C 
BRANCH  13  14
HETATM   14  N4  UNL     1      -2.141  61.840  -3.768  1.00  0.00     0.099 N 
HETATM   15  C15 UNL     1      -3.200  62.533  -3.119  1.00  0.00     0.299 C 
HETATM   16  C16 UNL     1      -4.449  62.443  -3.978  1.00  0.00     0.198 C 
HETATM   17  O2  UNL     1      -4.625  61.212  -4.566  1.00  0.00    -0.388 OA
HETATM   18  C17 UNL     1      -3.990  60.260  -3.789  1.00  0.00     0.198 C 
HETATM   19  C18 UNL     1      -2.472  60.458  -3.908  1.00  0.00     0.299 C 
ENDBRANCH  13  14
ENDBRANCH   3   8
BRANCH   6  20
HETATM   20  C3  UNL     1      -0.852  61.838   2.713  1.00  0.00     0.086 C 
HETATM   21  C4  UNL     1      -2.130  62.384   3.183  1.00  0.00     0.025 C 
HETATM   22  C5  UNL     1      -3.201  61.395   3.515  1.00  0.00     0.002 C 
HETATM   23  C6  UNL     1      -2.708  60.175   4.227  1.00  0.00     0.000 C 
HETATM   24  C7  UNL     1      -1.617  59.553   3.431  1.00  0.00     0.002 C 
HETATM   25  C8  UNL     1      -0.463  60.495   3.251  1.00  0.00     0.025 C 
ENDBRANCH   6  20
TORSDOF 3
ENDMDL
MODEL 5
REMARK VINA RESULT: -6.085782334      4.806      8.584
REMARK  3 active torsions:
REMARK  status: ('A' for Active; 'I' for Inactive)
REMARK       I    between atoms: N2_3  and  C2_4 
REMARK    1  A    between atoms: N2_3  and  C9_14 
REMARK       I    between atoms: C2_4  and  N3_6 
REMARK    2  A    between atoms: N3_6  and  C3_8 
REMARK    3  A    between atoms: C14_19  and  N4_20 
ROOT
HETATM    1  N1  UNL     1      -4.058  64.547  -1.700  1.00  0.00    -0.172 NA
HETATM    2  C1  UNL     1      -3.060  65.107  -1.417  1.00  0.00     0.188 C 
HETATM    3  N2  UNL     1      -1.854  65.809  -1.110  1.00  0.00    -0.230 N 
HETATM    4  C2  UNL     1      -1.069  66.145  -2.249  1.00  0.00     0.332 C 
HETATM    5  O1  UNL     1      -1.550  65.780  -3.392  1.00  0.00    -0.246 OA
HETATM    6  N3  UNL     1       0.152  66.816  -2.280  1.00  0.00    -0.338 N 
ATOM      7  H3  UNL     1       0.568  67.122  -1.401  1.00  0.00     0.164 HD
ENDROOT
BRANCH   3   8
HETATM    8  C9  UNL     1      -1.505  66.190   0.232  1.00  0.00     0.139 C 
HETATM    9  C10 UNL     1      -0.307  65.470   0.742  1.00  0.00     0.029 C 
HETATM   10  C11 UNL     1      -0.560  64.033   1.012  1.00  0.00     0.002 C 
HETATM   11  C12 UNL     1      -1.753  63.847   1.873  1.00  0.00     0.002 C 
HETATM   12  C13 UNL     1      -2.371  65.139   2.353  1.00  0.00     0.038 C 
HETATM   13  C14 UNL     1      -2.611  66.106   1.232  1.00  0.00     0.247 C 
BRANCH  13  14
HETATM   14  N4  UNL     1      -2.937  67.399   1.746  1.00  0.00     0.099 N 
HETATM   15  C15 UNL     1      -4.301  67.623   2.082  1.00  0.00     0.299 C 
HETATM   16  C16 UNL     1      -4.404  68.889   2.915  1.00  0.00     0.198 C 
HETATM   17  O2  UNL     1      -3.575  69.899   2.485  1.00  0.00    -0.388 OA
HETATM   18  C17 UNL     1      -3.329  69.721   1.136  1.00  0.00     0.198 C 
HETATM   19  C18 UNL     1      -2.442  68.480   0.955  1.00  0.00     0.299 C 
ENDBRANCH  13  14
ENDBRANCH   3   8
BRANCH   6  20
HETATM   20  C3  UNL     1       0.847  67.094  -3.519  1.00  0.00     0.086 C 
HETATM   21  C4  UNL     1       0.756  68.513  -3.879  1.00  0.00     0.025 C 
HETATM   22  C5  UNL     1       1.865  69.398  -3.407  1.00  0.00     0.002 C 
HETATM   23  C6  UNL     1       3.225  68.782  -3.508  1.00  0.00     0.000 C 
HETATM   24  C7  UNL     1       3.224  67.479  -2.794  1.00  0.00     0.002 C 
HETATM   25  C8  UNL     1       2.228  66.527  -3.388  1.00  0.00     0.025 C 
ENDBRANCH   6  20
TORSDOF 3
ENDMDL
