MODEL 1
REMARK VINA RESULT: -5.603620686      0.000      0.000
REMARK  4 active torsions:
REMARK  status: ('A' for Active; 'I' for Inactive)
REMARK    1  A    between atoms: O1_2  and  C2_3 
REMARK    2  A    between atoms: C3_4  and  C5_6 
REMARK    3  A    between atoms: C12_17  and  N2_18 
REMARK    4  A    between atoms: C18_24  and  O4_25 
ROOT
HETATM    1  C2  UNL     1      -3.037  66.560  -0.136  1.00  0.00     0.174 C 
HETATM    2  C3  UNL     1      -2.254  67.739  -0.608  1.00  0.00     0.073 C 
HETATM    3  C4  UNL     1      -2.948  69.064  -0.355  1.00  0.00     0.029 C 
HETATM    4  C6  UNL     1      -0.879  67.871  -0.014  1.00  0.00     0.023 C 
HETATM    5  C7  UNL     1      -0.114  66.598   0.053  1.00  0.00     0.009 C 
HETATM    6  C8  UNL     1      -0.975  65.394   0.363  1.00  0.00     0.025 C 
HETATM    7  C9  UNL     1      -0.181  64.442   1.174  1.00  0.00     0.039 C 
HETATM    8  C10 UNL     1      -0.558  62.989   0.982  1.00  0.00     0.038 A 
HETATM    9  C11 UNL     1      -0.429  62.492  -0.420  1.00  0.00     0.039 C 
HETATM   10  N1  UNL     1       0.141  62.182   1.961  1.00  0.00    -0.370 N 
ATOM     11  H1  UNL     1       1.133  61.977   2.074  1.00  0.00     0.161 HD
HETATM   12  C12 UNL     1      -0.884  61.806   2.643  1.00  0.00     0.081 A 
HETATM   13  C15 UNL     1      -1.750  62.567   1.754  1.00  0.00     0.081 A 
HETATM   14  C16 UNL     1      -2.506  63.727   2.374  1.00  0.00     0.018 C 
HETATM   15  C17 UNL     1      -3.079  64.537   1.243  1.00  0.00     0.042 C 
HETATM   16  C18 UNL     1      -2.301  65.799   0.971  1.00  0.00     0.089 C 
ENDROOT
BRANCH   2  17
HETATM   17  C5  UNL     1      -2.082  67.664  -2.095  1.00  0.00     0.184 C 
HETATM   18  O2  UNL     1      -1.670  68.610  -2.793  1.00  0.00    -0.647 OA
HETATM   19  O3  UNL     1      -2.413  66.448  -2.681  1.00  0.00    -0.647 OA
ENDBRANCH   2  17
BRANCH   1  20
HETATM   20  O1  UNL     1      -4.344  66.812   0.152  1.00  0.00    -0.386 OA
HETATM   21  C1  UNL     1      -5.293  66.356  -0.714  1.00  0.00     0.202 C 
ENDBRANCH   1  20
BRANCH  16  22
HETATM   22  O4  UNL     1      -2.056  66.554   2.079  1.00  0.00    -0.387 OA
ATOM     23  H4  UNL     1      -1.189  66.420   2.444  1.00  0.00     0.210 HD
ENDBRANCH  16  22
BRANCH  12  24
HETATM   24  N2  UNL     1      -1.032  60.986   3.785  1.00  0.00    -0.379 N 
HETATM   25  C13 UNL     1      -0.653  59.596   3.705  1.00  0.00     0.150 C 
HETATM   26  C14 UNL     1      -1.550  61.471   5.048  1.00  0.00     0.150 C 
ENDBRANCH  12  24
TORSDOF 4
ENDMDL
MODEL 2
REMARK VINA RESULT: -5.473497148      6.639      9.164
REMARK  4 active torsions:
REMARK  status: ('A' for Active; 'I' for Inactive)
REMARK    1  A    between atoms: O1_2  and  C2_3 
REMARK    2  A    between atoms: C3_4  and  C5_6 
REMARK    3  A    between atoms: C12_17  and  N2_18 
REMARK    4  A    between atoms: C18_24  and  O4_25 
ROOT
HETATM    1  C2  UNL     1      -6.717  73.033   4.222  1.00  0.00     0.174 C 
HETATM    2  C3  UNL     1      -7.990  72.790   4.961  1.00  0.00     0.073 C 
HETATM    3  C4  UNL     1      -9.049  73.845   4.704  1.00  0.00     0.029 C 
HETATM    4  C6  UNL     1      -8.648  71.467   4.682  1.00  0.00     0.023 C 
HETATM    5  C7  UNL     1      -7.712  70.312   4.648  1.00  0.00     0.009 C 
HETATM    6  C8  UNL     1      -6.365  70.644   4.048  1.00  0.00     0.025 C 
HETATM    7  C9  UNL     1      -5.860  69.452   3.327  1.00  0.00     0.039 C 
HETATM    8  C10 UNL     1      -4.352  69.334   3.291  1.00  0.00     0.038 A 
HETATM    9  C11 UNL     1      -3.700  69.270   4.633  1.00  0.00     0.039 C 
HETATM   10  N1  UNL     1      -3.981  68.252   2.402  1.00  0.00    -0.370 N 
ATOM     11  H1  UNL     1      -4.123  67.244   2.477  1.00  0.00     0.161 HD
HETATM   12  C12 UNL     1      -3.416  68.960   1.489  1.00  0.00     0.081 A 
HETATM   13  C15 UNL     1      -3.706  70.167   2.251  1.00  0.00     0.081 A 
HETATM   14  C16 UNL     1      -4.650  71.164   1.606  1.00  0.00     0.018 C 
HETATM   15  C17 UNL     1      -5.040  72.155   2.669  1.00  0.00     0.042 C 
HETATM   16  C18 UNL     1      -6.421  71.912   3.221  1.00  0.00     0.089 C 
ENDROOT
BRANCH   2  17
HETATM   17  C5  UNL     1      -7.732  72.845   6.437  1.00  0.00     0.184 C 
HETATM   18  O2  UNL     1      -7.395  71.859   7.119  1.00  0.00    -0.647 OA
HETATM   19  O3  UNL     1      -7.890  74.092   7.031  1.00  0.00    -0.647 OA
ENDBRANCH   2  17
BRANCH   1  20
HETATM   20  O1  UNL     1      -6.585  74.282   3.696  1.00  0.00    -0.386 OA
HETATM   21  C1  UNL     1      -5.751  75.160   4.324  1.00  0.00     0.202 C 
ENDBRANCH   1  20
BRANCH  16  22
HETATM   22  O4  UNL     1      -7.386  71.765   2.270  1.00  0.00    -0.387 OA
ATOM     23  H4  UNL     1      -7.830  70.926   2.308  1.00  0.00     0.210 HD
ENDBRANCH  16  22
BRANCH  12  24
HETATM   24  N2  UNL     1      -2.789  68.631   0.265  1.00  0.00    -0.379 N 
HETATM   25  C13 UNL     1      -3.487  68.883  -0.972  1.00  0.00     0.150 C 
HETATM   26  C14 UNL     1      -1.465  68.048   0.185  1.00  0.00     0.150 C 
ENDBRANCH  12  24
TORSDOF 4
ENDMDL
MODEL 3
REMARK VINA RESULT: -5.441288936      3.359      6.833
REMARK  4 active torsions:
REMARK  status: ('A' for Active; 'I' for Inactive)
REMARK    1  A    between atoms: O1_2  and  C2_3 
REMARK    2  A    between atoms: C3_4  and  C5_6 
REMARK    3  A    between atoms: C12_17  and  N2_18 
REMARK    4  A    between atoms: C18_24  and  O4_25 
ROOT
HETATM    1  C2  UNL     1      -1.088  61.405   1.881  1.00  0.00     0.174 C 
HETATM    2  C3  UNL     1      -1.525  61.194   3.291  1.00  0.00     0.073 C 
HETATM    3  C4  UNL     1      -0.551  60.366   4.108  1.00  0.00     0.029 C 
HETATM    4  C6  UNL     1      -1.764  62.451   4.081  1.00  0.00     0.023 C 
HETATM    5  C7  UNL     1      -2.511  63.505   3.345  1.00  0.00     0.009 C 
HETATM    6  C8  UNL     1      -2.165  63.573   1.874  1.00  0.00     0.025 C 
HETATM    7  C9  UNL     1      -2.246  64.985   1.433  1.00  0.00     0.039 C 
HETATM    8  C10 UNL     1      -2.632  65.167  -0.018  1.00  0.00     0.038 A 
HETATM    9  C11 UNL     1      -3.952  64.577  -0.392  1.00  0.00     0.039 C 
HETATM   10  N1  UNL     1      -2.486  66.563  -0.378  1.00  0.00    -0.370 N 
ATOM     11  H1  UNL     1      -2.997  67.390  -0.071  1.00  0.00     0.161 HD
HETATM   12  C12 UNL     1      -1.509  66.430  -1.206  1.00  0.00     0.081 A 
HETATM   13  C15 UNL     1      -1.508  64.993  -0.968  1.00  0.00     0.081 A 
HETATM   14  C16 UNL     1      -0.262  64.415  -0.325  1.00  0.00     0.018 C 
HETATM   15  C17 UNL     1      -0.594  63.010   0.099  1.00  0.00     0.042 C 
HETATM   16  C18 UNL     1      -0.847  62.887   1.579  1.00  0.00     0.089 C 
ENDROOT
BRANCH   2  17
HETATM   17  C5  UNL     1      -2.808  60.418   3.307  1.00  0.00     0.184 C 
HETATM   18  O2  UNL     1      -3.920  60.923   3.552  1.00  0.00    -0.647 OA
HETATM   19  O3  UNL     1      -2.696  59.061   3.026  1.00  0.00    -0.647 OA
ENDBRANCH   2  17
BRANCH   1  20
HETATM   20  O1  UNL     1      -0.078  60.593   1.462  1.00  0.00    -0.386 OA
HETATM   21  C1  UNL     1      -0.376  59.599   0.577  1.00  0.00     0.202 C 
ENDBRANCH   1  20
BRANCH  16  22
HETATM   22  O4  UNL     1       0.116  63.451   2.360  1.00  0.00    -0.387 OA
ATOM     23  H4  UNL     1      -0.231  63.942   3.096  1.00  0.00     0.210 HD
ENDBRANCH  16  22
BRANCH  12  24
HETATM   24  N2  UNL     1      -0.781  67.353  -1.992  1.00  0.00    -0.379 N 
HETATM   25  C13 UNL     1       0.398  67.971  -1.438  1.00  0.00     0.150 C 
HETATM   26  C14 UNL     1      -1.160  67.715  -3.343  1.00  0.00     0.150 C 
ENDBRANCH  12  24
TORSDOF 4
ENDMDL
MODEL 4
REMARK VINA RESULT: -5.349744059      6.874      9.484
REMARK  4 active torsions:
REMARK  status: ('A' for Active; 'I' for Inactive)
REMARK    1  A    between atoms: O1_2  and  C2_3 
REMARK    2  A    between atoms: C3_4  and  C5_6 
REMARK    3  A    between atoms: C12_17  and  N2_18 
REMARK    4  A    between atoms: C18_24  and  O4_25 
ROOT
HETATM    1  C2  UNL     1      -4.618  70.229   1.493  1.00  0.00     0.174 C 
HETATM    2  C3  UNL     1      -3.675  69.112   1.789  1.00  0.00     0.073 C 
HETATM    3  C4  UNL     1      -2.432  69.124   0.918  1.00  0.00     0.029 C 
HETATM    4  C6  UNL     1      -3.184  69.050   3.209  1.00  0.00     0.023 C 
HETATM    5  C7  UNL     1      -4.240  69.265   4.232  1.00  0.00     0.009 C 
HETATM    6  C8  UNL     1      -5.281  70.282   3.821  1.00  0.00     0.025 C 
HETATM    7  C9  UNL     1      -5.735  71.010   5.028  1.00  0.00     0.039 C 
HETATM    8  C10 UNL     1      -7.165  71.502   4.962  1.00  0.00     0.038 A 
HETATM    9  C11 UNL     1      -8.184  70.430   4.760  1.00  0.00     0.039 C 
HETATM   10  N1  UNL     1      -7.426  72.358   6.101  1.00  0.00    -0.370 N 
ATOM     11  H1  UNL     1      -7.476  72.150   7.099  1.00  0.00     0.161 HD
HETATM   12  C12 UNL     1      -7.577  73.463   5.460  1.00  0.00     0.081 A 
HETATM   13  C15 UNL     1      -7.335  72.764   4.206  1.00  0.00     0.081 A 
HETATM   14  C16 UNL     1      -6.095  73.173   3.431  1.00  0.00     0.018 C 
HETATM   15  C17 UNL     1      -5.882  72.138   2.361  1.00  0.00     0.042 C 
HETATM   16  C18 UNL     1      -4.782  71.164   2.695  1.00  0.00     0.089 C 
ENDROOT
BRANCH   2  17
HETATM   17  C5  UNL     1      -4.343  67.801   1.500  1.00  0.00     0.184 C 
HETATM   18  O2  UNL     1      -5.568  67.673   1.320  1.00  0.00    -0.647 OA
HETATM   19  O3  UNL     1      -3.502  66.696   1.439  1.00  0.00    -0.647 OA
ENDBRANCH   2  17
BRANCH   1  20
HETATM   20  O1  UNL     1      -4.388  70.883   0.321  1.00  0.00    -0.386 OA
HETATM   21  C1  UNL     1      -5.223  70.636  -0.729  1.00  0.00     0.202 C 
ENDBRANCH   1  20
BRANCH  16  22
HETATM   22  O4  UNL     1      -3.617  71.751   3.090  1.00  0.00    -0.387 OA
ATOM     23  H4  UNL     1      -2.842  71.260   2.841  1.00  0.00     0.210 HD
ENDBRANCH  16  22
BRANCH  12  24
HETATM   24  N2  UNL     1      -7.861  74.785   5.874  1.00  0.00    -0.379 N 
HETATM   25  C13 UNL     1      -6.769  75.698   6.109  1.00  0.00     0.150 C 
HETATM   26  C14 UNL     1      -9.207  75.280   6.075  1.00  0.00     0.150 C 
ENDBRANCH  12  24
TORSDOF 4
ENDMDL
MODEL 5
REMARK VINA RESULT: -5.220821050      6.640      8.773
REMARK  4 active torsions:
REMARK  status: ('A' for Active; 'I' for Inactive)
REMARK    1  A    between atoms: O1_2  and  C2_3 
REMARK    2  A    between atoms: C3_4  and  C5_6 
REMARK    3  A    between atoms: C12_17  and  N2_18 
REMARK    4  A    between atoms: C18_24  and  O4_25 
ROOT
HETATM    1  C2  UNL     1      -7.304  72.081   4.785  1.00  0.00     0.174 C 
HETATM    2  C3  UNL     1      -6.828  73.335   5.437  1.00  0.00     0.073 C 
HETATM    3  C4  UNL     1      -7.246  73.457   6.891  1.00  0.00     0.029 C 
HETATM    4  C6  UNL     1      -5.338  73.540   5.417  1.00  0.00     0.023 C 
HETATM    5  C7  UNL     1      -4.694  73.228   4.113  1.00  0.00     0.009 C 
HETATM    6  C8  UNL     1      -5.321  72.052   3.398  1.00  0.00     0.025 C 
HETATM    7  C9  UNL     1      -4.261  71.329   2.657  1.00  0.00     0.039 C 
HETATM    8  C10 UNL     1      -4.738  70.635   1.400  1.00  0.00     0.038 A 
HETATM    9  C11 UNL     1      -5.360  71.538   0.386  1.00  0.00     0.039 C 
HETATM   10  N1  UNL     1      -3.668  69.809   0.877  1.00  0.00    -0.370 N 
ATOM     11  H1  UNL     1      -2.765  70.059   0.475  1.00  0.00     0.161 HD
HETATM   12  C12 UNL     1      -4.215  68.663   1.081  1.00  0.00     0.081 A 
HETATM   13  C15 UNL     1      -5.385  69.324   1.642  1.00  0.00     0.081 A 
HETATM   14  C16 UNL     1      -5.675  69.059   3.107  1.00  0.00     0.018 C 
HETATM   15  C17 UNL     1      -6.713  70.057   3.540  1.00  0.00     0.042 C 
HETATM   16  C18 UNL     1      -6.136  71.194   4.343  1.00  0.00     0.089 C 
ENDROOT
BRANCH   2  17
HETATM   17  C5  UNL     1      -7.440  74.520   4.753  1.00  0.00     0.184 C 
HETATM   18  O2  UNL     1      -7.909  74.489   3.600  1.00  0.00    -0.647 OA
HETATM   19  O3  UNL     1      -7.462  75.698   5.491  1.00  0.00    -0.647 OA
ENDBRANCH   2  17
BRANCH   1  20
HETATM   20  O1  UNL     1      -8.271  71.408   5.468  1.00  0.00    -0.386 OA
HETATM   21  C1  UNL     1      -9.571  71.604   5.105  1.00  0.00     0.202 C 
ENDBRANCH   1  20
BRANCH  16  22
HETATM   22  O4  UNL     1      -5.332  70.802   5.371  1.00  0.00    -0.387 OA
ATOM     23  H4  UNL     1      -5.694  70.089   5.884  1.00  0.00     0.210 HD
ENDBRANCH  16  22
BRANCH  12  24
HETATM   24  N2  UNL     1      -3.792  67.336   0.834  1.00  0.00    -0.379 N 
HETATM   25  C13 UNL     1      -4.195  66.685  -0.387  1.00  0.00     0.150 C 
HETATM   26  C14 UNL     1      -2.961  66.586   1.755  1.00  0.00     0.150 C 
ENDBRANCH  12  24
TORSDOF 4
ENDMDL
