MODEL 1
REMARK VINA RESULT: -7.804038612      0.000      0.000
REMARK  4 active torsions:
REMARK  status: ('A' for Active; 'I' for Inactive)
REMARK       I    between atoms: C1_2  and  N1_3 
REMARK    1  A    between atoms: C1_2  and  C8_13 
REMARK    2  A    between atoms: N1_3  and  C2_5 
REMARK    3  A    between atoms: C5_8  and  O2_9 
REMARK    4  A    between atoms: N2_20  and  C15_21 
ROOT
HETATM    1  C8  UNL     1      -1.228  64.387   0.106  1.00  0.00     0.113 C 
HETATM    2  C9  UNL     1      -2.531  64.922  -0.453  1.00  0.00     0.041 C 
HETATM    3  C10 UNL     1      -2.228  65.733  -1.676  1.00  0.00     0.009 C 
HETATM    4  C11 UNL     1      -0.736  65.950  -1.850  1.00  0.00     0.004 C 
HETATM    5  C12 UNL     1      -0.402  66.716  -0.552  1.00  0.00     0.009 C 
HETATM    6  C13 UNL     1      -0.459  65.695   0.511  1.00  0.00     0.041 C 
HETATM    7  C14 UNL     1       0.104  64.720  -1.770  1.00  0.00     0.128 C 
HETATM    8  N2  UNL     1      -0.425  63.758  -0.825  1.00  0.00    -0.369 N 
ENDROOT
BRANCH   1   9
HETATM    9  C1  UNL     1      -1.368  63.790   1.458  1.00  0.00     0.246 C 
HETATM   10  O1  UNL     1      -1.571  64.550   2.421  1.00  0.00    -0.271 OA
HETATM   11  N1  UNL     1      -1.280  62.404   1.711  1.00  0.00    -0.354 N 
ATOM     12  H1  UNL     1      -1.113  61.763   0.935  1.00  0.00     0.162 HD
BRANCH  11  13
HETATM   13  C2  UNL     1      -1.427  61.867   3.080  1.00  0.00     0.084 C 
HETATM   14  C3  UNL     1      -0.523  60.667   3.285  1.00  0.00     0.028 C 
HETATM   15  C4  UNL     1      -0.901  60.089   4.644  1.00  0.00     0.034 C 
HETATM   16  C5  UNL     1      -2.229  59.403   4.514  1.00  0.00     0.118 C 
HETATM   17  C6  UNL     1      -3.146  60.108   3.570  1.00  0.00     0.034 C 
HETATM   18  C7  UNL     1      -2.847  61.583   3.419  1.00  0.00     0.028 C 
BRANCH  16  19
HETATM   19  O2  UNL     1      -2.776  59.268   5.806  1.00  0.00    -0.396 OA
ATOM     20  H2  UNL     1      -2.981  58.351   5.944  1.00  0.00     0.210 HD
ENDBRANCH  16  19
ENDBRANCH  11  13
ENDBRANCH   1   9
BRANCH   8  21
HETATM   21  C15 UNL     1      -0.646  62.526  -1.445  1.00  0.00    -0.011 C 
HETATM   22  C16 UNL     1      -1.128  62.493  -2.855  1.00  0.00     0.078 C 
HETATM   23  C17 UNL     1      -1.544  61.053  -3.223  1.00  0.00     0.173 C 
HETATM   24  O3  UNL     1      -0.486  60.174  -3.037  1.00  0.00    -0.390 OA
HETATM   25  C18 UNL     1      -0.299  60.105  -1.658  1.00  0.00     0.173 C 
HETATM   26  C19 UNL     1       0.370  61.441  -1.285  1.00  0.00     0.078 C 
ENDBRANCH   8  21
TORSDOF 4
ENDMDL
MODEL 2
REMARK VINA RESULT: -7.766982980      2.131      4.074
REMARK  4 active torsions:
REMARK  status: ('A' for Active; 'I' for Inactive)
REMARK       I    between atoms: C1_2  and  N1_3 
REMARK    1  A    between atoms: C1_2  and  C8_13 
REMARK    2  A    between atoms: N1_3  and  C2_5 
REMARK    3  A    between atoms: C5_8  and  O2_9 
REMARK    4  A    between atoms: N2_20  and  C15_21 
ROOT
HETATM    1  C8  UNL     1      -1.444  64.726   0.472  1.00  0.00     0.113 C 
HETATM    2  C9  UNL     1      -0.451  65.871   0.509  1.00  0.00     0.041 C 
HETATM    3  C10 UNL     1      -0.212  66.340  -0.894  1.00  0.00     0.009 C 
HETATM    4  C11 UNL     1      -0.846  65.410  -1.912  1.00  0.00     0.004 C 
HETATM    5  C12 UNL     1      -0.097  64.095  -1.609  1.00  0.00     0.009 C 
HETATM    6  C13 UNL     1      -0.673  63.622  -0.336  1.00  0.00     0.041 C 
HETATM    7  C14 UNL     1      -2.278  65.075  -1.670  1.00  0.00     0.128 C 
HETATM    8  N2  UNL     1      -2.588  64.988  -0.258  1.00  0.00    -0.369 N 
ENDROOT
BRANCH   1   9
HETATM    9  C1  UNL     1      -1.563  64.006   1.765  1.00  0.00     0.246 C 
HETATM   10  O1  UNL     1      -1.805  64.669   2.789  1.00  0.00    -0.271 OA
HETATM   11  N1  UNL     1      -1.415  62.609   1.895  1.00  0.00    -0.354 N 
ATOM     12  H1  UNL     1      -1.215  62.047   1.067  1.00  0.00     0.162 HD
BRANCH  11  13
HETATM   13  C2  UNL     1      -1.544  61.947   3.210  1.00  0.00     0.084 C 
HETATM   14  C3  UNL     1      -0.645  60.728   3.287  1.00  0.00     0.028 C 
HETATM   15  C4  UNL     1      -1.007  60.027   4.592  1.00  0.00     0.034 C 
HETATM   16  C5  UNL     1      -2.341  59.364   4.420  1.00  0.00     0.118 C 
HETATM   17  C6  UNL     1      -3.268  60.159   3.562  1.00  0.00     0.034 C 
HETATM   18  C7  UNL     1      -2.960  61.641   3.544  1.00  0.00     0.028 C 
BRANCH  16  19
HETATM   19  O2  UNL     1      -2.869  59.112   5.703  1.00  0.00    -0.396 OA
ATOM     20  H2  UNL     1      -2.749  58.189   5.892  1.00  0.00     0.210 HD
ENDBRANCH  16  19
ENDBRANCH  11  13
ENDBRANCH   1   9
BRANCH   8  21
HETATM   21  C15 UNL     1      -3.627  65.858   0.076  1.00  0.00    -0.011 C 
HETATM   22  C16 UNL     1      -3.334  67.070   0.893  1.00  0.00     0.078 C 
HETATM   23  C17 UNL     1      -4.658  67.719   1.346  1.00  0.00     0.173 C 
HETATM   24  O3  UNL     1      -5.449  68.037   0.251  1.00  0.00    -0.390 OA
HETATM   25  C18 UNL     1      -5.861  66.814  -0.277  1.00  0.00     0.173 C 
HETATM   26  C19 UNL     1      -4.613  66.248  -0.979  1.00  0.00     0.078 C 
ENDBRANCH   8  21
TORSDOF 4
ENDMDL
MODEL 3
REMARK VINA RESULT: -7.419011351      2.159      4.300
REMARK  4 active torsions:
REMARK  status: ('A' for Active; 'I' for Inactive)
REMARK       I    between atoms: C1_2  and  N1_3 
REMARK    1  A    between atoms: C1_2  and  C8_13 
REMARK    2  A    between atoms: N1_3  and  C2_5 
REMARK    3  A    between atoms: C5_8  and  O2_9 
REMARK    4  A    between atoms: N2_20  and  C15_21 
ROOT
HETATM    1  C8  UNL     1      -1.241  65.160  -0.114  1.00  0.00     0.113 C 
HETATM    2  C9  UNL     1      -0.169  66.197  -0.383  1.00  0.00     0.041 C 
HETATM    3  C10 UNL     1      -0.420  66.801  -1.732  1.00  0.00     0.009 C 
HETATM    4  C11 UNL     1      -1.505  66.056  -2.487  1.00  0.00     0.004 C 
HETATM    5  C12 UNL     1      -0.872  64.653  -2.594  1.00  0.00     0.009 C 
HETATM    6  C13 UNL     1      -0.979  64.090  -1.234  1.00  0.00     0.041 C 
HETATM    7  C14 UNL     1      -2.770  65.827  -1.733  1.00  0.00     0.128 C 
HETATM    8  N2  UNL     1      -2.531  65.606  -0.321  1.00  0.00    -0.369 N 
ENDROOT
BRANCH   1   9
HETATM    9  C1  UNL     1      -0.953  64.309   1.069  1.00  0.00     0.246 C 
HETATM   10  O1  UNL     1       0.015  64.608   1.789  1.00  0.00    -0.271 OA
HETATM   11  N1  UNL     1      -1.720  63.177   1.419  1.00  0.00    -0.354 N 
ATOM     12  H1  UNL     1      -2.518  62.914   0.841  1.00  0.00     0.162 HD
BRANCH  11  13
HETATM   13  C2  UNL     1      -1.386  62.367   2.610  1.00  0.00     0.084 C 
HETATM   14  C3  UNL     1      -0.676  61.089   2.207  1.00  0.00     0.028 C 
HETATM   15  C4  UNL     1      -0.562  60.259   3.480  1.00  0.00     0.034 C 
HETATM   16  C5  UNL     1      -1.919  59.716   3.816  1.00  0.00     0.118 C 
HETATM   17  C6  UNL     1      -3.015  60.674   3.485  1.00  0.00     0.034 C 
HETATM   18  C7  UNL     1      -2.574  62.121   3.468  1.00  0.00     0.028 C 
BRANCH  16  19
HETATM   19  O2  UNL     1      -1.914  59.344   5.176  1.00  0.00    -0.396 OA
ATOM     20  H2  UNL     1      -1.027  59.095   5.408  1.00  0.00     0.210 HD
ENDBRANCH  16  19
ENDBRANCH  11  13
ENDBRANCH   1   9
BRANCH   8  21
HETATM   21  C15 UNL     1      -3.247  66.523   0.452  1.00  0.00    -0.011 C 
HETATM   22  C16 UNL     1      -4.707  66.704   0.207  1.00  0.00     0.078 C 
HETATM   23  C17 UNL     1      -5.210  67.936   0.987  1.00  0.00     0.173 C 
HETATM   24  O3  UNL     1      -4.947  67.800   2.342  1.00  0.00    -0.390 OA
HETATM   25  C18 UNL     1      -3.562  67.895   2.462  1.00  0.00     0.173 C 
HETATM   26  C19 UNL     1      -3.027  66.554   1.930  1.00  0.00     0.078 C 
ENDBRANCH   8  21
TORSDOF 4
ENDMDL
MODEL 4
REMARK VINA RESULT: -7.325388401      0.569      1.095
REMARK  4 active torsions:
REMARK  status: ('A' for Active; 'I' for Inactive)
REMARK       I    between atoms: C1_2  and  N1_3 
REMARK    1  A    between atoms: C1_2  and  C8_13 
REMARK    2  A    between atoms: N1_3  and  C2_5 
REMARK    3  A    between atoms: C5_8  and  O2_9 
REMARK    4  A    between atoms: N2_20  and  C15_21 
ROOT
HETATM    1  C8  UNL     1      -0.984  64.495  -0.080  1.00  0.00     0.113 C 
HETATM    2  C9  UNL     1      -2.401  64.875  -0.458  1.00  0.00     0.041 C 
HETATM    3  C10 UNL     1      -2.348  65.801  -1.635  1.00  0.00     0.009 C 
HETATM    4  C11 UNL     1      -0.927  66.239  -1.941  1.00  0.00     0.004 C 
HETATM    5  C12 UNL     1      -0.557  66.957  -0.626  1.00  0.00     0.009 C 
HETATM    6  C13 UNL     1      -0.357  65.869   0.351  1.00  0.00     0.041 C 
HETATM    7  C14 UNL     1       0.074  65.139  -2.047  1.00  0.00     0.128 C 
HETATM    8  N2  UNL     1      -0.212  64.050  -1.135  1.00  0.00    -0.369 N 
ENDROOT
BRANCH   1   9
HETATM    9  C1  UNL     1      -0.889  63.795   1.227  1.00  0.00     0.246 C 
HETATM   10  O1  UNL     1       0.010  64.136   2.015  1.00  0.00    -0.271 OA
HETATM   11  N1  UNL     1      -1.765  62.762   1.622  1.00  0.00    -0.354 N 
ATOM     12  H1  UNL     1      -2.510  62.467   0.990  1.00  0.00     0.162 HD
BRANCH  11  13
HETATM   13  C2  UNL     1      -1.623  62.101   2.936  1.00  0.00     0.084 C 
HETATM   14  C3  UNL     1      -0.825  60.818   2.808  1.00  0.00     0.028 C 
HETATM   15  C4  UNL     1      -0.912  60.136   4.168  1.00  0.00     0.034 C 
HETATM   16  C5  UNL     1      -2.294  59.576   4.330  1.00  0.00     0.118 C 
HETATM   17  C6  UNL     1      -3.339  60.444   3.711  1.00  0.00     0.034 C 
HETATM   18  C7  UNL     1      -2.935  61.899   3.604  1.00  0.00     0.028 C 
BRANCH  16  19
HETATM   19  O2  UNL     1      -2.515  59.354   5.705  1.00  0.00    -0.396 OA
ATOM     20  H2  UNL     1      -1.677  59.407   6.148  1.00  0.00     0.210 HD
ENDBRANCH  16  19
ENDBRANCH  11  13
ENDBRANCH   1   9
BRANCH   8  21
HETATM   21  C15 UNL     1      -0.334  62.844  -1.828  1.00  0.00    -0.011 C 
HETATM   22  C16 UNL     1       0.206  61.593  -1.221  1.00  0.00     0.078 C 
HETATM   23  C17 UNL     1       0.190  60.463  -2.270  1.00  0.00     0.173 C 
HETATM   24  O3  UNL     1      -1.094  60.265  -2.758  1.00  0.00    -0.390 OA
HETATM   25  C18 UNL     1      -1.383  61.400  -3.514  1.00  0.00     0.173 C 
HETATM   26  C19 UNL     1      -1.639  62.508  -2.476  1.00  0.00     0.078 C 
ENDBRANCH   8  21
TORSDOF 4
ENDMDL
MODEL 5
REMARK VINA RESULT: -7.183648389      2.629      3.627
REMARK  4 active torsions:
REMARK  status: ('A' for Active; 'I' for Inactive)
REMARK       I    between atoms: C1_2  and  N1_3 
REMARK    1  A    between atoms: C1_2  and  C8_13 
REMARK    2  A    between atoms: N1_3  and  C2_5 
REMARK    3  A    between atoms: C5_8  and  O2_9 
REMARK    4  A    between atoms: N2_20  and  C15_21 
ROOT
HETATM    1  C8  UNL     1      -2.365  66.022   0.945  1.00  0.00     0.113 C 
HETATM    2  C9  UNL     1      -3.469  65.588   0.002  1.00  0.00     0.041 C 
HETATM    3  C10 UNL     1      -4.135  66.813  -0.547  1.00  0.00     0.009 C 
HETATM    4  C11 UNL     1      -3.664  68.072   0.158  1.00  0.00     0.004 C 
HETATM    5  C12 UNL     1      -4.107  67.775   1.606  1.00  0.00     0.009 C 
HETATM    6  C13 UNL     1      -3.153  66.758   2.088  1.00  0.00     0.041 C 
HETATM    7  C14 UNL     1      -2.186  68.236   0.257  1.00  0.00     0.128 C 
HETATM    8  N2  UNL     1      -1.505  66.967   0.420  1.00  0.00    -0.369 N 
ENDROOT
BRANCH   1   9
HETATM    9  C1  UNL     1      -1.805  64.907   1.750  1.00  0.00     0.246 C 
HETATM   10  O1  UNL     1      -0.579  64.885   1.954  1.00  0.00    -0.271 OA
HETATM   11  N1  UNL     1      -2.591  63.870   2.296  1.00  0.00    -0.354 N 
ATOM     12  H1  UNL     1      -3.599  63.869   2.140  1.00  0.00     0.162 HD
BRANCH  11  13
HETATM   13  C2  UNL     1      -1.977  62.785   3.090  1.00  0.00     0.084 C 
HETATM   14  C3  UNL     1      -1.300  61.774   2.185  1.00  0.00     0.028 C 
HETATM   15  C4  UNL     1      -0.883  60.620   3.089  1.00  0.00     0.034 C 
HETATM   16  C5  UNL     1      -2.112  59.851   3.475  1.00  0.00     0.118 C 
HETATM   17  C6  UNL     1      -3.301  60.733   3.664  1.00  0.00     0.034 C 
HETATM   18  C7  UNL     1      -2.949  62.160   4.026  1.00  0.00     0.028 C 
BRANCH  16  19
HETATM   19  O2  UNL     1      -1.808  59.093   4.624  1.00  0.00    -0.396 OA
ATOM     20  H2  UNL     1      -1.727  59.692   5.357  1.00  0.00     0.210 HD
ENDBRANCH  16  19
ENDBRANCH  11  13
ENDBRANCH   1   9
BRANCH   8  21
HETATM   21  C15 UNL     1      -0.553  66.784  -0.585  1.00  0.00    -0.011 C 
HETATM   22  C16 UNL     1      -0.786  65.752  -1.635  1.00  0.00     0.078 C 
HETATM   23  C17 UNL     1       0.502  65.559  -2.461  1.00  0.00     0.173 C 
HETATM   24  O3  UNL     1       0.908  66.760  -3.026  1.00  0.00    -0.390 OA
HETATM   25  C18 UNL     1       1.335  67.546  -1.957  1.00  0.00     0.173 C 
HETATM   26  C19 UNL     1       0.040  67.985  -1.250  1.00  0.00     0.078 C 
ENDBRANCH   8  21
TORSDOF 4
ENDMDL
