MODEL 1
REMARK VINA RESULT: -7.282520316      0.000      0.000
REMARK  7 active torsions:
REMARK  status: ('A' for Active; 'I' for Inactive)
REMARK    1  A    between atoms: O1_2  and  C2_3 
REMARK    2  A    between atoms: C2_3  and  O2_4 
REMARK    3  A    between atoms: O2_4  and  C3_5 
REMARK    4  A    between atoms: C4_6  and  C5_7 
REMARK    5  A    between atoms: C13_15  and  O3_16 
REMARK    6  A    between atoms: N1_18  and  C14_19 
REMARK    7  A    between atoms: C19_24  and  O4_25 
ROOT
HETATM    1  C5  UNL     1      55.060 133.997  21.639  1.00  0.00     0.031 C 
HETATM    2  C6  UNL     1      54.431 135.309  21.272  1.00  0.00     0.054 C 
HETATM    3  C7  UNL     1      55.440 136.201  20.650  1.00  0.00    -0.021 C 
HETATM    4  C8  UNL     1      56.343 135.691  19.831  1.00  0.00    -0.029 C 
HETATM    5  C9  UNL     1      56.398 134.265  19.503  1.00  0.00     0.037 C 
HETATM    6  C10 UNL     1      55.404 133.470  20.283  1.00  0.00     0.036 C 
HETATM    7  C11 UNL     1      54.080 133.744  19.583  1.00  0.00     0.009 A 
HETATM    8  C12 UNL     1      53.501 134.867  20.187  1.00  0.00     0.012 A 
HETATM    9  C13 UNL     1      52.330 135.053  19.508  1.00  0.00     0.152 A 
HETATM   10  N1  UNL     1      52.153 134.140  18.547  1.00  0.00    -0.303 N 
HETATM   11  C19 UNL     1      53.225 133.334  18.589  1.00  0.00     0.152 A 
ENDROOT
BRANCH   1  12
HETATM   12  C4  UNL     1      56.090 134.009  22.651  1.00  0.00     0.004 C 
HETATM   13  C3  UNL     1      56.644 133.032  23.302  1.00  0.00     0.134 C 
BRANCH  13  14
HETATM   14  O2  UNL     1      57.624 133.272  24.239  1.00  0.00    -0.338 OA
BRANCH  14  15
HETATM   15  C2  UNL     1      58.635 134.250  24.055  1.00  0.00     0.342 C 
BRANCH  15  16
HETATM   16  O1  UNL     1      59.810 133.907  24.691  1.00  0.00    -0.371 OA
HETATM   17  C1  UNL     1      60.890 133.837  23.813  1.00  0.00     0.204 C 
ENDBRANCH  15  16
ENDBRANCH  14  15
ENDBRANCH  13  14
ENDBRANCH   1  12
BRANCH   9  18
HETATM   18  O3  UNL     1      51.420 136.075  19.777  1.00  0.00    -0.345 OA
ATOM     19  H3  UNL     1      51.664 136.977  19.948  1.00  0.00     0.219 HD
ENDBRANCH   9  18
BRANCH  11  20
HETATM   20  O4  UNL     1      53.501 132.228  17.781  1.00  0.00    -0.345 OA
ATOM     21  H4  UNL     1      52.842 131.835  17.221  1.00  0.00     0.219 HD
ENDBRANCH  11  20
BRANCH  10  22
HETATM   22  C14 UNL     1      51.054 133.988  17.611  1.00  0.00     0.094 C 
HETATM   23  C15 UNL     1      51.143 134.993  16.499  1.00  0.00     0.026 C 
HETATM   24  C16 UNL     1      49.740 135.035  15.971  1.00  0.00     0.002 C 
HETATM   25  C17 UNL     1      48.850 134.662  17.112  1.00  0.00     0.002 C 
HETATM   26  C18 UNL     1      49.740 134.314  18.284  1.00  0.00     0.026 C 
ENDBRANCH  10  22
TORSDOF 7
ENDMDL
MODEL 2
REMARK VINA RESULT: -7.186027168      1.699      2.322
REMARK  7 active torsions:
REMARK  status: ('A' for Active; 'I' for Inactive)
REMARK    1  A    between atoms: O1_2  and  C2_3 
REMARK    2  A    between atoms: C2_3  and  O2_4 
REMARK    3  A    between atoms: O2_4  and  C3_5 
REMARK    4  A    between atoms: C4_6  and  C5_7 
REMARK    5  A    between atoms: C13_15  and  O3_16 
REMARK    6  A    between atoms: N1_18  and  C14_19 
REMARK    7  A    between atoms: C19_24  and  O4_25 
ROOT
HETATM    1  C5  UNL     1      54.084 134.279  19.967  1.00  0.00     0.031 C 
HETATM    2  C6  UNL     1      53.215 135.437  20.361  1.00  0.00     0.054 C 
HETATM    3  C7  UNL     1      53.920 136.716  20.096  1.00  0.00    -0.021 C 
HETATM    4  C8  UNL     1      54.665 136.835  19.012  1.00  0.00    -0.029 C 
HETATM    5  C9  UNL     1      54.833 135.749  18.043  1.00  0.00     0.037 C 
HETATM    6  C10 UNL     1      54.166 134.490  18.490  1.00  0.00     0.036 C 
HETATM    7  C11 UNL     1      52.690 134.732  18.205  1.00  0.00     0.009 A 
HETATM    8  C12 UNL     1      52.124 135.314  19.345  1.00  0.00     0.012 A 
HETATM    9  C13 UNL     1      50.812 135.504  19.014  1.00  0.00     0.152 A 
HETATM   10  N1  UNL     1      50.538 135.088  17.773  1.00  0.00    -0.303 N 
HETATM   11  C19 UNL     1      51.689 134.613  17.271  1.00  0.00     0.152 A 
ENDROOT
BRANCH   1  12
HETATM   12  C4  UNL     1      55.311 134.084  20.702  1.00  0.00     0.004 C 
HETATM   13  C3  UNL     1      55.618 133.212  21.614  1.00  0.00     0.134 C 
BRANCH  13  14
HETATM   14  O2  UNL     1      56.868 133.203  22.192  1.00  0.00    -0.338 OA
BRANCH  14  15
HETATM   15  C2  UNL     1      57.100 132.720  23.505  1.00  0.00     0.342 C 
BRANCH  15  16
HETATM   16  O1  UNL     1      57.860 131.569  23.506  1.00  0.00    -0.371 OA
HETATM   17  C1  UNL     1      58.920 131.630  22.604  1.00  0.00     0.204 C 
ENDBRANCH  15  16
ENDBRANCH  14  15
ENDBRANCH  13  14
ENDBRANCH   1  12
BRANCH   9  18
HETATM   18  O3  UNL     1      49.861 136.068  19.865  1.00  0.00    -0.345 OA
ATOM     19  H3  UNL     1      49.229 136.724  19.599  1.00  0.00     0.219 HD
ENDBRANCH   9  18
BRANCH  11  20
HETATM   20  O4  UNL     1      51.914 134.065  16.006  1.00  0.00    -0.345 OA
ATOM     21  H4  UNL     1      51.270 133.520  15.570  1.00  0.00     0.219 HD
ENDBRANCH  11  20
BRANCH  10  22
HETATM   22  C14 UNL     1      49.282 135.112  17.048  1.00  0.00     0.094 C 
HETATM   23  C15 UNL     1      48.597 133.777  17.100  1.00  0.00     0.026 C 
HETATM   24  C16 UNL     1      47.657 133.835  15.932  1.00  0.00     0.002 C 
HETATM   25  C17 UNL     1      48.273 134.771  14.944  1.00  0.00     0.002 C 
HETATM   26  C18 UNL     1      49.530 135.329  15.572  1.00  0.00     0.026 C 
ENDBRANCH  10  22
TORSDOF 7
ENDMDL
MODEL 3
REMARK VINA RESULT: -7.163537184      1.061      1.187
REMARK  7 active torsions:
REMARK  status: ('A' for Active; 'I' for Inactive)
REMARK    1  A    between atoms: O1_2  and  C2_3 
REMARK    2  A    between atoms: C2_3  and  O2_4 
REMARK    3  A    between atoms: O2_4  and  C3_5 
REMARK    4  A    between atoms: C4_6  and  C5_7 
REMARK    5  A    between atoms: C13_15  and  O3_16 
REMARK    6  A    between atoms: N1_18  and  C14_19 
REMARK    7  A    between atoms: C19_24  and  O4_25 
ROOT
HETATM    1  C5  UNL     1      54.330 134.678  21.023  1.00  0.00     0.031 C 
HETATM    2  C6  UNL     1      53.462 135.858  20.701  1.00  0.00     0.054 C 
HETATM    3  C7  UNL     1      54.270 136.925  20.061  1.00  0.00    -0.021 C 
HETATM    4  C8  UNL     1      55.219 136.596  19.203  1.00  0.00    -0.029 C 
HETATM    5  C9  UNL     1      55.518 135.207  18.848  1.00  0.00     0.037 C 
HETATM    6  C10 UNL     1      54.713 134.236  19.647  1.00  0.00     0.036 C 
HETATM    7  C11 UNL     1      53.336 134.276  18.997  1.00  0.00     0.009 A 
HETATM    8  C12 UNL     1      52.587 135.269  19.640  1.00  0.00     0.012 A 
HETATM    9  C13 UNL     1      51.378 135.247  19.004  1.00  0.00     0.152 A 
HETATM   10  N1  UNL     1      51.333 134.328  18.034  1.00  0.00    -0.303 N 
HETATM   11  C19 UNL     1      52.533 133.728  18.025  1.00  0.00     0.152 A 
ENDROOT
BRANCH   1  12
HETATM   12  C4  UNL     1      55.376 134.864  21.999  1.00  0.00     0.004 C 
HETATM   13  C3  UNL     1      56.044 133.996  22.696  1.00  0.00     0.134 C 
BRANCH  13  14
HETATM   14  O2  UNL     1      57.017 134.398  23.584  1.00  0.00    -0.338 OA
BRANCH  14  15
HETATM   15  C2  UNL     1      58.286 133.772  23.663  1.00  0.00     0.342 C 
BRANCH  15  16
HETATM   16  O1  UNL     1      59.020 134.222  24.741  1.00  0.00    -0.371 OA
HETATM   17  C1  UNL     1      60.097 135.017  24.357  1.00  0.00     0.204 C 
ENDBRANCH  15  16
ENDBRANCH  14  15
ENDBRANCH  13  14
ENDBRANCH   1  12
BRANCH   9  18
HETATM   18  O3  UNL     1      50.309 136.085  19.323  1.00  0.00    -0.345 OA
ATOM     19  H3  UNL     1      49.731 135.954  20.065  1.00  0.00     0.219 HD
ENDBRANCH   9  18
BRANCH  11  20
HETATM   20  O4  UNL     1      52.975 132.700  17.189  1.00  0.00    -0.345 OA
ATOM     21  H4  UNL     1      52.420 132.324  16.515  1.00  0.00     0.219 HD
ENDBRANCH  11  20
BRANCH  10  22
HETATM   22  C14 UNL     1      50.246 133.991  17.133  1.00  0.00     0.094 C 
HETATM   23  C15 UNL     1      50.052 135.054  16.091  1.00  0.00     0.026 C 
HETATM   24  C16 UNL     1      48.648 134.814  15.622  1.00  0.00     0.002 C 
HETATM   25  C17 UNL     1      47.925 134.185  16.768  1.00  0.00     0.002 C 
HETATM   26  C18 UNL     1      48.930 133.976  17.878  1.00  0.00     0.026 C 
ENDBRANCH  10  22
TORSDOF 7
ENDMDL
MODEL 4
REMARK VINA RESULT: -6.839045111      2.403      8.016
REMARK  7 active torsions:
REMARK  status: ('A' for Active; 'I' for Inactive)
REMARK    1  A    between atoms: O1_2  and  C2_3 
REMARK    2  A    between atoms: C2_3  and  O2_4 
REMARK    3  A    between atoms: O2_4  and  C3_5 
REMARK    4  A    between atoms: C4_6  and  C5_7 
REMARK    5  A    between atoms: C13_15  and  O3_16 
REMARK    6  A    between atoms: N1_18  and  C14_19 
REMARK    7  A    between atoms: C19_24  and  O4_25 
ROOT
HETATM    1  C5  UNL     1      51.913 134.914  19.272  1.00  0.00     0.031 C 
HETATM    2  C6  UNL     1      52.767 133.798  18.747  1.00  0.00     0.054 C 
HETATM    3  C7  UNL     1      53.417 134.209  17.478  1.00  0.00    -0.021 C 
HETATM    4  C8  UNL     1      53.855 135.448  17.343  1.00  0.00    -0.029 C 
HETATM    5  C9  UNL     1      53.729 136.452  18.401  1.00  0.00     0.037 C 
HETATM    6  C10 UNL     1      52.957 135.940  19.572  1.00  0.00     0.036 C 
HETATM    7  C11 UNL     1      53.951 135.054  20.310  1.00  0.00     0.009 A 
HETATM    8  C12 UNL     1      53.832 133.757  19.797  1.00  0.00     0.012 A 
HETATM    9  C13 UNL     1      54.751 133.028  20.499  1.00  0.00     0.152 A 
HETATM   10  N1  UNL     1      55.413 133.773  21.391  1.00  0.00    -0.303 N 
HETATM   11  C19 UNL     1      54.925 135.019  21.279  1.00  0.00     0.152 A 
ENDROOT
BRANCH   1  12
HETATM   12  C4  UNL     1      50.770 135.308  18.483  1.00  0.00     0.004 C 
HETATM   13  C3  UNL     1      49.660 134.682  18.235  1.00  0.00     0.134 C 
BRANCH  13  14
HETATM   14  O2  UNL     1      48.687 135.252  17.444  1.00  0.00    -0.338 OA
BRANCH  14  15
HETATM   15  C2  UNL     1      47.803 134.483  16.646  1.00  0.00     0.342 C 
BRANCH  15  16
HETATM   16  O1  UNL     1      48.466 133.803  15.646  1.00  0.00    -0.371 OA
HETATM   17  C1  UNL     1      47.672 133.606  14.518  1.00  0.00     0.204 C 
ENDBRANCH  15  16
ENDBRANCH  14  15
ENDBRANCH  13  14
ENDBRANCH   1  12
BRANCH   9  18
HETATM   18  O3  UNL     1      54.979 131.665  20.312  1.00  0.00    -0.345 OA
ATOM     19  H3  UNL     1      55.726 131.195  20.664  1.00  0.00     0.219 HD
ENDBRANCH   9  18
BRANCH  11  20
HETATM   20  O4  UNL     1      55.298 136.156  22.000  1.00  0.00    -0.345 OA
ATOM     21  H4  UNL     1      54.656 136.746  22.378  1.00  0.00     0.219 HD
ENDBRANCH  11  20
BRANCH  10  22
HETATM   22  C14 UNL     1      56.456 133.387  22.322  1.00  0.00     0.094 C 
HETATM   23  C15 UNL     1      57.729 133.045  21.602  1.00  0.00     0.026 C 
HETATM   24  C16 UNL     1      58.470 132.211  22.605  1.00  0.00     0.002 C 
HETATM   25  C17 UNL     1      57.431 131.569  23.466  1.00  0.00     0.002 C 
HETATM   26  C18 UNL     1      56.085 132.099  23.022  1.00  0.00     0.026 C 
ENDBRANCH  10  22
TORSDOF 7
ENDMDL
MODEL 5
REMARK VINA RESULT: -6.817470114      1.633      2.049
REMARK  7 active torsions:
REMARK  status: ('A' for Active; 'I' for Inactive)
REMARK    1  A    between atoms: O1_2  and  C2_3 
REMARK    2  A    between atoms: C2_3  and  O2_4 
REMARK    3  A    between atoms: O2_4  and  C3_5 
REMARK    4  A    between atoms: C4_6  and  C5_7 
REMARK    5  A    between atoms: C13_15  and  O3_16 
REMARK    6  A    between atoms: N1_18  and  C14_19 
REMARK    7  A    between atoms: C19_24  and  O4_25 
ROOT
HETATM    1  C5  UNL     1      54.702 134.992  21.168  1.00  0.00     0.031 C 
HETATM    2  C6  UNL     1      53.706 136.084  20.907  1.00  0.00     0.054 C 
HETATM    3  C7  UNL     1      54.383 137.255  20.297  1.00  0.00    -0.021 C 
HETATM    4  C8  UNL     1      55.344 137.062  19.411  1.00  0.00    -0.029 C 
HETATM    5  C9  UNL     1      55.782 135.728  18.996  1.00  0.00     0.037 C 
HETATM    6  C10 UNL     1      55.102 134.647  19.769  1.00  0.00     0.036 C 
HETATM    7  C11 UNL     1      53.716 134.563  19.144  1.00  0.00     0.009 A 
HETATM    8  C12 UNL     1      52.878 135.444  19.838  1.00  0.00     0.012 A 
HETATM    9  C13 UNL     1      51.665 135.317  19.222  1.00  0.00     0.152 A 
HETATM   10  N1  UNL     1      51.699 134.436  18.216  1.00  0.00    -0.303 N 
HETATM   11  C19 UNL     1      52.956 133.969  18.164  1.00  0.00     0.152 A 
ENDROOT
BRANCH   1  12
HETATM   12  C4  UNL     1      55.743 135.254  22.134  1.00  0.00     0.004 C 
HETATM   13  C3  UNL     1      56.088 134.598  23.200  1.00  0.00     0.134 C 
BRANCH  13  14
HETATM   14  O2  UNL     1      57.128 135.031  23.991  1.00  0.00    -0.338 OA
BRANCH  14  15
HETATM   15  C2  UNL     1      57.337 136.400  24.298  1.00  0.00     0.342 C 
BRANCH  15  16
HETATM   16  O1  UNL     1      56.284 136.937  25.009  1.00  0.00    -0.371 OA
HETATM   17  C1  UNL     1      55.936 138.211  24.563  1.00  0.00     0.204 C 
ENDBRANCH  15  16
ENDBRANCH  14  15
ENDBRANCH  13  14
ENDBRANCH   1  12
BRANCH   9  18
HETATM   18  O3  UNL     1      50.520 136.022  19.591  1.00  0.00    -0.345 OA
ATOM     19  H3  UNL     1      49.763 135.630  20.009  1.00  0.00     0.219 HD
ENDBRANCH   9  18
BRANCH  11  20
HETATM   20  O4  UNL     1      53.488 133.026  17.282  1.00  0.00    -0.345 OA
ATOM     21  H4  UNL     1      54.314 132.587  17.449  1.00  0.00     0.219 HD
ENDBRANCH  11  20
BRANCH  10  22
HETATM   22  C14 UNL     1      50.637 134.017  17.321  1.00  0.00     0.094 C 
HETATM   23  C15 UNL     1      50.384 135.047  16.258  1.00  0.00     0.026 C 
HETATM   24  C16 UNL     1      48.997 134.715  15.791  1.00  0.00     0.002 C 
HETATM   25  C17 UNL     1      48.309 134.068  16.949  1.00  0.00     0.002 C 
HETATM   26  C18 UNL     1      49.322 133.940  18.064  1.00  0.00     0.026 C 
ENDBRANCH  10  22
TORSDOF 7
ENDMDL
