MODEL 1
REMARK VINA RESULT: -7.242889808      0.000      0.000
REMARK  7 active torsions:
REMARK  status: ('A' for Active; 'I' for Inactive)
REMARK    1  A    between atoms: C2_2  and  C4_4 
REMARK    2  A    between atoms: C4_4  and  O2_19 
REMARK    3  A    between atoms: C5_5  and  C6_6 
REMARK    4  A    between atoms: C7_7  and  C9_9 
REMARK    5  A    between atoms: C10_10  and  C11_11 
REMARK    6  A    between atoms: C11_11  and  O1_12 
REMARK    7  A    between atoms: O2_19  and  S1_20 
ROOT
HETATM    1  C6  UNL     1      52.935 135.769  20.243  1.00  0.00     0.009 C 
HETATM    2  C7  UNL     1      53.049 135.748  18.899  1.00  0.00    -0.062 C 
HETATM    3  C8  UNL     1      54.297 136.192  18.265  1.00  0.00     0.048 C 
ENDROOT
BRANCH   2   4
HETATM    4  C9  UNL     1      51.932 135.291  18.116  1.00  0.00     0.006 C 
HETATM    5  C10 UNL     1      51.132 134.292  18.415  1.00  0.00     0.011 C 
BRANCH   5   6
HETATM    6  C11 UNL     1      50.013 133.919  17.523  1.00  0.00     0.076 C 
HETATM    7  C12 UNL     1      49.093 135.117  17.395  1.00  0.00     0.042 C 
HETATM    8  C13 UNL     1      47.948 134.862  16.449  1.00  0.00     0.003 C 
HETATM    9  C14 UNL     1      48.373 134.354  15.111  1.00  0.00     0.000 C 
HETATM   10  C15 UNL     1      49.353 133.212  15.253  1.00  0.00     0.003 C 
HETATM   11  C16 UNL     1      50.505 133.552  16.140  1.00  0.00     0.042 C 
BRANCH   6  12
HETATM   12  O1  UNL     1      49.345 132.804  18.030  1.00  0.00    -0.386 OA
ATOM     13  H1  UNL     1      49.466 132.060  17.453  1.00  0.00     0.211 HD
ENDBRANCH   6  12
ENDBRANCH   5   6
ENDBRANCH   2   4
BRANCH   1  14
HETATM   14  C5  UNL     1      53.998 136.209  21.083  1.00  0.00     0.039 C 
HETATM   15  C4  UNL     1      54.923 135.622  21.703  1.00  0.00     0.097 C 
BRANCH  15  16
HETATM   16  C2  UNL     1      55.273 134.241  21.805  1.00  0.00    -0.036 C 
HETATM   17  C1  UNL     1      55.933 133.775  22.894  1.00  0.00     0.021 C 
HETATM   18  C3  UNL     1      54.945 133.255  20.753  1.00  0.00     0.050 C 
ENDBRANCH  15  16
BRANCH  15  19
HETATM   19  O2  UNL     1      55.815 136.478  22.465  1.00  0.00    -0.214 OA
BRANCH  19  20
HETATM   20  S1  UNL     1      55.316 137.139  23.923  1.00  0.00     0.257 S 
HETATM   21  O3  UNL     1      54.027 136.512  24.430  1.00  0.00    -0.572 OA
HETATM   22  O4  UNL     1      56.342 136.951  25.009  1.00  0.00    -0.572 OA
HETATM   23  O5  UNL     1      55.041 138.804  23.727  1.00  0.00    -0.572 OA
ENDBRANCH  19  20
ENDBRANCH  15  19
ENDBRANCH   1  14
TORSDOF 7
ENDMDL
MODEL 2
REMARK VINA RESULT: -6.955566235      1.744      2.615
REMARK  7 active torsions:
REMARK  status: ('A' for Active; 'I' for Inactive)
REMARK    1  A    between atoms: C2_2  and  C4_4 
REMARK    2  A    between atoms: C4_4  and  O2_19 
REMARK    3  A    between atoms: C5_5  and  C6_6 
REMARK    4  A    between atoms: C7_7  and  C9_9 
REMARK    5  A    between atoms: C10_10  and  C11_11 
REMARK    6  A    between atoms: C11_11  and  O1_12 
REMARK    7  A    between atoms: O2_19  and  S1_20 
ROOT
HETATM    1  C6  UNL     1      52.775 135.958  19.572  1.00  0.00     0.009 C 
HETATM    2  C7  UNL     1      52.795 134.656  19.222  1.00  0.00    -0.062 C 
HETATM    3  C8  UNL     1      53.834 133.770  19.762  1.00  0.00     0.048 C 
ENDROOT
BRANCH   2   4
HETATM    4  C9  UNL     1      51.789 134.166  18.317  1.00  0.00     0.006 C 
HETATM    5  C10 UNL     1      50.508 134.459  18.348  1.00  0.00     0.011 C 
BRANCH   5   6
HETATM    6  C11 UNL     1      49.572 133.889  17.355  1.00  0.00     0.076 C 
HETATM    7  C12 UNL     1      48.571 134.963  16.980  1.00  0.00     0.042 C 
HETATM    8  C13 UNL     1      47.606 134.501  15.919  1.00  0.00     0.003 C 
HETATM    9  C14 UNL     1      48.268 133.926  14.711  1.00  0.00     0.000 C 
HETATM   10  C15 UNL     1      49.321 132.915  15.102  1.00  0.00     0.003 C 
HETATM   11  C16 UNL     1      50.293 133.455  16.098  1.00  0.00     0.042 C 
BRANCH   6  12
HETATM   12  O1  UNL     1      48.947 132.757  17.880  1.00  0.00    -0.386 OA
ATOM     13  H1  UNL     1      49.359 131.970  17.543  1.00  0.00     0.211 HD
ENDBRANCH   6  12
ENDBRANCH   5   6
ENDBRANCH   2   4
BRANCH   1  14
HETATM   14  C5  UNL     1      53.738 136.515  20.463  1.00  0.00     0.039 C 
HETATM   15  C4  UNL     1      54.912 136.946  20.323  1.00  0.00     0.097 C 
BRANCH  15  16
HETATM   16  C2  UNL     1      55.758 137.047  19.176  1.00  0.00    -0.036 C 
HETATM   17  C1  UNL     1      56.836 136.235  19.041  1.00  0.00     0.021 C 
HETATM   18  C3  UNL     1      55.517 138.020  18.089  1.00  0.00     0.050 C 
ENDBRANCH  15  16
BRANCH  15  19
HETATM   19  O2  UNL     1      55.551 137.439  21.529  1.00  0.00    -0.214 OA
BRANCH  19  20
HETATM   20  S1  UNL     1      55.656 139.087  21.821  1.00  0.00     0.257 S 
HETATM   21  O3  UNL     1      57.050 139.632  21.553  1.00  0.00    -0.572 OA
HETATM   22  O4  UNL     1      54.712 139.876  20.953  1.00  0.00    -0.572 OA
HETATM   23  O5  UNL     1      55.279 139.400  23.448  1.00  0.00    -0.572 OA
ENDBRANCH  19  20
ENDBRANCH  15  19
ENDBRANCH   1  14
TORSDOF 7
ENDMDL
MODEL 3
REMARK VINA RESULT: -6.836666945      1.260      2.229
REMARK  7 active torsions:
REMARK  status: ('A' for Active; 'I' for Inactive)
REMARK    1  A    between atoms: C2_2  and  C4_4 
REMARK    2  A    between atoms: C4_4  and  O2_19 
REMARK    3  A    between atoms: C5_5  and  C6_6 
REMARK    4  A    between atoms: C7_7  and  C9_9 
REMARK    5  A    between atoms: C10_10  and  C11_11 
REMARK    6  A    between atoms: C11_11  and  O1_12 
REMARK    7  A    between atoms: O2_19  and  S1_20 
ROOT
HETATM    1  C6  UNL     1      53.090 135.907  20.434  1.00  0.00     0.009 C 
HETATM    2  C7  UNL     1      53.198 135.051  19.398  1.00  0.00    -0.062 C 
HETATM    3  C8  UNL     1      54.452 134.318  19.183  1.00  0.00     0.048 C 
ENDROOT
BRANCH   2   4
HETATM    4  C9  UNL     1      52.070 134.881  18.520  1.00  0.00     0.006 C 
HETATM    5  C10 UNL     1      51.191 133.905  18.567  1.00  0.00     0.011 C 
BRANCH   5   6
HETATM    6  C11 UNL     1      50.070 133.843  17.603  1.00  0.00     0.076 C 
HETATM    7  C12 UNL     1      49.292 135.139  17.702  1.00  0.00     0.042 C 
HETATM    8  C13 UNL     1      48.160 135.204  16.709  1.00  0.00     0.003 C 
HETATM    9  C14 UNL     1      48.574 134.922  15.303  1.00  0.00     0.000 C 
HETATM   10  C15 UNL     1      49.419 133.670  15.230  1.00  0.00     0.003 C 
HETATM   11  C16 UNL     1      50.568 133.697  16.182  1.00  0.00     0.042 C 
BRANCH   6  12
HETATM   12  O1  UNL     1      49.268 132.733  17.872  1.00  0.00    -0.386 OA
ATOM     13  H1  UNL     1      49.806 131.958  17.980  1.00  0.00     0.211 HD
ENDBRANCH   6  12
ENDBRANCH   5   6
ENDBRANCH   2   4
BRANCH   1  14
HETATM   14  C5  UNL     1      54.163 136.129  21.345  1.00  0.00     0.039 C 
HETATM   15  C4  UNL     1      55.136 136.927  21.374  1.00  0.00     0.097 C 
BRANCH  15  16
HETATM   16  C2  UNL     1      55.549 137.954  20.471  1.00  0.00    -0.036 C 
HETATM   17  C1  UNL     1      56.539 137.726  19.573  1.00  0.00     0.021 C 
HETATM   18  C3  UNL     1      54.938 139.301  20.460  1.00  0.00     0.050 C 
ENDBRANCH  15  16
BRANCH  15  19
HETATM   19  O2  UNL     1      56.017 136.808  22.520  1.00  0.00    -0.214 OA
BRANCH  19  20
HETATM   20  S1  UNL     1      55.603 137.511  23.986  1.00  0.00     0.257 S 
HETATM   21  O3  UNL     1      56.729 137.429  25.004  1.00  0.00    -0.572 OA
HETATM   22  O4  UNL     1      55.265 138.971  23.836  1.00  0.00    -0.572 OA
HETATM   23  O5  UNL     1      54.253 136.712  24.638  1.00  0.00    -0.572 OA
ENDBRANCH  19  20
ENDBRANCH  15  19
ENDBRANCH   1  14
TORSDOF 7
ENDMDL
MODEL 4
REMARK VINA RESULT: -6.770172814      1.955      2.685
REMARK  7 active torsions:
REMARK  status: ('A' for Active; 'I' for Inactive)
REMARK    1  A    between atoms: C2_2  and  C4_4 
REMARK    2  A    between atoms: C4_4  and  O2_19 
REMARK    3  A    between atoms: C5_5  and  C6_6 
REMARK    4  A    between atoms: C7_7  and  C9_9 
REMARK    5  A    between atoms: C10_10  and  C11_11 
REMARK    6  A    between atoms: C11_11  and  O1_12 
REMARK    7  A    between atoms: O2_19  and  S1_20 
ROOT
HETATM    1  C6  UNL     1      54.292 137.230  20.261  1.00  0.00     0.009 C 
HETATM    2  C7  UNL     1      54.647 136.367  19.288  1.00  0.00    -0.062 C 
HETATM    3  C8  UNL     1      56.067 136.072  19.056  1.00  0.00     0.048 C 
ENDROOT
BRANCH   2   4
HETATM    4  C9  UNL     1      53.615 135.755  18.493  1.00  0.00     0.006 C 
HETATM    5  C10 UNL     1      52.423 135.395  18.914  1.00  0.00     0.011 C 
BRANCH   5   6
HETATM    6  C11 UNL     1      51.446 134.774  17.993  1.00  0.00     0.076 C 
HETATM    7  C12 UNL     1      50.064 135.272  18.367  1.00  0.00     0.042 C 
HETATM    8  C13 UNL     1      48.997 134.746  17.442  1.00  0.00     0.003 C 
HETATM    9  C14 UNL     1      49.286 134.974  15.996  1.00  0.00     0.000 C 
HETATM   10  C15 UNL     1      50.696 134.548  15.653  1.00  0.00     0.003 C 
HETATM   11  C16 UNL     1      51.715 135.161  16.555  1.00  0.00     0.042 C 
BRANCH   6  12
HETATM   12  O1  UNL     1      51.534 133.383  18.066  1.00  0.00    -0.386 OA
ATOM     13  H1  UNL     1      51.786 133.117  18.942  1.00  0.00     0.211 HD
ENDBRANCH   6  12
ENDBRANCH   5   6
ENDBRANCH   2   4
BRANCH   1  14
HETATM   14  C5  UNL     1      55.258 137.874  21.088  1.00  0.00     0.039 C 
HETATM   15  C4  UNL     1      55.662 137.691  22.266  1.00  0.00     0.097 C 
BRANCH  15  16
HETATM   16  C2  UNL     1      55.293 136.734  23.260  1.00  0.00    -0.036 C 
HETATM   17  C1  UNL     1      54.483 137.085  24.289  1.00  0.00     0.021 C 
HETATM   18  C3  UNL     1      55.761 135.331  23.230  1.00  0.00     0.050 C 
ENDBRANCH  15  16
BRANCH  15  19
HETATM   19  O2  UNL     1      56.690 138.605  22.729  1.00  0.00    -0.214 OA
BRANCH  19  20
HETATM   20  S1  UNL     1      56.281 140.135  23.278  1.00  0.00     0.257 S 
HETATM   21  O3  UNL     1      57.187 141.215  22.709  1.00  0.00    -0.572 OA
HETATM   22  O4  UNL     1      54.872 140.514  22.899  1.00  0.00    -0.572 OA
HETATM   23  O5  UNL     1      56.412 140.185  24.971  1.00  0.00    -0.572 OA
ENDBRANCH  19  20
ENDBRANCH  15  19
ENDBRANCH   1  14
TORSDOF 7
ENDMDL
MODEL 5
REMARK VINA RESULT: -6.714332827      1.558      2.383
REMARK  7 active torsions:
REMARK  status: ('A' for Active; 'I' for Inactive)
REMARK    1  A    between atoms: C2_2  and  C4_4 
REMARK    2  A    between atoms: C4_4  and  O2_19 
REMARK    3  A    between atoms: C5_5  and  C6_6 
REMARK    4  A    between atoms: C7_7  and  C9_9 
REMARK    5  A    between atoms: C10_10  and  C11_11 
REMARK    6  A    between atoms: C11_11  and  O1_12 
REMARK    7  A    between atoms: O2_19  and  S1_20 
ROOT
HETATM    1  C6  UNL     1      52.790 135.849  19.758  1.00  0.00     0.009 C 
HETATM    2  C7  UNL     1      52.838 134.582  19.298  1.00  0.00    -0.062 C 
HETATM    3  C8  UNL     1      53.904 133.680  19.751  1.00  0.00     0.048 C 
ENDROOT
BRANCH   2   4
HETATM    4  C9  UNL     1      51.833 134.146  18.365  1.00  0.00     0.006 C 
HETATM    5  C10 UNL     1      50.545 134.394  18.439  1.00  0.00     0.011 C 
BRANCH   5   6
HETATM    6  C11 UNL     1      49.610 133.888  17.410  1.00  0.00     0.076 C 
HETATM    7  C12 UNL     1      48.647 135.004  17.059  1.00  0.00     0.042 C 
HETATM    8  C13 UNL     1      47.688 134.609  15.966  1.00  0.00     0.003 C 
HETATM    9  C14 UNL     1      48.354 134.060  14.748  1.00  0.00     0.000 C 
HETATM   10  C15 UNL     1      49.372 133.006  15.118  1.00  0.00     0.003 C 
HETATM   11  C16 UNL     1      50.342 133.481  16.150  1.00  0.00     0.042 C 
BRANCH   6  12
HETATM   12  O1  UNL     1      48.945 132.756  17.881  1.00  0.00    -0.386 OA
ATOM     13  H1  UNL     1      49.570 132.124  18.216  1.00  0.00     0.211 HD
ENDBRANCH   6  12
ENDBRANCH   5   6
ENDBRANCH   2   4
BRANCH   1  14
HETATM   14  C5  UNL     1      53.750 136.352  20.683  1.00  0.00     0.039 C 
HETATM   15  C4  UNL     1      54.830 136.987  20.564  1.00  0.00     0.097 C 
BRANCH  15  16
HETATM   16  C2  UNL     1      55.531 137.464  19.415  1.00  0.00    -0.036 C 
HETATM   17  C1  UNL     1      55.564 138.789  19.127  1.00  0.00     0.021 C 
HETATM   18  C3  UNL     1      56.249 136.564  18.487  1.00  0.00     0.050 C 
ENDBRANCH  15  16
BRANCH  15  19
HETATM   19  O2  UNL     1      55.513 137.309  21.804  1.00  0.00    -0.214 OA
BRANCH  19  20
HETATM   20  S1  UNL     1      56.351 136.124  22.644  1.00  0.00     0.257 S 
HETATM   21  O3  UNL     1      55.499 135.466  23.717  1.00  0.00    -0.572 OA
HETATM   22  O4  UNL     1      56.828 135.020  21.737  1.00  0.00    -0.572 OA
HETATM   23  O5  UNL     1      57.703 136.815  23.404  1.00  0.00    -0.572 OA
ENDBRANCH  19  20
ENDBRANCH  15  19
ENDBRANCH   1  14
TORSDOF 7
ENDMDL
