MODEL 1
REMARK VINA RESULT: -7.116729862      0.000      0.000
REMARK  6 active torsions:
REMARK  status: ('A' for Active; 'I' for Inactive)
REMARK    1  A    between atoms: O1_1  and  N1_3 
REMARK    2  A    between atoms: C1_5  and  C2_6 
REMARK    3  A    between atoms: C1_5  and  C14_21 
REMARK    4  A    between atoms: C2_6  and  N2_7 
REMARK    5  A    between atoms: N2_7  and  C3_9 
REMARK    6  A    between atoms: N3_12  and  C6_13 
ROOT
HETATM    1  N2  UNL     1      53.246 134.520  19.751  1.00  0.00    -0.392 N 
ATOM      2  H2  UNL     1      52.983 134.919  20.652  1.00  0.00     0.159 HD
ENDROOT
BRANCH   1   3
HETATM    3  C2  UNL     1      54.584 134.189  19.489  1.00  0.00     0.116 C 
BRANCH   3   4
HETATM    4  C1  UNL     1      54.960 132.889  20.036  1.00  0.00     0.086 C 
HETATM    5  N1  UNL     1      54.897 131.816  19.303  1.00  0.00    -0.267 N 
ATOM      6  H1  UNL     1      55.158 130.906  19.682  1.00  0.00     0.194 HD
BRANCH   5   7
HETATM    7  O1  UNL     1      54.466 131.945  18.004  1.00  0.00    -0.289 OA
ATOM      8  H1  UNL     1      54.756 131.298  17.370  1.00  0.00     0.244 HD
ENDBRANCH   5   7
BRANCH   4   9
HETATM    9  C14 UNL     1      55.432 132.717  21.430  1.00  0.00     0.034 A 
HETATM   10  C15 UNL     1      55.476 131.569  22.160  1.00  0.00     0.022 A 
HETATM   11  C16 UNL     1      55.939 131.644  23.415  1.00  0.00     0.008 A 
HETATM   12  C17 UNL     1      56.330 132.883  23.863  1.00  0.00     0.050 A 
HETATM   13  S1  UNL     1      56.039 133.888  22.519  1.00  0.00    -0.100 SA
ENDBRANCH   4   9
ENDBRANCH   3   4
ENDBRANCH   1   3
BRANCH   1  14
HETATM   14  C3  UNL     1      52.274 134.302  18.770  1.00  0.00     0.084 C 
HETATM   15  C4  UNL     1      52.856 134.449  17.368  1.00  0.00     0.055 C 
HETATM   16  C5  UNL     1      51.788 133.950  16.377  1.00  0.00     0.275 C 
HETATM   17  N3  UNL     1      50.735 134.945  16.428  1.00  0.00     0.093 N 
HETATM   18  C12 UNL     1      50.119 134.790  17.733  1.00  0.00     0.275 C 
HETATM   19  C13 UNL     1      51.088 135.249  18.802  1.00  0.00     0.055 C 
BRANCH  17  20
HETATM   20  C6  UNL     1      49.786 134.826  15.357  1.00  0.00     0.223 C 
HETATM   21  C7  UNL     1      48.421 134.472  15.892  1.00  0.00     0.036 C 
HETATM   22  C8  UNL     1      47.417 134.254  14.784  1.00  0.00     0.002 C 
HETATM   23  C9  UNL     1      47.867 133.290  13.738  1.00  0.00     0.000 C 
HETATM   24  C10 UNL     1      49.217 133.658  13.216  1.00  0.00     0.002 C 
HETATM   25  C11 UNL     1      50.256 133.899  14.287  1.00  0.00     0.036 C 
ENDBRANCH  17  20
ENDBRANCH   1  14
TORSDOF 6
ENDMDL
MODEL 2
REMARK VINA RESULT: -6.828888158      1.725      1.957
REMARK  6 active torsions:
REMARK  status: ('A' for Active; 'I' for Inactive)
REMARK    1  A    between atoms: O1_1  and  N1_3 
REMARK    2  A    between atoms: C1_5  and  C2_6 
REMARK    3  A    between atoms: C1_5  and  C14_21 
REMARK    4  A    between atoms: C2_6  and  N2_7 
REMARK    5  A    between atoms: N2_7  and  C3_9 
REMARK    6  A    between atoms: N3_12  and  C6_13 
ROOT
HETATM    1  N2  UNL     1      52.763 135.362  20.143  1.00  0.00    -0.392 N 
ATOM      2  H2  UNL     1      52.347 135.706  21.009  1.00  0.00     0.159 HD
ENDROOT
BRANCH   1   3
HETATM    3  C2  UNL     1      54.157 135.312  20.002  1.00  0.00     0.116 C 
BRANCH   3   4
HETATM    4  C1  UNL     1      54.808 134.588  21.089  1.00  0.00     0.086 C 
HETATM    5  N1  UNL     1      54.823 133.287  21.106  1.00  0.00    -0.267 N 
ATOM      6  H1  UNL     1      55.277 132.777  21.864  1.00  0.00     0.194 HD
BRANCH   5   7
HETATM    7  O1  UNL     1      54.210 132.619  20.072  1.00  0.00    -0.289 OA
ATOM      8  H1  UNL     1      53.288 132.789  19.915  1.00  0.00     0.244 HD
ENDBRANCH   5   7
BRANCH   4   9
HETATM    9  C14 UNL     1      55.482 135.276  22.216  1.00  0.00     0.034 A 
HETATM   10  C15 UNL     1      56.767 135.124  22.639  1.00  0.00     0.022 A 
HETATM   11  C16 UNL     1      57.168 135.850  23.690  1.00  0.00     0.008 A 
HETATM   12  C17 UNL     1      56.243 136.691  24.258  1.00  0.00     0.050 A 
HETATM   13  S1  UNL     1      54.855 136.436  23.304  1.00  0.00    -0.100 SA
ENDBRANCH   4   9
ENDBRANCH   3   4
ENDBRANCH   1   3
BRANCH   1  14
HETATM   14  C3  UNL     1      51.945 134.938  19.092  1.00  0.00     0.084 C 
HETATM   15  C4  UNL     1      52.587 135.222  17.738  1.00  0.00     0.055 C 
HETATM   16  C5  UNL     1      51.741 134.503  16.672  1.00  0.00     0.275 C 
HETATM   17  N3  UNL     1      50.490 135.235  16.629  1.00  0.00     0.093 N 
HETATM   18  C12 UNL     1      49.824 134.938  17.884  1.00  0.00     0.275 C 
HETATM   19  C13 UNL     1      50.578 135.594  19.021  1.00  0.00     0.055 C 
BRANCH  17  20
HETATM   20  C6  UNL     1      49.680 134.914  15.489  1.00  0.00     0.223 C 
HETATM   21  C7  UNL     1      48.275 134.569  15.914  1.00  0.00     0.036 C 
HETATM   22  C8  UNL     1      47.417 134.141  14.747  1.00  0.00     0.002 C 
HETATM   23  C9  UNL     1      48.022 133.063  13.912  1.00  0.00     0.000 C 
HETATM   24  C10 UNL     1      49.410 133.423  13.495  1.00  0.00     0.002 C 
HETATM   25  C11 UNL     1      50.306 133.869  14.628  1.00  0.00     0.036 C 
ENDBRANCH  17  20
ENDBRANCH   1  14
TORSDOF 6
ENDMDL
MODEL 3
REMARK VINA RESULT: -6.809854003      3.664      8.583
REMARK  6 active torsions:
REMARK  status: ('A' for Active; 'I' for Inactive)
REMARK    1  A    between atoms: O1_1  and  N1_3 
REMARK    2  A    between atoms: C1_5  and  C2_6 
REMARK    3  A    between atoms: C1_5  and  C14_21 
REMARK    4  A    between atoms: C2_6  and  N2_7 
REMARK    5  A    between atoms: N2_7  and  C3_9 
REMARK    6  A    between atoms: N3_12  and  C6_13 
ROOT
HETATM    1  N2  UNL     1      50.179 134.820  16.569  1.00  0.00    -0.392 N 
ATOM      2  H2  UNL     1      49.592 135.622  16.341  1.00  0.00     0.159 HD
ENDROOT
BRANCH   1   3
HETATM    3  C2  UNL     1      49.869 133.551  16.058  1.00  0.00     0.116 C 
BRANCH   3   4
HETATM    4  C1  UNL     1      48.666 133.554  15.232  1.00  0.00     0.086 C 
HETATM    5  N1  UNL     1      47.490 133.689  15.771  1.00  0.00    -0.267 N 
ATOM      6  H1  UNL     1      46.647 133.691  15.198  1.00  0.00     0.194 HD
BRANCH   5   7
HETATM    7  O1  UNL     1      47.417 133.829  17.138  1.00  0.00    -0.289 OA
ATOM      8  H1  UNL     1      46.916 134.558  17.487  1.00  0.00     0.244 HD
ENDBRANCH   5   7
BRANCH   4   9
HETATM    9  C14 UNL     1      48.710 133.409  13.758  1.00  0.00     0.034 A 
HETATM   10  C15 UNL     1      49.785 133.558  12.936  1.00  0.00     0.022 A 
HETATM   11  C16 UNL     1      49.596 133.385  11.622  1.00  0.00     0.008 A 
HETATM   12  C17 UNL     1      48.323 133.070  11.210  1.00  0.00     0.050 A 
HETATM   13  S1  UNL     1      47.447 133.029  12.670  1.00  0.00    -0.100 SA
ENDBRANCH   4   9
ENDBRANCH   3   4
ENDBRANCH   1   3
BRANCH   1  14
HETATM   14  C3  UNL     1      51.296 134.979  17.393  1.00  0.00     0.084 C 
HETATM   15  C4  UNL     1      52.112 133.694  17.480  1.00  0.00     0.055 C 
HETATM   16  C5  UNL     1      53.433 134.039  18.193  1.00  0.00     0.275 C 
HETATM   17  N3  UNL     1      53.058 134.312  19.566  1.00  0.00     0.093 N 
HETATM   18  C12 UNL     1      52.328 135.565  19.527  1.00  0.00     0.275 C 
HETATM   19  C13 UNL     1      50.998 135.351  18.835  1.00  0.00     0.055 C 
BRANCH  17  20
HETATM   20  C6  UNL     1      54.176 134.358  20.465  1.00  0.00     0.223 C 
HETATM   21  C7  UNL     1      54.187 135.652  21.236  1.00  0.00     0.036 C 
HETATM   22  C8  UNL     1      55.400 135.771  22.129  1.00  0.00     0.002 C 
HETATM   23  C9  UNL     1      56.696 135.535  21.427  1.00  0.00     0.000 C 
HETATM   24  C10 UNL     1      56.670 134.247  20.673  1.00  0.00     0.002 C 
HETATM   25  C11 UNL     1      55.467 134.075  19.773  1.00  0.00     0.036 C 
ENDBRANCH  17  20
ENDBRANCH   1  14
TORSDOF 6
ENDMDL
MODEL 4
REMARK VINA RESULT: -6.806627517      4.436      7.673
REMARK  6 active torsions:
REMARK  status: ('A' for Active; 'I' for Inactive)
REMARK    1  A    between atoms: O1_1  and  N1_3 
REMARK    2  A    between atoms: C1_5  and  C2_6 
REMARK    3  A    between atoms: C1_5  and  C14_21 
REMARK    4  A    between atoms: C2_6  and  N2_7 
REMARK    5  A    between atoms: N2_7  and  C3_9 
REMARK    6  A    between atoms: N3_12  and  C6_13 
ROOT
HETATM    1  N2  UNL     1      55.321 134.195  19.072  1.00  0.00    -0.392 N 
ATOM      2  H2  UNL     1      55.952 133.598  18.537  1.00  0.00     0.159 HD
ENDROOT
BRANCH   1   3
HETATM    3  C2  UNL     1      54.130 133.670  19.596  1.00  0.00     0.116 C 
BRANCH   3   4
HETATM    4  C1  UNL     1      53.127 133.412  18.569  1.00  0.00     0.086 C 
HETATM    5  N1  UNL     1      53.330 132.509  17.655  1.00  0.00    -0.267 N 
ATOM      6  H1  UNL     1      52.631 132.325  16.935  1.00  0.00     0.194 HD
BRANCH   5   7
HETATM    7  O1  UNL     1      54.513 131.809  17.687  1.00  0.00    -0.289 OA
ATOM      8  H1  UNL     1      54.549 130.969  17.245  1.00  0.00     0.244 HD
ENDBRANCH   5   7
BRANCH   4   9
HETATM    9  C14 UNL     1      51.840 134.144  18.508  1.00  0.00     0.034 A 
HETATM   10  C15 UNL     1      51.438 135.191  19.280  1.00  0.00     0.022 A 
HETATM   11  C16 UNL     1      50.221 135.702  19.055  1.00  0.00     0.008 A 
HETATM   12  C17 UNL     1      49.475 135.123  18.057  1.00  0.00     0.050 A 
HETATM   13  S1  UNL     1      50.500 133.893  17.476  1.00  0.00    -0.100 SA
ENDBRANCH   4   9
ENDBRANCH   3   4
ENDBRANCH   1   3
BRANCH   1  14
HETATM   14  C3  UNL     1      55.638 135.539  19.286  1.00  0.00     0.084 C 
HETATM   15  C4  UNL     1      55.065 136.042  20.607  1.00  0.00     0.055 C 
HETATM   16  C5  UNL     1      55.672 137.434  20.866  1.00  0.00     0.275 C 
HETATM   17  N3  UNL     1      55.069 138.297  19.869  1.00  0.00     0.093 N 
HETATM   18  C12 UNL     1      55.640 137.883  18.601  1.00  0.00     0.275 C 
HETATM   19  C13 UNL     1      55.116 136.509  18.240  1.00  0.00     0.055 C 
BRANCH  17  20
HETATM   20  C6  UNL     1      55.269 139.694  20.129  1.00  0.00     0.223 C 
HETATM   21  C7  UNL     1      55.673 140.418  18.870  1.00  0.00     0.036 C 
HETATM   22  C8  UNL     1      55.976 141.876  19.125  1.00  0.00     0.002 C 
HETATM   23  C9  UNL     1      56.949 142.109  20.232  1.00  0.00     0.000 C 
HETATM   24  C10 UNL     1      56.531 141.390  21.472  1.00  0.00     0.002 C 
HETATM   25  C11 UNL     1      56.205 139.929  21.266  1.00  0.00     0.036 C 
ENDBRANCH  17  20
ENDBRANCH   1  14
TORSDOF 6
ENDMDL
MODEL 5
REMARK VINA RESULT: -6.787047782      2.735      8.568
REMARK  6 active torsions:
REMARK  status: ('A' for Active; 'I' for Inactive)
REMARK    1  A    between atoms: O1_1  and  N1_3 
REMARK    2  A    between atoms: C1_5  and  C2_6 
REMARK    3  A    between atoms: C1_5  and  C14_21 
REMARK    4  A    between atoms: C2_6  and  N2_7 
REMARK    5  A    between atoms: N2_7  and  C3_9 
REMARK    6  A    between atoms: N3_12  and  C6_13 
ROOT
HETATM    1  N2  UNL     1      52.285 133.685  17.130  1.00  0.00    -0.392 N 
ATOM      2  H2  UNL     1      52.453 133.105  16.308  1.00  0.00     0.159 HD
ENDROOT
BRANCH   1   3
HETATM    3  C2  UNL     1      51.374 134.750  17.068  1.00  0.00     0.116 C 
BRANCH   3   4
HETATM    4  C1  UNL     1      49.984 134.308  17.105  1.00  0.00     0.086 C 
HETATM    5  N1  UNL     1      49.342 134.227  18.233  1.00  0.00    -0.267 N 
ATOM      6  H1  UNL     1      48.371 133.917  18.263  1.00  0.00     0.194 HD
BRANCH   5   7
HETATM    7  O1  UNL     1      50.012 134.570  19.385  1.00  0.00    -0.289 OA
ATOM      8  H1  UNL     1      49.589 134.394  20.217  1.00  0.00     0.244 HD
ENDBRANCH   5   7
BRANCH   4   9
HETATM    9  C14 UNL     1      49.233 133.934  15.883  1.00  0.00     0.034 A 
HETATM   10  C15 UNL     1      47.958 134.276  15.550  1.00  0.00     0.022 A 
HETATM   11  C16 UNL     1      47.473 133.820  14.388  1.00  0.00     0.008 A 
HETATM   12  C17 UNL     1      48.307 133.038  13.626  1.00  0.00     0.050 A 
HETATM   13  S1  UNL     1      49.731 132.973  14.559  1.00  0.00    -0.100 SA
ENDBRANCH   4   9
ENDBRANCH   3   4
ENDBRANCH   1   3
BRANCH   1  14
HETATM   14  C3  UNL     1      52.960 133.420  18.325  1.00  0.00     0.084 C 
HETATM   15  C4  UNL     1      53.723 134.646  18.816  1.00  0.00     0.055 C 
HETATM   16  C5  UNL     1      54.217 134.335  20.241  1.00  0.00     0.275 C 
HETATM   17  N3  UNL     1      55.243 133.325  20.070  1.00  0.00     0.093 N 
HETATM   18  C12 UNL     1      54.541 132.124  19.659  1.00  0.00     0.275 C 
HETATM   19  C13 UNL     1      53.998 132.314  18.259  1.00  0.00     0.055 C 
BRANCH  17  20
HETATM   20  C6  UNL     1      56.040 133.118  21.246  1.00  0.00     0.223 C 
HETATM   21  C7  UNL     1      55.730 131.782  21.871  1.00  0.00     0.036 C 
HETATM   22  C8  UNL     1      56.489 131.569  23.160  1.00  0.00     0.002 C 
HETATM   23  C9  UNL     1      56.347 132.684  24.141  1.00  0.00     0.000 C 
HETATM   24  C10 UNL     1      56.663 133.999  23.506  1.00  0.00     0.002 C 
HETATM   25  C11 UNL     1      55.936 134.255  22.206  1.00  0.00     0.036 C 
ENDBRANCH  17  20
ENDBRANCH   1  14
TORSDOF 6
ENDMDL
