MODEL 1
REMARK VINA RESULT: -5.835870038      0.000      0.000
REMARK  9 active torsions:
REMARK  status: ('A' for Active; 'I' for Inactive)
REMARK    1  A    between atoms: C3_3  and  O1_4 
REMARK    2  A    between atoms: C3_3  and  C4_6 
REMARK       I    between atoms: C4_6  and  N1_8 
REMARK    3  A    between atoms: N1_8  and  N2_10 
REMARK       I    between atoms: N2_10  and  C5_12 
REMARK    4  A    between atoms: C5_12  and  C6_14 
REMARK    5  A    between atoms: N5_19  and  N6_20 
REMARK    6  A    between atoms: C7_23  and  C8_24 
REMARK    7  A    between atoms: C8_24  and  N8_29 
REMARK    8  A    between atoms: N7_25  and  O4_27 
REMARK    9  A    between atoms: N8_29  and  N9_31 
REMARK       I    between atoms: N9_31  and  C9_33 
ROOT
HETATM    1  C1  UNL     1      -5.061   2.211   8.290  1.00  0.00     0.015 C 
HETATM    2  C2  UNL     1      -4.822   2.083   7.106  1.00  0.00    -0.076 C 
HETATM    3  C3  UNL     1      -4.510   1.963   5.667  1.00  0.00     0.289 C 
ENDROOT
BRANCH   3   4
HETATM    4  O1  UNL     1      -5.364   2.727   4.900  1.00  0.00    -0.374 OA
ATOM      5  H1  UNL     1      -6.256   2.405   4.948  1.00  0.00     0.211 HD
ENDBRANCH   3   4
BRANCH   3   6
HETATM    6  C4  UNL     1      -4.447   0.539   5.284  1.00  0.00     0.276 C 
HETATM    7  O2  UNL     1      -4.909   0.241   4.143  1.00  0.00    -0.268 OA
HETATM    8  N1  UNL     1      -3.924  -0.509   6.073  1.00  0.00    -0.264 N 
ATOM      9  H1  UNL     1      -3.543  -0.291   6.994  1.00  0.00     0.190 HD
BRANCH   8  10
HETATM   10  N2  UNL     1      -3.911  -1.830   5.634  1.00  0.00    -0.262 N 
HETATM   11  C5  UNL     1      -4.653  -2.809   6.325  1.00  0.00     0.290 C 
HETATM   12  O3  UNL     1      -5.316  -2.498   7.321  1.00  0.00    -0.264 OA
ATOM     13  H2  UNL     1      -3.366  -2.090   4.812  1.00  0.00     0.190 HD
BRANCH  11  14
HETATM   14  C6  UNL     1      -4.627  -4.188   5.840  1.00  0.00     0.153 A 
HETATM   15  N3  UNL     1      -5.742  -4.979   5.761  1.00  0.00    -0.277 N 
HETATM   16  N4  UNL     1      -5.370  -6.150   5.328  1.00  0.00    -0.221 N 
ATOM     17  H3  UNL     1      -6.694  -4.701   5.998  1.00  0.00     0.189 HD
HETATM   18  N5  UNL     1      -4.083  -6.194   5.114  1.00  0.00    -0.182 N 
ATOM     19  H4  UNL     1      -6.004  -6.934   5.175  1.00  0.00     0.210 HD
HETATM   20  C7  UNL     1      -3.591  -4.959   5.432  1.00  0.00     0.156 A 
BRANCH  18  21
HETATM   21  N6  UNL     1      -3.355  -7.313   4.652  1.00  0.00    -0.322 N 
ATOM     22  H62 UNL     1      -3.342  -7.695   3.707  1.00  0.00     0.179 HD
ATOM     23  H61 UNL     1      -2.730  -7.893   5.210  1.00  0.00     0.179 HD
ENDBRANCH  18  21
BRANCH  20  24
HETATM   24  C8  UNL     1      -2.173  -4.674   5.291  1.00  0.00     0.173 C 
HETATM   25  N7  UNL     1      -1.808  -4.161   4.116  1.00  0.00    -0.250 N 
ATOM     26  H7  UNL     1      -2.528  -4.005   3.411  1.00  0.00     0.196 HD
BRANCH  25  27
HETATM   27  O4  UNL     1      -0.525  -3.834   3.808  1.00  0.00    -0.288 OA
ATOM     28  H4  UNL     1      -0.291  -3.203   3.138  1.00  0.00     0.244 HD
ENDBRANCH  25  27
BRANCH  24  29
HETATM   29  N8  UNL     1      -1.139  -4.795   6.209  1.00  0.00    -0.278 N 
ATOM     30  H8  UNL     1      -0.330  -5.379   6.000  1.00  0.00     0.189 HD
BRANCH  29  31
HETATM   31  N9  UNL     1      -1.220  -4.094   7.444  1.00  0.00    -0.252 N 
HETATM   32  C9  UNL     1      -1.210  -2.682   7.504  1.00  0.00     0.347 C 
HETATM   33  N10 UNL     1      -1.289  -1.952   8.710  1.00  0.00    -0.038 NA
HETATM   34  O5  UNL     1      -1.123  -2.048   6.421  1.00  0.00    -0.249 OA
ATOM     35  H9  UNL     1      -1.288  -4.626   8.312  1.00  0.00     0.191 HD
ENDBRANCH  29  31
ENDBRANCH  24  29
ENDBRANCH  20  24
ENDBRANCH  11  14
ENDBRANCH   8  10
ENDBRANCH   3   6
TORSDOF 9
ENDMDL
MODEL 2
REMARK VINA RESULT: -5.787801152      2.012      3.489
REMARK  9 active torsions:
REMARK  status: ('A' for Active; 'I' for Inactive)
REMARK    1  A    between atoms: C3_3  and  O1_4 
REMARK    2  A    between atoms: C3_3  and  C4_6 
REMARK       I    between atoms: C4_6  and  N1_8 
REMARK    3  A    between atoms: N1_8  and  N2_10 
REMARK       I    between atoms: N2_10  and  C5_12 
REMARK    4  A    between atoms: C5_12  and  C6_14 
REMARK    5  A    between atoms: N5_19  and  N6_20 
REMARK    6  A    between atoms: C7_23  and  C8_24 
REMARK    7  A    between atoms: C8_24  and  N8_29 
REMARK    8  A    between atoms: N7_25  and  O4_27 
REMARK    9  A    between atoms: N8_29  and  N9_31 
REMARK       I    between atoms: N9_31  and  C9_33 
ROOT
HETATM    1  C1  UNL     1      -4.755   3.244   7.579  1.00  0.00     0.015 C 
HETATM    2  C2  UNL     1      -4.587   2.659   6.529  1.00  0.00    -0.076 C 
HETATM    3  C3  UNL     1      -4.360   1.978   5.236  1.00  0.00     0.289 C 
ENDROOT
BRANCH   3   4
HETATM    4  O1  UNL     1      -5.218   2.446   4.262  1.00  0.00    -0.374 OA
ATOM      5  H1  UNL     1      -4.838   3.173   3.784  1.00  0.00     0.211 HD
ENDBRANCH   3   4
BRANCH   3   6
HETATM    6  C4  UNL     1      -4.388   0.515   5.429  1.00  0.00     0.276 C 
HETATM    7  O2  UNL     1      -4.707  -0.181   4.419  1.00  0.00    -0.268 OA
HETATM    8  N1  UNL     1      -4.095  -0.169   6.629  1.00  0.00    -0.264 N 
ATOM      9  H1  UNL     1      -3.832   0.371   7.453  1.00  0.00     0.190 HD
BRANCH   8  10
HETATM   10  N2  UNL     1      -4.153  -1.557   6.722  1.00  0.00    -0.262 N 
HETATM   11  C5  UNL     1      -2.965  -2.315   6.697  1.00  0.00     0.290 C 
HETATM   12  O3  UNL     1      -1.870  -1.751   6.593  1.00  0.00    -0.264 OA
ATOM     13  H2  UNL     1      -5.055  -2.025   6.809  1.00  0.00     0.190 HD
BRANCH  11  14
HETATM   14  C6  UNL     1      -3.054  -3.770   6.802  1.00  0.00     0.153 A 
HETATM   15  N3  UNL     1      -3.544  -4.416   7.905  1.00  0.00    -0.277 N 
HETATM   16  N4  UNL     1      -3.450  -5.698   7.691  1.00  0.00    -0.221 N 
ATOM     17  H3  UNL     1      -3.917  -3.973   8.745  1.00  0.00     0.189 HD
HETATM   18  N5  UNL     1      -2.929  -5.950   6.520  1.00  0.00    -0.182 N 
ATOM     19  H4  UNL     1      -3.746  -6.414   8.354  1.00  0.00     0.210 HD
HETATM   20  C7  UNL     1      -2.670  -4.740   5.938  1.00  0.00     0.156 A 
BRANCH  18  21
HETATM   21  N6  UNL     1      -2.681  -7.231   5.980  1.00  0.00    -0.322 N 
ATOM     22  H62 UNL     1      -2.761  -8.129   6.457  1.00  0.00     0.179 HD
ATOM     23  H61 UNL     1      -2.389  -7.432   5.024  1.00  0.00     0.179 HD
ENDBRANCH  18  21
BRANCH  20  24
HETATM   24  C8  UNL     1      -2.091  -4.674   4.608  1.00  0.00     0.173 C 
HETATM   25  N7  UNL     1      -0.793  -4.375   4.563  1.00  0.00    -0.250 N 
ATOM     26  H7  UNL     1      -0.303  -4.217   5.443  1.00  0.00     0.196 HD
BRANCH  25  27
HETATM   27  O4  UNL     1      -0.088  -4.271   3.405  1.00  0.00    -0.288 OA
ATOM     28  H4  UNL     1       0.829  -4.505   3.328  1.00  0.00     0.244 HD
ENDBRANCH  25  27
BRANCH  24  29
HETATM   29  N8  UNL     1      -2.662  -4.933   3.368  1.00  0.00    -0.278 N 
ATOM     30  H8  UNL     1      -3.331  -4.279   2.963  1.00  0.00     0.189 HD
BRANCH  29  31
HETATM   31  N9  UNL     1      -2.303  -6.120   2.672  1.00  0.00    -0.252 N 
HETATM   32  C9  UNL     1      -3.217  -6.802   1.836  1.00  0.00     0.347 C 
HETATM   33  N10 UNL     1      -2.897  -7.981   1.130  1.00  0.00    -0.038 NA
HETATM   34  O5  UNL     1      -4.377  -6.327   1.723  1.00  0.00    -0.249 OA
ATOM     35  H9  UNL     1      -1.358  -6.490   2.778  1.00  0.00     0.191 HD
ENDBRANCH  29  31
ENDBRANCH  24  29
ENDBRANCH  20  24
ENDBRANCH  11  14
ENDBRANCH   8  10
ENDBRANCH   3   6
TORSDOF 9
ENDMDL
MODEL 3
REMARK VINA RESULT: -5.782354796      2.219      3.609
REMARK  9 active torsions:
REMARK  status: ('A' for Active; 'I' for Inactive)
REMARK    1  A    between atoms: C3_3  and  O1_4 
REMARK    2  A    between atoms: C3_3  and  C4_6 
REMARK       I    between atoms: C4_6  and  N1_8 
REMARK    3  A    between atoms: N1_8  and  N2_10 
REMARK       I    between atoms: N2_10  and  C5_12 
REMARK    4  A    between atoms: C5_12  and  C6_14 
REMARK    5  A    between atoms: N5_19  and  N6_20 
REMARK    6  A    between atoms: C7_23  and  C8_24 
REMARK    7  A    between atoms: C8_24  and  N8_29 
REMARK    8  A    between atoms: N7_25  and  O4_27 
REMARK    9  A    between atoms: N8_29  and  N9_31 
REMARK       I    between atoms: N9_31  and  C9_33 
ROOT
HETATM    1  C1  UNL     1      -4.976   2.381   7.561  1.00  0.00     0.015 C 
HETATM    2  C2  UNL     1      -4.666   1.785   6.550  1.00  0.00    -0.076 C 
HETATM    3  C3  UNL     1      -4.269   1.094   5.305  1.00  0.00     0.289 C 
ENDROOT
BRANCH   3   4
HETATM    4  O1  UNL     1      -5.088   1.442   4.252  1.00  0.00    -0.374 OA
ATOM      5  H1  UNL     1      -5.258   0.700   3.683  1.00  0.00     0.211 HD
ENDBRANCH   3   4
BRANCH   3   6
HETATM    6  C4  UNL     1      -4.166  -0.359   5.550  1.00  0.00     0.276 C 
HETATM    7  O2  UNL     1      -5.227  -0.946   5.914  1.00  0.00    -0.268 OA
HETATM    8  N1  UNL     1      -2.997  -1.140   5.418  1.00  0.00    -0.264 N 
ATOM      9  H1  UNL     1      -2.132  -0.688   5.123  1.00  0.00     0.190 HD
BRANCH   8  10
HETATM   10  N2  UNL     1      -2.989  -2.508   5.677  1.00  0.00    -0.262 N 
HETATM   11  C5  UNL     1      -1.850  -3.277   5.364  1.00  0.00     0.290 C 
HETATM   12  O3  UNL     1      -0.857  -2.740   4.860  1.00  0.00    -0.264 OA
ATOM     13  H2  UNL     1      -3.806  -2.953   6.094  1.00  0.00     0.190 HD
BRANCH  11  14
HETATM   14  C6  UNL     1      -1.865  -4.710   5.651  1.00  0.00     0.153 A 
HETATM   15  N3  UNL     1      -1.596  -5.233   6.888  1.00  0.00    -0.277 N 
HETATM   16  N4  UNL     1      -1.657  -6.531   6.794  1.00  0.00    -0.221 N 
ATOM     17  H3  UNL     1      -1.387  -4.701   7.732  1.00  0.00     0.189 HD
HETATM   18  N5  UNL     1      -1.947  -6.909   5.578  1.00  0.00    -0.182 N 
ATOM     19  H4  UNL     1      -1.498  -7.171   7.572  1.00  0.00     0.210 HD
HETATM   20  C7  UNL     1      -2.083  -5.769   4.836  1.00  0.00     0.156 A 
BRANCH  18  21
HETATM   21  N6  UNL     1      -2.079  -8.243   5.133  1.00  0.00    -0.322 N 
ATOM     22  H62 UNL     1      -1.792  -8.626   4.233  1.00  0.00     0.179 HD
ATOM     23  H61 UNL     1      -2.482  -9.014   5.664  1.00  0.00     0.179 HD
ENDBRANCH  18  21
BRANCH  20  24
HETATM   24  C8  UNL     1      -2.421  -5.848   3.425  1.00  0.00     0.173 C 
HETATM   25  N7  UNL     1      -3.716  -5.716   3.139  1.00  0.00    -0.250 N 
ATOM     26  H7  UNL     1      -4.369  -5.572   3.909  1.00  0.00     0.196 HD
BRANCH  25  27
HETATM   27  O4  UNL     1      -4.213  -5.764   1.874  1.00  0.00    -0.288 OA
ATOM     28  H4  UNL     1      -4.986  -5.287   1.597  1.00  0.00     0.244 HD
ENDBRANCH  25  27
BRANCH  24  29
HETATM   29  N8  UNL     1      -1.600  -5.980   2.313  1.00  0.00    -0.278 N 
ATOM     30  H8  UNL     1      -1.918  -5.664   1.398  1.00  0.00     0.189 HD
BRANCH  29  31
HETATM   31  N9  UNL     1      -0.311  -6.563   2.466  1.00  0.00    -0.252 N 
HETATM   32  C9  UNL     1       0.857  -5.773   2.573  1.00  0.00     0.347 C 
HETATM   33  N10 UNL     1       2.151  -6.315   2.725  1.00  0.00    -0.038 NA
HETATM   34  O5  UNL     1       0.728  -4.522   2.526  1.00  0.00    -0.249 OA
ATOM     35  H9  UNL     1      -0.227  -7.578   2.499  1.00  0.00     0.191 HD
ENDBRANCH  29  31
ENDBRANCH  24  29
ENDBRANCH  20  24
ENDBRANCH  11  14
ENDBRANCH   8  10
ENDBRANCH   3   6
TORSDOF 9
ENDMDL
MODEL 4
REMARK VINA RESULT: -5.732390209      2.040      3.728
REMARK  9 active torsions:
REMARK  status: ('A' for Active; 'I' for Inactive)
REMARK    1  A    between atoms: C3_3  and  O1_4 
REMARK    2  A    between atoms: C3_3  and  C4_6 
REMARK       I    between atoms: C4_6  and  N1_8 
REMARK    3  A    between atoms: N1_8  and  N2_10 
REMARK       I    between atoms: N2_10  and  C5_12 
REMARK    4  A    between atoms: C5_12  and  C6_14 
REMARK    5  A    between atoms: N5_19  and  N6_20 
REMARK    6  A    between atoms: C7_23  and  C8_24 
REMARK    7  A    between atoms: C8_24  and  N8_29 
REMARK    8  A    between atoms: N7_25  and  O4_27 
REMARK    9  A    between atoms: N8_29  and  N9_31 
REMARK       I    between atoms: N9_31  and  C9_33 
ROOT
HETATM    1  C1  UNL     1      -4.272   2.997   5.215  1.00  0.00     0.015 C 
HETATM    2  C2  UNL     1      -4.402   1.900   5.718  1.00  0.00    -0.076 C 
HETATM    3  C3  UNL     1      -4.594   0.578   6.351  1.00  0.00     0.289 C 
ENDROOT
BRANCH   3   4
HETATM    4  O1  UNL     1      -4.115   0.563   7.644  1.00  0.00    -0.374 OA
ATOM      5  H1  UNL     1      -3.216   0.258   7.679  1.00  0.00     0.211 HD
ENDBRANCH   3   4
BRANCH   3   6
HETATM    6  C4  UNL     1      -4.044  -0.479   5.479  1.00  0.00     0.276 C 
HETATM    7  O2  UNL     1      -4.396  -0.447   4.263  1.00  0.00    -0.268 OA
HETATM    8  N1  UNL     1      -3.171  -1.514   5.881  1.00  0.00    -0.264 N 
ATOM      9  H1  UNL     1      -2.872  -1.556   6.855  1.00  0.00     0.190 HD
BRANCH   8  10
HETATM   10  N2  UNL     1      -2.705  -2.476   4.990  1.00  0.00    -0.262 N 
HETATM   11  C5  UNL     1      -1.663  -3.345   5.372  1.00  0.00     0.290 C 
HETATM   12  O3  UNL     1      -1.161  -3.255   6.498  1.00  0.00    -0.264 OA
ATOM     13  H2  UNL     1      -3.118  -2.554   4.060  1.00  0.00     0.190 HD
BRANCH  11  14
HETATM   14  C6  UNL     1      -1.196  -4.350   4.420  1.00  0.00     0.153 A 
HETATM   15  N3  UNL     1       0.096  -4.417   3.968  1.00  0.00    -0.277 N 
HETATM   16  N4  UNL     1       0.168  -5.394   3.110  1.00  0.00    -0.221 N 
ATOM     17  H3  UNL     1       0.864  -3.809   4.253  1.00  0.00     0.189 HD
HETATM   18  N5  UNL     1      -0.988  -5.983   2.957  1.00  0.00    -0.182 N 
ATOM     19  H4  UNL     1       1.020  -5.665   2.619  1.00  0.00     0.210 HD
HETATM   20  C7  UNL     1      -1.868  -5.336   3.780  1.00  0.00     0.156 A 
BRANCH  18  21
HETATM   21  N6  UNL     1      -1.258  -7.070   2.098  1.00  0.00    -0.322 N 
ATOM     22  H62 UNL     1      -0.604  -7.546   1.477  1.00  0.00     0.179 HD
ATOM     23  H61 UNL     1      -2.158  -7.536   1.986  1.00  0.00     0.179 HD
ENDBRANCH  18  21
BRANCH  20  24
HETATM   24  C8  UNL     1      -3.254  -5.764   3.852  1.00  0.00     0.173 C 
HETATM   25  N7  UNL     1      -3.859  -5.945   2.679  1.00  0.00    -0.250 N 
ATOM     26  H7  UNL     1      -3.323  -5.777   1.827  1.00  0.00     0.196 HD
BRANCH  25  27
HETATM   27  O4  UNL     1      -5.153  -6.343   2.556  1.00  0.00    -0.288 OA
ATOM     28  H4  UNL     1      -5.828  -5.812   2.150  1.00  0.00     0.244 HD
ENDBRANCH  25  27
BRANCH  24  29
HETATM   29  N8  UNL     1      -4.040  -6.074   4.955  1.00  0.00    -0.278 N 
ATOM     30  H8  UNL     1      -3.754  -6.807   5.602  1.00  0.00     0.189 HD
BRANCH  29  31
HETATM   31  N9  UNL     1      -5.249  -5.355   5.171  1.00  0.00    -0.252 N 
HETATM   32  C9  UNL     1      -5.381  -4.413   6.217  1.00  0.00     0.347 C 
HETATM   33  N10 UNL     1      -6.563  -3.682   6.462  1.00  0.00    -0.038 NA
HETATM   34  O5  UNL     1      -4.388  -4.222   6.966  1.00  0.00    -0.249 OA
ATOM     35  H9  UNL     1      -6.043  -5.525   4.554  1.00  0.00     0.191 HD
ENDBRANCH  29  31
ENDBRANCH  24  29
ENDBRANCH  20  24
ENDBRANCH  11  14
ENDBRANCH   8  10
ENDBRANCH   3   6
TORSDOF 9
ENDMDL
MODEL 5
REMARK VINA RESULT: -5.691357887      2.551      6.971
REMARK  9 active torsions:
REMARK  status: ('A' for Active; 'I' for Inactive)
REMARK    1  A    between atoms: C3_3  and  O1_4 
REMARK    2  A    between atoms: C3_3  and  C4_6 
REMARK       I    between atoms: C4_6  and  N1_8 
REMARK    3  A    between atoms: N1_8  and  N2_10 
REMARK       I    between atoms: N2_10  and  C5_12 
REMARK    4  A    between atoms: C5_12  and  C6_14 
REMARK    5  A    between atoms: N5_19  and  N6_20 
REMARK    6  A    between atoms: C7_23  and  C8_24 
REMARK    7  A    between atoms: C8_24  and  N8_29 
REMARK    8  A    between atoms: N7_25  and  O4_27 
REMARK    9  A    between atoms: N8_29  and  N9_31 
REMARK       I    between atoms: N9_31  and  C9_33 
ROOT
HETATM    1  C1  UNL     1      -1.442  -5.954   6.286  1.00  0.00     0.015 C 
HETATM    2  C2  UNL     1      -1.496  -5.027   5.504  1.00  0.00    -0.076 C 
HETATM    3  C3  UNL     1      -1.573  -3.925   4.523  1.00  0.00     0.289 C 
ENDROOT
BRANCH   3   4
HETATM    4  O1  UNL     1      -0.432  -3.855   3.752  1.00  0.00    -0.374 OA
ATOM      5  H1  UNL     1      -0.516  -3.205   3.064  1.00  0.00     0.211 HD
ENDBRANCH   3   4
BRANCH   3   6
HETATM    6  C4  UNL     1      -1.930  -2.667   5.208  1.00  0.00     0.276 C 
HETATM    7  O2  UNL     1      -0.976  -2.023   5.737  1.00  0.00    -0.268 OA
HETATM    8  N1  UNL     1      -3.230  -2.128   5.327  1.00  0.00    -0.264 N 
ATOM      9  H1  UNL     1      -4.012  -2.628   4.906  1.00  0.00     0.190 HD
BRANCH   8  10
HETATM   10  N2  UNL     1      -3.477  -0.934   6.000  1.00  0.00    -0.262 N 
HETATM   11  C5  UNL     1      -4.263   0.067   5.394  1.00  0.00     0.290 C 
HETATM   12  O3  UNL     1      -4.736  -0.113   4.267  1.00  0.00    -0.264 OA
ATOM     13  H2  UNL     1      -3.089  -0.784   6.932  1.00  0.00     0.190 HD
BRANCH  11  14
HETATM   14  C6  UNL     1      -4.511   1.308   6.125  1.00  0.00     0.153 A 
HETATM   15  N3  UNL     1      -4.349   2.551   5.573  1.00  0.00    -0.277 N 
HETATM   16  N4  UNL     1      -4.614   3.434   6.494  1.00  0.00    -0.221 N 
ATOM     17  H3  UNL     1      -4.070   2.750   4.613  1.00  0.00     0.189 HD
HETATM   18  N5  UNL     1      -4.941   2.864   7.622  1.00  0.00    -0.182 N 
ATOM     19  H4  UNL     1      -4.572   4.443   6.351  1.00  0.00     0.210 HD
HETATM   20  C7  UNL     1      -4.883   1.515   7.410  1.00  0.00     0.156 A 
BRANCH  18  21
HETATM   21  N6  UNL     1      -5.279   3.529   8.821  1.00  0.00    -0.322 N 
ATOM     22  H62 UNL     1      -4.759   4.277   9.281  1.00  0.00     0.179 HD
ATOM     23  H61 UNL     1      -6.104   3.352   9.393  1.00  0.00     0.179 HD
ENDBRANCH  18  21
BRANCH  20  24
HETATM   24  C8  UNL     1      -5.207   0.589   8.482  1.00  0.00     0.173 C 
HETATM   25  N7  UNL     1      -4.286   0.477   9.439  1.00  0.00    -0.250 N 
ATOM     26  H7  UNL     1      -3.436   1.034   9.360  1.00  0.00     0.196 HD
BRANCH  25  27
HETATM   27  O4  UNL     1      -4.421  -0.342  10.516  1.00  0.00    -0.288 OA
ATOM     28  H4  UNL     1      -3.851  -0.307  11.275  1.00  0.00     0.244 HD
ENDBRANCH  25  27
BRANCH  24  29
HETATM   29  N8  UNL     1      -6.356  -0.160   8.703  1.00  0.00    -0.278 N 
ATOM     30  H8  UNL     1      -7.176   0.268   9.131  1.00  0.00     0.189 HD
BRANCH  29  31
HETATM   31  N9  UNL     1      -6.375  -1.531   8.324  1.00  0.00    -0.252 N 
HETATM   32  C9  UNL     1      -6.961  -1.964   7.112  1.00  0.00     0.347 C 
HETATM   33  N10 UNL     1      -6.999  -3.314   6.704  1.00  0.00    -0.038 NA
HETATM   34  O5  UNL     1      -7.475  -1.093   6.364  1.00  0.00    -0.249 OA
ATOM     35  H9  UNL     1      -5.955  -2.222   8.945  1.00  0.00     0.191 HD
ENDBRANCH  29  31
ENDBRANCH  24  29
ENDBRANCH  20  24
ENDBRANCH  11  14
ENDBRANCH   8  10
ENDBRANCH   3   6
TORSDOF 9
ENDMDL
