MODEL 1
REMARK VINA RESULT: -6.242853259      0.000      0.000
REMARK  5 active torsions:
REMARK  status: ('A' for Active; 'I' for Inactive)
REMARK       I    between atoms: N2_3  and  C2_5 
REMARK       I    between atoms: C2_5  and  N4_9 
REMARK    1  A    between atoms: N7_17  and  N8_19 
REMARK    2  A    between atoms: N8_19  and  C5_21 
REMARK    3  A    between atoms: C5_21  and  C6_22 
REMARK    4  A    between atoms: C6_22  and  S1_23 
REMARK    5  A    between atoms: N9_27  and  O4_29 
ROOT
HETATM    1  N1  UNL     1      -6.518   7.964   8.949  1.00  0.00    -0.171 NA
HETATM    2  C1  UNL     1      -6.456   6.875   9.333  1.00  0.00     0.196 C 
HETATM    3  N2  UNL     1      -6.361   5.555   9.784  1.00  0.00    -0.124 N 
ATOM      4  H2  UNL     1      -7.222   5.065  10.025  1.00  0.00     0.197 HD
HETATM    5  C2  UNL     1      -5.134   4.859   9.926  1.00  0.00     0.710 C 
HETATM    6  N3  UNL     1      -4.133   5.385  10.512  1.00  0.00    -0.232 N 
ATOM      7  H31 UNL     1      -3.250   4.884  10.614  1.00  0.00     0.174 HD
ATOM      8  H32 UNL     1      -4.233   6.330  10.883  1.00  0.00     0.174 HD
HETATM    9  N4  UNL     1      -4.994   3.527   9.404  1.00  0.00    -0.029 N 
HETATM   10  N5  UNL     1      -5.256   3.272   8.163  1.00  0.00    -0.257 N 
ATOM     11  H5  UNL     1      -5.564   4.038   7.563  1.00  0.00     0.190 HD
HETATM   12  C3  UNL     1      -5.138   2.012   7.611  1.00  0.00     0.161 A 
HETATM   13  N6  UNL     1      -5.424   1.877   6.386  1.00  0.00    -0.381 N 
ATOM     14  H61 UNL     1      -5.337   0.945   5.978  1.00  0.00     0.157 HD
ATOM     15  H62 UNL     1      -5.732   2.641   5.784  1.00  0.00     0.157 HD
HETATM   16  C4  UNL     1      -4.727   0.993   8.414  1.00  0.00     0.170 A 
HETATM   17  N7  UNL     1      -4.557  -0.192   8.107  1.00  0.00    -0.281 N 
ATOM     18  H7  UNL     1      -4.244  -0.762   8.893  1.00  0.00     0.188 HD
HETATM   19  N10 UNL     1      -4.462   1.320   9.726  1.00  0.00    -0.288 N 
ATOM     20  H10 UNL     1      -4.152   0.578  10.354  1.00  0.00     0.172 HD
HETATM   21  C7  UNL     1      -4.589   2.550  10.220  1.00  0.00     0.362 A 
HETATM   22  O5  UNL     1      -4.328   2.796  11.451  1.00  0.00    -0.244 OA
ENDROOT
BRANCH  17  23
HETATM   23  N8  UNL     1      -4.693  -0.904   6.962  1.00  0.00    -0.285 N 
ATOM     24  H8  UNL     1      -5.608  -1.309   6.763  1.00  0.00     0.188 HD
BRANCH  23  25
HETATM   25  C5  UNL     1      -3.649  -1.129   6.015  1.00  0.00     0.132 C 
HETATM   26  N9  UNL     1      -3.705  -0.708   4.803  1.00  0.00    -0.255 N 
ATOM     27  H9  UNL     1      -2.922  -0.905   4.181  1.00  0.00     0.195 HD
BRANCH  25  28
HETATM   28  C6  UNL     1      -2.448  -1.885   6.439  1.00  0.00     0.244 C 
BRANCH  28  29
HETATM   29  S1  UNL     1      -1.837  -2.931   5.142  1.00  0.00     0.108 S 
HETATM   30  O1  UNL     1      -1.254  -2.096   4.047  1.00  0.00    -0.595 OA
HETATM   31  O2  UNL     1      -0.814  -3.854   5.752  1.00  0.00    -0.595 OA
HETATM   32  O3  UNL     1      -3.156  -3.832   4.573  1.00  0.00    -0.595 OA
ENDBRANCH  28  29
ENDBRANCH  25  28
BRANCH  26  33
HETATM   33  O4  UNL     1      -4.768  -0.006   4.311  1.00  0.00    -0.288 OA
ATOM     34  H4  UNL     1      -4.670   0.797   3.813  1.00  0.00     0.244 HD
ENDBRANCH  26  33
ENDBRANCH  23  25
ENDBRANCH  17  23
TORSDOF 5
ENDMDL
MODEL 2
REMARK VINA RESULT: -6.077228816      9.976     11.142
REMARK  5 active torsions:
REMARK  status: ('A' for Active; 'I' for Inactive)
REMARK       I    between atoms: N2_3  and  C2_5 
REMARK       I    between atoms: C2_5  and  N4_9 
REMARK    1  A    between atoms: N7_17  and  N8_19 
REMARK    2  A    between atoms: N8_19  and  C5_21 
REMARK    3  A    between atoms: C5_21  and  C6_22 
REMARK    4  A    between atoms: C6_22  and  S1_23 
REMARK    5  A    between atoms: N9_27  and  O4_29 
ROOT
HETATM    1  N1  UNL     1     -15.708   6.477   5.228  1.00  0.00    -0.171 NA
HETATM    2  C1  UNL     1     -15.320   5.677   4.489  1.00  0.00     0.196 C 
HETATM    3  N2  UNL     1     -14.868   4.694   3.603  1.00  0.00    -0.124 N 
ATOM      4  H2  UNL     1     -13.875   4.672   3.374  1.00  0.00     0.197 HD
HETATM    5  C2  UNL     1     -15.714   3.726   3.005  1.00  0.00     0.710 C 
HETATM    6  N3  UNL     1     -16.817   4.051   2.459  1.00  0.00    -0.232 N 
ATOM      7  H31 UNL     1     -17.426   3.354   2.029  1.00  0.00     0.174 HD
ATOM      8  H32 UNL     1     -17.085   5.036   2.461  1.00  0.00     0.174 HD
HETATM    9  N4  UNL     1     -15.336   2.339   3.003  1.00  0.00    -0.029 N 
HETATM   10  N5  UNL     1     -15.044   1.731   4.107  1.00  0.00    -0.257 N 
ATOM     11  H5  UNL     1     -15.087   2.259   4.979  1.00  0.00     0.190 HD
HETATM   12  C3  UNL     1     -14.676   0.402   4.161  1.00  0.00     0.161 A 
HETATM   13  N6  UNL     1     -14.408  -0.089   5.296  1.00  0.00    -0.381 N 
ATOM     14  H61 UNL     1     -14.135  -1.072   5.335  1.00  0.00     0.157 HD
ATOM     15  H62 UNL     1     -14.450   0.436   6.170  1.00  0.00     0.157 HD
HETATM   16  C4  UNL     1     -14.619  -0.298   2.995  1.00  0.00     0.170 A 
HETATM   17  N7  UNL     1     -14.319  -1.487   2.840  1.00  0.00    -0.281 N 
ATOM     18  H7  UNL     1     -14.350  -1.778   1.862  1.00  0.00     0.188 HD
HETATM   19  N10 UNL     1     -14.940   0.397   1.850  1.00  0.00    -0.288 N 
ATOM     20  H10 UNL     1     -14.907  -0.100   0.960  1.00  0.00     0.172 HD
HETATM   21  C7  UNL     1     -15.291   1.681   1.841  1.00  0.00     0.362 A 
HETATM   22  O5  UNL     1     -15.580   2.278   0.743  1.00  0.00    -0.244 OA
ENDROOT
BRANCH  17  23
HETATM   23  N8  UNL     1     -13.958  -2.491   3.675  1.00  0.00    -0.285 N 
ATOM     24  H8  UNL     1     -14.445  -2.560   4.569  1.00  0.00     0.188 HD
BRANCH  23  25
HETATM   25  C5  UNL     1     -12.947  -3.459   3.396  1.00  0.00     0.132 C 
HETATM   26  N9  UNL     1     -12.769  -3.965   2.229  1.00  0.00    -0.255 N 
ATOM     27  H9  UNL     1     -12.026  -4.652   2.102  1.00  0.00     0.195 HD
BRANCH  25  28
HETATM   28  C6  UNL     1     -12.062  -3.908   4.496  1.00  0.00     0.244 C 
BRANCH  28  29
HETATM   29  S1  UNL     1     -11.009  -2.598   5.068  1.00  0.00     0.108 S 
HETATM   30  O1  UNL     1      -9.801  -2.498   4.194  1.00  0.00    -0.595 OA
HETATM   31  O2  UNL     1     -11.822  -1.329   5.053  1.00  0.00    -0.595 OA
HETATM   32  O3  UNL     1     -10.571  -2.978   6.661  1.00  0.00    -0.595 OA
ENDBRANCH  28  29
ENDBRANCH  25  28
BRANCH  26  33
HETATM   33  O4  UNL     1     -13.532  -3.623   1.149  1.00  0.00    -0.288 OA
ATOM     34  H4  UNL     1     -13.286  -3.834   0.256  1.00  0.00     0.244 HD
ENDBRANCH  26  33
ENDBRANCH  23  25
ENDBRANCH  17  23
TORSDOF 5
ENDMDL
MODEL 3
REMARK VINA RESULT: -5.978263749     10.710     13.013
REMARK  5 active torsions:
REMARK  status: ('A' for Active; 'I' for Inactive)
REMARK       I    between atoms: N2_3  and  C2_5 
REMARK       I    between atoms: C2_5  and  N4_9 
REMARK    1  A    between atoms: N7_17  and  N8_19 
REMARK    2  A    between atoms: N8_19  and  C5_21 
REMARK    3  A    between atoms: C5_21  and  C6_22 
REMARK    4  A    between atoms: C6_22  and  S1_23 
REMARK    5  A    between atoms: N9_27  and  O4_29 
ROOT
HETATM    1  N1  UNL     1     -11.115  -4.288   6.560  1.00  0.00    -0.171 NA
HETATM    2  C1  UNL     1     -11.947  -4.101   5.779  1.00  0.00     0.196 C 
HETATM    3  N2  UNL     1     -12.942  -3.855   4.828  1.00  0.00    -0.124 N 
ATOM      4  H2  UNL     1     -13.890  -4.174   5.029  1.00  0.00     0.197 HD
HETATM    5  C2  UNL     1     -12.707  -3.187   3.599  1.00  0.00     0.710 C 
HETATM    6  N3  UNL     1     -11.729  -3.501   2.847  1.00  0.00    -0.232 N 
ATOM      7  H31 UNL     1     -11.560  -3.020   1.963  1.00  0.00     0.174 HD
ATOM      8  H32 UNL     1     -11.108  -4.252   3.149  1.00  0.00     0.174 HD
HETATM    9  N4  UNL     1     -13.582  -2.130   3.173  1.00  0.00    -0.029 N 
HETATM   10  N5  UNL     1     -13.815  -1.114   3.940  1.00  0.00    -0.257 N 
ATOM     11  H5  UNL     1     -13.364  -1.082   4.855  1.00  0.00     0.190 HD
HETATM   12  C3  UNL     1     -14.646  -0.073   3.580  1.00  0.00     0.161 A 
HETATM   13  N6  UNL     1     -14.804   0.868   4.412  1.00  0.00    -0.381 N 
ATOM     14  H61 UNL     1     -15.418   1.638   4.145  1.00  0.00     0.157 HD
ATOM     15  H62 UNL     1     -14.355   0.904   5.327  1.00  0.00     0.157 HD
HETATM   16  C4  UNL     1     -15.246  -0.120   2.360  1.00  0.00     0.170 A 
HETATM   17  N7  UNL     1     -16.011   0.712   1.860  1.00  0.00    -0.281 N 
ATOM     18  H7  UNL     1     -16.329   0.445   0.928  1.00  0.00     0.188 HD
HETATM   19  N10 UNL     1     -14.964  -1.222   1.584  1.00  0.00    -0.288 N 
ATOM     20  H10 UNL     1     -15.398  -1.287   0.663  1.00  0.00     0.172 HD
HETATM   21  C7  UNL     1     -14.155  -2.208   1.968  1.00  0.00     0.362 A 
HETATM   22  O5  UNL     1     -13.928  -3.211   1.204  1.00  0.00    -0.244 OA
ENDROOT
BRANCH  17  23
HETATM   23  N8  UNL     1     -16.523   1.897   2.270  1.00  0.00    -0.285 N 
ATOM     24  H8  UNL     1     -17.447   1.889   2.703  1.00  0.00     0.188 HD
BRANCH  23  25
HETATM   25  C5  UNL     1     -15.865   3.157   2.141  1.00  0.00     0.132 C 
HETATM   26  N9  UNL     1     -15.721   3.973   3.123  1.00  0.00    -0.255 N 
ATOM     27  H9  UNL     1     -15.239   4.856   2.957  1.00  0.00     0.195 HD
BRANCH  25  28
HETATM   28  C6  UNL     1     -15.325   3.551   0.819  1.00  0.00     0.244 C 
BRANCH  28  29
HETATM   29  S1  UNL     1     -13.683   2.928   0.567  1.00  0.00     0.108 S 
HETATM   30  O1  UNL     1     -13.728   1.714  -0.305  1.00  0.00    -0.595 OA
HETATM   31  O2  UNL     1     -12.871   4.036  -0.053  1.00  0.00    -0.595 OA
HETATM   32  O3  UNL     1     -13.060   2.548   2.097  1.00  0.00    -0.595 OA
ENDBRANCH  28  29
ENDBRANCH  25  28
BRANCH  26  33
HETATM   33  O4  UNL     1     -16.185   3.708   4.380  1.00  0.00    -0.288 OA
ATOM     34  H4  UNL     1     -16.073   4.309   5.108  1.00  0.00     0.244 HD
ENDBRANCH  26  33
ENDBRANCH  23  25
ENDBRANCH  17  23
TORSDOF 5
ENDMDL
MODEL 4
REMARK VINA RESULT: -5.957683945      3.858      5.852
REMARK  5 active torsions:
REMARK  status: ('A' for Active; 'I' for Inactive)
REMARK       I    between atoms: N2_3  and  C2_5 
REMARK       I    between atoms: C2_5  and  N4_9 
REMARK    1  A    between atoms: N7_17  and  N8_19 
REMARK    2  A    between atoms: N8_19  and  C5_21 
REMARK    3  A    between atoms: C5_21  and  C6_22 
REMARK    4  A    between atoms: C6_22  and  S1_23 
REMARK    5  A    between atoms: N9_27  and  O4_29 
ROOT
HETATM    1  N1  UNL     1      -4.039   3.506   5.421  1.00  0.00    -0.171 NA
HETATM    2  C1  UNL     1      -4.403   2.415   5.302  1.00  0.00     0.196 C 
HETATM    3  N2  UNL     1      -4.825   1.088   5.172  1.00  0.00    -0.124 N 
ATOM      4  H2  UNL     1      -5.246   0.801   4.290  1.00  0.00     0.197 HD
HETATM    5  C2  UNL     1      -4.700   0.119   6.201  1.00  0.00     0.710 C 
HETATM    6  N3  UNL     1      -5.056   0.369   7.397  1.00  0.00    -0.232 N 
ATOM      7  H31 UNL     1      -4.966  -0.328   8.137  1.00  0.00     0.174 HD
ATOM      8  H32 UNL     1      -5.438   1.292   7.606  1.00  0.00     0.174 HD
HETATM    9  N4  UNL     1      -4.162  -1.180   5.907  1.00  0.00    -0.029 N 
HETATM   10  N5  UNL     1      -3.007  -1.305   5.338  1.00  0.00    -0.257 N 
ATOM     11  H5  UNL     1      -2.487  -0.460   5.102  1.00  0.00     0.190 HD
HETATM   12  C3  UNL     1      -2.444  -2.529   5.034  1.00  0.00     0.161 A 
HETATM   13  N6  UNL     1      -1.310  -2.532   4.474  1.00  0.00    -0.381 N 
ATOM     14  H61 UNL     1      -0.894  -3.437   4.250  1.00  0.00     0.157 HD
ATOM     15  H62 UNL     1      -0.787  -1.689   4.237  1.00  0.00     0.157 HD
HETATM   16  C4  UNL     1      -3.142  -3.654   5.350  1.00  0.00     0.170 A 
HETATM   17  N7  UNL     1      -2.807  -4.829   5.165  1.00  0.00    -0.281 N 
ATOM     18  H7  UNL     1      -3.507  -5.495   5.491  1.00  0.00     0.188 HD
HETATM   19  N10 UNL     1      -4.365  -3.464   5.954  1.00  0.00    -0.288 N 
ATOM     20  H10 UNL     1      -4.912  -4.287   6.204  1.00  0.00     0.172 HD
HETATM   21  C7  UNL     1      -4.873  -2.265   6.230  1.00  0.00     0.362 A 
HETATM   22  O5  UNL     1      -6.018  -2.147   6.794  1.00  0.00    -0.244 OA
ENDROOT
BRANCH  17  23
HETATM   23  N8  UNL     1      -1.719  -5.432   4.628  1.00  0.00    -0.285 N 
ATOM     24  H8  UNL     1      -0.878  -5.490   5.202  1.00  0.00     0.188 HD
BRANCH  23  25
HETATM   25  C5  UNL     1      -1.663  -5.993   3.316  1.00  0.00     0.132 C 
HETATM   26  N9  UNL     1      -2.678  -6.028   2.529  1.00  0.00    -0.255 N 
ATOM     27  H9  UNL     1      -2.564  -6.444   1.605  1.00  0.00     0.195 HD
BRANCH  25  28
HETATM   28  C6  UNL     1      -0.384  -6.564   2.835  1.00  0.00     0.244 C 
BRANCH  28  29
HETATM   29  S1  UNL     1       1.001  -5.551   3.290  1.00  0.00     0.108 S 
HETATM   30  O1  UNL     1       2.222  -5.998   2.553  1.00  0.00    -0.595 OA
HETATM   31  O2  UNL     1       0.639  -4.124   2.967  1.00  0.00    -0.595 OA
HETATM   32  O3  UNL     1       1.210  -5.724   4.963  1.00  0.00    -0.595 OA
ENDBRANCH  28  29
ENDBRANCH  25  28
BRANCH  26  33
HETATM   33  O4  UNL     1      -3.902  -5.533   2.876  1.00  0.00    -0.288 OA
ATOM     34  H4  UNL     1      -4.531  -6.026   3.390  1.00  0.00     0.244 HD
ENDBRANCH  26  33
ENDBRANCH  23  25
ENDBRANCH  17  23
TORSDOF 5
ENDMDL
MODEL 5
REMARK VINA RESULT: -5.954167997      9.099     10.569
REMARK  5 active torsions:
REMARK  status: ('A' for Active; 'I' for Inactive)
REMARK       I    between atoms: N2_3  and  C2_5 
REMARK       I    between atoms: C2_5  and  N4_9 
REMARK    1  A    between atoms: N7_17  and  N8_19 
REMARK    2  A    between atoms: N8_19  and  C5_21 
REMARK    3  A    between atoms: C5_21  and  C6_22 
REMARK    4  A    between atoms: C6_22  and  S1_23 
REMARK    5  A    between atoms: N9_27  and  O4_29 
ROOT
HETATM    1  N1  UNL     1     -15.477   4.022   3.018  1.00  0.00    -0.171 NA
HETATM    2  C1  UNL     1     -14.986   3.039   2.659  1.00  0.00     0.196 C 
HETATM    3  N2  UNL     1     -14.404   1.838   2.241  1.00  0.00    -0.124 N 
ATOM      4  H2  UNL     1     -13.461   1.868   1.855  1.00  0.00     0.197 HD
HETATM    5  C2  UNL     1     -15.053   0.580   2.325  1.00  0.00     0.710 C 
HETATM    6  N3  UNL     1     -16.250   0.419   1.921  1.00  0.00    -0.232 N 
ATOM      7  H31 UNL     1     -16.717  -0.486   1.982  1.00  0.00     0.174 HD
ATOM      8  H32 UNL     1     -16.741   1.225   1.532  1.00  0.00     0.174 HD
HETATM    9  N4  UNL     1     -14.361  -0.554   2.873  1.00  0.00    -0.029 N 
HETATM   10  N5  UNL     1     -13.827  -0.498   4.050  1.00  0.00    -0.257 N 
ATOM     11  H5  UNL     1     -13.907   0.370   4.579  1.00  0.00     0.190 HD
HETATM   12  C3  UNL     1     -13.153  -1.557   4.623  1.00  0.00     0.161 A 
HETATM   13  N6  UNL     1     -12.667  -1.390   5.779  1.00  0.00    -0.381 N 
ATOM     14  H61 UNL     1     -12.168  -2.173   6.202  1.00  0.00     0.157 HD
ATOM     15  H62 UNL     1     -12.745  -0.523   6.312  1.00  0.00     0.157 HD
HETATM   16  C4  UNL     1     -13.048  -2.714   3.913  1.00  0.00     0.170 A 
HETATM   17  N7  UNL     1     -12.493  -3.764   4.254  1.00  0.00    -0.281 N 
ATOM     18  H7  UNL     1     -12.550  -4.491   3.541  1.00  0.00     0.188 HD
HETATM   19  N10 UNL     1     -13.634  -2.719   2.666  1.00  0.00    -0.288 N 
ATOM     20  H10 UNL     1     -13.573  -3.571   2.109  1.00  0.00     0.172 HD
HETATM   21  C7  UNL     1     -14.277  -1.674   2.149  1.00  0.00     0.362 A 
HETATM   22  O5  UNL     1     -14.804  -1.736   0.982  1.00  0.00    -0.244 OA
ENDROOT
BRANCH  17  23
HETATM   23  N8  UNL     1     -11.825  -4.168   5.362  1.00  0.00    -0.285 N 
ATOM     24  H8  UNL     1     -12.255  -3.980   6.268  1.00  0.00     0.188 HD
BRANCH  23  25
HETATM   25  C5  UNL     1     -10.564  -4.836   5.355  1.00  0.00     0.132 C 
HETATM   26  N9  UNL     1     -10.319  -5.853   4.609  1.00  0.00    -0.255 N 
ATOM     27  H9  UNL     1      -9.394  -6.281   4.656  1.00  0.00     0.195 HD
BRANCH  25  28
HETATM   28  C6  UNL     1      -9.488  -4.345   6.247  1.00  0.00     0.244 C 
BRANCH  28  29
HETATM   29  S1  UNL     1      -9.320  -2.580   6.163  1.00  0.00     0.108 S 
HETATM   30  O1  UNL     1      -7.908  -2.190   6.465  1.00  0.00    -0.595 OA
HETATM   31  O2  UNL     1      -9.739  -2.153   4.780  1.00  0.00    -0.595 OA
HETATM   32  O3  UNL     1     -10.383  -1.929   7.312  1.00  0.00    -0.595 OA
ENDBRANCH  28  29
ENDBRANCH  25  28
BRANCH  26  33
HETATM   33  O4  UNL     1     -11.241  -6.386   3.756  1.00  0.00    -0.288 OA
ATOM     34  H4  UNL     1     -11.391  -6.047   2.881  1.00  0.00     0.244 HD
ENDBRANCH  26  33
ENDBRANCH  23  25
ENDBRANCH  17  23
TORSDOF 5
ENDMDL
