MODEL 1
REMARK VINA RESULT: -6.145899816      0.000      0.000
REMARK  8 active torsions:
REMARK  status: ('A' for Active; 'I' for Inactive)
REMARK    1  A    between atoms: N5_15  and  C6_16 
REMARK    2  A    between atoms: C7_18  and  C8_19 
REMARK    3  A    between atoms: C8_19  and  O2_20 
REMARK    4  A    between atoms: C8_19  and  C9_22 
REMARK    5  A    between atoms: C9_22  and  O3_23 
REMARK    6  A    between atoms: C9_22  and  N6_25 
REMARK    7  A    between atoms: N6_25  and  N7_26 
REMARK    8  A    between atoms: C12_34  and  O5_35 
ROOT
HETATM    1  C6  UNL     1     -16.048   1.333   3.608  1.00  0.00     0.269 C 
HETATM    2  O1  UNL     1     -15.115   0.334   3.673  1.00  0.00    -0.353 OA
HETATM    3  C7  UNL     1     -15.652  -0.927   3.879  1.00  0.00     0.174 C 
HETATM    4  C10 UNL     1     -16.036  -1.240   5.258  1.00  0.00     0.157 C 
HETATM    5  N8  UNL     1     -16.597  -0.182   6.038  1.00  0.00    -0.356 N 
ATOM      6  H8  UNL     1     -17.035  -0.528   6.891  1.00  0.00     0.162 HD
HETATM    7  C11 UNL     1     -16.698   1.213   5.924  1.00  0.00     0.251 C 
HETATM    8  O4  UNL     1     -17.457   1.805   6.735  1.00  0.00    -0.271 OA
HETATM    9  C12 UNL     1     -15.993   2.065   4.935  1.00  0.00     0.259 C 
ENDROOT
BRANCH   1  10
HETATM   10  N5  UNL     1     -15.938   2.200   2.480  1.00  0.00    -0.297 N 
HETATM   11  C3  UNL     1     -14.890   2.614   1.773  1.00  0.00     0.142 A 
HETATM   12  N3  UNL     1     -13.593   2.347   1.890  1.00  0.00    -0.336 N 
HETATM   13  C4  UNL     1     -15.281   3.461   0.757  1.00  0.00     0.122 A 
HETATM   14  C2  UNL     1     -12.662   2.868   1.066  1.00  0.00     0.183 A 
ATOM     15  H3  UNL     1     -13.289   1.720   2.635  1.00  0.00     0.168 HD
HETATM   16  N2  UNL     1     -13.052   3.698   0.073  1.00  0.00    -0.337 N 
HETATM   17  C1  UNL     1     -14.342   4.000  -0.093  1.00  0.00     0.131 A 
ATOM     18  H2  UNL     1     -12.354   4.096  -0.555  1.00  0.00     0.168 HD
HETATM   19  N1  UNL     1     -14.687   4.787  -1.039  1.00  0.00    -0.383 N 
ATOM     20  H12 UNL     1     -13.991   5.186  -1.668  1.00  0.00     0.157 HD
ATOM     21  H11 UNL     1     -15.673   5.018  -1.165  1.00  0.00     0.157 HD
HETATM   22  N4  UNL     1     -16.621   3.550   0.874  1.00  0.00    -0.346 N 
HETATM   23  C5  UNL     1     -17.021   2.798   1.902  1.00  0.00     0.188 A 
ATOM     24  H4  UNL     1     -17.232   4.102   0.272  1.00  0.00     0.167 HD
ENDBRANCH   1  10
BRANCH   9  25
HETATM   25  O5  UNL     1     -14.650   2.132   5.376  1.00  0.00    -0.382 OA
ATOM     26  H5  UNL     1     -14.468   3.008   5.694  1.00  0.00     0.210 HD
ENDBRANCH   9  25
BRANCH   3  27
HETATM   27  C8  UNL     1     -14.586  -1.905   3.395  1.00  0.00     0.195 C 
BRANCH  27  28
HETATM   28  O2  UNL     1     -13.428  -1.565   4.135  1.00  0.00    -0.389 OA
ATOM     29  H2  UNL     1     -12.708  -1.925   3.630  1.00  0.00     0.210 HD
ENDBRANCH  27  28
BRANCH  27  30
HETATM   30  C9  UNL     1     -14.225  -1.689   1.950  1.00  0.00     0.261 C 
BRANCH  30  31
HETATM   31  O3  UNL     1     -15.259  -1.173   1.190  1.00  0.00    -0.375 OA
ATOM     32  H3  UNL     1     -15.651  -1.805   0.600  1.00  0.00     0.211 HD
ENDBRANCH  30  31
BRANCH  30  33
HETATM   33  N6  UNL     1     -13.938  -3.017   1.399  1.00  0.00    -0.113 NA
BRANCH  33  34
HETATM   34  N7  UNL     1     -12.824  -3.599   1.974  1.00  0.00    -0.346 N 
ATOM     35  H72 UNL     1     -12.233  -4.270   1.483  1.00  0.00     0.172 HD
ATOM     36  H71 UNL     1     -12.668  -3.282   2.932  1.00  0.00     0.172 HD
ENDBRANCH  33  34
ENDBRANCH  30  33
ENDBRANCH  27  30
ENDBRANCH   3  27
TORSDOF 8
ENDMDL
MODEL 2
REMARK VINA RESULT: -5.780560224      2.119      5.520
REMARK  8 active torsions:
REMARK  status: ('A' for Active; 'I' for Inactive)
REMARK    1  A    between atoms: N5_15  and  C6_16 
REMARK    2  A    between atoms: C7_18  and  C8_19 
REMARK    3  A    between atoms: C8_19  and  O2_20 
REMARK    4  A    between atoms: C8_19  and  C9_22 
REMARK    5  A    between atoms: C9_22  and  O3_23 
REMARK    6  A    between atoms: C9_22  and  N6_25 
REMARK    7  A    between atoms: N6_25  and  N7_26 
REMARK    8  A    between atoms: C12_34  and  O5_35 
ROOT
HETATM    1  C6  UNL     1     -15.107   0.706   3.567  1.00  0.00     0.269 C 
HETATM    2  O1  UNL     1     -15.540   1.540   2.573  1.00  0.00    -0.353 OA
HETATM    3  C7  UNL     1     -15.075   2.842   2.687  1.00  0.00     0.174 C 
HETATM    4  C10 UNL     1     -15.776   3.686   3.657  1.00  0.00     0.157 C 
HETATM    5  N8  UNL     1     -16.217   3.068   4.867  1.00  0.00    -0.356 N 
ATOM      6  H8  UNL     1     -16.489   3.754   5.570  1.00  0.00     0.162 HD
HETATM    7  C11 UNL     1     -16.368   1.752   5.332  1.00  0.00     0.251 C 
HETATM    8  O4  UNL     1     -16.605   1.597   6.558  1.00  0.00    -0.271 OA
HETATM    9  C12 UNL     1     -16.277   0.518   4.515  1.00  0.00     0.259 C 
ENDROOT
BRANCH   1  10
HETATM   10  N5  UNL     1     -14.535  -0.525   3.127  1.00  0.00    -0.297 N 
HETATM   11  C3  UNL     1     -13.595  -1.309   3.650  1.00  0.00     0.142 A 
HETATM   12  N3  UNL     1     -12.881  -1.196   4.766  1.00  0.00    -0.336 N 
HETATM   13  C4  UNL     1     -13.370  -2.412   2.854  1.00  0.00     0.122 A 
HETATM   14  C2  UNL     1     -11.958  -2.105   5.138  1.00  0.00     0.183 A 
ATOM     15  H3  UNL     1     -13.039  -0.386   5.366  1.00  0.00     0.168 HD
HETATM   16  N2  UNL     1     -11.742  -3.184   4.352  1.00  0.00    -0.337 N 
HETATM   17  C1  UNL     1     -12.431  -3.350   3.221  1.00  0.00     0.131 A 
ATOM     18  H2  UNL     1     -11.046  -3.877   4.627  1.00  0.00     0.168 HD
HETATM   19  N1  UNL     1     -12.210  -4.377   2.494  1.00  0.00    -0.383 N 
ATOM     20  H12 UNL     1     -11.515  -5.071   2.767  1.00  0.00     0.157 HD
ATOM     21  H11 UNL     1     -12.737  -4.503   1.630  1.00  0.00     0.157 HD
HETATM   22  N4  UNL     1     -14.216  -2.269   1.813  1.00  0.00    -0.346 N 
HETATM   23  C5  UNL     1     -14.915  -1.143   1.970  1.00  0.00     0.188 A 
ATOM     24  H4  UNL     1     -14.307  -2.918   1.031  1.00  0.00     0.167 HD
ENDBRANCH   1  10
BRANCH   9  25
HETATM   25  O5  UNL     1     -17.478   0.463   3.768  1.00  0.00    -0.382 OA
ATOM     26  H5  UNL     1     -18.216   0.574   4.355  1.00  0.00     0.210 HD
ENDBRANCH   9  25
BRANCH   3  27
HETATM   27  C8  UNL     1     -15.193   3.438   1.288  1.00  0.00     0.195 C 
BRANCH  27  28
HETATM   28  O2  UNL     1     -16.444   2.980   0.810  1.00  0.00    -0.389 OA
ATOM     29  H2  UNL     1     -16.905   3.770   0.552  1.00  0.00     0.210 HD
ENDBRANCH  27  28
BRANCH  27  30
HETATM   30  C9  UNL     1     -14.166   2.882   0.340  1.00  0.00     0.261 C 
BRANCH  30  31
HETATM   31  O3  UNL     1     -13.072   2.320   0.973  1.00  0.00    -0.375 OA
ATOM     32  H3  UNL     1     -12.454   1.913   0.378  1.00  0.00     0.211 HD
ENDBRANCH  30  31
BRANCH  30  33
HETATM   33  N6  UNL     1     -13.653   4.024  -0.422  1.00  0.00    -0.113 NA
BRANCH  33  34
HETATM   34  N7  UNL     1     -14.661   4.762  -1.013  1.00  0.00    -0.346 N 
ATOM     35  H72 UNL     1     -15.527   4.344  -1.355  1.00  0.00     0.172 HD
ATOM     36  H71 UNL     1     -14.438   5.757  -1.063  1.00  0.00     0.172 HD
ENDBRANCH  33  34
ENDBRANCH  30  33
ENDBRANCH  27  30
ENDBRANCH   3  27
TORSDOF 8
ENDMDL
MODEL 3
REMARK VINA RESULT: -5.656456970      2.227      5.974
REMARK  8 active torsions:
REMARK  status: ('A' for Active; 'I' for Inactive)
REMARK    1  A    between atoms: N5_15  and  C6_16 
REMARK    2  A    between atoms: C7_18  and  C8_19 
REMARK    3  A    between atoms: C8_19  and  O2_20 
REMARK    4  A    between atoms: C8_19  and  C9_22 
REMARK    5  A    between atoms: C9_22  and  O3_23 
REMARK    6  A    between atoms: C9_22  and  N6_25 
REMARK    7  A    between atoms: N6_25  and  N7_26 
REMARK    8  A    between atoms: C12_34  and  O5_35 
ROOT
HETATM    1  C6  UNL     1     -14.513  -0.313   3.259  1.00  0.00     0.269 C 
HETATM    2  O1  UNL     1     -14.328   0.651   2.306  1.00  0.00    -0.353 OA
HETATM    3  C7  UNL     1     -13.920   1.875   2.814  1.00  0.00     0.174 C 
HETATM    4  C10 UNL     1     -14.976   2.705   3.402  1.00  0.00     0.157 C 
HETATM    5  N8  UNL     1     -16.008   2.034   4.128  1.00  0.00    -0.356 N 
ATOM      6  H8  UNL     1     -16.567   2.682   4.682  1.00  0.00     0.162 HD
HETATM    7  C11 UNL     1     -16.445   0.709   4.269  1.00  0.00     0.251 C 
HETATM    8  O4  UNL     1     -17.287   0.472   5.175  1.00  0.00    -0.271 OA
HETATM    9  C12 UNL     1     -16.011  -0.450   3.452  1.00  0.00     0.259 C 
ENDROOT
BRANCH   1  10
HETATM   10  N5  UNL     1     -13.860  -1.557   3.006  1.00  0.00    -0.297 N 
HETATM   11  C3  UNL     1     -12.978  -2.260   3.711  1.00  0.00     0.142 A 
HETATM   12  N3  UNL     1     -12.416  -2.028   4.894  1.00  0.00    -0.336 N 
HETATM   13  C4  UNL     1     -12.627  -3.419   3.051  1.00  0.00     0.122 A 
HETATM   14  C2  UNL     1     -11.528  -2.870   5.459  1.00  0.00     0.183 A 
ATOM     15  H3  UNL     1     -12.668  -1.176   5.395  1.00  0.00     0.168 HD
HETATM   16  N2  UNL     1     -11.188  -4.004   4.806  1.00  0.00    -0.337 N 
HETATM   17  C1  UNL     1     -11.722  -4.289   3.616  1.00  0.00     0.131 A 
ATOM     18  H2  UNL     1     -10.518  -4.647   5.227  1.00  0.00     0.168 HD
HETATM   19  N1  UNL     1     -11.386  -5.367   3.018  1.00  0.00    -0.383 N 
ATOM     20  H12 UNL     1     -10.716  -6.011   3.436  1.00  0.00     0.157 HD
ATOM     21  H11 UNL     1     -11.794  -5.585   2.108  1.00  0.00     0.157 HD
HETATM   22  N4  UNL     1     -13.335  -3.395   1.904  1.00  0.00    -0.346 N 
HETATM   23  C5  UNL     1     -14.075  -2.284   1.870  1.00  0.00     0.188 A 
ATOM     24  H4  UNL     1     -13.311  -4.111   1.178  1.00  0.00     0.167 HD
ENDBRANCH   1  10
BRANCH   9  25
HETATM   25  O5  UNL     1     -16.658  -0.300   2.202  1.00  0.00    -0.382 OA
ATOM     26  H5  UNL     1     -17.419   0.257   2.308  1.00  0.00     0.210 HD
ENDBRANCH   9  25
BRANCH   3  27
HETATM   27  C8  UNL     1     -13.270   2.604   1.642  1.00  0.00     0.195 C 
BRANCH  27  28
HETATM   28  O2  UNL     1     -13.259   3.965   2.031  1.00  0.00    -0.389 OA
ATOM     29  H2  UNL     1     -13.133   3.943   2.972  1.00  0.00     0.210 HD
ENDBRANCH  27  28
BRANCH  27  30
HETATM   30  C9  UNL     1     -14.109   2.544   0.394  1.00  0.00     0.261 C 
BRANCH  30  31
HETATM   31  O3  UNL     1     -13.985   1.356  -0.303  1.00  0.00    -0.375 OA
ATOM     32  H3  UNL     1     -13.191   1.299  -0.822  1.00  0.00     0.211 HD
ENDBRANCH  30  31
BRANCH  30  33
HETATM   33  N6  UNL     1     -13.596   3.591  -0.493  1.00  0.00    -0.113 NA
BRANCH  33  34
HETATM   34  N7  UNL     1     -14.527   4.585  -0.734  1.00  0.00    -0.346 N 
ATOM     35  H72 UNL     1     -15.517   4.392  -0.883  1.00  0.00     0.172 HD
ATOM     36  H71 UNL     1     -14.110   5.516  -0.744  1.00  0.00     0.172 HD
ENDBRANCH  33  34
ENDBRANCH  30  33
ENDBRANCH  27  30
ENDBRANCH   3  27
TORSDOF 8
ENDMDL
MODEL 4
REMARK VINA RESULT: -5.646653264      9.693     11.431
REMARK  8 active torsions:
REMARK  status: ('A' for Active; 'I' for Inactive)
REMARK    1  A    between atoms: N5_15  and  C6_16 
REMARK    2  A    between atoms: C7_18  and  C8_19 
REMARK    3  A    between atoms: C8_19  and  O2_20 
REMARK    4  A    between atoms: C8_19  and  C9_22 
REMARK    5  A    between atoms: C9_22  and  O3_23 
REMARK    6  A    between atoms: C9_22  and  N6_25 
REMARK    7  A    between atoms: N6_25  and  N7_26 
REMARK    8  A    between atoms: C12_34  and  O5_35 
ROOT
HETATM    1  C6  UNL     1      -4.814   0.154   6.770  1.00  0.00     0.269 C 
HETATM    2  O1  UNL     1      -6.050  -0.400   6.579  1.00  0.00    -0.353 OA
HETATM    3  C7  UNL     1      -6.271  -1.552   7.318  1.00  0.00     0.174 C 
HETATM    4  C10 UNL     1      -5.675  -2.778   6.780  1.00  0.00     0.157 C 
HETATM    5  N8  UNL     1      -4.394  -2.665   6.158  1.00  0.00    -0.356 N 
ATOM      6  H8  UNL     1      -3.958  -3.575   6.014  1.00  0.00     0.162 HD
HETATM    7  C11 UNL     1      -3.585  -1.617   5.695  1.00  0.00     0.251 C 
HETATM    8  O4  UNL     1      -2.401  -1.899   5.375  1.00  0.00    -0.271 OA
HETATM    9  C12 UNL     1      -3.989  -0.197   5.546  1.00  0.00     0.259 C 
ENDROOT
BRANCH   1  10
HETATM   10  N5  UNL     1      -4.807   1.549   7.072  1.00  0.00    -0.297 N 
HETATM   11  C3  UNL     1      -5.050   2.218   8.196  1.00  0.00     0.142 A 
HETATM   12  N3  UNL     1      -5.378   1.796   9.414  1.00  0.00    -0.336 N 
HETATM   13  C4  UNL     1      -4.922   3.577   8.002  1.00  0.00     0.122 A 
HETATM   14  C2  UNL     1      -5.589   2.637  10.446  1.00  0.00     0.183 A 
ATOM     15  H3  UNL     1      -5.475   0.794   9.574  1.00  0.00     0.168 HD
HETATM   16  N2  UNL     1      -5.461   3.968  10.248  1.00  0.00    -0.337 N 
HETATM   17  C1  UNL     1      -5.132   4.448   9.047  1.00  0.00     0.131 A 
ATOM     18  H2  UNL     1      -5.618   4.612  11.024  1.00  0.00     0.168 HD
HETATM   19  N1  UNL     1      -5.017   5.710   8.883  1.00  0.00    -0.383 N 
ATOM     20  H12 UNL     1      -5.174   6.355   9.657  1.00  0.00     0.157 HD
ATOM     21  H11 UNL     1      -4.766   6.077   7.964  1.00  0.00     0.157 HD
HETATM   22  N4  UNL     1      -4.588   3.713   6.702  1.00  0.00    -0.346 N 
HETATM   23  C5  UNL     1      -4.519   2.504   6.140  1.00  0.00     0.188 A 
ATOM     24  H4  UNL     1      -4.417   4.598   6.224  1.00  0.00     0.167 HD
ENDBRANCH   1  10
BRANCH   9  25
HETATM   25  O5  UNL     1      -4.815  -0.154   4.398  1.00  0.00    -0.382 OA
ATOM     26  H5  UNL     1      -4.341   0.259   3.686  1.00  0.00     0.210 HD
ENDBRANCH   9  25
BRANCH   3  27
HETATM   27  C8  UNL     1      -7.788  -1.697   7.400  1.00  0.00     0.195 C 
BRANCH  27  28
HETATM   28  O2  UNL     1      -8.247  -1.366   6.103  1.00  0.00    -0.389 OA
ATOM     29  H2  UNL     1      -8.798  -2.098   5.850  1.00  0.00     0.210 HD
ENDBRANCH  27  28
BRANCH  27  30
HETATM   30  C9  UNL     1      -8.410  -0.684   8.323  1.00  0.00     0.261 C 
BRANCH  30  31
HETATM   31  O3  UNL     1      -9.429  -1.198   9.106  1.00  0.00    -0.375 OA
ATOM     32  H3  UNL     1     -10.294  -0.903   8.848  1.00  0.00     0.211 HD
ENDBRANCH  30  31
BRANCH  30  33
HETATM   33  N6  UNL     1      -9.030   0.327   7.462  1.00  0.00    -0.113 NA
BRANCH  33  34
HETATM   34  N7  UNL     1      -8.380   1.546   7.525  1.00  0.00    -0.346 N 
ATOM     35  H72 UNL     1      -7.366   1.630   7.602  1.00  0.00     0.172 HD
ATOM     36  H71 UNL     1      -9.026   2.335   7.485  1.00  0.00     0.172 HD
ENDBRANCH  33  34
ENDBRANCH  30  33
ENDBRANCH  27  30
ENDBRANCH   3  27
TORSDOF 8
ENDMDL
MODEL 5
REMARK VINA RESULT: -5.575686742      2.192      5.946
REMARK  8 active torsions:
REMARK  status: ('A' for Active; 'I' for Inactive)
REMARK    1  A    between atoms: N5_15  and  C6_16 
REMARK    2  A    between atoms: C7_18  and  C8_19 
REMARK    3  A    between atoms: C8_19  and  O2_20 
REMARK    4  A    between atoms: C8_19  and  C9_22 
REMARK    5  A    between atoms: C9_22  and  O3_23 
REMARK    6  A    between atoms: C9_22  and  N6_25 
REMARK    7  A    between atoms: N6_25  and  N7_26 
REMARK    8  A    between atoms: C12_34  and  O5_35 
ROOT
HETATM    1  C6  UNL     1     -14.333   0.114   3.873  1.00  0.00     0.269 C 
HETATM    2  O1  UNL     1     -14.120   0.764   2.687  1.00  0.00    -0.353 OA
HETATM    3  C7  UNL     1     -13.978   2.137   2.814  1.00  0.00     0.174 C 
HETATM    4  C10 UNL     1     -15.223   2.895   2.969  1.00  0.00     0.157 C 
HETATM    5  N8  UNL     1     -16.263   2.296   3.743  1.00  0.00    -0.356 N 
ATOM      6  H8  UNL     1     -16.993   2.965   3.985  1.00  0.00     0.162 HD
HETATM    7  C11 UNL     1     -16.533   1.017   4.254  1.00  0.00     0.251 C 
HETATM    8  O4  UNL     1     -17.478   0.913   5.079  1.00  0.00    -0.271 OA
HETATM    9  C12 UNL     1     -15.809  -0.233   3.917  1.00  0.00     0.259 C 
ENDROOT
BRANCH   1  10
HETATM   10  N5  UNL     1     -13.483  -1.005   4.119  1.00  0.00    -0.297 N 
HETATM   11  C3  UNL     1     -13.228  -2.103   3.411  1.00  0.00     0.142 A 
HETATM   12  N3  UNL     1     -13.687  -2.513   2.233  1.00  0.00    -0.336 N 
HETATM   13  C4  UNL     1     -12.323  -2.914   4.064  1.00  0.00     0.122 A 
HETATM   14  C2  UNL     1     -13.308  -3.675   1.665  1.00  0.00     0.183 A 
ATOM     15  H3  UNL     1     -14.355  -1.923   1.737  1.00  0.00     0.168 HD
HETATM   16  N2  UNL     1     -12.421  -4.465   2.311  1.00  0.00    -0.337 N 
HETATM   17  C1  UNL     1     -11.925  -4.103   3.496  1.00  0.00     0.131 A 
ATOM     18  H2  UNL     1     -12.127  -5.345   1.888  1.00  0.00     0.168 HD
HETATM   19  N1  UNL     1     -11.088  -4.865   4.088  1.00  0.00    -0.383 N 
ATOM     20  H12 UNL     1     -10.794  -5.746   3.667  1.00  0.00     0.157 HD
ATOM     21  H11 UNL     1     -10.710  -4.588   4.994  1.00  0.00     0.157 HD
HETATM   22  N4  UNL     1     -12.034  -2.262   5.209  1.00  0.00    -0.346 N 
HETATM   23  C5  UNL     1     -12.724  -1.120   5.248  1.00  0.00     0.188 A 
ATOM     24  H4  UNL     1     -11.391  -2.589   5.930  1.00  0.00     0.167 HD
ENDBRANCH   1  10
BRANCH   9  25
HETATM   25  O5  UNL     1     -16.244  -0.588   2.618  1.00  0.00    -0.382 OA
ATOM     26  H5  UNL     1     -16.936  -1.235   2.686  1.00  0.00     0.210 HD
ENDBRANCH   9  25
BRANCH   3  27
HETATM   27  C8  UNL     1     -13.241   2.586   1.557  1.00  0.00     0.195 C 
BRANCH  27  28
HETATM   28  O2  UNL     1     -12.956   3.955   1.780  1.00  0.00    -0.389 OA
ATOM     29  H2  UNL     1     -12.009   4.013   1.730  1.00  0.00     0.210 HD
ENDBRANCH  27  28
BRANCH  27  30
HETATM   30  C9  UNL     1     -14.118   2.547   0.334  1.00  0.00     0.261 C 
BRANCH  30  31
HETATM   31  O3  UNL     1     -14.046   1.354  -0.363  1.00  0.00    -0.375 OA
ATOM     32  H3  UNL     1     -13.697   1.446  -1.241  1.00  0.00     0.211 HD
ENDBRANCH  30  31
BRANCH  30  33
HETATM   33  N6  UNL     1     -13.603   3.578  -0.570  1.00  0.00    -0.113 NA
BRANCH  33  34
HETATM   34  N7  UNL     1     -14.526   4.578  -0.813  1.00  0.00    -0.346 N 
ATOM     35  H72 UNL     1     -15.494   4.528  -0.496  1.00  0.00     0.172 HD
ATOM     36  H71 UNL     1     -14.128   5.358  -1.338  1.00  0.00     0.172 HD
ENDBRANCH  33  34
ENDBRANCH  30  33
ENDBRANCH  27  30
ENDBRANCH   3  27
TORSDOF 8
ENDMDL
