MODEL 1
REMARK VINA RESULT: -5.456123758      0.000      0.000
REMARK  11 active torsions:
REMARK  status: ('A' for Active; 'I' for Inactive)
REMARK    1  A    between atoms: C2_2  and  N1_3 
REMARK    2  A    between atoms: C2_2  and  N2_7 
REMARK    3  A    between atoms: C7_19  and  O2_20 
REMARK    4  A    between atoms: C7_19  and  C8_22 
REMARK    5  A    between atoms: C8_22  and  O3_23 
REMARK    6  A    between atoms: C8_22  and  C9_25 
REMARK    7  A    between atoms: C8_22  and  C10_28 
REMARK    8  A    between atoms: C10_28  and  O5_29 
REMARK    9  A    between atoms: C10_28  and  C11_31 
REMARK   10  A    between atoms: C11_31  and  O6_32 
REMARK   11  A    between atoms: C11_31  and  O7_34 
ROOT
HETATM    1  N2  UNL     1     -13.475  -2.024   3.430  1.00  0.00    -0.210 N 
HETATM    2  N3  UNL     1     -13.465  -1.067   4.328  1.00  0.00    -0.235 N 
ATOM      3  H3  UNL     1     -12.960  -1.207   5.202  1.00  0.00     0.208 HD
HETATM    4  N4  UNL     1     -14.093   0.066   4.122  1.00  0.00    -0.285 N 
ATOM      5  H4  UNL     1     -14.051   0.774   4.856  1.00  0.00     0.188 HD
HETATM    6  C3  UNL     1     -14.779   0.353   3.022  1.00  0.00     0.099 A 
HETATM    7  C4  UNL     1     -14.823  -0.621   2.045  1.00  0.00     0.126 A 
HETATM    8  C5  UNL     1     -14.147  -1.820   2.286  1.00  0.00     0.293 A 
HETATM    9  O1  UNL     1     -14.154  -2.745   1.422  1.00  0.00    -0.264 OA
HETATM   10  N5  UNL     1     -15.588  -0.195   0.930  1.00  0.00    -0.380 N 
ATOM     11  H5  UNL     1     -15.564  -0.582  -0.013  1.00  0.00     0.160 HD
HETATM   12  C6  UNL     1     -16.414   0.904   1.403  1.00  0.00     0.168 C 
HETATM   13  C7  UNL     1     -15.554   1.492   2.546  1.00  0.00     0.161 C 
ENDROOT
BRANCH  13  14
HETATM   14  O2  UNL     1     -16.465   1.829   3.551  1.00  0.00    -0.378 OA
ATOM     15  H2  UNL     1     -17.029   2.512   3.207  1.00  0.00     0.211 HD
ENDBRANCH  13  14
BRANCH  13  16
HETATM   16  C8  UNL     1     -14.842   2.638   1.973  1.00  0.00     0.205 C 
BRANCH  16  17
HETATM   17  O3  UNL     1     -15.651   3.183   0.920  1.00  0.00    -0.375 OA
ATOM     18  H3  UNL     1     -15.108   3.766   0.405  1.00  0.00     0.211 HD
ENDBRANCH  16  17
BRANCH  16  19
HETATM   19  C9  UNL     1     -14.756   3.714   2.960  1.00  0.00     0.272 C 
HETATM   20  N6  UNL     1     -14.262   3.412   4.288  1.00  0.00    -0.059 NA
HETATM   21  O4  UNL     1     -15.072   4.905   2.787  1.00  0.00    -0.273 OA
ENDBRANCH  16  19
BRANCH  16  22
HETATM   22  C10 UNL     1     -13.522   2.408   1.314  1.00  0.00     0.220 C 
BRANCH  22  23
HETATM   23  O5  UNL     1     -12.527   3.217   1.930  1.00  0.00    -0.387 OA
ATOM     24  H5  UNL     1     -11.991   3.633   1.264  1.00  0.00     0.210 HD
ENDBRANCH  22  23
BRANCH  22  25
HETATM   25  C11 UNL     1     -13.419   2.665  -0.144  1.00  0.00     0.286 C 
BRANCH  25  26
HETATM   26  O6  UNL     1     -12.418   2.050  -0.838  1.00  0.00    -0.369 OA
ATOM     27  H6  UNL     1     -11.897   2.574  -1.434  1.00  0.00     0.212 HD
ENDBRANCH  25  26
BRANCH  25  28
HETATM   28  O7  UNL     1     -13.170   4.057  -0.292  1.00  0.00    -0.369 OA
ATOM     29  H7  UNL     1     -12.389   4.135  -0.827  1.00  0.00     0.212 HD
ENDBRANCH  25  28
ENDBRANCH  22  25
ENDBRANCH  16  22
ENDBRANCH  13  16
BRANCH   1  30
HETATM   30  C2  UNL     1     -12.792  -3.294   3.620  1.00  0.00     0.305 C 
HETATM   31  C1  UNL     1     -11.312  -3.192   3.320  1.00  0.00     0.065 C 
BRANCH  30  32
HETATM   32  N1  UNL     1     -13.034  -3.877   4.905  1.00  0.00    -0.057 N 
ATOM     33  H13 UNL     1     -12.173  -4.234   5.319  1.00  0.00     0.276 HD
ATOM     34  H12 UNL     1     -13.262  -3.165   5.599  1.00  0.00     0.276 HD
ATOM     35  H11 UNL     1     -13.753  -4.599   4.861  1.00  0.00     0.276 HD
ENDBRANCH  30  32
ENDBRANCH   1  30
TORSDOF 11
ENDMDL
MODEL 2
REMARK VINA RESULT: -5.205408107      1.149      1.310
REMARK  11 active torsions:
REMARK  status: ('A' for Active; 'I' for Inactive)
REMARK    1  A    between atoms: C2_2  and  N1_3 
REMARK    2  A    between atoms: C2_2  and  N2_7 
REMARK    3  A    between atoms: C7_19  and  O2_20 
REMARK    4  A    between atoms: C7_19  and  C8_22 
REMARK    5  A    between atoms: C8_22  and  O3_23 
REMARK    6  A    between atoms: C8_22  and  C9_25 
REMARK    7  A    between atoms: C8_22  and  C10_28 
REMARK    8  A    between atoms: C10_28  and  O5_29 
REMARK    9  A    between atoms: C10_28  and  C11_31 
REMARK   10  A    between atoms: C11_31  and  O6_32 
REMARK   11  A    between atoms: C11_31  and  O7_34 
ROOT
HETATM    1  N2  UNL     1     -12.755  -2.027   3.838  1.00  0.00    -0.210 N 
HETATM    2  N3  UNL     1     -12.684  -0.934   4.560  1.00  0.00    -0.235 N 
ATOM      3  H3  UNL     1     -11.996  -0.874   5.310  1.00  0.00     0.208 HD
HETATM    4  N4  UNL     1     -13.480   0.084   4.335  1.00  0.00    -0.285 N 
ATOM      5  H4  UNL     1     -13.380   0.908   4.928  1.00  0.00     0.188 HD
HETATM    6  C3  UNL     1     -14.408   0.112   3.386  1.00  0.00     0.099 A 
HETATM    7  C4  UNL     1     -14.526  -1.014   2.597  1.00  0.00     0.126 A 
HETATM    8  C5  UNL     1     -13.667  -2.086   2.855  1.00  0.00     0.293 A 
HETATM    9  O1  UNL     1     -13.733  -3.142   2.161  1.00  0.00    -0.264 OA
HETATM   10  N5  UNL     1     -15.552  -0.860   1.631  1.00  0.00    -0.380 N 
ATOM     11  H5  UNL     1     -15.673  -1.399   0.774  1.00  0.00     0.160 HD
HETATM   12  C6  UNL     1     -16.398   0.222   2.109  1.00  0.00     0.168 C 
HETATM   13  C7  UNL     1     -15.404   1.075   2.931  1.00  0.00     0.161 C 
ENDROOT
BRANCH  13  14
HETATM   14  O2  UNL     1     -16.125   1.494   4.054  1.00  0.00    -0.378 OA
ATOM     15  H2  UNL     1     -16.091   2.443   4.075  1.00  0.00     0.211 HD
ENDBRANCH  13  14
BRANCH  13  16
HETATM   16  C8  UNL     1     -14.977   2.168   2.052  1.00  0.00     0.205 C 
BRANCH  16  17
HETATM   17  O3  UNL     1     -15.496   1.909   0.739  1.00  0.00    -0.375 OA
ATOM     18  H3  UNL     1     -15.202   2.606   0.165  1.00  0.00     0.211 HD
ENDBRANCH  16  17
BRANCH  16  19
HETATM   19  C9  UNL     1     -15.623   3.415   2.459  1.00  0.00     0.272 C 
HETATM   20  N6  UNL     1     -16.872   3.797   1.831  1.00  0.00    -0.059 NA
HETATM   21  O4  UNL     1     -15.210   4.219   3.313  1.00  0.00    -0.273 OA
ENDBRANCH  16  19
BRANCH  16  22
HETATM   22  C10 UNL     1     -13.517   2.372   1.816  1.00  0.00     0.220 C 
BRANCH  22  23
HETATM   23  O5  UNL     1     -12.899   2.858   3.001  1.00  0.00    -0.387 OA
ATOM     24  H5  UNL     1     -12.108   3.335   2.780  1.00  0.00     0.210 HD
ENDBRANCH  22  23
BRANCH  22  25
HETATM   25  C11 UNL     1     -13.111   3.297   0.729  1.00  0.00     0.286 C 
BRANCH  25  26
HETATM   26  O6  UNL     1     -14.039   4.175   0.250  1.00  0.00    -0.369 OA
ATOM     27  H6  UNL     1     -13.733   4.993  -0.123  1.00  0.00     0.212 HD
ENDBRANCH  25  26
BRANCH  25  28
HETATM   28  O7  UNL     1     -12.764   2.484  -0.384  1.00  0.00    -0.369 OA
ATOM     29  H7  UNL     1     -13.478   1.869  -0.502  1.00  0.00     0.212 HD
ENDBRANCH  25  28
ENDBRANCH  22  25
ENDBRANCH  16  22
ENDBRANCH  13  16
BRANCH   1  30
HETATM   30  C2  UNL     1     -11.891  -3.177   4.056  1.00  0.00     0.305 C 
HETATM   31  C1  UNL     1     -10.501  -2.767   4.492  1.00  0.00     0.065 C 
BRANCH  30  32
HETATM   32  N1  UNL     1     -12.459  -4.149   4.940  1.00  0.00    -0.057 N 
ATOM     33  H13 UNL     1     -12.979  -4.860   4.427  1.00  0.00     0.276 HD
ATOM     34  H12 UNL     1     -11.738  -4.743   5.351  1.00  0.00     0.276 HD
ATOM     35  H11 UNL     1     -13.035  -3.712   5.659  1.00  0.00     0.276 HD
ENDBRANCH  30  32
ENDBRANCH   1  30
TORSDOF 11
ENDMDL
MODEL 3
REMARK VINA RESULT: -5.089167010     10.667     12.317
REMARK  11 active torsions:
REMARK  status: ('A' for Active; 'I' for Inactive)
REMARK    1  A    between atoms: C2_2  and  N1_3 
REMARK    2  A    between atoms: C2_2  and  N2_7 
REMARK    3  A    between atoms: C7_19  and  O2_20 
REMARK    4  A    between atoms: C7_19  and  C8_22 
REMARK    5  A    between atoms: C8_22  and  O3_23 
REMARK    6  A    between atoms: C8_22  and  C9_25 
REMARK    7  A    between atoms: C8_22  and  C10_28 
REMARK    8  A    between atoms: C10_28  and  O5_29 
REMARK    9  A    between atoms: C10_28  and  C11_31 
REMARK   10  A    between atoms: C11_31  and  O6_32 
REMARK   11  A    between atoms: C11_31  and  O7_34 
ROOT
HETATM    1  N2  UNL     1      -4.305  -6.242   2.984  1.00  0.00    -0.210 N 
HETATM    2  N3  UNL     1      -3.167  -5.591   2.928  1.00  0.00    -0.235 N 
ATOM      3  H3  UNL     1      -2.633  -5.593   2.060  1.00  0.00     0.208 HD
HETATM    4  N4  UNL     1      -2.703  -4.940   3.968  1.00  0.00    -0.285 N 
ATOM      5  H4  UNL     1      -1.812  -4.453   3.866  1.00  0.00     0.188 HD
HETATM    6  C3  UNL     1      -3.316  -4.873   5.143  1.00  0.00     0.099 A 
HETATM    7  C4  UNL     1      -4.518  -5.541   5.257  1.00  0.00     0.126 A 
HETATM    8  C5  UNL     1      -4.992  -6.229   4.137  1.00  0.00     0.293 A 
HETATM    9  O1  UNL     1      -6.090  -6.857   4.187  1.00  0.00    -0.264 OA
HETATM   10  N5  UNL     1      -5.064  -5.398   6.557  1.00  0.00    -0.380 N 
ATOM     11  H5  UNL     1      -6.034  -5.547   6.834  1.00  0.00     0.160 HD
HETATM   12  C6  UNL     1      -3.963  -4.994   7.416  1.00  0.00     0.168 C 
HETATM   13  C7  UNL     1      -3.035  -4.248   6.430  1.00  0.00     0.161 C 
ENDROOT
BRANCH  13  14
HETATM   14  O2  UNL     1      -1.738  -4.614   6.800  1.00  0.00    -0.378 OA
ATOM     15  H2  UNL     1      -1.801  -5.424   7.293  1.00  0.00     0.211 HD
ENDBRANCH  13  14
BRANCH  13  16
HETATM   16  C8  UNL     1      -3.325  -2.820   6.597  1.00  0.00     0.205 C 
BRANCH  16  17
HETATM   17  O3  UNL     1      -4.376  -2.691   7.565  1.00  0.00    -0.375 OA
ATOM     18  H3  UNL     1      -4.206  -1.912   8.081  1.00  0.00     0.211 HD
ENDBRANCH  16  17
BRANCH  16  19
HETATM   19  C9  UNL     1      -2.179  -2.149   7.212  1.00  0.00     0.272 C 
HETATM   20  N6  UNL     1      -2.283  -1.699   8.585  1.00  0.00    -0.059 NA
HETATM   21  O4  UNL     1      -1.084  -1.909   6.673  1.00  0.00    -0.273 OA
ENDBRANCH  16  19
BRANCH  16  22
HETATM   22  C10 UNL     1      -3.833  -2.047   5.425  1.00  0.00     0.220 C 
BRANCH  22  23
HETATM   23  O5  UNL     1      -2.756  -1.725   4.554  1.00  0.00    -0.387 OA
ATOM     24  H5  UNL     1      -2.538  -0.804   4.637  1.00  0.00     0.210 HD
ENDBRANCH  22  23
BRANCH  22  25
HETATM   25  C11 UNL     1      -4.547  -0.774   5.689  1.00  0.00     0.286 C 
BRANCH  25  26
HETATM   26  O6  UNL     1      -5.821  -0.836   6.173  1.00  0.00    -0.369 OA
ATOM     27  H6  UNL     1      -5.951  -0.731   7.108  1.00  0.00     0.212 HD
ENDBRANCH  25  26
BRANCH  25  28
HETATM   28  O7  UNL     1      -4.659  -0.107   4.438  1.00  0.00    -0.369 OA
ATOM     29  H7  UNL     1      -4.547   0.819   4.615  1.00  0.00     0.212 HD
ENDBRANCH  25  28
ENDBRANCH  22  25
ENDBRANCH  16  22
ENDBRANCH  13  16
BRANCH   1  30
HETATM   30  C2  UNL     1      -4.853  -6.976   1.855  1.00  0.00     0.305 C 
HETATM   31  C1  UNL     1      -4.594  -6.272   0.540  1.00  0.00     0.065 C 
BRANCH  30  32
HETATM   32  N1  UNL     1      -4.432  -8.344   1.814  1.00  0.00    -0.057 N 
ATOM     33  H13 UNL     1      -5.053  -8.908   1.233  1.00  0.00     0.276 HD
ATOM     34  H12 UNL     1      -3.571  -8.452   1.277  1.00  0.00     0.276 HD
ATOM     35  H11 UNL     1      -4.339  -8.737   2.750  1.00  0.00     0.276 HD
ENDBRANCH  30  32
ENDBRANCH   1  30
TORSDOF 11
ENDMDL
MODEL 4
REMARK VINA RESULT: -4.957715019      9.187     10.818
REMARK  11 active torsions:
REMARK  status: ('A' for Active; 'I' for Inactive)
REMARK    1  A    between atoms: C2_2  and  N1_3 
REMARK    2  A    between atoms: C2_2  and  N2_7 
REMARK    3  A    between atoms: C7_19  and  O2_20 
REMARK    4  A    between atoms: C7_19  and  C8_22 
REMARK    5  A    between atoms: C8_22  and  O3_23 
REMARK    6  A    between atoms: C8_22  and  C9_25 
REMARK    7  A    between atoms: C8_22  and  C10_28 
REMARK    8  A    between atoms: C10_28  and  O5_29 
REMARK    9  A    between atoms: C10_28  and  C11_31 
REMARK   10  A    between atoms: C11_31  and  O6_32 
REMARK   11  A    between atoms: C11_31  and  O7_34 
ROOT
HETATM    1  N2  UNL     1      -8.650   2.318   9.582  1.00  0.00    -0.210 N 
HETATM    2  N3  UNL     1      -8.706   2.401   8.274  1.00  0.00    -0.235 N 
ATOM      3  H3  UNL     1      -9.327   3.085   7.843  1.00  0.00     0.208 HD
HETATM    4  N4  UNL     1      -7.979   1.621   7.510  1.00  0.00    -0.285 N 
ATOM      5  H4  UNL     1      -8.064   1.730   6.500  1.00  0.00     0.188 HD
HETATM    6  C3  UNL     1      -7.140   0.699   7.966  1.00  0.00     0.099 A 
HETATM    7  C4  UNL     1      -7.043   0.568   9.337  1.00  0.00     0.126 A 
HETATM    8  C5  UNL     1      -7.827   1.410  10.130  1.00  0.00     0.293 A 
HETATM    9  O1  UNL     1      -7.775   1.333  11.393  1.00  0.00    -0.264 OA
HETATM   10  N5  UNL     1      -6.123  -0.450   9.692  1.00  0.00    -0.380 N 
ATOM     11  H5  UNL     1      -5.665  -0.574  10.594  1.00  0.00     0.160 HD
HETATM   12  C6  UNL     1      -5.964  -1.282   8.511  1.00  0.00     0.168 C 
HETATM   13  C7  UNL     1      -6.242  -0.280   7.366  1.00  0.00     0.161 C 
ENDROOT
BRANCH  13  14
HETATM   14  O2  UNL     1      -6.979  -1.001   6.421  1.00  0.00    -0.378 OA
ATOM     15  H2  UNL     1      -6.501  -1.802   6.238  1.00  0.00     0.211 HD
ENDBRANCH  13  14
BRANCH  13  16
HETATM   16  C8  UNL     1      -4.930   0.167   6.887  1.00  0.00     0.205 C 
BRANCH  16  17
HETATM   17  O3  UNL     1      -4.173   0.613   8.021  1.00  0.00    -0.375 OA
ATOM     18  H3  UNL     1      -3.550   1.265   7.720  1.00  0.00     0.211 HD
ENDBRANCH  16  17
BRANCH  16  19
HETATM   19  C9  UNL     1      -4.174  -0.973   6.369  1.00  0.00     0.272 C 
HETATM   20  N6  UNL     1      -2.879  -1.276   6.945  1.00  0.00    -0.059 NA
HETATM   21  O4  UNL     1      -4.525  -1.742   5.457  1.00  0.00    -0.273 OA
ENDBRANCH  16  19
BRANCH  16  22
HETATM   22  C10 UNL     1      -4.865   1.326   5.947  1.00  0.00     0.220 C 
BRANCH  22  23
HETATM   23  O5  UNL     1      -3.975   1.031   4.878  1.00  0.00    -0.387 OA
ATOM     24  H5  UNL     1      -3.312   0.416   5.171  1.00  0.00     0.210 HD
ENDBRANCH  22  23
BRANCH  22  25
HETATM   25  C11 UNL     1      -4.438   2.638   6.491  1.00  0.00     0.286 C 
BRANCH  25  26
HETATM   26  O6  UNL     1      -5.199   3.210   7.469  1.00  0.00    -0.369 OA
ATOM     27  H6  UNL     1      -5.467   4.114   7.359  1.00  0.00     0.212 HD
ENDBRANCH  25  26
BRANCH  25  28
HETATM   28  O7  UNL     1      -4.479   3.557   5.407  1.00  0.00    -0.369 OA
ATOM     29  H7  UNL     1      -4.640   4.413   5.785  1.00  0.00     0.212 HD
ENDBRANCH  25  28
ENDBRANCH  22  25
ENDBRANCH  16  22
ENDBRANCH  13  16
BRANCH   1  30
HETATM   30  C2  UNL     1      -9.439   3.163  10.464  1.00  0.00     0.305 C 
HETATM   31  C1  UNL     1      -9.844   4.459   9.794  1.00  0.00     0.065 C 
BRANCH  30  32
HETATM   32  N1  UNL     1     -10.566   2.488  11.033  1.00  0.00    -0.057 N 
ATOM     33  H13 UNL     1     -10.878   1.719  10.439  1.00  0.00     0.276 HD
ATOM     34  H12 UNL     1     -10.299   1.951  11.859  1.00  0.00     0.276 HD
ATOM     35  H11 UNL     1     -11.328   3.133  11.239  1.00  0.00     0.276 HD
ENDBRANCH  30  32
ENDBRANCH   1  30
TORSDOF 11
ENDMDL
MODEL 5
REMARK VINA RESULT: -4.908511191     10.259     12.109
REMARK  11 active torsions:
REMARK  status: ('A' for Active; 'I' for Inactive)
REMARK    1  A    between atoms: C2_2  and  N1_3 
REMARK    2  A    between atoms: C2_2  and  N2_7 
REMARK    3  A    between atoms: C7_19  and  O2_20 
REMARK    4  A    between atoms: C7_19  and  C8_22 
REMARK    5  A    between atoms: C8_22  and  O3_23 
REMARK    6  A    between atoms: C8_22  and  C9_25 
REMARK    7  A    between atoms: C8_22  and  C10_28 
REMARK    8  A    between atoms: C10_28  and  O5_29 
REMARK    9  A    between atoms: C10_28  and  C11_31 
REMARK   10  A    between atoms: C11_31  and  O6_32 
REMARK   11  A    between atoms: C11_31  and  O7_34 
ROOT
HETATM    1  N2  UNL     1      -1.272  -1.944   9.093  1.00  0.00    -0.210 N 
HETATM    2  N3  UNL     1      -2.071  -1.253   9.870  1.00  0.00    -0.235 N 
ATOM      3  H3  UNL     1      -1.701  -0.835  10.723  1.00  0.00     0.208 HD
HETATM    4  N4  UNL     1      -3.338  -1.089   9.571  1.00  0.00    -0.285 N 
ATOM      5  H4  UNL     1      -3.912  -0.542  10.213  1.00  0.00     0.188 HD
HETATM    6  C3  UNL     1      -3.922  -1.588   8.488  1.00  0.00     0.099 A 
HETATM    7  C4  UNL     1      -3.125  -2.326   7.636  1.00  0.00     0.126 A 
HETATM    8  C5  UNL     1      -1.779  -2.486   7.975  1.00  0.00     0.293 A 
HETATM    9  O1  UNL     1      -1.005  -3.152   7.227  1.00  0.00    -0.264 OA
HETATM   10  N5  UNL     1      -3.867  -2.805   6.527  1.00  0.00    -0.380 N 
ATOM     11  H5  UNL     1      -3.494  -3.131   5.636  1.00  0.00     0.160 HD
HETATM   12  C6  UNL     1      -5.266  -2.738   6.916  1.00  0.00     0.168 C 
HETATM   13  C7  UNL     1      -5.268  -1.569   7.929  1.00  0.00     0.161 C 
ENDROOT
BRANCH  13  14
HETATM   14  O2  UNL     1      -6.148  -1.965   8.941  1.00  0.00    -0.378 OA
ATOM     15  H2  UNL     1      -6.783  -1.267   9.054  1.00  0.00     0.211 HD
ENDBRANCH  13  14
BRANCH  13  16
HETATM   16  C8  UNL     1      -5.705  -0.384   7.185  1.00  0.00     0.205 C 
BRANCH  16  17
HETATM   17  O3  UNL     1      -6.399  -0.829   6.010  1.00  0.00    -0.375 OA
ATOM     18  H3  UNL     1      -6.284  -0.171   5.334  1.00  0.00     0.211 HD
ENDBRANCH  16  17
BRANCH  16  19
HETATM   19  C9  UNL     1      -6.716   0.341   7.953  1.00  0.00     0.272 C 
HETATM   20  N6  UNL     1      -7.952   0.724   7.302  1.00  0.00    -0.059 NA
HETATM   21  O4  UNL     1      -6.636   0.682   9.147  1.00  0.00    -0.273 OA
ENDBRANCH  16  19
BRANCH  16  22
HETATM   22  C10 UNL     1      -4.670   0.548   6.645  1.00  0.00     0.220 C 
BRANCH  22  23
HETATM   23  O5  UNL     1      -4.959   1.879   7.055  1.00  0.00    -0.387 OA
ATOM     24  H5  UNL     1      -4.661   2.492   6.393  1.00  0.00     0.210 HD
ENDBRANCH  22  23
BRANCH  22  25
HETATM   25  C11 UNL     1      -4.480   0.600   5.175  1.00  0.00     0.286 C 
BRANCH  25  26
HETATM   26  O6  UNL     1      -3.739  -0.382   4.585  1.00  0.00    -0.369 OA
ATOM     27  H6  UNL     1      -3.960  -0.640   3.698  1.00  0.00     0.212 HD
ENDBRANCH  25  26
BRANCH  25  28
HETATM   28  O7  UNL     1      -3.780   1.806   4.901  1.00  0.00    -0.369 OA
ATOM     29  H7  UNL     1      -3.049   1.572   4.342  1.00  0.00     0.212 HD
ENDBRANCH  25  28
ENDBRANCH  22  25
ENDBRANCH  16  22
ENDBRANCH  13  16
BRANCH   1  30
HETATM   30  C2  UNL     1       0.137  -2.149   9.389  1.00  0.00     0.305 C 
HETATM   31  C1  UNL     1       0.733  -0.982  10.147  1.00  0.00     0.065 C 
BRANCH  30  32
HETATM   32  N1  UNL     1       0.400  -3.395  10.042  1.00  0.00    -0.057 N 
ATOM     33  H13 UNL     1       1.052  -3.967   9.504  1.00  0.00     0.276 HD
ATOM     34  H12 UNL     1       0.962  -3.262  10.883  1.00  0.00     0.276 HD
ATOM     35  H11 UNL     1      -0.460  -3.902  10.246  1.00  0.00     0.276 HD
ENDBRANCH  30  32
ENDBRANCH   1  30
TORSDOF 11
ENDMDL
