MODEL 1
REMARK VINA RESULT: -5.794274096      0.000      0.000
REMARK  3 active torsions:
REMARK  status: ('A' for Active; 'I' for Inactive)
REMARK       I    between atoms: N1_2  and  C2_4 
REMARK    1  A    between atoms: C2_4  and  O2_6 
REMARK    2  A    between atoms: O2_6  and  N2_7 
REMARK    3  A    between atoms: N3_14  and  O3_15 
ROOT
HETATM    1  N2  UNL     1      28.586  53.141  -2.040  1.00  0.00    -0.264 N 
ATOM      2  H2  UNL     1      27.835  53.622  -1.546  1.00  0.00     0.194 HD
HETATM    3  C3  UNL     1      29.037  53.726  -3.058  1.00  0.00     0.022 C 
HETATM    4  C4  UNL     1      30.126  53.224  -3.939  1.00  0.00     0.087 C 
HETATM    5  C5  UNL     1      29.761  53.301  -5.404  1.00  0.00     0.052 C 
HETATM    6  C6  UNL     1      29.867  51.900  -5.985  1.00  0.00     0.041 C 
HETATM    7  C7  UNL     1      30.725  54.167  -6.189  1.00  0.00     0.041 C 
HETATM    8  N3  UNL     1      28.401  53.724  -5.504  1.00  0.00    -0.286 N 
HETATM    9  C8  UNL     1      28.135  55.006  -4.930  1.00  0.00     0.165 C 
HETATM   10  C9  UNL     1      28.458  55.038  -3.457  1.00  0.00     0.011 C 
HETATM   11  C10 UNL     1      27.189  55.355  -2.715  1.00  0.00     0.023 C 
HETATM   12  C11 UNL     1      29.525  56.083  -3.145  1.00  0.00     0.023 C 
ENDROOT
BRANCH   1  13
HETATM   13  O2  UNL     1      28.971  51.956  -1.517  1.00  0.00    -0.181 OA
BRANCH  13  14
HETATM   14  C2  UNL     1      29.784  51.939  -0.405  1.00  0.00     0.382 C 
HETATM   15  N1  UNL     1      29.428  51.327   0.826  1.00  0.00    -0.340 N 
HETATM   16  C1  UNL     1      30.306  51.328   1.972  1.00  0.00     0.151 C 
ATOM     17  H1  UNL     1      28.519  50.871   0.903  1.00  0.00     0.164 HD
HETATM   18  O1  UNL     1      30.900  52.491  -0.477  1.00  0.00    -0.236 OA
ENDBRANCH  13  14
ENDBRANCH   1  13
BRANCH   8  19
HETATM   19  O3  UNL     1      27.820  53.515  -6.678  1.00  0.00    -0.291 OA
ATOM     20  H3  UNL     1      26.890  53.702  -6.715  1.00  0.00     0.244 HD
ENDBRANCH   8  19
TORSDOF 3
ENDMDL
MODEL 2
REMARK VINA RESULT: -5.084657470      1.240      1.248
REMARK  3 active torsions:
REMARK  status: ('A' for Active; 'I' for Inactive)
REMARK       I    between atoms: N1_2  and  C2_4 
REMARK    1  A    between atoms: C2_4  and  O2_6 
REMARK    2  A    between atoms: O2_6  and  N2_7 
REMARK    3  A    between atoms: N3_14  and  O3_15 
ROOT
HETATM    1  N2  UNL     1      28.733  53.647  -2.523  1.00  0.00    -0.264 N 
ATOM      2  H2  UNL     1      28.009  54.161  -2.019  1.00  0.00     0.194 HD
HETATM    3  C3  UNL     1      28.945  54.018  -3.707  1.00  0.00     0.022 C 
HETATM    4  C4  UNL     1      29.944  53.425  -4.637  1.00  0.00     0.087 C 
HETATM    5  C5  UNL     1      29.354  53.125  -5.996  1.00  0.00     0.052 C 
HETATM    6  C6  UNL     1      29.549  51.643  -6.273  1.00  0.00     0.041 C 
HETATM    7  C7  UNL     1      30.069  53.868  -7.106  1.00  0.00     0.041 C 
HETATM    8  N3  UNL     1      27.952  53.389  -5.943  1.00  0.00    -0.286 N 
HETATM    9  C8  UNL     1      27.615  54.741  -5.620  1.00  0.00     0.165 C 
HETATM   10  C9  UNL     1      28.150  55.143  -4.268  1.00  0.00     0.011 C 
HETATM   11  C10 UNL     1      26.978  55.508  -3.400  1.00  0.00     0.023 C 
HETATM   12  C11 UNL     1      29.109  56.324  -4.380  1.00  0.00     0.023 C 
ENDROOT
BRANCH   1  13
HETATM   13  O2  UNL     1      29.340  52.656  -1.835  1.00  0.00    -0.181 OA
BRANCH  13  14
HETATM   14  C2  UNL     1      29.513  52.784  -0.474  1.00  0.00     0.382 C 
HETATM   15  N1  UNL     1      28.932  53.820   0.303  1.00  0.00    -0.340 N 
HETATM   16  C1  UNL     1      29.135  53.924   1.729  1.00  0.00     0.151 C 
ATOM     17  H1  UNL     1      28.351  54.517  -0.162  1.00  0.00     0.164 HD
HETATM   18  O1  UNL     1      30.220  51.943   0.116  1.00  0.00    -0.236 OA
ENDBRANCH  13  14
ENDBRANCH   1  13
BRANCH   8  19
HETATM   19  O3  UNL     1      27.231  52.862  -6.924  1.00  0.00    -0.291 OA
ATOM     20  H3  UNL     1      26.364  52.560  -6.681  1.00  0.00     0.244 HD
ENDBRANCH   8  19
TORSDOF 3
ENDMDL
MODEL 3
REMARK VINA RESULT: -4.299813708      5.340      8.448
REMARK  3 active torsions:
REMARK  status: ('A' for Active; 'I' for Inactive)
REMARK       I    between atoms: N1_2  and  C2_4 
REMARK    1  A    between atoms: C2_4  and  O2_6 
REMARK    2  A    between atoms: O2_6  and  N2_7 
REMARK    3  A    between atoms: N3_14  and  O3_15 
ROOT
HETATM    1  N2  UNL     1      30.354  49.639   2.042  1.00  0.00    -0.264 N 
ATOM      2  H2  UNL     1      31.073  50.125   2.578  1.00  0.00     0.194 HD
HETATM    3  C3  UNL     1      30.268  48.399   2.236  1.00  0.00     0.022 C 
HETATM    4  C4  UNL     1      29.304  47.480   1.573  1.00  0.00     0.087 C 
HETATM    5  C5  UNL     1      29.977  46.241   1.026  1.00  0.00     0.052 C 
HETATM    6  C6  UNL     1      29.687  46.173  -0.465  1.00  0.00     0.041 C 
HETATM    7  C7  UNL     1      29.415  44.971   1.632  1.00  0.00     0.041 C 
HETATM    8  N3  UNL     1      31.386  46.383   1.201  1.00  0.00    -0.286 N 
HETATM    9  C8  UNL     1      31.803  46.531   2.561  1.00  0.00     0.165 C 
HETATM   10  C9  UNL     1      31.194  47.751   3.205  1.00  0.00     0.011 C 
HETATM   11  C10 UNL     1      32.317  48.660   3.621  1.00  0.00     0.023 C 
HETATM   12  C11 UNL     1      30.344  47.375   4.414  1.00  0.00     0.023 C 
ENDROOT
BRANCH   1  13
HETATM   13  O2  UNL     1      29.615  50.409   1.213  1.00  0.00    -0.181 OA
BRANCH  13  14
HETATM   14  C2  UNL     1      29.878  51.759   1.129  1.00  0.00     0.382 C 
HETATM   15  N1  UNL     1      29.219  52.743   1.911  1.00  0.00    -0.340 N 
HETATM   16  C1  UNL     1      29.519  54.151   1.796  1.00  0.00     0.151 C 
ATOM     17  H1  UNL     1      28.507  52.446   2.578  1.00  0.00     0.164 HD
HETATM   18  O1  UNL     1      30.744  52.145   0.319  1.00  0.00    -0.236 OA
ENDBRANCH  13  14
ENDBRANCH   1  13
BRANCH   8  19
HETATM   19  O3  UNL     1      32.140  45.564   0.480  1.00  0.00    -0.291 OA
ATOM     20  H3  UNL     1      31.898  45.481  -0.435  1.00  0.00     0.244 HD
ENDBRANCH   8  19
TORSDOF 3
ENDMDL
MODEL 4
REMARK VINA RESULT: -4.264955721      3.742      5.481
REMARK  3 active torsions:
REMARK  status: ('A' for Active; 'I' for Inactive)
REMARK       I    between atoms: N1_2  and  C2_4 
REMARK    1  A    between atoms: C2_4  and  O2_6 
REMARK    2  A    between atoms: O2_6  and  N2_7 
REMARK    3  A    between atoms: N3_14  and  O3_15 
ROOT
HETATM    1  N2  UNL     1      27.338  57.099  -2.926  1.00  0.00    -0.264 N 
ATOM      2  H2  UNL     1      27.744  57.310  -2.014  1.00  0.00     0.194 HD
HETATM    3  C3  UNL     1      27.602  55.962  -3.395  1.00  0.00     0.022 C 
HETATM    4  C4  UNL     1      27.128  55.429  -4.700  1.00  0.00     0.087 C 
HETATM    5  C5  UNL     1      28.249  54.816  -5.510  1.00  0.00     0.052 C 
HETATM    6  C6  UNL     1      28.308  55.540  -6.846  1.00  0.00     0.041 C 
HETATM    7  C7  UNL     1      27.996  53.355  -5.823  1.00  0.00     0.041 C 
HETATM    8  N3  UNL     1      29.477  55.049  -4.822  1.00  0.00    -0.286 N 
HETATM    9  C8  UNL     1      29.538  54.482  -3.510  1.00  0.00     0.165 C 
HETATM   10  C9  UNL     1      28.462  55.036  -2.610  1.00  0.00     0.011 C 
HETATM   11  C10 UNL     1      29.138  55.720  -1.454  1.00  0.00     0.023 C 
HETATM   12  C11 UNL     1      27.541  53.931  -2.102  1.00  0.00     0.023 C 
ENDROOT
BRANCH   1  13
HETATM   13  O2  UNL     1      26.584  58.076  -3.476  1.00  0.00    -0.181 OA
BRANCH  13  14
HETATM   14  C2  UNL     1      26.540  59.316  -2.877  1.00  0.00     0.382 C 
HETATM   15  N1  UNL     1      25.970  59.557  -1.599  1.00  0.00    -0.340 N 
HETATM   16  C1  UNL     1      25.940  60.871  -1.001  1.00  0.00     0.151 C 
ATOM     17  H1  UNL     1      25.565  58.774  -1.085  1.00  0.00     0.164 HD
HETATM   18  O1  UNL     1      27.028  60.288  -3.487  1.00  0.00    -0.236 OA
ENDBRANCH  13  14
ENDBRANCH   1  13
BRANCH   8  19
HETATM   19  O3  UNL     1      30.579  54.889  -5.543  1.00  0.00    -0.291 OA
ATOM     20  H3  UNL     1      31.179  55.625  -5.546  1.00  0.00     0.244 HD
ENDBRANCH   8  19
TORSDOF 3
ENDMDL
MODEL 5
REMARK VINA RESULT: -4.227290762      2.344      4.015
REMARK  3 active torsions:
REMARK  status: ('A' for Active; 'I' for Inactive)
REMARK       I    between atoms: N1_2  and  C2_4 
REMARK    1  A    between atoms: C2_4  and  O2_6 
REMARK    2  A    between atoms: O2_6  and  N2_7 
REMARK    3  A    between atoms: N3_14  and  O3_15 
ROOT
HETATM    1  N2  UNL     1      29.317  53.616  -1.740  1.00  0.00    -0.264 N 
ATOM      2  H2  UNL     1      30.093  53.234  -1.200  1.00  0.00     0.194 HD
HETATM    3  C3  UNL     1      29.245  53.240  -2.938  1.00  0.00     0.022 C 
HETATM    4  C4  UNL     1      28.207  53.659  -3.919  1.00  0.00     0.087 C 
HETATM    5  C5  UNL     1      28.807  54.095  -5.237  1.00  0.00     0.052 C 
HETATM    6  C6  UNL     1      28.354  55.521  -5.506  1.00  0.00     0.041 C 
HETATM    7  C7  UNL     1      28.307  53.259  -6.397  1.00  0.00     0.041 C 
HETATM    8  N3  UNL     1      30.228  54.095  -5.103  1.00  0.00    -0.286 N 
HETATM    9  C8  UNL     1      30.793  52.822  -4.777  1.00  0.00     0.165 C 
HETATM   10  C9  UNL     1      30.267  52.296  -3.465  1.00  0.00     0.011 C 
HETATM   11  C10 UNL     1      31.435  52.135  -2.533  1.00  0.00     0.023 C 
HETATM   12  C11 UNL     1      29.553  50.960  -3.650  1.00  0.00     0.023 C 
ENDROOT
BRANCH   1  13
HETATM   13  O2  UNL     1      28.496  54.460  -1.077  1.00  0.00    -0.181 OA
BRANCH  13  14
HETATM   14  C2  UNL     1      28.243  55.709  -1.600  1.00  0.00     0.382 C 
HETATM   15  N1  UNL     1      26.940  56.250  -1.761  1.00  0.00    -0.340 N 
HETATM   16  C1  UNL     1      26.711  57.564  -2.314  1.00  0.00     0.151 C 
ATOM     17  H1  UNL     1      26.137  55.690  -1.475  1.00  0.00     0.164 HD
HETATM   18  O1  UNL     1      29.210  56.410  -1.957  1.00  0.00    -0.236 OA
ENDBRANCH  13  14
ENDBRANCH   1  13
BRANCH   8  19
HETATM   19  O3  UNL     1      30.892  54.770  -6.032  1.00  0.00    -0.291 OA
ATOM     20  H3  UNL     1      30.502  54.771  -6.898  1.00  0.00     0.244 HD
ENDBRANCH   8  19
TORSDOF 3
ENDMDL
