MODEL 1
REMARK VINA RESULT: -5.776363949      0.000      0.000
REMARK  3 active torsions:
REMARK  status: ('A' for Active; 'I' for Inactive)
REMARK    1  A    between atoms: O1_2  and  N1_3 
REMARK    2  A    between atoms: C3_5  and  C4_6 
REMARK    3  A    between atoms: C4_6  and  N2_7 
ROOT
HETATM    1  N1  UNL     1      28.662  54.646  -5.906  1.00  0.00    -0.179 NA
HETATM    2  C2  UNL     1      29.006  55.444  -4.783  1.00  0.00     0.128 C 
HETATM    3  C3  UNL     1      27.918  55.561  -3.754  1.00  0.00     0.026 C 
HETATM    4  C5  UNL     1      27.919  54.476  -2.728  1.00  0.00     0.007 C 
HETATM    5  C6  UNL     1      28.870  54.646  -1.606  1.00  0.00     0.000 C 
HETATM    6  C7  UNL     1      29.406  53.427  -0.976  1.00  0.00     0.000 C 
HETATM    7  C8  UNL     1      29.280  52.136  -1.730  1.00  0.00     0.000 C 
HETATM    8  C9  UNL     1      30.348  51.993  -2.804  1.00  0.00     0.000 C 
HETATM    9  C10 UNL     1      29.943  51.066  -3.912  1.00  0.00     0.000 C 
HETATM   10  C11 UNL     1      30.421  51.580  -5.281  1.00  0.00     0.003 C 
HETATM   11  C12 UNL     1      29.360  52.311  -6.006  1.00  0.00     0.037 C 
HETATM   12  C13 UNL     1      29.664  53.730  -6.368  1.00  0.00     0.192 C 
HETATM   13  C14 UNL     1      31.025  54.137  -6.048  1.00  0.00     0.081 C 
HETATM   14  N3  UNL     1      32.106  54.480  -5.791  1.00  0.00    -0.195 NA
ENDROOT
BRANCH   1  15
HETATM   15  O1  UNL     1      28.166  55.424  -6.896  1.00  0.00    -0.307 OA
HETATM   16  C1  UNL     1      28.365  54.920  -8.158  1.00  0.00     0.229 C 
ENDBRANCH   1  15
BRANCH   3  17
HETATM   17  C4  UNL     1      27.864  56.945  -3.118  1.00  0.00     0.235 C 
BRANCH  17  18
HETATM   18  N2  UNL     1      26.728  57.704  -3.597  1.00  0.00    -0.079 N 
ATOM     19  H23 UNL     1      26.896  58.079  -4.530  1.00  0.00     0.274 HD
ATOM     20  H22 UNL     1      25.937  57.097  -3.813  1.00  0.00     0.274 HD
ATOM     21  H21 UNL     1      26.467  58.439  -2.940  1.00  0.00     0.274 HD
ENDBRANCH  17  18
ENDBRANCH   3  17
TORSDOF 3
ENDMDL
MODEL 2
REMARK VINA RESULT: -3.970118875      3.229      4.612
REMARK  3 active torsions:
REMARK  status: ('A' for Active; 'I' for Inactive)
REMARK    1  A    between atoms: O1_2  and  N1_3 
REMARK    2  A    between atoms: C3_5  and  C4_6 
REMARK    3  A    between atoms: C4_6  and  N2_7 
ROOT
HETATM    1  N1  UNL     1      27.149  55.879  -1.127  1.00  0.00    -0.179 NA
HETATM    2  C2  UNL     1      28.026  56.097  -0.032  1.00  0.00     0.128 C 
HETATM    3  C3  UNL     1      27.601  55.421   1.241  1.00  0.00     0.026 C 
HETATM    4  C5  UNL     1      28.093  54.019   1.389  1.00  0.00     0.007 C 
HETATM    5  C6  UNL     1      29.481  53.868   1.881  1.00  0.00     0.000 C 
HETATM    6  C7  UNL     1      30.235  52.680   1.441  1.00  0.00     0.000 C 
HETATM    7  C8  UNL     1      29.721  51.927   0.249  1.00  0.00     0.000 C 
HETATM    8  C9  UNL     1      30.104  52.597  -1.061  1.00  0.00     0.000 C 
HETATM    9  C10 UNL     1      29.179  52.247  -2.189  1.00  0.00     0.000 C 
HETATM   10  C11 UNL     1      28.918  53.459  -3.102  1.00  0.00     0.003 C 
HETATM   11  C12 UNL     1      27.652  54.147  -2.769  1.00  0.00     0.037 C 
HETATM   12  C13 UNL     1      27.764  55.590  -2.389  1.00  0.00     0.192 C 
HETATM   13  C14 UNL     1      29.111  56.127  -2.524  1.00  0.00     0.081 C 
HETATM   14  N3  UNL     1      30.182  56.568  -2.616  1.00  0.00    -0.195 NA
ENDROOT
BRANCH   1  15
HETATM   15  O1  UNL     1      26.240  56.879  -1.204  1.00  0.00    -0.307 OA
HETATM   16  C1  UNL     1      26.481  57.780  -2.211  1.00  0.00     0.229 C 
ENDBRANCH   1  15
BRANCH   3  17
HETATM   17  C4  UNL     1      27.904  56.263   2.475  1.00  0.00     0.235 C 
BRANCH  17  18
HETATM   18  N2  UNL     1      26.822  56.200   3.436  1.00  0.00    -0.079 N 
ATOM     19  H23 UNL     1      26.821  57.013   4.051  1.00  0.00     0.274 HD
ATOM     20  H22 UNL     1      25.916  56.338   2.989  1.00  0.00     0.274 HD
ATOM     21  H21 UNL     1      26.848  55.329   3.968  1.00  0.00     0.274 HD
ENDBRANCH  17  18
ENDBRANCH   3  17
TORSDOF 3
ENDMDL
MODEL 3
REMARK VINA RESULT: -3.384810164      2.946      5.182
REMARK  3 active torsions:
REMARK  status: ('A' for Active; 'I' for Inactive)
REMARK    1  A    between atoms: O1_2  and  N1_3 
REMARK    2  A    between atoms: C3_5  and  C4_6 
REMARK    3  A    between atoms: C4_6  and  N2_7 
ROOT
HETATM    1  N1  UNL     1      27.662  54.370  -1.348  1.00  0.00    -0.179 NA
HETATM    2  C2  UNL     1      28.983  53.881  -1.173  1.00  0.00     0.128 C 
HETATM    3  C3  UNL     1      29.093  52.383  -1.187  1.00  0.00     0.026 C 
HETATM    4  C5  UNL     1      29.271  51.790  -2.546  1.00  0.00     0.007 C 
HETATM    5  C6  UNL     1      30.651  51.803  -3.083  1.00  0.00     0.000 C 
HETATM    6  C7  UNL     1      30.813  51.881  -4.546  1.00  0.00     0.000 C 
HETATM    7  C8  UNL     1      29.634  52.329  -5.358  1.00  0.00     0.000 C 
HETATM    8  C9  UNL     1      29.469  53.841  -5.343  1.00  0.00     0.000 C 
HETATM    9  C10 UNL     1      28.062  54.280  -5.622  1.00  0.00     0.000 C 
HETATM   10  C11 UNL     1      27.665  55.490  -4.758  1.00  0.00     0.003 C 
HETATM   11  C12 UNL     1      26.908  55.092  -3.552  1.00  0.00     0.037 C 
HETATM   12  C13 UNL     1      27.506  55.483  -2.237  1.00  0.00     0.192 C 
HETATM   13  C14 UNL     1      28.699  56.309  -2.360  1.00  0.00     0.081 C 
HETATM   14  N3  UNL     1      29.658  56.962  -2.440  1.00  0.00    -0.195 NA
ENDROOT
BRANCH   1  15
HETATM   15  O1  UNL     1      27.076  54.574  -0.145  1.00  0.00    -0.307 OA
HETATM   16  C1  UNL     1      27.914  55.109   0.803  1.00  0.00     0.229 C 
ENDBRANCH   1  15
BRANCH   3  17
HETATM   17  C4  UNL     1      30.134  51.866  -0.201  1.00  0.00     0.235 C 
BRANCH  17  18
HETATM   18  N2  UNL     1      29.614  51.839   1.151  1.00  0.00    -0.079 N 
ATOM     19  H23 UNL     1      28.707  52.301   1.211  1.00  0.00     0.274 HD
ATOM     20  H22 UNL     1      29.331  50.899   1.424  1.00  0.00     0.274 HD
ATOM     21  H21 UNL     1      30.281  52.237   1.814  1.00  0.00     0.274 HD
ENDBRANCH  17  18
ENDBRANCH   3  17
TORSDOF 3
ENDMDL
MODEL 4
REMARK VINA RESULT: -3.154464523      1.639      4.311
REMARK  3 active torsions:
REMARK  status: ('A' for Active; 'I' for Inactive)
REMARK    1  A    between atoms: O1_2  and  N1_3 
REMARK    2  A    between atoms: C3_5  and  C4_6 
REMARK    3  A    between atoms: C4_6  and  N2_7 
ROOT
HETATM    1  N1  UNL     1      29.910  54.630  -4.795  1.00  0.00    -0.179 NA
HETATM    2  C2  UNL     1      29.486  53.297  -4.550  1.00  0.00     0.128 C 
HETATM    3  C3  UNL     1      30.488  52.459  -3.810  1.00  0.00     0.026 C 
HETATM    4  C5  UNL     1      30.390  52.548  -2.323  1.00  0.00     0.007 C 
HETATM    5  C6  UNL     1      29.353  51.701  -1.690  1.00  0.00     0.000 C 
HETATM    6  C7  UNL     1      28.752  52.183  -0.434  1.00  0.00     0.000 C 
HETATM    7  C8  UNL     1      28.922  53.633  -0.088  1.00  0.00     0.000 C 
HETATM    8  C9  UNL     1      27.944  54.521  -0.842  1.00  0.00     0.000 C 
HETATM    9  C10 UNL     1      28.426  55.935  -0.983  1.00  0.00     0.000 C 
HETATM   10  C11 UNL     1      28.068  56.519  -2.361  1.00  0.00     0.003 C 
HETATM   11  C12 UNL     1      29.194  56.432  -3.315  1.00  0.00     0.037 C 
HETATM   12  C13 UNL     1      28.938  55.660  -4.571  1.00  0.00     0.192 C 
HETATM   13  C14 UNL     1      27.561  55.209  -4.710  1.00  0.00     0.081 C 
HETATM   14  N3  UNL     1      26.467  54.833  -4.831  1.00  0.00    -0.195 NA
ENDROOT
BRANCH   1  15
HETATM   15  O1  UNL     1      30.495  54.718  -6.012  1.00  0.00    -0.307 OA
HETATM   16  C1  UNL     1      29.837  54.030  -7.002  1.00  0.00     0.229 C 
ENDBRANCH   1  15
BRANCH   3  17
HETATM   17  C4  UNL     1      30.507  51.012  -4.293  1.00  0.00     0.235 C 
BRANCH  17  18
HETATM   18  N2  UNL     1      30.019  50.903  -5.652  1.00  0.00    -0.079 N 
ATOM     19  H23 UNL     1      30.783  50.773  -6.314  1.00  0.00     0.274 HD
ATOM     20  H22 UNL     1      29.529  50.021  -5.803  1.00  0.00     0.274 HD
ATOM     21  H21 UNL     1      29.437  51.702  -5.904  1.00  0.00     0.274 HD
ENDBRANCH  17  18
ENDBRANCH   3  17
TORSDOF 3
ENDMDL
MODEL 5
REMARK VINA RESULT: -3.015737919      2.237      4.582
REMARK  3 active torsions:
REMARK  status: ('A' for Active; 'I' for Inactive)
REMARK    1  A    between atoms: O1_2  and  N1_3 
REMARK    2  A    between atoms: C3_5  and  C4_6 
REMARK    3  A    between atoms: C4_6  and  N2_7 
ROOT
HETATM    1  N1  UNL     1      28.435  56.079  -1.989  1.00  0.00    -0.179 NA
HETATM    2  C2  UNL     1      28.082  55.409  -3.190  1.00  0.00     0.128 C 
HETATM    3  C3  UNL     1      29.146  55.443  -4.250  1.00  0.00     0.026 C 
HETATM    4  C5  UNL     1      30.141  54.333  -4.163  1.00  0.00     0.007 C 
HETATM    5  C6  UNL     1      29.723  53.041  -4.754  1.00  0.00     0.000 C 
HETATM    6  C7  UNL     1      30.278  51.809  -4.164  1.00  0.00     0.000 C 
HETATM    7  C8  UNL     1      30.893  51.903  -2.799  1.00  0.00     0.000 C 
HETATM    8  C9  UNL     1      29.845  51.903  -1.696  1.00  0.00     0.000 C 
HETATM    9  C10 UNL     1      30.325  52.552  -0.432  1.00  0.00     0.000 C 
HETATM   10  C11 UNL     1      29.212  53.374   0.240  1.00  0.00     0.003 C 
HETATM   11  C12 UNL     1      29.300  54.812  -0.093  1.00  0.00     0.037 C 
HETATM   12  C13 UNL     1      28.105  55.410  -0.765  1.00  0.00     0.192 C 
HETATM   13  C14 UNL     1      26.980  54.493  -0.881  1.00  0.00     0.081 C 
HETATM   14  N3  UNL     1      26.075  53.770  -0.990  1.00  0.00    -0.195 NA
ENDROOT
BRANCH   1  15
HETATM   15  O1  UNL     1      27.997  57.358  -2.022  1.00  0.00    -0.307 OA
HETATM   16  C1  UNL     1      26.800  57.525  -2.675  1.00  0.00     0.229 C 
ENDBRANCH   1  15
BRANCH   3  17
HETATM   17  C4  UNL     1      28.565  55.576  -5.653  1.00  0.00     0.235 C 
BRANCH  17  18
HETATM   18  N2  UNL     1      27.135  55.349  -5.657  1.00  0.00    -0.079 N 
ATOM     19  H23 UNL     1      26.770  55.250  -4.711  1.00  0.00     0.274 HD
ATOM     20  H22 UNL     1      26.624  56.187  -5.936  1.00  0.00     0.274 HD
ATOM     21  H21 UNL     1      26.886  54.550  -6.240  1.00  0.00     0.274 HD
ENDBRANCH  17  18
ENDBRANCH   3  17
TORSDOF 3
ENDMDL
