MODEL 1
REMARK VINA RESULT: -5.242494464      0.000      0.000
REMARK  1 active torsions:
REMARK  status: ('A' for Active; 'I' for Inactive)
REMARK    1  A    between atoms: N4_9  and  C5_10 
ROOT
HETATM    1  C5  UNL     1      29.341  53.730  -4.092  1.00  0.00     0.053 C 
HETATM    2  C6  UNL     1      28.121  54.056  -4.932  1.00  0.00     0.037 C 
HETATM    3  C7  UNL     1      28.233  53.640  -6.360  1.00  0.00    -0.012 C 
HETATM    4  C8  UNL     1      28.400  52.154  -6.450  1.00  0.00     0.009 C 
HETATM    5  C9  UNL     1      29.663  51.805  -5.679  1.00  0.00    -0.012 C 
HETATM    6  C10 UNL     1      30.844  52.518  -6.262  1.00  0.00     0.009 C 
HETATM    7  C11 UNL     1      30.611  54.015  -6.159  1.00  0.00    -0.012 C 
HETATM    8  C12 UNL     1      29.415  54.403  -6.938  1.00  0.00     0.009 C 
HETATM    9  C13 UNL     1      30.553  54.346  -4.679  1.00  0.00     0.037 C 
HETATM   10  C14 UNL     1      29.506  52.206  -4.234  1.00  0.00     0.037 C 
ENDROOT
BRANCH   1  11
HETATM   11  N4  UNL     1      29.024  54.000  -2.753  1.00  0.00    -0.274 N 
HETATM   12  N1  UNL     1      28.176  55.084  -2.463  1.00  0.00    -0.229 NA
HETATM   13  C1  UNL     1      28.919  56.190  -1.877  1.00  0.00     0.136 C 
HETATM   14  C2  UNL     1      27.179  54.690  -1.477  1.00  0.00     0.133 C 
HETATM   15  C3  UNL     1      27.913  54.482  -0.176  1.00  0.00     0.138 C 
HETATM   16  N2  UNL     1      28.960  53.510  -0.425  1.00  0.00    -0.362 N 
HETATM   17  C4  UNL     1      29.462  53.296  -1.604  1.00  0.00     0.202 C 
ATOM     18  H2  UNL     1      29.319  52.970   0.362  1.00  0.00     0.162 HD
HETATM   19  N3  UNL     1      30.462  52.341  -1.728  1.00  0.00    -0.062 NA
ENDBRANCH   1  11
TORSDOF 1
ENDMDL
MODEL 2
REMARK VINA RESULT: -5.241909568      0.289      1.711
REMARK  1 active torsions:
REMARK  status: ('A' for Active; 'I' for Inactive)
REMARK    1  A    between atoms: N4_9  and  C5_10 
ROOT
HETATM    1  C5  UNL     1      29.311  53.483  -3.968  1.00  0.00     0.053 C 
HETATM    2  C6  UNL     1      30.446  54.345  -4.488  1.00  0.00     0.037 C 
HETATM    3  C7  UNL     1      30.782  54.112  -5.923  1.00  0.00    -0.012 C 
HETATM    4  C8  UNL     1      29.602  54.434  -6.786  1.00  0.00     0.009 C 
HETATM    5  C9  UNL     1      28.467  53.528  -6.337  1.00  0.00    -0.012 C 
HETATM    6  C10 UNL     1      28.863  52.089  -6.477  1.00  0.00     0.009 C 
HETATM    7  C11 UNL     1      30.071  51.827  -5.596  1.00  0.00    -0.012 C 
HETATM    8  C12 UNL     1      31.214  52.658  -6.031  1.00  0.00     0.009 C 
HETATM    9  C13 UNL     1      29.621  52.048  -4.164  1.00  0.00     0.037 C 
HETATM   10  C14 UNL     1      28.127  53.810  -4.895  1.00  0.00     0.037 C 
ENDROOT
BRANCH   1  11
HETATM   11  N4  UNL     1      28.983  53.937  -2.682  1.00  0.00    -0.274 N 
HETATM   12  N1  UNL     1      28.183  55.087  -2.554  1.00  0.00    -0.229 NA
HETATM   13  C1  UNL     1      28.968  56.224  -2.096  1.00  0.00     0.136 C 
HETATM   14  C2  UNL     1      27.151  54.870  -1.551  1.00  0.00     0.133 C 
HETATM   15  C3  UNL     1      27.850  54.796  -0.216  1.00  0.00     0.138 C 
HETATM   16  N2  UNL     1      28.852  53.754  -0.314  1.00  0.00    -0.362 N 
HETATM   17  C4  UNL     1      29.365  53.366  -1.443  1.00  0.00     0.202 C 
ATOM     18  H2  UNL     1      29.170  53.303   0.544  1.00  0.00     0.162 HD
HETATM   19  N3  UNL     1      30.319  52.359  -1.420  1.00  0.00    -0.062 NA
ENDBRANCH   1  11
TORSDOF 1
ENDMDL
MODEL 3
REMARK VINA RESULT: -5.137062677      0.242      1.778
REMARK  1 active torsions:
REMARK  status: ('A' for Active; 'I' for Inactive)
REMARK    1  A    between atoms: N4_9  and  C5_10 
ROOT
HETATM    1  C5  UNL     1      29.130  53.696  -4.094  1.00  0.00     0.053 C 
HETATM    2  C6  UNL     1      29.561  52.245  -4.195  1.00  0.00     0.037 C 
HETATM    3  C7  UNL     1      30.018  51.836  -5.554  1.00  0.00    -0.012 C 
HETATM    4  C8  UNL     1      31.214  52.642  -5.958  1.00  0.00     0.009 C 
HETATM    5  C9  UNL     1      30.788  54.101  -5.942  1.00  0.00    -0.012 C 
HETATM    6  C10 UNL     1      29.644  54.321  -6.884  1.00  0.00     0.009 C 
HETATM    7  C11 UNL     1      28.472  53.468  -6.436  1.00  0.00    -0.012 C 
HETATM    8  C12 UNL     1      28.831  52.034  -6.484  1.00  0.00     0.009 C 
HETATM    9  C13 UNL     1      28.054  53.984  -5.071  1.00  0.00     0.037 C 
HETATM   10  C14 UNL     1      30.365  54.494  -4.548  1.00  0.00     0.037 C 
ENDROOT
BRANCH   1  11
HETATM   11  N4  UNL     1      28.911  53.985  -2.740  1.00  0.00    -0.274 N 
HETATM   12  N1  UNL     1      28.097  55.081  -2.404  1.00  0.00    -0.229 NA
HETATM   13  C1  UNL     1      28.891  56.186  -1.886  1.00  0.00     0.136 C 
HETATM   14  C2  UNL     1      27.170  54.710  -1.344  1.00  0.00     0.133 C 
HETATM   15  C3  UNL     1      27.993  54.508  -0.096  1.00  0.00     0.138 C 
HETATM   16  N2  UNL     1      29.009  53.523  -0.408  1.00  0.00    -0.362 N 
HETATM   17  C4  UNL     1      29.424  53.289  -1.616  1.00  0.00     0.202 C 
ATOM     18  H2  UNL     1      29.418  52.988   0.358  1.00  0.00     0.162 HD
HETATM   19  N3  UNL     1      30.403  52.323  -1.800  1.00  0.00    -0.062 NA
ENDBRANCH   1  11
TORSDOF 1
ENDMDL
MODEL 4
REMARK VINA RESULT: -5.119009504      1.219      2.849
REMARK  1 active torsions:
REMARK  status: ('A' for Active; 'I' for Inactive)
REMARK    1  A    between atoms: N4_9  and  C5_10 
ROOT
HETATM    1  C5  UNL     1      28.878  54.169  -4.268  1.00  0.00     0.053 C 
HETATM    2  C6  UNL     1      29.559  52.895  -3.799  1.00  0.00     0.037 C 
HETATM    3  C7  UNL     1      30.308  52.175  -4.869  1.00  0.00    -0.012 C 
HETATM    4  C8  UNL     1      31.403  53.045  -5.404  1.00  0.00     0.009 C 
HETATM    5  C9  UNL     1      30.743  54.299  -5.952  1.00  0.00    -0.012 C 
HETATM    6  C10 UNL     1      29.760  53.944  -7.026  1.00  0.00     0.009 C 
HETATM    7  C11 UNL     1      28.687  53.050  -6.431  1.00  0.00    -0.012 C 
HETATM    8  C12 UNL     1      29.285  51.794  -5.928  1.00  0.00     0.009 C 
HETATM    9  C13 UNL     1      27.958  53.880  -5.390  1.00  0.00     0.037 C 
HETATM   10  C14 UNL     1      30.022  55.023  -4.842  1.00  0.00     0.037 C 
ENDROOT
BRANCH   1  11
HETATM   11  N4  UNL     1      28.382  54.830  -3.135  1.00  0.00    -0.274 N 
HETATM   12  N1  UNL     1      28.533  54.223  -1.875  1.00  0.00    -0.229 NA
HETATM   13  C1  UNL     1      27.263  53.709  -1.384  1.00  0.00     0.136 C 
HETATM   14  C2  UNL     1      28.985  55.204  -0.899  1.00  0.00     0.133 C 
HETATM   15  C3  UNL     1      27.837  56.157  -0.676  1.00  0.00     0.138 C 
HETATM   16  N2  UNL     1      27.468  56.693  -1.971  1.00  0.00    -0.362 N 
HETATM   17  C4  UNL     1      27.720  56.083  -3.090  1.00  0.00     0.202 C 
ATOM     18  H2  UNL     1      26.989  57.593  -2.006  1.00  0.00     0.162 HD
HETATM   19  N3  UNL     1      27.321  56.688  -4.273  1.00  0.00    -0.062 NA
ENDBRANCH   1  11
TORSDOF 1
ENDMDL
MODEL 5
REMARK VINA RESULT: -5.011625400      1.260      2.729
REMARK  1 active torsions:
REMARK  status: ('A' for Active; 'I' for Inactive)
REMARK    1  A    between atoms: N4_9  and  C5_10 
ROOT
HETATM    1  C5  UNL     1      29.120  53.992  -4.278  1.00  0.00     0.053 C 
HETATM    2  C6  UNL     1      30.134  54.856  -5.005  1.00  0.00     0.037 C 
HETATM    3  C7  UNL     1      30.826  54.166  -6.132  1.00  0.00    -0.012 C 
HETATM    4  C8  UNL     1      29.830  53.752  -7.170  1.00  0.00     0.009 C 
HETATM    5  C9  UNL     1      28.842  52.821  -6.487  1.00  0.00    -0.012 C 
HETATM    6  C10 UNL     1      29.555  51.633  -5.916  1.00  0.00     0.009 C 
HETATM    7  C11 UNL     1      30.560  52.115  -4.886  1.00  0.00    -0.012 C 
HETATM    8  C12 UNL     1      31.570  52.988  -5.523  1.00  0.00     0.009 C 
HETATM    9  C13 UNL     1      29.763  52.760  -3.767  1.00  0.00     0.037 C 
HETATM   10  C14 UNL     1      28.134  53.555  -5.375  1.00  0.00     0.037 C 
ENDROOT
BRANCH   1  11
HETATM   11  N4  UNL     1      28.422  54.814  -3.382  1.00  0.00    -0.274 N 
HETATM   12  N1  UNL     1      28.633  54.645  -2.001  1.00  0.00    -0.229 NA
HETATM   13  C1  UNL     1      27.485  54.012  -1.369  1.00  0.00     0.136 C 
HETATM   14  C2  UNL     1      28.794  55.941  -1.357  1.00  0.00     0.133 C 
HETATM   15  C3  UNL     1      27.450  56.624  -1.410  1.00  0.00     0.138 C 
HETATM   16  N2  UNL     1      27.046  56.666  -2.802  1.00  0.00    -0.362 N 
HETATM   17  C4  UNL     1      27.493  55.838  -3.696  1.00  0.00     0.202 C 
ATOM     18  H2  UNL     1      26.378  57.381  -3.092  1.00  0.00     0.162 HD
HETATM   19  N3  UNL     1      27.038  55.969  -5.001  1.00  0.00    -0.062 NA
ENDBRANCH   1  11
TORSDOF 1
ENDMDL
