MODEL 1
REMARK VINA RESULT: -4.116351136      0.000      0.000
REMARK  2 active torsions:
REMARK  status: ('A' for Active; 'I' for Inactive)
REMARK    1  A    between atoms: C2_2  and  C3_3 
REMARK    2  A    between atoms: C4_4  and  N1_5 
ROOT
HETATM    1  C3  UNL     1      30.263  53.541  -5.502  1.00  0.00     0.050 C 
HETATM    2  C4  UNL     1      30.354  52.122  -5.158  1.00  0.00     0.199 C 
HETATM    3  C5  UNL     1      29.922  51.599  -3.860  1.00  0.00     0.144 C 
HETATM    4  C6  UNL     1      30.357  52.361  -2.659  1.00  0.00     0.261 C 
HETATM    5  O1  UNL     1      31.575  52.137  -2.313  1.00  0.00    -0.265 OA
HETATM    6  O2  UNL     1      29.609  53.219  -1.950  1.00  0.00    -0.314 OA
HETATM    7  C7  UNL     1      29.025  54.442  -2.161  1.00  0.00     0.157 C 
HETATM    8  C8  UNL     1      28.331  54.828  -0.841  1.00  0.00     0.042 C 
HETATM    9  C9  UNL     1      27.958  54.518  -3.209  1.00  0.00     0.152 C 
HETATM   10  C10 UNL     1      27.913  55.858  -3.904  1.00  0.00     0.037 C 
HETATM   11  C11 UNL     1      29.119  55.692  -4.842  1.00  0.00     0.041 C 
HETATM   12  C12 UNL     1      28.975  54.229  -5.196  1.00  0.00     0.063 C 
HETATM   13  C13 UNL     1      28.048  54.206  -6.427  1.00  0.00     0.046 C 
HETATM   14  O3  UNL     1      28.234  53.631  -4.202  1.00  0.00    -0.372 OA
ENDROOT
BRANCH   2  15
HETATM   15  N1  UNL     1      29.634  51.359  -6.195  1.00  0.00    -0.074 N 
ATOM     16  H13 UNL     1      28.659  51.184  -5.952  1.00  0.00     0.274 HD
ATOM     17  H12 UNL     1      29.466  51.903  -7.042  1.00  0.00     0.274 HD
ATOM     18  H11 UNL     1      30.158  50.503  -6.372  1.00  0.00     0.274 HD
ENDBRANCH   2  15
BRANCH   1  19
HETATM   19  C2  UNL     1      31.487  54.363  -5.073  1.00  0.00     0.005 C 
HETATM   20  C1  UNL     1      32.584  54.162  -6.120  1.00  0.00     0.005 C 
ENDBRANCH   1  19
TORSDOF 2
ENDMDL
MODEL 2
REMARK VINA RESULT: -4.000892111      1.354      1.638
REMARK  2 active torsions:
REMARK  status: ('A' for Active; 'I' for Inactive)
REMARK    1  A    between atoms: C2_2  and  C3_3 
REMARK    2  A    between atoms: C4_4  and  N1_5 
ROOT
HETATM    1  C3  UNL     1      29.592  54.463  -5.224  1.00  0.00     0.050 C 
HETATM    2  C4  UNL     1      29.335  53.130  -5.771  1.00  0.00     0.199 C 
HETATM    3  C5  UNL     1      29.132  51.956  -4.919  1.00  0.00     0.144 C 
HETATM    4  C6  UNL     1      30.086  51.781  -3.791  1.00  0.00     0.261 C 
HETATM    5  O1  UNL     1      31.223  51.294  -4.144  1.00  0.00    -0.265 OA
HETATM    6  O2  UNL     1      29.857  52.078  -2.504  1.00  0.00    -0.314 OA
HETATM    7  C7  UNL     1      29.641  53.215  -1.768  1.00  0.00     0.157 C 
HETATM    8  C8  UNL     1      29.482  52.762  -0.303  1.00  0.00     0.042 C 
HETATM    9  C9  UNL     1      28.407  54.005  -2.076  1.00  0.00     0.152 C 
HETATM   10  C10 UNL     1      28.588  55.487  -1.850  1.00  0.00     0.037 C 
HETATM   11  C11 UNL     1      29.384  55.836  -3.117  1.00  0.00     0.041 C 
HETATM   12  C12 UNL     1      28.710  54.917  -4.111  1.00  0.00     0.063 C 
HETATM   13  C13 UNL     1      27.524  55.732  -4.664  1.00  0.00     0.046 C 
HETATM   14  O3  UNL     1      28.119  53.897  -3.400  1.00  0.00    -0.372 OA
ENDROOT
BRANCH   2  15
HETATM   15  N1  UNL     1      28.164  53.228  -6.663  1.00  0.00    -0.074 N 
ATOM     16  H13 UNL     1      28.244  52.633  -7.488  1.00  0.00     0.274 HD
ATOM     17  H12 UNL     1      27.328  52.797  -6.267  1.00  0.00     0.274 HD
ATOM     18  H11 UNL     1      28.030  54.211  -6.895  1.00  0.00     0.274 HD
ENDBRANCH   2  15
BRANCH   1  19
HETATM   19  C2  UNL     1      31.078  54.744  -4.952  1.00  0.00     0.005 C 
HETATM   20  C1  UNL     1      31.895  54.101  -6.074  1.00  0.00     0.005 C 
ENDBRANCH   1  19
TORSDOF 2
ENDMDL
MODEL 3
REMARK VINA RESULT: -2.314086518      1.567      3.573
REMARK  2 active torsions:
REMARK  status: ('A' for Active; 'I' for Inactive)
REMARK    1  A    between atoms: C2_2  and  C3_3 
REMARK    2  A    between atoms: C4_4  and  N1_5 
ROOT
HETATM    1  C3  UNL     1      29.934  52.824  -4.976  1.00  0.00     0.050 C 
HETATM    2  C4  UNL     1      30.251  54.166  -5.465  1.00  0.00     0.199 C 
HETATM    3  C5  UNL     1      29.854  55.379  -4.745  1.00  0.00     0.144 C 
HETATM    4  C6  UNL     1      28.455  55.424  -4.241  1.00  0.00     0.261 C 
HETATM    5  O1  UNL     1      27.586  55.708  -5.145  1.00  0.00    -0.265 OA
HETATM    6  O2  UNL     1      28.059  55.202  -2.980  1.00  0.00    -0.314 OA
HETATM    7  C7  UNL     1      28.031  54.135  -2.118  1.00  0.00     0.157 C 
HETATM    8  C8  UNL     1      27.390  54.645  -0.813  1.00  0.00     0.042 C 
HETATM    9  C9  UNL     1      29.349  53.550  -1.711  1.00  0.00     0.152 C 
HETATM   10  C10 UNL     1      29.275  52.065  -1.450  1.00  0.00     0.037 C 
HETATM   11  C11 UNL     1      29.257  51.557  -2.900  1.00  0.00     0.041 C 
HETATM   12  C12 UNL     1      30.206  52.548  -3.535  1.00  0.00     0.063 C 
HETATM   13  C13 UNL     1      31.606  51.926  -3.363  1.00  0.00     0.046 C 
HETATM   14  O3  UNL     1      30.233  53.669  -2.737  1.00  0.00    -0.372 OA
ENDROOT
BRANCH   2  15
HETATM   15  N1  UNL     1      31.710  54.239  -5.668  1.00  0.00    -0.074 N 
ATOM     16  H13 UNL     1      32.002  53.883  -6.578  1.00  0.00     0.274 HD
ATOM     17  H12 UNL     1      32.046  55.195  -5.783  1.00  0.00     0.274 HD
ATOM     18  H11 UNL     1      32.158  53.753  -4.891  1.00  0.00     0.274 HD
ENDBRANCH   2  15
BRANCH   1  19
HETATM   19  C2  UNL     1      28.558  52.309  -5.425  1.00  0.00     0.005 C 
HETATM   20  C1  UNL     1      28.290  52.842  -6.833  1.00  0.00     0.005 C 
ENDBRANCH   1  19
TORSDOF 2
ENDMDL
MODEL 4
REMARK VINA RESULT: -2.086316395      1.202      1.334
REMARK  2 active torsions:
REMARK  status: ('A' for Active; 'I' for Inactive)
REMARK    1  A    between atoms: C2_2  and  C3_3 
REMARK    2  A    between atoms: C4_4  and  N1_5 
ROOT
HETATM    1  C3  UNL     1      30.599  52.966  -4.988  1.00  0.00     0.050 C 
HETATM    2  C4  UNL     1      30.431  51.846  -4.062  1.00  0.00     0.199 C 
HETATM    3  C5  UNL     1      29.486  51.886  -2.943  1.00  0.00     0.144 C 
HETATM    4  C6  UNL     1      29.482  53.126  -2.123  1.00  0.00     0.261 C 
HETATM    5  O1  UNL     1      30.446  53.192  -1.275  1.00  0.00    -0.265 OA
HETATM    6  O2  UNL     1      28.590  54.125  -2.199  1.00  0.00    -0.314 OA
HETATM    7  C7  UNL     1      28.239  55.077  -3.122  1.00  0.00     0.157 C 
HETATM    8  C8  UNL     1      27.121  55.918  -2.477  1.00  0.00     0.042 C 
HETATM    9  C9  UNL     1      27.674  54.593  -4.422  1.00  0.00     0.152 C 
HETATM   10  C10 UNL     1      28.015  55.498  -5.582  1.00  0.00     0.037 C 
HETATM   11  C11 UNL     1      29.471  55.069  -5.813  1.00  0.00     0.041 C 
HETATM   12  C12 UNL     1      29.356  53.588  -5.529  1.00  0.00     0.063 C 
HETATM   13  C13 UNL     1      28.982  52.951  -6.882  1.00  0.00     0.046 C 
HETATM   14  O3  UNL     1      28.240  53.400  -4.746  1.00  0.00    -0.372 OA
ENDROOT
BRANCH   2  15
HETATM   15  N1  UNL     1      30.110  50.647  -4.859  1.00  0.00    -0.074 N 
ATOM     16  H13 UNL     1      29.111  50.549  -5.044  1.00  0.00     0.274 HD
ATOM     17  H12 UNL     1      30.419  50.722  -5.829  1.00  0.00     0.274 HD
ATOM     18  H11 UNL     1      30.505  49.839  -4.379  1.00  0.00     0.274 HD
ENDBRANCH   2  15
BRANCH   1  19
HETATM   19  C2  UNL     1      31.624  54.010  -4.518  1.00  0.00     0.005 C 
HETATM   20  C1  UNL     1      32.672  54.175  -5.621  1.00  0.00     0.005 C 
ENDBRANCH   1  19
TORSDOF 2
ENDMDL
MODEL 5
REMARK VINA RESULT: -1.386652751      3.106      4.834
REMARK  2 active torsions:
REMARK  status: ('A' for Active; 'I' for Inactive)
REMARK    1  A    between atoms: C2_2  and  C3_3 
REMARK    2  A    between atoms: C4_4  and  N1_5 
ROOT
HETATM    1  C3  UNL     1      28.105  55.879  -1.229  1.00  0.00     0.050 C 
HETATM    2  C4  UNL     1      27.417  55.046  -2.216  1.00  0.00     0.199 C 
HETATM    3  C5  UNL     1      27.478  53.583  -2.189  1.00  0.00     0.144 C 
HETATM    4  C6  UNL     1      28.819  52.978  -1.976  1.00  0.00     0.261 C 
HETATM    5  O1  UNL     1      29.555  52.960  -3.030  1.00  0.00    -0.265 OA
HETATM    6  O2  UNL     1      29.289  52.475  -0.825  1.00  0.00    -0.314 OA
HETATM    7  C7  UNL     1      29.631  52.965   0.410  1.00  0.00     0.157 C 
HETATM    8  C8  UNL     1      30.134  51.763   1.233  1.00  0.00     0.042 C 
HETATM    9  C9  UNL     1      28.537  53.578   1.229  1.00  0.00     0.152 C 
HETATM   10  C10 UNL     1      29.026  54.697   2.117  1.00  0.00     0.037 C 
HETATM   11  C11 UNL     1      29.152  55.811   1.066  1.00  0.00     0.041 C 
HETATM   12  C12 UNL     1      27.951  55.494   0.203  1.00  0.00     0.063 C 
HETATM   13  C13 UNL     1      26.784  56.269   0.846  1.00  0.00     0.046 C 
HETATM   14  O3  UNL     1      27.632  54.170   0.405  1.00  0.00    -0.372 OA
ENDROOT
BRANCH   2  15
HETATM   15  N1  UNL     1      25.991  55.422  -2.209  1.00  0.00    -0.074 N 
ATOM     16  H13 UNL     1      25.814  56.295  -1.711  1.00  0.00     0.274 HD
ATOM     17  H12 UNL     1      25.655  55.720  -3.125  1.00  0.00     0.274 HD
ATOM     18  H11 UNL     1      25.463  54.637  -1.830  1.00  0.00     0.274 HD
ENDBRANCH   2  15
BRANCH   1  19
HETATM   19  C2  UNL     1      29.559  56.206  -1.600  1.00  0.00     0.005 C 
HETATM   20  C1  UNL     1      29.657  56.266  -3.126  1.00  0.00     0.005 C 
ENDBRANCH   1  19
TORSDOF 2
ENDMDL
