MODEL 1
REMARK VINA RESULT: -5.548489097      0.000      0.000
REMARK  3 active torsions:
REMARK  status: ('A' for Active; 'I' for Inactive)
REMARK    1  A    between atoms: C5_5  and  O1_6 
REMARK    2  A    between atoms: O1_6  and  C6_7 
REMARK    3  A    between atoms: C12_15  and  O4_16 
ROOT
HETATM    1  C1  UNL     1      29.295  51.696  -6.282  1.00  0.00     0.015 C 
HETATM    2  C2  UNL     1      29.456  53.094  -5.872  1.00  0.00    -0.039 C 
HETATM    3  C3  UNL     1      30.887  53.544  -5.648  1.00  0.00     0.012 C 
HETATM    4  C4  UNL     1      30.659  54.892  -4.996  1.00  0.00     0.041 C 
HETATM    5  C5  UNL     1      29.196  54.893  -4.527  1.00  0.00     0.090 C 
HETATM    6  C11 UNL     1      28.901  53.397  -4.467  1.00  0.00     0.050 C 
HETATM    7  C12 UNL     1      28.394  55.280  -5.732  1.00  0.00     0.153 C 
HETATM    8  C13 UNL     1      28.735  54.120  -6.686  1.00  0.00     0.044 C 
ENDROOT
BRANCH   5   9
HETATM    9  O1  UNL     1      29.100  55.573  -3.405  1.00  0.00    -0.345 OA
BRANCH   9  10
HETATM   10  C6  UNL     1      28.430  55.132  -2.324  1.00  0.00     0.288 C 
HETATM   11  C7  UNL     1      27.300  56.143  -2.055  1.00  0.00     0.232 C 
HETATM   12  O2  UNL     1      27.329  56.404  -0.706  1.00  0.00    -0.351 OA
HETATM   13  C8  UNL     1      28.079  55.327  -0.206  1.00  0.00     0.160 C 
HETATM   14  C9  UNL     1      27.190  54.125  -0.215  1.00  0.00     0.078 C 
HETATM   15  C10 UNL     1      28.603  55.650   1.194  1.00  0.00     0.078 C 
HETATM   16  O3  UNL     1      29.129  55.245  -1.120  1.00  0.00    -0.324 OA
ENDBRANCH   9  10
ENDBRANCH   5   9
BRANCH   7  17
HETATM   17  O4  UNL     1      27.021  55.215  -5.569  1.00  0.00    -0.393 OA
ATOM     18  H4  UNL     1      26.552  54.787  -6.275  1.00  0.00     0.210 HD
ENDBRANCH   7  17
TORSDOF 3
ENDMDL
MODEL 2
REMARK VINA RESULT: -5.498976693      1.417      5.514
REMARK  3 active torsions:
REMARK  status: ('A' for Active; 'I' for Inactive)
REMARK    1  A    between atoms: C5_5  and  O1_6 
REMARK    2  A    between atoms: O1_6  and  C6_7 
REMARK    3  A    between atoms: C12_15  and  O4_16 
ROOT
HETATM    1  C1  UNL     1      28.553  55.066   1.552  1.00  0.00     0.015 C 
HETATM    2  C2  UNL     1      28.433  54.592   0.169  1.00  0.00    -0.039 C 
HETATM    3  C3  UNL     1      29.172  53.306  -0.142  1.00  0.00     0.012 C 
HETATM    4  C4  UNL     1      29.059  53.274  -1.653  1.00  0.00     0.041 C 
HETATM    5  C5  UNL     1      28.673  54.700  -2.077  1.00  0.00     0.090 C 
HETATM    6  C11 UNL     1      29.124  55.505  -0.861  1.00  0.00     0.050 C 
HETATM    7  C12 UNL     1      27.185  54.773  -1.913  1.00  0.00     0.153 C 
HETATM    8  C13 UNL     1      27.052  54.522  -0.399  1.00  0.00     0.044 C 
ENDROOT
BRANCH   5   9
HETATM    9  O1  UNL     1      29.240  54.978  -3.230  1.00  0.00    -0.345 OA
BRANCH   9  10
HETATM   10  C6  UNL     1      29.223  54.144  -4.287  1.00  0.00     0.288 C 
HETATM   11  C7  UNL     1      30.601  54.253  -4.966  1.00  0.00     0.232 C 
HETATM   12  O2  UNL     1      30.359  54.378  -6.313  1.00  0.00    -0.351 OA
HETATM   13  C8  UNL     1      29.031  53.931  -6.424  1.00  0.00     0.160 C 
HETATM   14  C9  UNL     1      29.053  52.441  -6.305  1.00  0.00     0.078 C 
HETATM   15  C10 UNL     1      28.423  54.399  -7.747  1.00  0.00     0.078 C 
HETATM   16  O3  UNL     1      28.413  54.563  -5.346  1.00  0.00    -0.324 OA
ENDBRANCH   9  10
ENDBRANCH   5   9
BRANCH   7  17
HETATM   17  O4  UNL     1      26.634  56.025  -2.117  1.00  0.00    -0.393 OA
ATOM     18  H4  UNL     1      25.761  56.144  -1.761  1.00  0.00     0.210 HD
ENDBRANCH   7  17
TORSDOF 3
ENDMDL
MODEL 3
REMARK VINA RESULT: -5.075564507      3.171      4.790
REMARK  3 active torsions:
REMARK  status: ('A' for Active; 'I' for Inactive)
REMARK    1  A    between atoms: C5_5  and  O1_6 
REMARK    2  A    between atoms: O1_6  and  C6_7 
REMARK    3  A    between atoms: C12_15  and  O4_16 
ROOT
HETATM    1  C1  UNL     1      29.314  53.614  -1.915  1.00  0.00     0.015 C 
HETATM    2  C2  UNL     1      28.440  54.683  -2.409  1.00  0.00    -0.039 C 
HETATM    3  C3  UNL     1      28.336  54.789  -3.918  1.00  0.00     0.012 C 
HETATM    4  C4  UNL     1      27.609  56.111  -4.057  1.00  0.00     0.041 C 
HETATM    5  C5  UNL     1      27.752  56.817  -2.699  1.00  0.00     0.090 C 
HETATM    6  C11 UNL     1      28.968  56.100  -2.117  1.00  0.00     0.050 C 
HETATM    7  C12 UNL     1      26.665  56.248  -1.840  1.00  0.00     0.153 C 
HETATM    8  C13 UNL     1      27.073  54.763  -1.809  1.00  0.00     0.044 C 
ENDROOT
BRANCH   5   9
HETATM    9  O1  UNL     1      27.851  58.114  -2.893  1.00  0.00    -0.345 OA
BRANCH   9  10
HETATM   10  C6  UNL     1      26.802  58.956  -2.840  1.00  0.00     0.288 C 
HETATM   11  C7  UNL     1      27.236  60.257  -3.540  1.00  0.00     0.232 C 
HETATM   12  O2  UNL     1      26.842  61.287  -2.720  1.00  0.00    -0.351 OA
HETATM   13  C8  UNL     1      25.896  60.665  -1.888  1.00  0.00     0.160 C 
HETATM   14  C9  UNL     1      24.648  60.486  -2.691  1.00  0.00     0.078 C 
HETATM   15  C10 UNL     1      25.662  61.505  -0.631  1.00  0.00     0.078 C 
HETATM   16  O3  UNL     1      26.526  59.462  -1.568  1.00  0.00    -0.324 OA
ENDBRANCH   9  10
ENDBRANCH   5   9
BRANCH   7  17
HETATM   17  O4  UNL     1      26.691  56.652  -0.517  1.00  0.00    -0.393 OA
ATOM     18  H4  UNL     1      25.864  56.973  -0.177  1.00  0.00     0.210 HD
ENDBRANCH   7  17
TORSDOF 3
ENDMDL
MODEL 4
REMARK VINA RESULT: -5.073140219      1.349      5.336
REMARK  3 active torsions:
REMARK  status: ('A' for Active; 'I' for Inactive)
REMARK    1  A    between atoms: C5_5  and  O1_6 
REMARK    2  A    between atoms: O1_6  and  C6_7 
REMARK    3  A    between atoms: C12_15  and  O4_16 
ROOT
HETATM    1  C1  UNL     1      29.130  55.735   0.576  1.00  0.00     0.015 C 
HETATM    2  C2  UNL     1      28.237  55.585  -0.577  1.00  0.00    -0.039 C 
HETATM    3  C3  UNL     1      27.730  54.178  -0.826  1.00  0.00     0.012 C 
HETATM    4  C4  UNL     1      27.095  54.345  -2.192  1.00  0.00     0.041 C 
HETATM    5  C5  UNL     1      27.660  55.655  -2.763  1.00  0.00     0.090 C 
HETATM    6  C11 UNL     1      28.931  55.819  -1.933  1.00  0.00     0.050 C 
HETATM    7  C12 UNL     1      26.811  56.741  -2.176  1.00  0.00     0.153 C 
HETATM    8  C13 UNL     1      27.098  56.548  -0.674  1.00  0.00     0.044 C 
ENDROOT
BRANCH   5   9
HETATM    9  O1  UNL     1      27.800  55.536  -4.064  1.00  0.00    -0.345 OA
BRANCH   9  10
HETATM   10  C6  UNL     1      28.903  55.031  -4.650  1.00  0.00     0.288 C 
HETATM   11  C7  UNL     1      28.657  55.064  -6.170  1.00  0.00     0.232 C 
HETATM   12  O2  UNL     1      29.041  53.834  -6.650  1.00  0.00    -0.351 OA
HETATM   13  C8  UNL     1      29.835  53.336  -5.603  1.00  0.00     0.160 C 
HETATM   14  C9  UNL     1      31.145  54.054  -5.660  1.00  0.00     0.078 C 
HETATM   15  C10 UNL     1      29.996  51.821  -5.735  1.00  0.00     0.078 C 
HETATM   16  O3  UNL     1      29.077  53.656  -4.477  1.00  0.00    -0.324 OA
ENDBRANCH   9  10
ENDBRANCH   5   9
BRANCH   7  17
HETATM   17  O4  UNL     1      27.231  58.029  -2.456  1.00  0.00    -0.393 OA
ATOM     18  H4  UNL     1      27.220  58.626  -1.717  1.00  0.00     0.210 HD
ENDBRANCH   7  17
TORSDOF 3
ENDMDL
MODEL 5
REMARK VINA RESULT: -4.916583609      1.573      5.588
REMARK  3 active torsions:
REMARK  status: ('A' for Active; 'I' for Inactive)
REMARK    1  A    between atoms: C5_5  and  O1_6 
REMARK    2  A    between atoms: O1_6  and  C6_7 
REMARK    3  A    between atoms: C12_15  and  O4_16 
ROOT
HETATM    1  C1  UNL     1      27.188  54.378   1.376  1.00  0.00     0.015 C 
HETATM    2  C2  UNL     1      27.990  54.579   0.165  1.00  0.00    -0.039 C 
HETATM    3  C3  UNL     1      28.388  56.014  -0.119  1.00  0.00     0.012 C 
HETATM    4  C4  UNL     1      28.939  55.879  -1.524  1.00  0.00     0.041 C 
HETATM    5  C5  UNL     1      28.423  54.532  -2.054  1.00  0.00     0.090 C 
HETATM    6  C11 UNL     1      27.224  54.292  -1.140  1.00  0.00     0.050 C 
HETATM    7  C12 UNL     1      29.378  53.506  -1.523  1.00  0.00     0.153 C 
HETATM    8  C13 UNL     1      29.180  53.690  -0.006  1.00  0.00     0.044 C 
ENDROOT
BRANCH   5   9
HETATM    9  O1  UNL     1      28.189  54.634  -3.343  1.00  0.00    -0.345 OA
BRANCH   9  10
HETATM   10  C6  UNL     1      29.131  54.446  -4.287  1.00  0.00     0.288 C 
HETATM   11  C7  UNL     1      28.470  54.746  -5.645  1.00  0.00     0.232 C 
HETATM   12  O2  UNL     1      28.830  53.719  -6.485  1.00  0.00    -0.351 OA
HETATM   13  C8  UNL     1      29.930  53.155  -5.818  1.00  0.00     0.160 C 
HETATM   14  C9  UNL     1      31.092  54.073  -6.024  1.00  0.00     0.078 C 
HETATM   15  C10 UNL     1      30.203  51.745  -6.345  1.00  0.00     0.078 C 
HETATM   16  O3  UNL     1      29.487  53.111  -4.496  1.00  0.00    -0.324 OA
ENDBRANCH   9  10
ENDBRANCH   5   9
BRANCH   7  17
HETATM   17  O4  UNL     1      29.024  52.192  -1.772  1.00  0.00    -0.393 OA
ATOM     18  H4  UNL     1      28.400  52.070  -2.478  1.00  0.00     0.210 HD
ENDBRANCH   7  17
TORSDOF 3
ENDMDL
