MODEL 1
REMARK VINA RESULT: -7.754821697      0.000      0.000
REMARK  6 active torsions:
REMARK  status: ('A' for Active; 'I' for Inactive)
REMARK    1  A    between atoms: C2_2  and  C3_3 
REMARK    2  A    between atoms: C5_5  and  N1_6 
REMARK    3  A    between atoms: C5_5  and  C31_46 
REMARK       I    between atoms: N1_6  and  C6_8 
REMARK    4  A    between atoms: C6_8  and  C7_10 
REMARK       I    between atoms: N3_37  and  C27_38 
REMARK    5  A    between atoms: C27_38  and  C28_40 
REMARK       I    between atoms: C31_46  and  N5_48 
REMARK    6  A    between atoms: N5_48  and  C32_50 
ROOT
HETATM    1  C7  UNL     1      72.937  55.750  67.181  1.00  0.00     0.224 C 
HETATM    2  C8  UNL     1      73.447  56.714  66.199  1.00  0.00     0.178 C 
HETATM    3  S1  UNL     1      73.769  58.357  66.814  1.00  0.00     0.155 S 
HETATM    4  O2  UNL     1      72.892  58.701  67.966  1.00  0.00    -0.227 OA
HETATM    5  O3  UNL     1      75.227  58.354  67.277  1.00  0.00    -0.227 OA
HETATM    6  C9  UNL     1      73.729  59.575  65.512  1.00  0.00     0.064 C 
HETATM    7  C10 UNL     1      73.866  58.906  64.148  1.00  0.00     0.025 C 
HETATM    8  C11 UNL     1      74.823  59.607  63.236  1.00  0.00     0.002 C 
HETATM    9  C12 UNL     1      74.746  61.104  63.274  1.00  0.00     0.000 C 
HETATM   10  C13 UNL     1      74.893  61.632  64.662  1.00  0.00     0.002 C 
HETATM   11  C14 UNL     1      74.922  60.516  65.638  1.00  0.00     0.025 C 
HETATM   12  C15 UNL     1      72.498  60.412  65.490  1.00  0.00     0.034 C 
HETATM   13  C16 UNL     1      71.290  59.773  66.062  1.00  0.00     0.104 C 
HETATM   14  C17 UNL     1      70.012  60.103  65.376  1.00  0.00     0.217 C 
HETATM   15  O4  UNL     1      69.988  60.853  64.374  1.00  0.00    -0.274 OA
HETATM   16  N2  UNL     1      68.837  59.509  65.937  1.00  0.00    -0.361 N 
ATOM     17  H2  UNL     1      67.995  59.462  65.363  1.00  0.00     0.162 HD
HETATM   18  C18 UNL     1      68.786  58.982  67.261  1.00  0.00     0.123 C 
HETATM   19  C19 UNL     1      68.071  57.655  67.392  1.00  0.00     0.024 C 
HETATM   20  C20 UNL     1      68.989  56.577  66.864  1.00  0.00     0.043 C 
HETATM   21  C21 UNL     1      68.800  55.294  67.619  1.00  0.00    -0.022 A 
HETATM   22  C22 UNL     1      67.544  55.142  68.147  1.00  0.00     0.010 A 
HETATM   23  C23 UNL     1      67.174  54.031  68.891  1.00  0.00     0.001 A 
HETATM   24  C24 UNL     1      68.114  53.051  69.104  1.00  0.00     0.003 A 
HETATM   25  C25 UNL     1      69.354  53.215  68.575  1.00  0.00     0.040 A 
HETATM   26  C26 UNL     1      69.767  54.338  67.806  1.00  0.00     0.105 A 
HETATM   27  O5  UNL     1      71.015  54.365  67.345  1.00  0.00    -0.232 OA
HETATM   28  N3  UNL     1      72.017  54.757  66.627  1.00  0.00    -0.205 N 
HETATM   29  C27 UNL     1      72.423  54.294  65.313  1.00  0.00     0.252 C 
HETATM   30  O6  UNL     1      73.453  54.672  64.717  1.00  0.00    -0.271 OA
ENDROOT
BRANCH   1  31
HETATM   31  C6  UNL     1      73.984  55.084  68.025  1.00  0.00     0.245 C 
HETATM   32  N1  UNL     1      73.752  54.481  69.259  1.00  0.00    -0.341 N 
ATOM     33  H1  UNL     1      72.789  54.515  69.593  1.00  0.00     0.163 HD
HETATM   34  O1  UNL     1      75.127  55.088  67.559  1.00  0.00    -0.271 OA
BRANCH  32  35
HETATM   35  C5  UNL     1      74.674  53.828  70.112  1.00  0.00     0.121 A 
HETATM   36  C3  UNL     1      74.386  52.464  70.639  1.00  0.00     0.048 A 
HETATM   37  C4  UNL     1      75.502  52.686  69.618  1.00  0.00     0.053 A 
BRANCH  36  38
HETATM   38  C2  UNL     1      74.869  52.067  71.976  1.00  0.00    -0.029 C 
HETATM   39  C1  UNL     1      74.117  51.386  72.829  1.00  0.00     0.007 C 
ENDBRANCH  36  38
BRANCH  35  40
HETATM   40  C31 UNL     1      75.421  54.720  71.082  1.00  0.00     0.246 C 
HETATM   41  O7  UNL     1      76.358  55.415  70.581  1.00  0.00    -0.271 OA
HETATM   42  N5  UNL     1      75.129  54.807  72.456  1.00  0.00    -0.359 N 
ATOM     43  H5  UNL     1      74.376  54.252  72.862  1.00  0.00     0.162 HD
BRANCH  42  44
HETATM   44  C32 UNL     1      75.928  55.709  73.296  1.00  0.00     0.118 C 
HETATM   45  C33 UNL     1      77.086  54.946  73.877  1.00  0.00     0.026 C 
ENDBRANCH  42  44
ENDBRANCH  35  40
ENDBRANCH  32  35
ENDBRANCH   1  31
BRANCH  29  46
HETATM   46  C28 UNL     1      71.618  53.291  64.537  1.00  0.00     0.131 C 
HETATM   47  C29 UNL     1      72.045  53.077  63.135  1.00  0.00     0.248 C 
HETATM   48  N4  UNL     1      70.677  53.229  62.656  1.00  0.00    -0.073 N 
HETATM   49  C30 UNL     1      70.351  53.817  63.930  1.00  0.00     0.248 C 
ATOM     50  H42 UNL     1      70.480  53.723  61.785  1.00  0.00     0.277 HD
ATOM     51  H41 UNL     1      70.155  52.429  62.298  1.00  0.00     0.277 HD
ENDBRANCH  29  46
TORSDOF 6
ENDMDL
MODEL 2
REMARK VINA RESULT: -7.720861244      2.742      6.413
REMARK  6 active torsions:
REMARK  status: ('A' for Active; 'I' for Inactive)
REMARK    1  A    between atoms: C2_2  and  C3_3 
REMARK    2  A    between atoms: C5_5  and  N1_6 
REMARK    3  A    between atoms: C5_5  and  C31_46 
REMARK       I    between atoms: N1_6  and  C6_8 
REMARK    4  A    between atoms: C6_8  and  C7_10 
REMARK       I    between atoms: N3_37  and  C27_38 
REMARK    5  A    between atoms: C27_38  and  C28_40 
REMARK       I    between atoms: C31_46  and  N5_48 
REMARK    6  A    between atoms: N5_48  and  C32_50 
ROOT
HETATM    1  C7  UNL     1      73.703  56.553  65.002  1.00  0.00     0.224 C 
HETATM    2  C8  UNL     1      72.843  55.737  64.137  1.00  0.00     0.178 C 
HETATM    3  S1  UNL     1      73.627  55.035  62.697  1.00  0.00     0.155 S 
HETATM    4  O2  UNL     1      74.764  55.869  62.221  1.00  0.00    -0.227 OA
HETATM    5  O3  UNL     1      74.156  53.667  63.133  1.00  0.00    -0.227 OA
HETATM    6  C9  UNL     1      72.447  54.657  61.415  1.00  0.00     0.064 C 
HETATM    7  C10 UNL     1      71.034  54.606  61.985  1.00  0.00     0.025 C 
HETATM    8  C11 UNL     1      70.239  53.435  61.500  1.00  0.00     0.002 C 
HETATM    9  C12 UNL     1      70.416  53.113  60.046  1.00  0.00     0.000 C 
HETATM   10  C13 UNL     1      71.854  52.931  59.690  1.00  0.00     0.002 C 
HETATM   11  C14 UNL     1      72.719  53.269  60.846  1.00  0.00     0.025 C 
HETATM   12  C15 UNL     1      72.447  55.616  60.277  1.00  0.00     0.034 C 
HETATM   13  C16 UNL     1      72.898  56.988  60.608  1.00  0.00     0.104 C 
HETATM   14  C17 UNL     1      72.186  58.080  59.891  1.00  0.00     0.217 C 
HETATM   15  O4  UNL     1      71.260  57.833  59.085  1.00  0.00    -0.274 OA
HETATM   16  N2  UNL     1      72.632  59.408  60.186  1.00  0.00    -0.361 N 
ATOM     17  H2  UNL     1      72.017  60.189  59.958  1.00  0.00     0.162 HD
HETATM   18  C18 UNL     1      73.896  59.692  60.783  1.00  0.00     0.123 C 
HETATM   19  C19 UNL     1      73.865  60.741  61.872  1.00  0.00     0.024 C 
HETATM   20  C20 UNL     1      73.280  60.107  63.114  1.00  0.00     0.043 C 
HETATM   21  C21 UNL     1      73.900  60.684  64.353  1.00  0.00    -0.022 A 
HETATM   22  C22 UNL     1      74.350  61.969  64.201  1.00  0.00     0.010 A 
HETATM   23  C23 UNL     1      74.966  62.673  65.225  1.00  0.00     0.001 A 
HETATM   24  C24 UNL     1      75.128  62.045  66.437  1.00  0.00     0.003 A 
HETATM   25  C25 UNL     1      74.677  60.771  66.573  1.00  0.00     0.040 A 
HETATM   26  C26 UNL     1      74.040  60.021  65.547  1.00  0.00     0.105 A 
HETATM   27  O5  UNL     1      73.642  58.781  65.823  1.00  0.00    -0.232 OA
HETATM   28  N3  UNL     1      73.014  57.662  65.661  1.00  0.00    -0.205 N 
HETATM   29  C27 UNL     1      71.682  57.301  66.112  1.00  0.00     0.252 C 
HETATM   30  O6  UNL     1      71.175  56.168  65.981  1.00  0.00    -0.271 OA
ENDROOT
BRANCH   1  31
HETATM   31  C6  UNL     1      74.528  55.784  65.992  1.00  0.00     0.245 C 
HETATM   32  N1  UNL     1      74.098  54.656  66.686  1.00  0.00    -0.341 N 
ATOM     33  H1  UNL     1      73.143  54.355  66.492  1.00  0.00     0.163 HD
HETATM   34  O1  UNL     1      75.670  56.213  66.181  1.00  0.00    -0.271 OA
BRANCH  32  35
HETATM   35  C5  UNL     1      74.809  53.871  67.626  1.00  0.00     0.121 A 
HETATM   36  C3  UNL     1      74.766  52.383  67.562  1.00  0.00     0.048 A 
HETATM   37  C4  UNL     1      76.052  53.141  67.234  1.00  0.00     0.053 A 
BRANCH  36  38
HETATM   38  C2  UNL     1      74.840  51.583  68.799  1.00  0.00    -0.029 C 
HETATM   39  C1  UNL     1      74.211  50.424  68.935  1.00  0.00     0.007 C 
ENDBRANCH  36  38
BRANCH  35  40
HETATM   40  C31 UNL     1      74.873  54.426  69.034  1.00  0.00     0.246 C 
HETATM   41  O7  UNL     1      73.793  54.369  69.699  1.00  0.00    -0.271 OA
HETATM   42  N5  UNL     1      76.032  54.978  69.611  1.00  0.00    -0.359 N 
ATOM     43  H5  UNL     1      76.903  55.024  69.083  1.00  0.00     0.162 HD
BRANCH  42  44
HETATM   44  C32 UNL     1      75.968  55.486  70.988  1.00  0.00     0.118 C 
HETATM   45  C33 UNL     1      76.419  54.405  71.933  1.00  0.00     0.026 C 
ENDBRANCH  42  44
ENDBRANCH  35  40
ENDBRANCH  32  35
ENDBRANCH   1  31
BRANCH  29  46
HETATM   46  C28 UNL     1      70.777  58.286  66.794  1.00  0.00     0.131 C 
HETATM   47  C29 UNL     1      71.353  58.974  67.972  1.00  0.00     0.248 C 
HETATM   48  N4  UNL     1      70.173  58.675  68.772  1.00  0.00    -0.073 N 
HETATM   49  C30 UNL     1      69.811  57.696  67.779  1.00  0.00     0.248 C 
ATOM     50  H42 UNL     1      70.258  58.417  69.755  1.00  0.00     0.277 HD
ATOM     51  H41 UNL     1      69.522  59.413  69.041  1.00  0.00     0.277 HD
ENDBRANCH  29  46
TORSDOF 6
ENDMDL
MODEL 3
REMARK VINA RESULT: -7.676155626      2.648      6.188
REMARK  6 active torsions:
REMARK  status: ('A' for Active; 'I' for Inactive)
REMARK    1  A    between atoms: C2_2  and  C3_3 
REMARK    2  A    between atoms: C5_5  and  N1_6 
REMARK    3  A    between atoms: C5_5  and  C31_46 
REMARK       I    between atoms: N1_6  and  C6_8 
REMARK    4  A    between atoms: C6_8  and  C7_10 
REMARK       I    between atoms: N3_37  and  C27_38 
REMARK    5  A    between atoms: C27_38  and  C28_40 
REMARK       I    between atoms: C31_46  and  N5_48 
REMARK    6  A    between atoms: N5_48  and  C32_50 
ROOT
HETATM    1  C7  UNL     1      73.697  55.949  65.073  1.00  0.00     0.224 C 
HETATM    2  C8  UNL     1      72.825  55.308  64.082  1.00  0.00     0.178 C 
HETATM    3  S1  UNL     1      73.628  54.715  62.604  1.00  0.00     0.155 S 
HETATM    4  O2  UNL     1      74.848  55.503  62.280  1.00  0.00    -0.227 OA
HETATM    5  O3  UNL     1      74.030  53.268  62.897  1.00  0.00    -0.227 OA
HETATM    6  C9  UNL     1      72.492  54.582  61.236  1.00  0.00     0.064 C 
HETATM    7  C10 UNL     1      71.051  54.580  61.735  1.00  0.00     0.025 C 
HETATM    8  C11 UNL     1      70.197  53.540  61.081  1.00  0.00     0.002 C 
HETATM    9  C12 UNL     1      70.426  53.374  59.608  1.00  0.00     0.000 C 
HETATM   10  C13 UNL     1      71.862  53.118  59.295  1.00  0.00     0.002 C 
HETATM   11  C14 UNL     1      72.689  53.251  60.519  1.00  0.00     0.025 C 
HETATM   12  C15 UNL     1      72.624  55.662  60.220  1.00  0.00     0.034 C 
HETATM   13  C16 UNL     1      73.158  56.946  60.730  1.00  0.00     0.104 C 
HETATM   14  C17 UNL     1      72.569  58.167  60.117  1.00  0.00     0.217 C 
HETATM   15  O4  UNL     1      71.671  58.089  59.248  1.00  0.00    -0.274 OA
HETATM   16  N2  UNL     1      73.097  59.412  60.586  1.00  0.00    -0.361 N 
ATOM     17  H2  UNL     1      72.555  60.261  60.425  1.00  0.00     0.162 HD
HETATM   18  C18 UNL     1      74.346  59.523  61.267  1.00  0.00     0.123 C 
HETATM   19  C19 UNL     1      74.337  60.439  62.470  1.00  0.00     0.024 C 
HETATM   20  C20 UNL     1      73.641  59.717  63.601  1.00  0.00     0.043 C 
HETATM   21  C21 UNL     1      74.237  60.097  64.925  1.00  0.00    -0.022 A 
HETATM   22  C22 UNL     1      74.790  61.350  64.946  1.00  0.00     0.010 A 
HETATM   23  C23 UNL     1      75.403  61.881  66.071  1.00  0.00     0.001 A 
HETATM   24  C24 UNL     1      75.453  61.107  67.206  1.00  0.00     0.003 A 
HETATM   25  C25 UNL     1      74.901  59.867  67.172  1.00  0.00     0.040 A 
HETATM   26  C26 UNL     1      74.264  59.293  66.038  1.00  0.00     0.105 A 
HETATM   27  O5  UNL     1      73.761  58.066  66.148  1.00  0.00    -0.232 OA
HETATM   28  N3  UNL     1      73.059  57.027  65.828  1.00  0.00    -0.205 N 
HETATM   29  C27 UNL     1      71.682  56.725  66.175  1.00  0.00     0.252 C 
HETATM   30  O6  UNL     1      71.099  55.659  65.889  1.00  0.00    -0.271 OA
ENDROOT
BRANCH   1  31
HETATM   31  C6  UNL     1      74.409  55.007  66.000  1.00  0.00     0.245 C 
HETATM   32  N1  UNL     1      73.806  54.294  67.033  1.00  0.00    -0.341 N 
ATOM     33  H1  UNL     1      72.804  54.446  67.149  1.00  0.00     0.163 HD
HETATM   34  O1  UNL     1      75.621  54.880  65.803  1.00  0.00    -0.271 OA
BRANCH  32  35
HETATM   35  C5  UNL     1      74.398  53.386  67.944  1.00  0.00     0.121 A 
HETATM   36  C3  UNL     1      73.660  52.173  68.396  1.00  0.00     0.048 A 
HETATM   37  C4  UNL     1      74.884  52.048  67.489  1.00  0.00     0.053 A 
BRANCH  36  38
HETATM   38  C2  UNL     1      73.866  51.641  69.757  1.00  0.00    -0.029 C 
HETATM   39  C1  UNL     1      72.939  50.939  70.393  1.00  0.00     0.007 C 
ENDBRANCH  36  38
BRANCH  35  40
HETATM   40  C31 UNL     1      75.283  54.002  69.008  1.00  0.00     0.246 C 
HETATM   41  O7  UNL     1      76.402  53.431  69.193  1.00  0.00    -0.271 OA
HETATM   42  N5  UNL     1      74.930  55.135  69.766  1.00  0.00    -0.359 N 
ATOM     43  H5  UNL     1      74.034  55.598  69.619  1.00  0.00     0.162 HD
BRANCH  42  44
HETATM   44  C32 UNL     1      75.875  55.639  70.771  1.00  0.00     0.118 C 
HETATM   45  C33 UNL     1      75.497  55.090  72.120  1.00  0.00     0.026 C 
ENDBRANCH  42  44
ENDBRANCH  35  40
ENDBRANCH  32  35
ENDBRANCH   1  31
BRANCH  29  46
HETATM   46  C28 UNL     1      70.819  57.696  66.928  1.00  0.00     0.131 C 
HETATM   47  C29 UNL     1      69.390  57.325  67.040  1.00  0.00     0.248 C 
HETATM   48  N4  UNL     1      68.972  58.652  66.606  1.00  0.00    -0.073 N 
HETATM   49  C30 UNL     1      70.316  58.862  66.130  1.00  0.00     0.248 C 
ATOM     50  H42 UNL     1      68.172  58.772  65.984  1.00  0.00     0.277 HD
ATOM     51  H41 UNL     1      68.540  59.306  67.259  1.00  0.00     0.277 HD
ENDBRANCH  29  46
TORSDOF 6
ENDMDL
MODEL 4
REMARK VINA RESULT: -7.653284093      2.801      6.398
REMARK  6 active torsions:
REMARK  status: ('A' for Active; 'I' for Inactive)
REMARK    1  A    between atoms: C2_2  and  C3_3 
REMARK    2  A    between atoms: C5_5  and  N1_6 
REMARK    3  A    between atoms: C5_5  and  C31_46 
REMARK       I    between atoms: N1_6  and  C6_8 
REMARK    4  A    between atoms: C6_8  and  C7_10 
REMARK       I    between atoms: N3_37  and  C27_38 
REMARK    5  A    between atoms: C27_38  and  C28_40 
REMARK       I    between atoms: C31_46  and  N5_48 
REMARK    6  A    between atoms: N5_48  and  C32_50 
ROOT
HETATM    1  C7  UNL     1      72.547  57.101  65.054  1.00  0.00     0.224 C 
HETATM    2  C8  UNL     1      71.314  56.540  64.492  1.00  0.00     0.178 C 
HETATM    3  S1  UNL     1      71.414  55.971  62.805  1.00  0.00     0.155 S 
HETATM    4  O2  UNL     1      72.441  56.717  62.027  1.00  0.00    -0.227 OA
HETATM    5  O3  UNL     1      71.817  54.497  62.883  1.00  0.00    -0.227 OA
HETATM    6  C9  UNL     1      69.815  55.944  62.015  1.00  0.00     0.064 C 
HETATM    7  C10 UNL     1      68.703  55.986  63.056  1.00  0.00     0.025 C 
HETATM    8  C11 UNL     1      67.599  55.012  62.787  1.00  0.00     0.002 C 
HETATM    9  C12 UNL     1      67.202  54.895  61.346  1.00  0.00     0.000 C 
HETATM   10  C13 UNL     1      68.371  54.588  60.472  1.00  0.00     0.002 C 
HETATM   11  C14 UNL     1      69.629  54.635  61.256  1.00  0.00     0.025 C 
HETATM   12  C15 UNL     1      69.585  57.057  61.054  1.00  0.00     0.034 C 
HETATM   13  C16 UNL     1      70.353  58.294  61.326  1.00  0.00     0.104 C 
HETATM   14  C17 UNL     1      69.636  59.564  61.027  1.00  0.00     0.217 C 
HETATM   15  O4  UNL     1      68.460  59.560  60.598  1.00  0.00    -0.274 OA
HETATM   16  N2  UNL     1      70.379  60.764  61.264  1.00  0.00    -0.361 N 
ATOM     17  H2  UNL     1      69.867  61.642  61.353  1.00  0.00     0.162 HD
HETATM   18  C18 UNL     1      71.800  60.792  61.380  1.00  0.00     0.123 C 
HETATM   19  C19 UNL     1      72.331  61.659  62.499  1.00  0.00     0.024 C 
HETATM   20  C20 UNL     1      72.114  60.924  63.802  1.00  0.00     0.043 C 
HETATM   21  C21 UNL     1      73.216  61.224  64.776  1.00  0.00    -0.022 A 
HETATM   22  C22 UNL     1      73.800  62.450  64.593  1.00  0.00     0.010 A 
HETATM   23  C23 UNL     1      74.846  62.907  65.382  1.00  0.00     0.001 A 
HETATM   24  C24 UNL     1      75.308  62.088  66.384  1.00  0.00     0.003 A 
HETATM   25  C25 UNL     1      74.719  60.876  66.554  1.00  0.00     0.040 A 
HETATM   26  C26 UNL     1      73.646  60.376  65.767  1.00  0.00     0.105 A 
HETATM   27  O5  UNL     1      73.162  59.169  66.049  1.00  0.00    -0.232 OA
HETATM   28  N3  UNL     1      72.333  58.176  66.024  1.00  0.00    -0.205 N 
HETATM   29  C27 UNL     1      71.199  57.922  66.895  1.00  0.00     0.252 C 
HETATM   30  O6  UNL     1      70.491  56.895  66.851  1.00  0.00    -0.271 OA
ENDROOT
BRANCH   1  31
HETATM   31  C6  UNL     1      73.519  56.093  65.595  1.00  0.00     0.245 C 
HETATM   32  N1  UNL     1      73.253  55.201  66.631  1.00  0.00    -0.341 N 
ATOM     33  H1  UNL     1      72.321  55.264  67.040  1.00  0.00     0.163 HD
HETATM   34  O1  UNL     1      74.629  56.081  65.055  1.00  0.00    -0.271 OA
BRANCH  32  35
HETATM   35  C5  UNL     1      74.105  54.220  67.193  1.00  0.00     0.121 A 
HETATM   36  C3  UNL     1      73.585  52.863  67.523  1.00  0.00     0.048 A 
HETATM   37  C4  UNL     1      74.582  53.060  66.381  1.00  0.00     0.053 A 
BRANCH  36  38
HETATM   38  C2  UNL     1      74.132  52.116  68.673  1.00  0.00    -0.029 C 
HETATM   39  C1  UNL     1      73.400  51.814  69.736  1.00  0.00     0.007 C 
ENDBRANCH  36  38
BRANCH  35  40
HETATM   40  C31 UNL     1      75.152  54.731  68.161  1.00  0.00     0.246 C 
HETATM   41  O7  UNL     1      76.351  54.693  67.746  1.00  0.00    -0.271 OA
HETATM   42  N5  UNL     1      74.862  55.229  69.445  1.00  0.00    -0.359 N 
ATOM     43  H5  UNL     1      73.900  55.264  69.782  1.00  0.00     0.162 HD
BRANCH  42  44
HETATM   44  C32 UNL     1      75.967  55.696  70.292  1.00  0.00     0.118 C 
HETATM   45  C33 UNL     1      75.724  55.251  71.708  1.00  0.00     0.026 C 
ENDBRANCH  42  44
ENDBRANCH  35  40
ENDBRANCH  32  35
ENDBRANCH   1  31
BRANCH  29  46
HETATM   46  C28 UNL     1      70.772  58.899  67.952  1.00  0.00     0.131 C 
HETATM   47  C29 UNL     1      69.531  58.550  68.680  1.00  0.00     0.248 C 
HETATM   48  N4  UNL     1      68.989  59.886  68.475  1.00  0.00    -0.073 N 
HETATM   49  C30 UNL     1      69.990  60.080  67.457  1.00  0.00     0.248 C 
ATOM     50  H42 UNL     1      67.999  60.024  68.269  1.00  0.00     0.277 HD
ATOM     51  H41 UNL     1      68.899  60.541  69.252  1.00  0.00     0.277 HD
ENDBRANCH  29  46
TORSDOF 6
ENDMDL
MODEL 5
REMARK VINA RESULT: -7.617615414      2.923      6.980
REMARK  6 active torsions:
REMARK  status: ('A' for Active; 'I' for Inactive)
REMARK    1  A    between atoms: C2_2  and  C3_3 
REMARK    2  A    between atoms: C5_5  and  N1_6 
REMARK    3  A    between atoms: C5_5  and  C31_46 
REMARK       I    between atoms: N1_6  and  C6_8 
REMARK    4  A    between atoms: C6_8  and  C7_10 
REMARK       I    between atoms: N3_37  and  C27_38 
REMARK    5  A    between atoms: C27_38  and  C28_40 
REMARK       I    between atoms: C31_46  and  N5_48 
REMARK    6  A    between atoms: N5_48  and  C32_50 
ROOT
HETATM    1  C7  UNL     1      71.870  58.631  65.011  1.00  0.00     0.224 C 
HETATM    2  C8  UNL     1      71.081  59.279  66.065  1.00  0.00     0.178 C 
HETATM    3  S1  UNL     1      69.333  58.925  66.060  1.00  0.00     0.155 S 
HETATM    4  O2  UNL     1      68.833  58.613  64.693  1.00  0.00    -0.227 OA
HETATM    5  O3  UNL     1      69.152  57.696  66.953  1.00  0.00    -0.227 OA
HETATM    6  C9  UNL     1      68.393  60.200  66.879  1.00  0.00     0.064 C 
HETATM    7  C10 UNL     1      69.300  61.054  67.758  1.00  0.00     0.025 C 
HETATM    8  C11 UNL     1      68.727  61.332  69.111  1.00  0.00     0.002 C 
HETATM    9  C12 UNL     1      67.258  61.637  69.122  1.00  0.00     0.000 C 
HETATM   10  C13 UNL     1      66.465  60.567  68.447  1.00  0.00     0.002 C 
HETATM   11  C14 UNL     1      67.369  59.573  67.819  1.00  0.00     0.025 C 
HETATM   12  C15 UNL     1      67.658  61.110  65.958  1.00  0.00     0.034 C 
HETATM   13  C16 UNL     1      68.253  61.258  64.610  1.00  0.00     0.104 C 
HETATM   14  C17 UNL     1      68.146  62.617  64.015  1.00  0.00     0.217 C 
HETATM   15  O4  UNL     1      67.605  63.558  64.638  1.00  0.00    -0.274 OA
HETATM   16  N2  UNL     1      68.696  62.763  62.701  1.00  0.00    -0.361 N 
ATOM     17  H2  UNL     1      68.908  63.703  62.365  1.00  0.00     0.162 HD
HETATM   18  C18 UNL     1      68.962  61.658  61.840  1.00  0.00     0.123 C 
HETATM   19  C19 UNL     1      70.282  61.726  61.106  1.00  0.00     0.024 C 
HETATM   20  C20 UNL     1      71.380  61.384  62.088  1.00  0.00     0.043 C 
HETATM   21  C21 UNL     1      72.503  60.660  61.406  1.00  0.00    -0.022 A 
HETATM   22  C22 UNL     1      72.633  60.966  60.076  1.00  0.00     0.010 A 
HETATM   23  C23 UNL     1      73.602  60.390  59.267  1.00  0.00     0.001 A 
HETATM   24  C24 UNL     1      74.460  59.477  59.832  1.00  0.00     0.003 A 
HETATM   25  C25 UNL     1      74.319  59.184  61.151  1.00  0.00     0.040 A 
HETATM   26  C26 UNL     1      73.340  59.755  62.009  1.00  0.00     0.105 A 
HETATM   27  O5  UNL     1      73.321  59.378  63.286  1.00  0.00    -0.232 OA
HETATM   28  N3  UNL     1      73.009  59.419  64.540  1.00  0.00    -0.205 N 
HETATM   29  C27 UNL     1      73.688  60.114  65.619  1.00  0.00     0.252 C 
HETATM   30  O6  UNL     1      73.365  60.039  66.822  1.00  0.00    -0.271 OA
ENDROOT
BRANCH   1  31
HETATM   31  C6  UNL     1      72.292  57.220  65.306  1.00  0.00     0.245 C 
HETATM   32  N1  UNL     1      73.465  56.858  65.964  1.00  0.00    -0.341 N 
ATOM     33  H1  UNL     1      74.067  57.630  66.251  1.00  0.00     0.163 HD
HETATM   34  O1  UNL     1      71.517  56.341  64.922  1.00  0.00    -0.271 OA
BRANCH  32  35
HETATM   35  C5  UNL     1      73.933  55.562  66.287  1.00  0.00     0.121 A 
HETATM   36  C3  UNL     1      73.016  54.389  66.236  1.00  0.00     0.048 A 
HETATM   37  C4  UNL     1      74.151  54.536  65.222  1.00  0.00     0.053 A 
BRANCH  36  38
HETATM   38  C2  UNL     1      73.193  53.264  67.175  1.00  0.00    -0.029 C 
HETATM   39  C1  UNL     1      72.320  52.996  68.135  1.00  0.00     0.007 C 
ENDBRANCH  36  38
BRANCH  35  40
HETATM   40  C31 UNL     1      74.966  55.490  67.393  1.00  0.00     0.246 C 
HETATM   41  O7  UNL     1      76.107  55.049  67.054  1.00  0.00    -0.271 OA
HETATM   42  N5  UNL     1      74.722  55.879  68.724  1.00  0.00    -0.359 N 
ATOM     43  H5  UNL     1      73.808  56.237  69.000  1.00  0.00     0.162 HD
BRANCH  42  44
HETATM   44  C32 UNL     1      75.806  55.761  69.708  1.00  0.00     0.118 C 
HETATM   45  C33 UNL     1      75.374  54.831  70.808  1.00  0.00     0.026 C 
ENDBRANCH  42  44
ENDBRANCH  35  40
ENDBRANCH  32  35
ENDBRANCH   1  31
BRANCH  29  46
HETATM   46  C28 UNL     1      74.871  61.005  65.371  1.00  0.00     0.131 C 
HETATM   47  C29 UNL     1      75.371  61.746  66.553  1.00  0.00     0.248 C 
HETATM   48  N4  UNL     1      75.388  62.998  65.808  1.00  0.00    -0.073 N 
HETATM   49  C30 UNL     1      74.549  62.364  64.823  1.00  0.00     0.248 C 
ATOM     50  H42 UNL     1      75.107  63.874  66.249  1.00  0.00     0.277 HD
ATOM     51  H41 UNL     1      76.269  63.437  65.541  1.00  0.00     0.277 HD
ENDBRANCH  29  46
TORSDOF 6
ENDMDL
