MODEL 1
REMARK VINA RESULT: -8.856078069      0.000      0.000
REMARK  8 active torsions:
REMARK  status: ('A' for Active; 'I' for Inactive)
REMARK    1  A    between atoms: N2_6  and  C4_7 
REMARK    2  A    between atoms: C4_7  and  O2_8 
REMARK    3  A    between atoms: C4_7  and  C5_10 
REMARK    4  A    between atoms: N3_26  and  C21_27 
REMARK    5  A    between atoms: C23_29  and  S1_30 
REMARK    6  A    between atoms: S1_30  and  N4_33 
REMARK       I    between atoms: N4_33  and  C24_34 
REMARK       I    between atoms: C24_34  and  N5_36 
REMARK    7  A    between atoms: N5_36  and  N6_38 
REMARK    8  A    between atoms: C28_45  and  C29_46 
ROOT
HETATM    1  C1  UNL     1      67.394  55.066  68.510  1.00  0.00     0.153 C 
HETATM    2  N1  UNL     1      68.550  55.233  67.591  1.00  0.00    -0.349 N 
HETATM    3  C2  UNL     1      68.328  56.163  66.540  1.00  0.00     0.238 C 
HETATM    4  O1  UNL     1      67.130  56.380  66.201  1.00  0.00    -0.272 OA
HETATM    5  C3  UNL     1      69.341  56.946  65.751  1.00  0.00     0.232 C 
HETATM    6  N2  UNL     1      70.433  57.169  66.754  1.00  0.00    -0.332 N 
HETATM    7  C11 UNL     1      71.369  56.143  66.958  1.00  0.00     0.079 C 
HETATM    8  C12 UNL     1      71.009  55.168  68.031  1.00  0.00     0.098 C 
HETATM    9  C13 UNL     1      71.979  54.050  68.015  1.00  0.00     0.036 A 
HETATM   10  C14 UNL     1      71.395  53.025  67.249  1.00  0.00    -0.020 A 
HETATM   11  C15 UNL     1      72.238  51.956  67.189  1.00  0.00    -0.001 A 
HETATM   12  C16 UNL     1      72.114  50.714  66.561  1.00  0.00     0.014 A 
HETATM   13  C17 UNL     1      73.137  49.810  66.669  1.00  0.00     0.001 A 
HETATM   14  C18 UNL     1      74.259  50.160  67.399  1.00  0.00     0.002 A 
HETATM   15  C19 UNL     1      74.380  51.387  68.019  1.00  0.00     0.031 A 
HETATM   16  C20 UNL     1      73.357  52.288  67.908  1.00  0.00     0.050 A 
HETATM   17  N3  UNL     1      73.166  53.556  68.393  1.00  0.00    -0.312 N 
HETATM   18  C30 UNL     1      70.046  53.451  66.768  1.00  0.00     0.068 C 
HETATM   19  C31 UNL     1      69.707  54.470  67.840  1.00  0.00     0.105 C 
ENDROOT
BRANCH  17  20
HETATM   20  C21 UNL     1      74.155  54.197  69.188  1.00  0.00     0.054 A 
HETATM   21  C22 UNL     1      74.139  54.062  70.585  1.00  0.00     0.057 A 
HETATM   22  C23 UNL     1      75.044  54.666  71.412  1.00  0.00     0.095 A 
HETATM   23  C26 UNL     1      76.029  55.450  70.790  1.00  0.00     0.027 A 
HETATM   24  C27 UNL     1      76.049  55.583  69.425  1.00  0.00     0.018 A 
HETATM   25  C28 UNL     1      75.114  54.964  68.585  1.00  0.00     0.029 A 
BRANCH  22  26
HETATM   26  S1  UNL     1      74.972  54.627  73.146  1.00  0.00     0.329 S 
HETATM   27  O3  UNL     1      75.639  55.905  73.669  1.00  0.00    -0.186 OA
HETATM   28  O4  UNL     1      73.496  54.830  73.580  1.00  0.00    -0.186 OA
BRANCH  26  29
HETATM   29  N4  UNL     1      75.645  53.339  73.957  1.00  0.00    -0.259 NA
HETATM   30  C24 UNL     1      76.171  52.330  74.592  1.00  0.00     0.423 C 
HETATM   31  O5  UNL     1      76.410  52.132  75.835  1.00  0.00    -0.228 OA
HETATM   32  N5  UNL     1      76.607  51.145  73.820  1.00  0.00    -0.237 N 
ATOM     33  H5  UNL     1      76.484  51.150  72.807  1.00  0.00     0.193 HD
BRANCH  32  34
HETATM   34  N6  UNL     1      77.168  50.041  74.406  1.00  0.00    -0.271 N 
HETATM   35  C25 UNL     1      76.579  48.903  74.568  1.00  0.00     0.215 C 
HETATM   36  N7  UNL     1      75.246  48.764  74.110  1.00  0.00    -0.065 NA
HETATM   37  N8  UNL     1      77.209  47.806  75.191  1.00  0.00    -0.065 NA
ATOM     38  H6  UNL     1      78.127  50.125  74.742  1.00  0.00     0.189 HD
ENDBRANCH  32  34
ENDBRANCH  26  29
ENDBRANCH  22  26
BRANCH  25  39
HETATM   39  C29 UNL     1      75.186  55.216  67.149  1.00  0.00     0.272 C 
HETATM   40  O6  UNL     1      76.282  55.103  66.564  1.00  0.00    -0.301 OA
ENDBRANCH  25  39
ENDBRANCH  17  20
BRANCH   6  41
HETATM   41  C4  UNL     1      70.300  58.394  67.397  1.00  0.00     0.152 C 
BRANCH  41  42
HETATM   42  O2  UNL     1      70.399  58.322  68.728  1.00  0.00    -0.345 OA
ATOM     43  H2  UNL     1      70.038  59.073  69.184  1.00  0.00     0.219 HD
ENDBRANCH  41  42
BRANCH  41  44
HETATM   44  C5  UNL     1      70.083  59.735  66.967  1.00  0.00     0.015 A 
HETATM   45  C6  UNL     1      70.739  60.347  65.945  1.00  0.00     0.016 A 
HETATM   46  C7  UNL     1      70.501  61.687  65.587  1.00  0.00     0.001 A 
HETATM   47  C8  UNL     1      69.593  62.440  66.254  1.00  0.00     0.000 A 
HETATM   48  C9  UNL     1      68.907  61.856  67.294  1.00  0.00     0.001 A 
HETATM   49  C10 UNL     1      69.152  60.545  67.631  1.00  0.00     0.016 A 
ENDBRANCH  41  44
ENDBRANCH   6  41
TORSDOF 8
ENDMDL
MODEL 2
REMARK VINA RESULT: -8.757375979      1.087      1.246
REMARK  8 active torsions:
REMARK  status: ('A' for Active; 'I' for Inactive)
REMARK    1  A    between atoms: N2_6  and  C4_7 
REMARK    2  A    between atoms: C4_7  and  O2_8 
REMARK    3  A    between atoms: C4_7  and  C5_10 
REMARK    4  A    between atoms: N3_26  and  C21_27 
REMARK    5  A    between atoms: C23_29  and  S1_30 
REMARK    6  A    between atoms: S1_30  and  N4_33 
REMARK       I    between atoms: N4_33  and  C24_34 
REMARK       I    between atoms: C24_34  and  N5_36 
REMARK    7  A    between atoms: N5_36  and  N6_38 
REMARK    8  A    between atoms: C28_45  and  C29_46 
ROOT
HETATM    1  C1  UNL     1      67.382  54.287  68.489  1.00  0.00     0.153 C 
HETATM    2  N1  UNL     1      68.472  54.770  67.602  1.00  0.00    -0.349 N 
HETATM    3  C2  UNL     1      68.087  55.821  66.728  1.00  0.00     0.238 C 
HETATM    4  O1  UNL     1      66.860  55.916  66.440  1.00  0.00    -0.272 OA
HETATM    5  C3  UNL     1      68.954  56.863  66.075  1.00  0.00     0.232 C 
HETATM    6  N2  UNL     1      70.036  57.070  67.093  1.00  0.00    -0.332 N 
HETATM    7  C11 UNL     1      71.113  56.171  67.111  1.00  0.00     0.079 C 
HETATM    8  C12 UNL     1      70.929  54.988  68.005  1.00  0.00     0.098 C 
HETATM    9  C13 UNL     1      72.046  54.041  67.791  1.00  0.00     0.036 A 
HETATM   10  C14 UNL     1      71.588  53.086  66.867  1.00  0.00    -0.020 A 
HETATM   11  C15 UNL     1      72.571  52.175  66.618  1.00  0.00    -0.001 A 
HETATM   12  C16 UNL     1      72.602  51.051  65.789  1.00  0.00     0.014 A 
HETATM   13  C17 UNL     1      73.746  50.299  65.733  1.00  0.00     0.001 A 
HETATM   14  C18 UNL     1      74.831  50.681  66.503  1.00  0.00     0.002 A 
HETATM   15  C19 UNL     1      74.798  51.791  67.321  1.00  0.00     0.031 A 
HETATM   16  C20 UNL     1      73.655  52.540  67.374  1.00  0.00     0.050 A 
HETATM   17  N3  UNL     1      73.302  53.668  68.069  1.00  0.00    -0.312 N 
HETATM   18  C30 UNL     1      70.178  53.387  66.476  1.00  0.00     0.068 C 
HETATM   19  C31 UNL     1      69.733  54.152  67.709  1.00  0.00     0.105 C 
ENDROOT
BRANCH  17  20
HETATM   20  C21 UNL     1      74.217  54.302  68.953  1.00  0.00     0.054 A 
HETATM   21  C22 UNL     1      74.311  53.891  70.292  1.00  0.00     0.057 A 
HETATM   22  C23 UNL     1      75.151  54.468  71.203  1.00  0.00     0.095 A 
HETATM   23  C26 UNL     1      75.949  55.524  70.732  1.00  0.00     0.027 A 
HETATM   24  C27 UNL     1      75.860  55.929  69.424  1.00  0.00     0.018 A 
HETATM   25  C28 UNL     1      74.992  55.333  68.499  1.00  0.00     0.029 A 
BRANCH  22  26
HETATM   26  S1  UNL     1      75.195  54.071  72.892  1.00  0.00     0.329 S 
HETATM   27  O3  UNL     1      76.304  54.910  73.539  1.00  0.00    -0.186 OA
HETATM   28  O4  UNL     1      73.920  54.644  73.564  1.00  0.00    -0.186 OA
BRANCH  26  29
HETATM   29  N4  UNL     1      75.430  52.487  73.346  1.00  0.00    -0.259 NA
HETATM   30  C24 UNL     1      75.615  51.247  73.703  1.00  0.00     0.423 C 
HETATM   31  O5  UNL     1      76.367  50.716  74.593  1.00  0.00    -0.228 OA
HETATM   32  N5  UNL     1      74.859  50.181  73.008  1.00  0.00    -0.237 N 
ATOM     33  H5  UNL     1      74.212  50.446  72.264  1.00  0.00     0.193 HD
BRANCH  32  34
HETATM   34  N6  UNL     1      74.989  48.854  73.319  1.00  0.00    -0.271 N 
HETATM   35  C25 UNL     1      74.021  47.999  73.358  1.00  0.00     0.215 C 
HETATM   36  N7  UNL     1      72.713  48.450  73.060  1.00  0.00    -0.065 NA
HETATM   37  N8  UNL     1      74.220  46.645  73.698  1.00  0.00    -0.065 NA
ATOM     38  H6  UNL     1      75.925  48.513  73.537  1.00  0.00     0.189 HD
ENDBRANCH  32  34
ENDBRANCH  26  29
ENDBRANCH  22  26
BRANCH  25  39
HETATM   39  C29 UNL     1      74.931  55.877  67.145  1.00  0.00     0.272 C 
HETATM   40  O6  UNL     1      75.805  55.552  66.317  1.00  0.00    -0.301 OA
ENDBRANCH  25  39
ENDBRANCH  17  20
BRANCH   6  41
HETATM   41  C4  UNL     1      69.752  58.138  67.936  1.00  0.00     0.152 C 
BRANCH  41  42
HETATM   42  O2  UNL     1      69.764  57.822  69.235  1.00  0.00    -0.345 OA
ATOM     43  H2  UNL     1      69.580  58.554  69.812  1.00  0.00     0.219 HD
ENDBRANCH  41  42
BRANCH  41  44
HETATM   44  C5  UNL     1      69.449  59.518  67.742  1.00  0.00     0.015 A 
HETATM   45  C6  UNL     1      69.849  60.267  66.680  1.00  0.00     0.016 A 
HETATM   46  C7  UNL     1      69.544  61.635  66.560  1.00  0.00     0.001 A 
HETATM   47  C8  UNL     1      68.827  62.279  67.513  1.00  0.00     0.000 A 
HETATM   48  C9  UNL     1      68.402  61.554  68.603  1.00  0.00     0.001 A 
HETATM   49  C10 UNL     1      68.710  60.217  68.704  1.00  0.00     0.016 A 
ENDBRANCH  41  44
ENDBRANCH   6  41
TORSDOF 8
ENDMDL
MODEL 3
REMARK VINA RESULT: -8.702622953      2.311      3.347
REMARK  8 active torsions:
REMARK  status: ('A' for Active; 'I' for Inactive)
REMARK    1  A    between atoms: N2_6  and  C4_7 
REMARK    2  A    between atoms: C4_7  and  O2_8 
REMARK    3  A    between atoms: C4_7  and  C5_10 
REMARK    4  A    between atoms: N3_26  and  C21_27 
REMARK    5  A    between atoms: C23_29  and  S1_30 
REMARK    6  A    between atoms: S1_30  and  N4_33 
REMARK       I    between atoms: N4_33  and  C24_34 
REMARK       I    between atoms: C24_34  and  N5_36 
REMARK    7  A    between atoms: N5_36  and  N6_38 
REMARK    8  A    between atoms: C28_45  and  C29_46 
ROOT
HETATM    1  C1  UNL     1      70.507  59.353  67.509  1.00  0.00     0.153 C 
HETATM    2  N1  UNL     1      71.014  58.242  66.662  1.00  0.00    -0.349 N 
HETATM    3  C2  UNL     1      71.397  58.638  65.353  1.00  0.00     0.238 C 
HETATM    4  O1  UNL     1      70.868  59.686  64.885  1.00  0.00    -0.272 OA
HETATM    5  C3  UNL     1      72.367  57.969  64.417  1.00  0.00     0.232 C 
HETATM    6  N2  UNL     1      73.366  57.367  65.360  1.00  0.00    -0.332 N 
HETATM    7  C11 UNL     1      73.064  56.129  65.948  1.00  0.00     0.079 C 
HETATM    8  C12 UNL     1      72.347  56.213  67.256  1.00  0.00     0.098 C 
HETATM    9  C13 UNL     1      71.933  54.854  67.670  1.00  0.00     0.036 A 
HETATM   10  C14 UNL     1      70.601  54.697  67.247  1.00  0.00    -0.020 A 
HETATM   11  C15 UNL     1      70.149  53.458  67.595  1.00  0.00    -0.001 A 
HETATM   12  C16 UNL     1      68.913  52.837  67.402  1.00  0.00     0.014 A 
HETATM   13  C17 UNL     1      68.731  51.561  67.866  1.00  0.00     0.001 A 
HETATM   14  C18 UNL     1      69.782  50.933  68.511  1.00  0.00     0.002 A 
HETATM   15  C19 UNL     1      71.002  51.548  68.700  1.00  0.00     0.031 A 
HETATM   16  C20 UNL     1      71.181  52.822  68.235  1.00  0.00     0.050 A 
HETATM   17  N3  UNL     1      72.239  53.693  68.264  1.00  0.00    -0.312 N 
HETATM   18  C30 UNL     1      70.129  55.940  66.567  1.00  0.00     0.068 C 
HETATM   19  C31 UNL     1      71.053  56.951  67.222  1.00  0.00     0.105 C 
ENDROOT
BRANCH  17  20
HETATM   20  C21 UNL     1      73.474  53.330  68.866  1.00  0.00     0.054 A 
HETATM   21  C22 UNL     1      73.743  53.679  70.199  1.00  0.00     0.057 A 
HETATM   22  C23 UNL     1      74.915  53.382  70.836  1.00  0.00     0.095 A 
HETATM   23  C26 UNL     1      75.874  52.685  70.082  1.00  0.00     0.027 A 
HETATM   24  C27 UNL     1      75.615  52.342  68.779  1.00  0.00     0.018 A 
HETATM   25  C28 UNL     1      74.411  52.655  68.134  1.00  0.00     0.029 A 
BRANCH  22  26
HETATM   26  S1  UNL     1      75.329  53.913  72.436  1.00  0.00     0.329 S 
HETATM   27  O3  UNL     1      76.472  54.927  72.309  1.00  0.00    -0.186 OA
HETATM   28  O4  UNL     1      74.171  54.795  72.974  1.00  0.00    -0.186 OA
BRANCH  26  29
HETATM   29  N4  UNL     1      75.779  52.785  73.573  1.00  0.00    -0.259 NA
HETATM   30  C24 UNL     1      76.131  51.902  74.465  1.00  0.00     0.423 C 
HETATM   31  O5  UNL     1      76.060  51.902  75.744  1.00  0.00    -0.228 OA
HETATM   32  N5  UNL     1      76.735  50.628  74.013  1.00  0.00    -0.237 N 
ATOM     33  H5  UNL     1      76.861  50.476  73.012  1.00  0.00     0.193 HD
BRANCH  32  34
HETATM   34  N6  UNL     1      77.132  49.645  74.880  1.00  0.00    -0.271 N 
HETATM   35  C25 UNL     1      76.640  48.451  74.928  1.00  0.00     0.215 C 
HETATM   36  N7  UNL     1      75.607  48.112  74.021  1.00  0.00    -0.065 NA
HETATM   37  N8  UNL     1      77.085  47.486  75.854  1.00  0.00    -0.065 NA
ATOM     38  H6  UNL     1      77.875  49.873  75.540  1.00  0.00     0.189 HD
ENDBRANCH  32  34
ENDBRANCH  26  29
ENDBRANCH  22  26
BRANCH  25  39
HETATM   39  C29 UNL     1      74.256  52.296  66.727  1.00  0.00     0.272 C 
HETATM   40  O6  UNL     1      75.001  51.426  66.234  1.00  0.00    -0.301 OA
ENDBRANCH  25  39
ENDBRANCH  17  20
BRANCH   6  41
HETATM   41  C4  UNL     1      74.458  58.203  65.556  1.00  0.00     0.152 C 
BRANCH  41  42
HETATM   42  O2  UNL     1      75.601  57.555  65.802  1.00  0.00    -0.345 OA
ATOM     43  H2  UNL     1      75.693  56.739  65.325  1.00  0.00     0.219 HD
ENDBRANCH  41  42
BRANCH  41  44
HETATM   44  C5  UNL     1      74.656  59.615  65.552  1.00  0.00     0.015 A 
HETATM   45  C6  UNL     1      75.100  60.348  66.607  1.00  0.00     0.016 A 
HETATM   46  C7  UNL     1      75.245  61.746  66.552  1.00  0.00     0.001 A 
HETATM   47  C8  UNL     1      74.945  62.437  65.425  1.00  0.00     0.000 A 
HETATM   48  C9  UNL     1      74.493  61.731  64.334  1.00  0.00     0.001 A 
HETATM   49  C10 UNL     1      74.357  60.364  64.406  1.00  0.00     0.016 A 
ENDBRANCH  41  44
ENDBRANCH   6  41
TORSDOF 8
ENDMDL
MODEL 4
REMARK VINA RESULT: -8.640294792      1.630      1.996
REMARK  8 active torsions:
REMARK  status: ('A' for Active; 'I' for Inactive)
REMARK    1  A    between atoms: N2_6  and  C4_7 
REMARK    2  A    between atoms: C4_7  and  O2_8 
REMARK    3  A    between atoms: C4_7  and  C5_10 
REMARK    4  A    between atoms: N3_26  and  C21_27 
REMARK    5  A    between atoms: C23_29  and  S1_30 
REMARK    6  A    between atoms: S1_30  and  N4_33 
REMARK       I    between atoms: N4_33  and  C24_34 
REMARK       I    between atoms: C24_34  and  N5_36 
REMARK    7  A    between atoms: N5_36  and  N6_38 
REMARK    8  A    between atoms: C28_45  and  C29_46 
ROOT
HETATM    1  C1  UNL     1      68.296  56.608  67.199  1.00  0.00     0.153 C 
HETATM    2  N1  UNL     1      69.577  56.297  66.512  1.00  0.00    -0.349 N 
HETATM    3  C2  UNL     1      69.787  57.030  65.315  1.00  0.00     0.238 C 
HETATM    4  O1  UNL     1      68.765  57.471  64.717  1.00  0.00    -0.272 OA
HETATM    5  C3  UNL     1      71.088  57.365  64.636  1.00  0.00     0.232 C 
HETATM    6  N2  UNL     1      72.034  57.496  65.792  1.00  0.00    -0.332 N 
HETATM    7  C11 UNL     1      72.600  56.327  66.325  1.00  0.00     0.079 C 
HETATM    8  C12 UNL     1      71.821  55.702  67.436  1.00  0.00     0.098 C 
HETATM    9  C13 UNL     1      72.427  54.395  67.776  1.00  0.00     0.036 A 
HETATM   10  C14 UNL     1      71.700  53.422  67.068  1.00  0.00    -0.020 A 
HETATM   11  C15 UNL     1      72.206  52.184  67.332  1.00  0.00    -0.001 A 
HETATM   12  C16 UNL     1      71.833  50.916  66.881  1.00  0.00     0.014 A 
HETATM   13  C17 UNL     1      72.530  49.822  67.320  1.00  0.00     0.001 A 
HETATM   14  C18 UNL     1      73.582  50.014  68.199  1.00  0.00     0.002 A 
HETATM   15  C19 UNL     1      73.950  51.267  68.644  1.00  0.00     0.031 A 
HETATM   16  C20 UNL     1      73.251  52.357  68.203  1.00  0.00     0.050 A 
HETATM   17  N3  UNL     1      73.355  53.702  68.449  1.00  0.00    -0.312 N 
HETATM   18  C30 UNL     1      70.616  54.071  66.272  1.00  0.00     0.068 C 
HETATM   19  C31 UNL     1      70.420  55.331  67.095  1.00  0.00     0.105 C 
ENDROOT
BRANCH  17  20
HETATM   20  C21 UNL     1      74.353  54.214  69.322  1.00  0.00     0.054 A 
HETATM   21  C22 UNL     1      74.224  54.064  70.712  1.00  0.00     0.057 A 
HETATM   22  C23 UNL     1      75.132  54.549  71.611  1.00  0.00     0.095 A 
HETATM   23  C26 UNL     1      76.241  55.224  71.074  1.00  0.00     0.027 A 
HETATM   24  C27 UNL     1      76.370  55.373  69.716  1.00  0.00     0.018 A 
HETATM   25  C28 UNL     1      75.431  54.875  68.802  1.00  0.00     0.029 A 
BRANCH  22  26
HETATM   26  S1  UNL     1      74.937  54.496  73.335  1.00  0.00     0.329 S 
HETATM   27  O3  UNL     1      75.583  55.759  73.916  1.00  0.00    -0.186 OA
HETATM   28  O4  UNL     1      73.437  54.718  73.665  1.00  0.00    -0.186 OA
BRANCH  26  29
HETATM   29  N4  UNL     1      75.532  53.190  74.178  1.00  0.00    -0.259 NA
HETATM   30  C24 UNL     1      75.997  52.168  74.839  1.00  0.00     0.423 C 
HETATM   31  O5  UNL     1      76.019  51.896  76.091  1.00  0.00    -0.228 OA
HETATM   32  N5  UNL     1      76.638  51.063  74.092  1.00  0.00    -0.237 N 
ATOM     33  H5  UNL     1      76.700  51.132  73.076  1.00  0.00     0.193 HD
BRANCH  32  34
HETATM   34  N6  UNL     1      77.152  49.951  74.705  1.00  0.00    -0.271 N 
HETATM   35  C25 UNL     1      76.652  48.762  74.631  1.00  0.00     0.215 C 
HETATM   36  N7  UNL     1      75.480  48.571  73.861  1.00  0.00    -0.065 NA
HETATM   37  N8  UNL     1      77.224  47.658  75.298  1.00  0.00    -0.065 NA
ATOM     38  H6  UNL     1      77.996  50.072  75.264  1.00  0.00     0.189 HD
ENDBRANCH  32  34
ENDBRANCH  26  29
ENDBRANCH  22  26
BRANCH  25  39
HETATM   39  C29 UNL     1      75.631  55.137  67.380  1.00  0.00     0.272 C 
HETATM   40  O6  UNL     1      76.709  54.810  66.845  1.00  0.00    -0.301 OA
ENDBRANCH  25  39
ENDBRANCH  17  20
BRANCH   6  41
HETATM   41  C4  UNL     1      72.156  58.816  66.210  1.00  0.00     0.152 C 
BRANCH  41  42
HETATM   42  O2  UNL     1      71.034  59.329  66.723  1.00  0.00    -0.345 OA
ATOM     43  H2  UNL     1      70.841  60.210  66.426  1.00  0.00     0.219 HD
ENDBRANCH  41  42
BRANCH  41  44
HETATM   44  C5  UNL     1      73.215  59.770  66.226  1.00  0.00     0.015 A 
HETATM   45  C6  UNL     1      74.361  59.658  66.950  1.00  0.00     0.016 A 
HETATM   46  C7  UNL     1      75.358  60.650  66.948  1.00  0.00     0.001 A 
HETATM   47  C8  UNL     1      75.220  61.781  66.213  1.00  0.00     0.000 A 
HETATM   48  C9  UNL     1      74.075  61.931  65.466  1.00  0.00     0.001 A 
HETATM   49  C10 UNL     1      73.110  60.950  65.480  1.00  0.00     0.016 A 
ENDBRANCH  41  44
ENDBRANCH   6  41
TORSDOF 8
ENDMDL
MODEL 5
REMARK VINA RESULT: -8.392754362      4.171      6.987
REMARK  8 active torsions:
REMARK  status: ('A' for Active; 'I' for Inactive)
REMARK    1  A    between atoms: N2_6  and  C4_7 
REMARK    2  A    between atoms: C4_7  and  O2_8 
REMARK    3  A    between atoms: C4_7  and  C5_10 
REMARK    4  A    between atoms: N3_26  and  C21_27 
REMARK    5  A    between atoms: C23_29  and  S1_30 
REMARK    6  A    between atoms: S1_30  and  N4_33 
REMARK       I    between atoms: N4_33  and  C24_34 
REMARK       I    between atoms: C24_34  and  N5_36 
REMARK    7  A    between atoms: N5_36  and  N6_38 
REMARK    8  A    between atoms: C28_45  and  C29_46 
ROOT
HETATM    1  C1  UNL     1      67.157  59.605  63.590  1.00  0.00     0.153 C 
HETATM    2  N1  UNL     1      68.194  60.640  63.836  1.00  0.00    -0.349 N 
HETATM    3  C2  UNL     1      67.681  61.877  64.309  1.00  0.00     0.238 C 
HETATM    4  O1  UNL     1      66.478  62.148  64.037  1.00  0.00    -0.272 OA
HETATM    5  C3  UNL     1      68.385  62.940  65.109  1.00  0.00     0.232 C 
HETATM    6  N2  UNL     1      69.347  62.142  65.936  1.00  0.00    -0.332 N 
HETATM    7  C11 UNL     1      70.566  61.757  65.355  1.00  0.00     0.079 C 
HETATM    8  C12 UNL     1      70.542  60.431  64.667  1.00  0.00     0.098 C 
HETATM    9  C13 UNL     1      71.823  60.235  63.950  1.00  0.00     0.036 A 
HETATM   10  C14 UNL     1      71.601  60.637  62.621  1.00  0.00    -0.020 A 
HETATM   11  C15 UNL     1      72.745  60.485  61.896  1.00  0.00    -0.001 A 
HETATM   12  C16 UNL     1      73.030  60.739  60.552  1.00  0.00     0.014 A 
HETATM   13  C17 UNL     1      74.291  60.487  60.080  1.00  0.00     0.001 A 
HETATM   14  C18 UNL     1      75.240  59.988  60.955  1.00  0.00     0.002 A 
HETATM   15  C19 UNL     1      74.958  59.738  62.282  1.00  0.00     0.031 A 
HETATM   16  C20 UNL     1      73.697  59.991  62.750  1.00  0.00     0.050 A 
HETATM   17  N3  UNL     1      73.106  59.852  63.979  1.00  0.00    -0.312 N 
HETATM   18  C30 UNL     1      70.187  61.087  62.450  1.00  0.00     0.068 C 
HETATM   19  C31 UNL     1      69.536  60.303  63.576  1.00  0.00     0.105 C 
ENDROOT
BRANCH  17  20
HETATM   20  C21 UNL     1      73.835  59.356  65.094  1.00  0.00     0.054 A 
HETATM   21  C22 UNL     1      73.909  57.975  65.336  1.00  0.00     0.057 A 
HETATM   22  C23 UNL     1      74.573  57.430  66.398  1.00  0.00     0.095 A 
HETATM   23  C26 UNL     1      75.205  58.333  67.268  1.00  0.00     0.027 A 
HETATM   24  C27 UNL     1      75.136  59.684  67.035  1.00  0.00     0.018 A 
HETATM   25  C28 UNL     1      74.449  60.234  65.944  1.00  0.00     0.029 A 
BRANCH  22  26
HETATM   26  S1  UNL     1      74.572  55.741  66.798  1.00  0.00     0.329 S 
HETATM   27  O3  UNL     1      73.120  55.249  66.744  1.00  0.00    -0.186 OA
HETATM   28  O4  UNL     1      75.224  54.959  65.627  1.00  0.00    -0.186 OA
BRANCH  26  29
HETATM   29  N4  UNL     1      75.215  55.252  68.253  1.00  0.00    -0.259 NA
HETATM   30  C24 UNL     1      75.720  54.869  69.392  1.00  0.00     0.423 C 
HETATM   31  O5  UNL     1      76.308  53.787  69.747  1.00  0.00    -0.228 OA
HETATM   32  N5  UNL     1      75.648  55.785  70.553  1.00  0.00    -0.237 N 
ATOM     33  H5  UNL     1      75.203  56.695  70.430  1.00  0.00     0.193 HD
BRANCH  32  34
HETATM   34  N6  UNL     1      76.154  55.465  71.785  1.00  0.00    -0.271 N 
HETATM   35  C25 UNL     1      75.507  54.849  72.718  1.00  0.00     0.215 C 
HETATM   36  N7  UNL     1      74.167  54.467  72.469  1.00  0.00    -0.065 NA
HETATM   37  N8  UNL     1      76.082  54.559  73.973  1.00  0.00    -0.065 NA
ATOM     38  H6  UNL     1      77.118  55.733  71.980  1.00  0.00     0.189 HD
ENDBRANCH  32  34
ENDBRANCH  26  29
ENDBRANCH  22  26
BRANCH  25  39
HETATM   39  C29 UNL     1      74.385  61.687  65.817  1.00  0.00     0.272 C 
HETATM   40  O6  UNL     1      75.353  62.376  66.195  1.00  0.00    -0.301 OA
ENDBRANCH  25  39
ENDBRANCH  17  20
BRANCH   6  41
HETATM   41  C4  UNL     1      68.825  61.844  67.189  1.00  0.00     0.152 C 
BRANCH  41  42
HETATM   42  O2  UNL     1      69.300  62.616  68.172  1.00  0.00    -0.345 OA
ATOM     43  H2  UNL     1      70.013  62.223  68.661  1.00  0.00     0.219 HD
ENDBRANCH  41  42
BRANCH  41  44
HETATM   44  C5  UNL     1      67.881  60.898  67.685  1.00  0.00     0.015 A 
HETATM   45  C6  UNL     1      67.798  59.597  67.298  1.00  0.00     0.016 A 
HETATM   46  C7  UNL     1      66.822  58.717  67.802  1.00  0.00     0.001 A 
HETATM   47  C8  UNL     1      65.908  59.133  68.712  1.00  0.00     0.000 A 
HETATM   48  C9  UNL     1      65.960  60.443  69.130  1.00  0.00     0.001 A 
HETATM   49  C10 UNL     1      66.921  61.289  68.626  1.00  0.00     0.016 A 
ENDBRANCH  41  44
ENDBRANCH   6  41
TORSDOF 8
ENDMDL
