MODEL 1
REMARK VINA RESULT: -7.942707804      0.000      0.000
REMARK  6 active torsions:
REMARK  status: ('A' for Active; 'I' for Inactive)
REMARK       I    between atoms: C2_2  and  N1_4 
REMARK    1  A    between atoms: N1_4  and  C3_6 
REMARK    2  A    between atoms: C10_13  and  N2_15 
REMARK       I    between atoms: N2_15  and  C12_17 
REMARK    3  A    between atoms: C12_17  and  C13_19 
REMARK    4  A    between atoms: C15_22  and  C16_23 
REMARK       I    between atoms: C16_23  and  N3_25 
REMARK    5  A    between atoms: N3_25  and  C17_27 
REMARK    6  A    between atoms: N5_33  and  S2_34 
ROOT
HETATM    1  C3  UNL     1      75.341  51.287  72.931  1.00  0.00     0.159 C 
HETATM    2  C4  UNL     1      75.897  52.438  72.090  1.00  0.00     0.033 C 
HETATM    3  C5  UNL     1      75.389  53.777  72.546  1.00  0.00     0.002 C 
HETATM    4  C6  UNL     1      74.749  54.498  71.381  1.00  0.00     0.000 C 
HETATM    5  C7  UNL     1      75.653  55.569  70.826  1.00  0.00     0.000 C 
HETATM    6  C8  UNL     1      75.996  55.219  69.390  1.00  0.00     0.002 C 
HETATM    7  C9  UNL     1      75.150  56.059  68.478  1.00  0.00     0.031 C 
HETATM    8  C10 UNL     1      74.863  55.401  67.146  1.00  0.00     0.029 C 
HETATM    9  C11 UNL     1      76.085  54.576  66.754  1.00  0.00     0.038 C 
HETATM   10  C20 UNL     1      73.644  54.540  67.295  1.00  0.00     0.031 C 
HETATM   11  C21 UNL     1      73.653  53.430  66.237  1.00  0.00     0.002 C 
HETATM   12  C22 UNL     1      72.367  52.662  66.257  1.00  0.00     0.000 C 
HETATM   13  C23 UNL     1      72.186  51.824  67.492  1.00  0.00     0.001 C 
HETATM   14  C24 UNL     1      72.446  50.362  67.228  1.00  0.00     0.012 C 
HETATM   15  C25 UNL     1      73.791  50.016  67.869  1.00  0.00     0.094 C 
HETATM   16  C26 UNL     1      73.734  49.946  69.281  1.00  0.00    -0.102 C 
HETATM   17  C27 UNL     1      73.668  49.883  70.407  1.00  0.00    -0.075 C 
HETATM   18  C28 UNL     1      73.559  49.798  71.803  1.00  0.00     0.116 C 
HETATM   19  C29 UNL     1      73.937  51.072  72.497  1.00  0.00     0.179 C 
HETATM   20  O8  UNL     1      73.106  51.922  72.703  1.00  0.00    -0.290 OA
ENDROOT
BRANCH   8  21
HETATM   21  N2  UNL     1      74.721  56.454  66.171  1.00  0.00    -0.350 N 
HETATM   22  C12 UNL     1      73.609  57.325  66.116  1.00  0.00     0.244 C 
HETATM   23  O2  UNL     1      72.693  57.186  66.956  1.00  0.00    -0.271 OA
ATOM     24  H2  UNL     1      75.464  56.577  65.483  1.00  0.00     0.163 HD
BRANCH  22  25
HETATM   25  C13 UNL     1      73.493  58.382  65.116  1.00  0.00     0.241 C 
HETATM   26  C14 UNL     1      72.231  58.396  64.334  1.00  0.00     0.182 C 
HETATM   27  O3  UNL     1      71.431  57.633  63.843  1.00  0.00    -0.293 OA
HETATM   28  C15 UNL     1      72.358  59.869  64.406  1.00  0.00     0.242 C 
HETATM   29  N5  UNL     1      73.115  59.691  65.632  1.00  0.00    -0.150 NA
BRANCH  28  30
HETATM   30  C16 UNL     1      71.100  60.623  64.554  1.00  0.00     0.250 C 
HETATM   31  O4  UNL     1      70.327  60.798  63.593  1.00  0.00    -0.271 OA
HETATM   32  N3  UNL     1      70.786  61.149  65.832  1.00  0.00    -0.305 N 
ATOM     33  H3  UNL     1      71.035  62.111  66.061  1.00  0.00     0.171 HD
BRANCH  32  34
HETATM   34  C17 UNL     1      70.175  60.399  66.724  1.00  0.00     0.150 A 
HETATM   35  N4  UNL     1      70.731  59.507  67.540  1.00  0.00    -0.346 N 
HETATM   36  C18 UNL     1      69.970  58.850  68.366  1.00  0.00     0.097 A 
ATOM     37  H4  UNL     1      71.738  59.342  67.519  1.00  0.00     0.167 HD
HETATM   38  C19 UNL     1      68.625  59.120  68.344  1.00  0.00     0.070 A 
HETATM   39  S1  UNL     1      68.522  60.314  67.128  1.00  0.00    -0.064 SA
ENDBRANCH  32  34
ENDBRANCH  28  30
BRANCH  29  40
HETATM   40  S2  UNL     1      74.443  60.824  65.635  1.00  0.00     0.187 S 
HETATM   41  O5  UNL     1      75.376  60.559  66.785  1.00  0.00    -0.582 OA
HETATM   42  O6  UNL     1      73.897  62.210  65.832  1.00  0.00    -0.582 OA
HETATM   43  O7  UNL     1      75.245  60.815  64.163  1.00  0.00    -0.582 OA
ENDBRANCH  29  40
ENDBRANCH  22  25
ENDBRANCH   8  21
BRANCH   1  44
HETATM   44  N1  UNL     1      75.454  51.521  74.337  1.00  0.00    -0.350 N 
HETATM   45  C2  UNL     1      75.709  50.449  75.223  1.00  0.00     0.214 C 
HETATM   46  C1  UNL     1      75.828  50.698  76.706  1.00  0.00     0.117 C 
HETATM   47  O1  UNL     1      75.835  49.290  74.753  1.00  0.00    -0.274 OA
ATOM     48  H1  UNL     1      75.351  52.467  74.702  1.00  0.00     0.163 HD
ENDBRANCH   1  44
TORSDOF 6
ENDMDL
MODEL 2
REMARK VINA RESULT: -7.868846736      3.777     11.380
REMARK  6 active torsions:
REMARK  status: ('A' for Active; 'I' for Inactive)
REMARK       I    between atoms: C2_2  and  N1_4 
REMARK    1  A    between atoms: N1_4  and  C3_6 
REMARK    2  A    between atoms: C10_13  and  N2_15 
REMARK       I    between atoms: N2_15  and  C12_17 
REMARK    3  A    between atoms: C12_17  and  C13_19 
REMARK    4  A    between atoms: C15_22  and  C16_23 
REMARK       I    between atoms: C16_23  and  N3_25 
REMARK    5  A    between atoms: N3_25  and  C17_27 
REMARK    6  A    between atoms: N5_33  and  S2_34 
ROOT
HETATM    1  C3  UNL     1      68.985  60.808  63.446  1.00  0.00     0.159 C 
HETATM    2  C4  UNL     1      69.494  59.450  63.934  1.00  0.00     0.033 C 
HETATM    3  C5  UNL     1      68.827  59.014  65.209  1.00  0.00     0.002 C 
HETATM    4  C6  UNL     1      69.880  58.713  66.252  1.00  0.00     0.000 C 
HETATM    5  C7  UNL     1      70.088  57.230  66.420  1.00  0.00     0.000 C 
HETATM    6  C8  UNL     1      71.516  56.893  66.033  1.00  0.00     0.002 C 
HETATM    7  C9  UNL     1      72.322  56.716  67.287  1.00  0.00     0.031 C 
HETATM    8  C10 UNL     1      73.787  57.054  67.116  1.00  0.00     0.029 C 
HETATM    9  C11 UNL     1      74.201  56.656  65.702  1.00  0.00     0.038 C 
HETATM   10  C20 UNL     1      73.965  58.525  67.347  1.00  0.00     0.031 C 
HETATM   11  C21 UNL     1      75.225  59.021  66.628  1.00  0.00     0.002 C 
HETATM   12  C22 UNL     1      75.517  60.447  66.980  1.00  0.00     0.000 C 
HETATM   13  C23 UNL     1      74.515  61.421  66.423  1.00  0.00     0.001 C 
HETATM   14  C24 UNL     1      75.050  62.158  65.223  1.00  0.00     0.012 C 
HETATM   15  C25 UNL     1      74.346  61.590  63.989  1.00  0.00     0.094 C 
HETATM   16  C26 UNL     1      72.997  62.002  63.878  1.00  0.00    -0.102 C 
HETATM   17  C27 UNL     1      71.925  62.349  63.800  1.00  0.00    -0.075 C 
HETATM   18  C28 UNL     1      70.600  62.804  63.716  1.00  0.00     0.116 C 
HETATM   19  C29 UNL     1      69.614  61.842  64.307  1.00  0.00     0.179 C 
HETATM   20  O8  UNL     1      69.330  61.904  65.478  1.00  0.00    -0.290 OA
ENDROOT
BRANCH   8  21
HETATM   21  N2  UNL     1      74.527  56.223  68.033  1.00  0.00    -0.350 N 
HETATM   22  C12 UNL     1      74.211  54.870  68.295  1.00  0.00     0.244 C 
HETATM   23  O2  UNL     1      73.238  54.354  67.701  1.00  0.00    -0.271 OA
ATOM     24  H2  UNL     1      75.323  56.634  68.520  1.00  0.00     0.163 HD
BRANCH  22  25
HETATM   25  C13 UNL     1      74.978  54.055  69.230  1.00  0.00     0.241 C 
HETATM   26  C14 UNL     1      75.745  54.801  70.261  1.00  0.00     0.182 C 
HETATM   27  O3  UNL     1      76.381  55.821  70.391  1.00  0.00    -0.293 OA
HETATM   28  C15 UNL     1      75.378  53.679  71.155  1.00  0.00     0.242 C 
HETATM   29  N5  UNL     1      74.211  53.463  70.319  1.00  0.00    -0.150 NA
BRANCH  28  30
HETATM   30  C16 UNL     1      75.084  54.035  72.555  1.00  0.00     0.250 C 
HETATM   31  O4  UNL     1      74.048  54.651  72.868  1.00  0.00    -0.271 OA
HETATM   32  N3  UNL     1      76.020  53.654  73.548  1.00  0.00    -0.305 N 
ATOM     33  H3  UNL     1      76.738  54.312  73.850  1.00  0.00     0.171 HD
BRANCH  32  34
HETATM   34  C17 UNL     1      75.966  52.452  74.082  1.00  0.00     0.150 A 
HETATM   35  N4  UNL     1      76.531  51.341  73.617  1.00  0.00    -0.346 N 
HETATM   36  C18 UNL     1      76.374  50.231  74.279  1.00  0.00     0.097 A 
ATOM     37  H4  UNL     1      77.079  51.359  72.757  1.00  0.00     0.167 HD
HETATM   38  C19 UNL     1      75.626  50.276  75.428  1.00  0.00     0.070 A 
HETATM   39  S1  UNL     1      75.183  51.923  75.500  1.00  0.00    -0.064 SA
ENDBRANCH  32  34
ENDBRANCH  28  30
BRANCH  29  40
HETATM   40  S2  UNL     1      73.978  51.744  70.123  1.00  0.00     0.187 S 
HETATM   41  O5  UNL     1      74.931  51.183  69.103  1.00  0.00    -0.582 OA
HETATM   42  O6  UNL     1      72.591  51.501  69.600  1.00  0.00    -0.582 OA
HETATM   43  O7  UNL     1      74.096  50.950  71.595  1.00  0.00    -0.582 OA
ENDBRANCH  29  40
ENDBRANCH  22  25
ENDBRANCH   8  21
BRANCH   1  44
HETATM   44  N1  UNL     1      67.558  60.894  63.432  1.00  0.00    -0.350 N 
HETATM   45  C2  UNL     1      66.891  61.565  62.381  1.00  0.00     0.214 C 
HETATM   46  C1  UNL     1      65.385  61.655  62.369  1.00  0.00     0.117 C 
HETATM   47  O1  UNL     1      67.573  62.080  61.461  1.00  0.00    -0.274 OA
ATOM     48  H1  UNL     1      67.019  60.469  64.186  1.00  0.00     0.163 HD
ENDBRANCH   1  44
TORSDOF 6
ENDMDL
MODEL 3
REMARK VINA RESULT: -7.442127660      4.131     11.959
REMARK  6 active torsions:
REMARK  status: ('A' for Active; 'I' for Inactive)
REMARK       I    between atoms: C2_2  and  N1_4 
REMARK    1  A    between atoms: N1_4  and  C3_6 
REMARK    2  A    between atoms: C10_13  and  N2_15 
REMARK       I    between atoms: N2_15  and  C12_17 
REMARK    3  A    between atoms: C12_17  and  C13_19 
REMARK    4  A    between atoms: C15_22  and  C16_23 
REMARK       I    between atoms: C16_23  and  N3_25 
REMARK    5  A    between atoms: N3_25  and  C17_27 
REMARK    6  A    between atoms: N5_33  and  S2_34 
ROOT
HETATM    1  C3  UNL     1      70.556  63.985  60.915  1.00  0.00     0.159 C 
HETATM    2  C4  UNL     1      71.841  63.273  61.344  1.00  0.00     0.033 C 
HETATM    3  C5  UNL     1      72.144  62.074  60.490  1.00  0.00     0.002 C 
HETATM    4  C6  UNL     1      72.306  60.855  61.371  1.00  0.00     0.000 C 
HETATM    5  C7  UNL     1      73.757  60.490  61.552  1.00  0.00     0.000 C 
HETATM    6  C8  UNL     1      74.109  60.613  63.023  1.00  0.00     0.002 C 
HETATM    7  C9  UNL     1      74.129  59.240  63.627  1.00  0.00     0.031 C 
HETATM    8  C10 UNL     1      73.786  59.223  65.101  1.00  0.00     0.029 C 
HETATM    9  C11 UNL     1      74.332  60.503  65.727  1.00  0.00     0.038 C 
HETATM   10  C20 UNL     1      72.295  59.137  65.240  1.00  0.00     0.031 C 
HETATM   11  C21 UNL     1      71.860  59.707  66.595  1.00  0.00     0.002 C 
HETATM   12  C22 UNL     1      70.398  59.479  66.828  1.00  0.00     0.000 C 
HETATM   13  C23 UNL     1      69.512  60.290  65.922  1.00  0.00     0.001 C 
HETATM   14  C24 UNL     1      68.904  61.471  66.635  1.00  0.00     0.012 C 
HETATM   15  C25 UNL     1      69.621  62.725  66.129  1.00  0.00     0.094 C 
HETATM   16  C26 UNL     1      69.249  63.086  64.812  1.00  0.00    -0.102 C 
HETATM   17  C27 UNL     1      68.932  63.366  63.764  1.00  0.00    -0.075 C 
HETATM   18  C28 UNL     1      68.514  63.702  62.468  1.00  0.00     0.116 C 
HETATM   19  C29 UNL     1      69.421  63.162  61.404  1.00  0.00     0.179 C 
HETATM   20  O8  UNL     1      69.233  62.062  60.944  1.00  0.00    -0.290 OA
ENDROOT
BRANCH   8  21
HETATM   21  N2  UNL     1      74.495  58.115  65.692  1.00  0.00    -0.350 N 
HETATM   22  C12 UNL     1      74.135  56.762  65.498  1.00  0.00     0.244 C 
HETATM   23  O2  UNL     1      73.151  56.499  64.772  1.00  0.00    -0.271 OA
ATOM     24  H2  UNL     1      75.300  58.320  66.283  1.00  0.00     0.163 HD
BRANCH  22  25
HETATM   25  C13 UNL     1      74.872  55.662  66.111  1.00  0.00     0.241 C 
HETATM   26  C14 UNL     1      75.046  55.741  67.584  1.00  0.00     0.182 C 
HETATM   27  O3  UNL     1      75.237  56.558  68.456  1.00  0.00    -0.293 OA
HETATM   28  C15 UNL     1      74.873  54.272  67.551  1.00  0.00     0.242 C 
HETATM   29  N5  UNL     1      74.105  54.442  66.331  1.00  0.00    -0.150 NA
BRANCH  28  30
HETATM   30  C16 UNL     1      74.129  53.680  68.678  1.00  0.00     0.250 C 
HETATM   31  O4  UNL     1      73.656  52.530  68.615  1.00  0.00    -0.271 OA
HETATM   32  N3  UNL     1      73.965  54.461  69.848  1.00  0.00    -0.305 N 
ATOM     33  H3  UNL     1      73.118  55.015  69.976  1.00  0.00     0.171 HD
BRANCH  32  34
HETATM   34  C17 UNL     1      74.902  54.474  70.772  1.00  0.00     0.150 A 
HETATM   35  N4  UNL     1      75.474  55.543  71.320  1.00  0.00    -0.346 N 
HETATM   36  C18 UNL     1      76.391  55.370  72.227  1.00  0.00     0.097 A 
ATOM     37  H4  UNL     1      75.198  56.483  71.035  1.00  0.00     0.167 HD
HETATM   38  C19 UNL     1      76.716  54.081  72.566  1.00  0.00     0.070 A 
HETATM   39  S1  UNL     1      75.678  53.176  71.557  1.00  0.00    -0.064 SA
ENDBRANCH  32  34
ENDBRANCH  28  30
BRANCH  29  40
HETATM   40  S2  UNL     1      74.535  53.166  65.220  1.00  0.00     0.187 S 
HETATM   41  O5  UNL     1      74.400  53.625  63.793  1.00  0.00    -0.582 OA
HETATM   42  O6  UNL     1      73.575  52.024  65.400  1.00  0.00    -0.582 OA
HETATM   43  O7  UNL     1      76.070  52.576  65.546  1.00  0.00    -0.582 OA
ENDBRANCH  29  40
ENDBRANCH  22  25
ENDBRANCH   8  21
BRANCH   1  44
HETATM   44  N1  UNL     1      70.499  64.225  59.507  1.00  0.00    -0.350 N 
HETATM   45  C2  UNL     1      70.172  65.509  59.012  1.00  0.00     0.214 C 
HETATM   46  C1  UNL     1      70.111  65.760  57.526  1.00  0.00     0.117 C 
HETATM   47  O1  UNL     1      69.937  66.433  59.831  1.00  0.00    -0.274 OA
ATOM     48  H1  UNL     1      70.694  63.466  58.856  1.00  0.00     0.163 HD
ENDBRANCH   1  44
TORSDOF 6
ENDMDL
MODEL 4
REMARK VINA RESULT: -7.361838061      1.527      2.329
REMARK  6 active torsions:
REMARK  status: ('A' for Active; 'I' for Inactive)
REMARK       I    between atoms: C2_2  and  N1_4 
REMARK    1  A    between atoms: N1_4  and  C3_6 
REMARK    2  A    between atoms: C10_13  and  N2_15 
REMARK       I    between atoms: N2_15  and  C12_17 
REMARK    3  A    between atoms: C12_17  and  C13_19 
REMARK    4  A    between atoms: C15_22  and  C16_23 
REMARK       I    between atoms: C16_23  and  N3_25 
REMARK    5  A    between atoms: N3_25  and  C17_27 
REMARK    6  A    between atoms: N5_33  and  S2_34 
ROOT
HETATM    1  C3  UNL     1      75.429  51.243  72.954  1.00  0.00     0.159 C 
HETATM    2  C4  UNL     1      75.983  52.408  72.132  1.00  0.00     0.033 C 
HETATM    3  C5  UNL     1      75.520  53.742  72.646  1.00  0.00     0.002 C 
HETATM    4  C6  UNL     1      74.859  54.513  71.525  1.00  0.00     0.000 C 
HETATM    5  C7  UNL     1      75.768  55.582  70.974  1.00  0.00     0.000 C 
HETATM    6  C8  UNL     1      76.057  55.271  69.518  1.00  0.00     0.002 C 
HETATM    7  C9  UNL     1      75.201  56.157  68.660  1.00  0.00     0.031 C 
HETATM    8  C10 UNL     1      74.857  55.549  67.318  1.00  0.00     0.029 C 
HETATM    9  C11 UNL     1      76.047  54.711  66.861  1.00  0.00     0.038 C 
HETATM   10  C20 UNL     1      73.624  54.709  67.480  1.00  0.00     0.031 C 
HETATM   11  C21 UNL     1      73.575  53.634  66.388  1.00  0.00     0.002 C 
HETATM   12  C22 UNL     1      72.274  52.893  66.426  1.00  0.00     0.000 C 
HETATM   13  C23 UNL     1      72.114  52.020  67.640  1.00  0.00     0.001 C 
HETATM   14  C24 UNL     1      72.332  50.562  67.322  1.00  0.00     0.012 C 
HETATM   15  C25 UNL     1      73.690  50.167  67.907  1.00  0.00     0.094 C 
HETATM   16  C26 UNL     1      73.676  50.053  69.317  1.00  0.00    -0.102 C 
HETATM   17  C27 UNL     1      73.645  49.956  70.443  1.00  0.00    -0.075 C 
HETATM   18  C28 UNL     1      73.579  49.828  71.838  1.00  0.00     0.116 C 
HETATM   19  C29 UNL     1      74.008  51.071  72.559  1.00  0.00     0.179 C 
HETATM   20  O8  UNL     1      73.202  51.932  72.819  1.00  0.00    -0.290 OA
ENDROOT
BRANCH   8  21
HETATM   21  N2  UNL     1      74.707  56.635  66.383  1.00  0.00    -0.350 N 
HETATM   22  C12 UNL     1      73.569  57.471  66.328  1.00  0.00     0.244 C 
HETATM   23  O2  UNL     1      72.633  57.268  67.134  1.00  0.00    -0.271 OA
ATOM     24  H2  UNL     1      75.465  56.811  65.723  1.00  0.00     0.163 HD
BRANCH  22  25
HETATM   25  C13 UNL     1      73.445  58.562  65.368  1.00  0.00     0.241 C 
HETATM   26  C14 UNL     1      72.118  58.705  64.717  1.00  0.00     0.182 C 
HETATM   27  O3  UNL     1      71.212  58.025  64.292  1.00  0.00    -0.293 OA
HETATM   28  C15 UNL     1      72.377  60.159  64.807  1.00  0.00     0.242 C 
HETATM   29  N5  UNL     1      73.232  59.883  65.947  1.00  0.00    -0.150 NA
BRANCH  28  30
HETATM   30  C16 UNL     1      71.208  61.009  65.097  1.00  0.00     0.250 C 
HETATM   31  O4  UNL     1      71.060  61.560  66.205  1.00  0.00    -0.271 OA
HETATM   32  N3  UNL     1      70.245  61.188  64.073  1.00  0.00    -0.305 N 
ATOM     33  H3  UNL     1      69.420  60.589  64.040  1.00  0.00     0.171 HD
BRANCH  32  34
HETATM   34  C17 UNL     1      70.413  62.124  63.163  1.00  0.00     0.150 A 
HETATM   35  N4  UNL     1      71.447  62.954  63.046  1.00  0.00    -0.346 N 
HETATM   36  C18 UNL     1      71.448  63.824  62.078  1.00  0.00     0.097 A 
ATOM     37  H4  UNL     1      72.226  62.907  63.702  1.00  0.00     0.167 HD
HETATM   38  C19 UNL     1      70.370  63.833  61.229  1.00  0.00     0.070 A 
HETATM   39  S1  UNL     1      69.403  62.580  61.869  1.00  0.00    -0.064 SA
ENDBRANCH  32  34
ENDBRANCH  28  30
BRANCH  29  40
HETATM   40  S2  UNL     1      74.646  60.902  65.841  1.00  0.00     0.187 S 
HETATM   41  O5  UNL     1      75.693  60.476  66.834  1.00  0.00    -0.582 OA
HETATM   42  O6  UNL     1      74.256  62.308  66.198  1.00  0.00    -0.582 OA
HETATM   43  O7  UNL     1      75.245  60.939  64.275  1.00  0.00    -0.582 OA
ENDBRANCH  29  40
ENDBRANCH  22  25
ENDBRANCH   8  21
BRANCH   1  44
HETATM   44  N1  UNL     1      75.592  51.429  74.361  1.00  0.00    -0.350 N 
HETATM   45  C2  UNL     1      75.731  50.314  75.220  1.00  0.00     0.214 C 
HETATM   46  C1  UNL     1      75.903  50.513  76.705  1.00  0.00     0.117 C 
HETATM   47  O1  UNL     1      75.710  49.160  74.724  1.00  0.00    -0.274 OA
ATOM     48  H1  UNL     1      75.609  52.372  74.748  1.00  0.00     0.163 HD
ENDBRANCH   1  44
TORSDOF 6
ENDMDL
MODEL 5
REMARK VINA RESULT: -7.277959722      2.032      3.087
REMARK  6 active torsions:
REMARK  status: ('A' for Active; 'I' for Inactive)
REMARK       I    between atoms: C2_2  and  N1_4 
REMARK    1  A    between atoms: N1_4  and  C3_6 
REMARK    2  A    between atoms: C10_13  and  N2_15 
REMARK       I    between atoms: N2_15  and  C12_17 
REMARK    3  A    between atoms: C12_17  and  C13_19 
REMARK    4  A    between atoms: C15_22  and  C16_23 
REMARK       I    between atoms: C16_23  and  N3_25 
REMARK    5  A    between atoms: N3_25  and  C17_27 
REMARK    6  A    between atoms: N5_33  and  S2_34 
ROOT
HETATM    1  C3  UNL     1      75.247  51.517  72.934  1.00  0.00     0.159 C 
HETATM    2  C4  UNL     1      75.847  52.554  71.981  1.00  0.00     0.033 C 
HETATM    3  C5  UNL     1      75.701  53.958  72.498  1.00  0.00     0.002 C 
HETATM    4  C6  UNL     1      75.005  54.808  71.459  1.00  0.00     0.000 C 
HETATM    5  C7  UNL     1      75.978  55.695  70.725  1.00  0.00     0.000 C 
HETATM    6  C8  UNL     1      75.972  55.310  69.257  1.00  0.00     0.002 C 
HETATM    7  C9  UNL     1      75.149  56.312  68.502  1.00  0.00     0.031 C 
HETATM    8  C10 UNL     1      74.496  55.745  67.261  1.00  0.00     0.029 C 
HETATM    9  C11 UNL     1      75.441  54.707  66.663  1.00  0.00     0.038 C 
HETATM   10  C20 UNL     1      73.184  55.132  67.652  1.00  0.00     0.031 C 
HETATM   11  C21 UNL     1      72.781  54.061  66.632  1.00  0.00     0.002 C 
HETATM   12  C22 UNL     1      71.398  53.554  66.907  1.00  0.00     0.000 C 
HETATM   13  C23 UNL     1      71.294  52.745  68.171  1.00  0.00     0.001 C 
HETATM   14  C24 UNL     1      71.214  51.266  67.890  1.00  0.00     0.012 C 
HETATM   15  C25 UNL     1      72.563  50.656  68.275  1.00  0.00     0.094 C 
HETATM   16  C26 UNL     1      72.759  50.573  69.674  1.00  0.00    -0.102 C 
HETATM   17  C27 UNL     1      72.894  50.506  70.794  1.00  0.00    -0.075 C 
HETATM   18  C28 UNL     1      73.034  50.419  72.187  1.00  0.00     0.116 C 
HETATM   19  C29 UNL     1      73.773  51.584  72.773  1.00  0.00     0.179 C 
HETATM   20  O8  UNL     1      73.174  52.575  73.115  1.00  0.00    -0.290 OA
ENDROOT
BRANCH   8  21
HETATM   21  N2  UNL     1      74.379  56.823  66.310  1.00  0.00    -0.350 N 
HETATM   22  C12 UNL     1      74.005  58.140  66.660  1.00  0.00     0.244 C 
HETATM   23  O2  UNL     1      73.762  58.398  67.860  1.00  0.00    -0.271 OA
ATOM     24  H2  UNL     1      74.578  56.623  65.329  1.00  0.00     0.163 HD
BRANCH  22  25
HETATM   25  C13 UNL     1      73.894  59.210  65.674  1.00  0.00     0.241 C 
HETATM   26  C14 UNL     1      74.507  58.935  64.349  1.00  0.00     0.182 C 
HETATM   27  O3  UNL     1      75.467  58.380  63.865  1.00  0.00    -0.293 OA
HETATM   28  C15 UNL     1      73.355  59.689  63.807  1.00  0.00     0.242 C 
HETATM   29  N5  UNL     1      72.610  59.300  64.991  1.00  0.00    -0.150 NA
BRANCH  28  30
HETATM   30  C16 UNL     1      72.800  59.199  62.532  1.00  0.00     0.250 C 
HETATM   31  O4  UNL     1      73.071  59.750  61.448  1.00  0.00    -0.271 OA
HETATM   32  N3  UNL     1      71.942  58.073  62.570  1.00  0.00    -0.305 N 
ATOM     33  H3  UNL     1      70.931  58.205  62.609  1.00  0.00     0.171 HD
BRANCH  32  34
HETATM   34  C17 UNL     1      72.445  56.857  62.555  1.00  0.00     0.150 A 
HETATM   35  N4  UNL     1      73.599  56.472  62.017  1.00  0.00    -0.346 N 
HETATM   36  C18 UNL     1      73.942  55.220  62.095  1.00  0.00     0.097 A 
ATOM     37  H4  UNL     1      74.205  57.148  61.552  1.00  0.00     0.167 HD
HETATM   38  C19 UNL     1      73.083  54.363  62.735  1.00  0.00     0.070 A 
HETATM   39  S1  UNL     1      71.815  55.409  63.195  1.00  0.00    -0.064 SA
ENDBRANCH  32  34
ENDBRANCH  28  30
BRANCH  29  40
HETATM   40  S2  UNL     1      71.657  60.662  65.522  1.00  0.00     0.187 S 
HETATM   41  O5  UNL     1      71.035  60.394  66.866  1.00  0.00    -0.582 OA
HETATM   42  O6  UNL     1      70.527  60.869  64.555  1.00  0.00    -0.582 OA
HETATM   43  O7  UNL     1      72.568  62.070  65.524  1.00  0.00    -0.582 OA
ENDBRANCH  29  40
ENDBRANCH  22  25
ENDBRANCH   8  21
BRANCH   1  44
HETATM   44  N1  UNL     1      75.665  51.700  74.288  1.00  0.00    -0.350 N 
HETATM   45  C2  UNL     1      75.618  50.624  75.205  1.00  0.00     0.214 C 
HETATM   46  C1  UNL     1      76.058  50.820  76.634  1.00  0.00     0.117 C 
HETATM   47  O1  UNL     1      75.205  49.506  74.806  1.00  0.00    -0.274 OA
ATOM     48  H1  UNL     1      75.999  52.613  74.596  1.00  0.00     0.163 HD
ENDBRANCH   1  44
TORSDOF 6
ENDMDL
