MODEL 1
REMARK VINA RESULT: -7.872404327      0.000      0.000
REMARK  8 active torsions:
REMARK  status: ('A' for Active; 'I' for Inactive)
REMARK    1  A    between atoms: C3_3  and  C4_4 
REMARK       I    between atoms: C4_4  and  N1_6 
REMARK    2  A    between atoms: C8_10  and  O2_11 
REMARK    3  A    between atoms: C11_15  and  C12_16 
REMARK       I    between atoms: N3_24  and  C19_25 
REMARK    4  A    between atoms: C19_25  and  C20_27 
REMARK    5  A    between atoms: C23_30  and  O4_31 
REMARK    6  A    between atoms: O4_31  and  C24_32 
REMARK       I    between atoms: N6_42  and  C30_43 
REMARK    7  A    between atoms: C30_43  and  O6_45 
REMARK    8  A    between atoms: O6_45  and  C31_46 
ROOT
HETATM    1  C1  UNL     1      70.314  51.793  74.890  1.00  0.00     0.012 C 
HETATM    2  C2  UNL     1      71.492  52.012  75.042  1.00  0.00    -0.108 C 
HETATM    3  C3  UNL     1      72.911  52.252  75.215  1.00  0.00     0.196 C 
ENDROOT
BRANCH   3   4
HETATM    4  C4  UNL     1      73.692  51.645  74.103  1.00  0.00     0.231 C 
HETATM    5  O1  UNL     1      73.723  50.392  74.009  1.00  0.00    -0.272 OA
HETATM    6  N1  UNL     1      74.397  52.452  73.156  1.00  0.00    -0.348 N 
HETATM    7  C5  UNL     1      74.330  53.896  73.316  1.00  0.00     0.135 C 
HETATM    8  C9  UNL     1      75.127  51.800  72.104  1.00  0.00     0.168 C 
HETATM    9  C6  UNL     1      75.243  54.504  72.305  1.00  0.00     0.039 C 
HETATM   10  C7  UNL     1      76.549  53.770  72.297  1.00  0.00     0.055 C 
HETATM   11  C10 UNL     1      74.976  53.955  70.904  1.00  0.00    -0.036 C 
HETATM   12  C8  UNL     1      75.862  52.849  71.279  1.00  0.00     0.098 C 
HETATM   13  C11 UNL     1      74.189  54.480  70.006  1.00  0.00     0.036 C 
BRANCH  12  14
HETATM   14  O2  UNL     1      76.734  52.327  70.361  1.00  0.00    -0.384 OA
ATOM     15  H2  UNL     1      76.552  52.615  69.474  1.00  0.00     0.211 HD
ENDBRANCH  12  14
BRANCH  13  16
HETATM   16  C12 UNL     1      73.929  53.972  68.671  1.00  0.00     0.039 A 
HETATM   17  C13 UNL     1      73.323  52.784  68.434  1.00  0.00     0.032 A 
HETATM   18  C14 UNL     1      73.188  52.661  67.085  1.00  0.00     0.034 A 
HETATM   19  C15 UNL     1      73.723  53.798  66.529  1.00  0.00     0.054 A 
HETATM   20  N2  UNL     1      74.198  54.641  67.516  1.00  0.00    -0.322 N 
HETATM   21  C35 UNL     1      73.842  54.207  65.195  1.00  0.00     0.126 C 
HETATM   22  C16 UNL     1      74.802  55.920  67.291  1.00  0.00     0.104 C 
HETATM   23  C17 UNL     1      74.228  56.855  66.354  1.00  0.00     0.179 C 
HETATM   24  C18 UNL     1      74.635  58.281  66.313  1.00  0.00     0.163 C 
HETATM   25  O7  UNL     1      74.817  56.533  65.104  1.00  0.00    -0.370 OA
HETATM   26  N3  UNL     1      74.153  58.831  65.021  1.00  0.00    -0.347 N 
HETATM   27  C19 UNL     1      73.691  60.164  65.003  1.00  0.00     0.224 C 
HETATM   28  C27 UNL     1      74.130  58.044  63.766  1.00  0.00     0.159 C 
HETATM   29  O3  UNL     1      73.696  60.796  66.115  1.00  0.00    -0.273 OA
HETATM   30  C28 UNL     1      73.799  56.644  64.170  1.00  0.00     0.158 C 
HETATM   31  C29 UNL     1      73.975  55.530  63.176  1.00  0.00     0.167 C 
HETATM   32  N6  UNL     1      73.667  54.210  63.878  1.00  0.00    -0.299 N 
HETATM   33  C30 UNL     1      73.234  53.158  63.049  1.00  0.00     0.367 C 
HETATM   34  O5  UNL     1      72.960  52.044  63.544  1.00  0.00    -0.238 OA
BRANCH  27  35
HETATM   35  C20 UNL     1      73.211  60.872  63.829  1.00  0.00     0.078 C 
HETATM   36  C21 UNL     1      72.997  62.336  63.954  1.00  0.00     0.017 C 
HETATM   37  C22 UNL     1      71.974  62.643  64.989  1.00  0.00     0.033 C 
HETATM   38  C23 UNL     1      70.796  61.747  65.079  1.00  0.00     0.131 C 
HETATM   39  C25 UNL     1      70.746  60.553  64.188  1.00  0.00     0.033 C 
HETATM   40  C26 UNL     1      71.912  60.292  63.318  1.00  0.00     0.017 C 
BRANCH  38  41
HETATM   41  O4  UNL     1      69.557  62.428  65.200  1.00  0.00    -0.319 OA
BRANCH  41  42
HETATM   42  C24 UNL     1      68.798  62.252  66.328  1.00  0.00     0.225 C 
HETATM   43  N4  UNL     1      67.528  62.278  66.176  1.00  0.00    -0.368 N 
ATOM     44  H42 UNL     1      67.149  62.425  65.240  1.00  0.00     0.159 HD
ATOM     45  H41 UNL     1      66.963  62.147  67.015  1.00  0.00     0.159 HD
HETATM   46  N5  UNL     1      69.324  62.047  67.627  1.00  0.00    -0.057 NA
ENDBRANCH  41  42
ENDBRANCH  38  41
ENDBRANCH  27  35
BRANCH  33  47
HETATM   47  O6  UNL     1      73.105  53.339  61.692  1.00  0.00    -0.294 OA
BRANCH  47  48
HETATM   48  C31 UNL     1      73.947  52.666  60.800  1.00  0.00     0.061 C 
HETATM   49  C32 UNL     1      73.203  51.539  60.123  1.00  0.00     0.046 C 
HETATM   50  C33 UNL     1      74.500  53.651  59.775  1.00  0.00     0.046 C 
HETATM   51  C34 UNL     1      75.144  52.095  61.535  1.00  0.00     0.046 C 
ENDBRANCH  47  48
ENDBRANCH  33  47
ENDBRANCH  13  16
ENDBRANCH   3   4
TORSDOF 8
ENDMDL
MODEL 2
REMARK VINA RESULT: -7.864015369      2.883      8.459
REMARK  8 active torsions:
REMARK  status: ('A' for Active; 'I' for Inactive)
REMARK    1  A    between atoms: C3_3  and  C4_4 
REMARK       I    between atoms: C4_4  and  N1_6 
REMARK    2  A    between atoms: C8_10  and  O2_11 
REMARK    3  A    between atoms: C11_15  and  C12_16 
REMARK       I    between atoms: N3_24  and  C19_25 
REMARK    4  A    between atoms: C19_25  and  C20_27 
REMARK    5  A    between atoms: C23_30  and  O4_31 
REMARK    6  A    between atoms: O4_31  and  C24_32 
REMARK       I    between atoms: N6_42  and  C30_43 
REMARK    7  A    between atoms: C30_43  and  O6_45 
REMARK    8  A    between atoms: O6_45  and  C31_46 
ROOT
HETATM    1  C1  UNL     1      68.870  61.585  69.203  1.00  0.00     0.012 C 
HETATM    2  C2  UNL     1      69.152  61.304  68.063  1.00  0.00    -0.108 C 
HETATM    3  C3  UNL     1      69.513  60.971  66.700  1.00  0.00     0.196 C 
ENDROOT
BRANCH   3   4
HETATM    4  C4  UNL     1      70.803  60.230  66.658  1.00  0.00     0.231 C 
HETATM    5  O1  UNL     1      70.913  59.183  67.346  1.00  0.00    -0.272 OA
HETATM    6  N1  UNL     1      71.901  60.681  65.862  1.00  0.00    -0.348 N 
HETATM    7  C5  UNL     1      71.720  61.901  65.089  1.00  0.00     0.135 C 
HETATM    8  C9  UNL     1      73.116  59.913  65.864  1.00  0.00     0.168 C 
HETATM    9  C6  UNL     1      73.030  62.234  64.460  1.00  0.00     0.039 C 
HETATM   10  C7  UNL     1      74.127  62.096  65.471  1.00  0.00     0.055 C 
HETATM   11  C10 UNL     1      73.620  61.035  63.720  1.00  0.00    -0.036 C 
HETATM   12  C8  UNL     1      74.163  60.629  65.020  1.00  0.00     0.098 C 
HETATM   13  C11 UNL     1      73.471  60.758  62.454  1.00  0.00     0.036 C 
BRANCH  12  14
HETATM   14  O2  UNL     1      75.415  60.080  65.099  1.00  0.00    -0.384 OA
ATOM     15  H2  UNL     1      75.571  59.420  64.433  1.00  0.00     0.211 HD
ENDBRANCH  12  14
BRANCH  13  16
HETATM   16  C12 UNL     1      74.029  59.625  61.738  1.00  0.00     0.039 A 
HETATM   17  C13 UNL     1      75.024  59.739  60.827  1.00  0.00     0.032 A 
HETATM   18  C14 UNL     1      75.337  58.482  60.409  1.00  0.00     0.034 A 
HETATM   19  C15 UNL     1      74.510  57.623  61.090  1.00  0.00     0.054 A 
HETATM   20  N2  UNL     1      73.674  58.326  61.937  1.00  0.00    -0.322 N 
HETATM   21  C35 UNL     1      74.402  56.227  61.062  1.00  0.00     0.126 C 
HETATM   22  C16 UNL     1      72.699  57.742  62.809  1.00  0.00     0.104 C 
HETATM   23  C17 UNL     1      73.016  56.581  63.603  1.00  0.00     0.179 C 
HETATM   24  C18 UNL     1      72.155  56.134  64.726  1.00  0.00     0.163 C 
HETATM   25  O7  UNL     1      72.710  55.472  62.775  1.00  0.00    -0.370 OA
HETATM   26  N3  UNL     1      72.557  54.741  65.049  1.00  0.00    -0.347 N 
HETATM   27  C19 UNL     1      72.537  54.348  66.404  1.00  0.00     0.224 C 
HETATM   28  C27 UNL     1      72.980  53.763  64.021  1.00  0.00     0.159 C 
HETATM   29  O3  UNL     1      72.198  55.233  67.262  1.00  0.00    -0.273 OA
HETATM   30  C28 UNL     1      73.722  54.551  62.991  1.00  0.00     0.158 C 
HETATM   31  C29 UNL     1      74.043  53.913  61.667  1.00  0.00     0.167 C 
HETATM   32  N6  UNL     1      74.705  54.965  60.780  1.00  0.00    -0.299 N 
HETATM   33  C30 UNL     1      75.556  54.472  59.773  1.00  0.00     0.367 C 
HETATM   34  O5  UNL     1      76.138  55.266  59.002  1.00  0.00    -0.238 OA
BRANCH  27  35
HETATM   35  C20 UNL     1      72.869  53.023  66.899  1.00  0.00     0.078 C 
HETATM   36  C21 UNL     1      72.717  52.780  68.356  1.00  0.00     0.017 C 
HETATM   37  C22 UNL     1      73.599  53.681  69.146  1.00  0.00     0.033 C 
HETATM   38  C23 UNL     1      74.956  53.955  68.615  1.00  0.00     0.131 C 
HETATM   39  C25 UNL     1      75.324  53.381  67.289  1.00  0.00     0.033 C 
HETATM   40  C26 UNL     1      74.287  52.634  66.547  1.00  0.00     0.017 C 
BRANCH  38  41
HETATM   41  O4  UNL     1      75.987  53.872  69.585  1.00  0.00    -0.319 OA
BRANCH  41  42
HETATM   42  C24 UNL     1      75.993  54.747  70.640  1.00  0.00     0.225 C 
HETATM   43  N4  UNL     1      75.637  55.950  70.391  1.00  0.00    -0.368 N 
ATOM     44  H42 UNL     1      75.370  56.195  69.437  1.00  0.00     0.159 HD
ATOM     45  H41 UNL     1      75.642  56.602  71.176  1.00  0.00     0.159 HD
HETATM   46  N5  UNL     1      76.364  54.407  71.964  1.00  0.00    -0.057 NA
ENDBRANCH  41  42
ENDBRANCH  38  41
ENDBRANCH  27  35
BRANCH  33  47
HETATM   47  O6  UNL     1      75.760  53.120  59.622  1.00  0.00    -0.294 OA
BRANCH  47  48
HETATM   48  C31 UNL     1      75.245  52.440  58.513  1.00  0.00     0.061 C 
HETATM   49  C32 UNL     1      74.023  53.150  57.981  1.00  0.00     0.046 C 
HETATM   50  C33 UNL     1      76.321  52.322  57.440  1.00  0.00     0.046 C 
HETATM   51  C34 UNL     1      74.863  51.023  58.896  1.00  0.00     0.046 C 
ENDBRANCH  47  48
ENDBRANCH  33  47
ENDBRANCH  13  16
ENDBRANCH   3   4
TORSDOF 8
ENDMDL
MODEL 3
REMARK VINA RESULT: -7.393670944      3.138      8.957
REMARK  8 active torsions:
REMARK  status: ('A' for Active; 'I' for Inactive)
REMARK    1  A    between atoms: C3_3  and  C4_4 
REMARK       I    between atoms: C4_4  and  N1_6 
REMARK    2  A    between atoms: C8_10  and  O2_11 
REMARK    3  A    between atoms: C11_15  and  C12_16 
REMARK       I    between atoms: N3_24  and  C19_25 
REMARK    4  A    between atoms: C19_25  and  C20_27 
REMARK    5  A    between atoms: C23_30  and  O4_31 
REMARK    6  A    between atoms: O4_31  and  C24_32 
REMARK       I    between atoms: N6_42  and  C30_43 
REMARK    7  A    between atoms: C30_43  and  O6_45 
REMARK    8  A    between atoms: O6_45  and  C31_46 
ROOT
HETATM    1  C1  UNL     1      73.767  47.574  70.206  1.00  0.00     0.012 C 
HETATM    2  C2  UNL     1      73.042  47.618  69.242  1.00  0.00    -0.108 C 
HETATM    3  C3  UNL     1      72.155  47.678  68.098  1.00  0.00     0.196 C 
ENDROOT
BRANCH   3   4
HETATM    4  C4  UNL     1      71.264  48.868  68.179  1.00  0.00     0.231 C 
HETATM    5  O1  UNL     1      70.929  49.286  69.316  1.00  0.00    -0.272 OA
HETATM    6  N1  UNL     1      70.790  49.530  67.004  1.00  0.00    -0.348 N 
HETATM    7  C5  UNL     1      71.206  49.000  65.714  1.00  0.00     0.135 C 
HETATM    8  C9  UNL     1      69.937  50.677  67.155  1.00  0.00     0.168 C 
HETATM    9  C6  UNL     1      70.483  49.766  64.658  1.00  0.00     0.039 C 
HETATM   10  C7  UNL     1      69.037  49.897  65.029  1.00  0.00     0.055 C 
HETATM   11  C10 UNL     1      70.627  51.273  64.859  1.00  0.00    -0.036 C 
HETATM   12  C8  UNL     1      69.492  51.157  65.779  1.00  0.00     0.098 C 
HETATM   13  C11 UNL     1      71.530  52.042  64.315  1.00  0.00     0.036 C 
BRANCH  12  14
HETATM   14  O2  UNL     1      68.532  52.132  65.812  1.00  0.00    -0.384 OA
ATOM     15  H2  UNL     1      68.488  52.579  66.649  1.00  0.00     0.211 HD
ENDBRANCH  12  14
BRANCH  13  16
HETATM   16  C12 UNL     1      71.675  53.476  64.494  1.00  0.00     0.039 A 
HETATM   17  C13 UNL     1      70.797  54.378  63.998  1.00  0.00     0.032 A 
HETATM   18  C14 UNL     1      71.207  55.610  64.407  1.00  0.00     0.034 A 
HETATM   19  C15 UNL     1      72.343  55.419  65.155  1.00  0.00     0.054 A 
HETATM   20  N2  UNL     1      72.656  54.075  65.223  1.00  0.00    -0.322 N 
HETATM   21  C35 UNL     1      73.171  56.328  65.826  1.00  0.00     0.126 C 
HETATM   22  C16 UNL     1      73.767  53.520  65.938  1.00  0.00     0.104 C 
HETATM   23  C17 UNL     1      74.087  53.966  67.271  1.00  0.00     0.179 C 
HETATM   24  C18 UNL     1      75.021  53.220  68.150  1.00  0.00     0.163 C 
HETATM   25  O7  UNL     1      74.957  55.071  67.093  1.00  0.00    -0.370 OA
HETATM   26  N3  UNL     1      75.406  54.140  69.251  1.00  0.00    -0.347 N 
HETATM   27  C19 UNL     1      75.590  53.588  70.536  1.00  0.00     0.224 C 
HETATM   28  C27 UNL     1      75.592  55.597  69.059  1.00  0.00     0.159 C 
HETATM   29  O3  UNL     1      75.386  52.333  70.665  1.00  0.00    -0.273 OA
HETATM   30  C28 UNL     1      74.577  56.006  68.042  1.00  0.00     0.158 C 
HETATM   31  C29 UNL     1      74.679  57.365  67.406  1.00  0.00     0.167 C 
HETATM   32  N6  UNL     1      73.589  57.477  66.343  1.00  0.00    -0.299 N 
HETATM   33  C30 UNL     1      73.156  58.782  66.042  1.00  0.00     0.367 C 
HETATM   34  O5  UNL     1      72.265  58.963  65.184  1.00  0.00    -0.238 OA
BRANCH  27  35
HETATM   35  C20 UNL     1      75.993  54.329  71.719  1.00  0.00     0.078 C 
HETATM   36  C21 UNL     1      76.951  53.672  72.644  1.00  0.00     0.017 C 
HETATM   37  C22 UNL     1      76.388  52.411  73.195  1.00  0.00     0.033 C 
HETATM   38  C23 UNL     1      74.947  52.397  73.546  1.00  0.00     0.131 C 
HETATM   39  C25 UNL     1      74.136  53.613  73.251  1.00  0.00     0.033 C 
HETATM   40  C26 UNL     1      74.801  54.735  72.557  1.00  0.00     0.017 C 
BRANCH  38  41
HETATM   41  O4  UNL     1      74.661  51.805  74.803  1.00  0.00    -0.319 OA
BRANCH  41  42
HETATM   42  C24 UNL     1      75.401  52.160  75.900  1.00  0.00     0.225 C 
HETATM   43  N4  UNL     1      76.072  51.229  76.468  1.00  0.00    -0.368 N 
ATOM     44  H42 UNL     1      76.024  50.286  76.082  1.00  0.00     0.159 HD
ATOM     45  H41 UNL     1      76.622  51.493  77.285  1.00  0.00     0.159 HD
HETATM   46  N5  UNL     1      75.467  53.470  76.436  1.00  0.00    -0.057 NA
ENDBRANCH  41  42
ENDBRANCH  38  41
ENDBRANCH  27  35
BRANCH  33  47
HETATM   47  O6  UNL     1      73.700  59.870  66.683  1.00  0.00    -0.294 OA
BRANCH  47  48
HETATM   48  C31 UNL     1      74.669  60.658  66.053  1.00  0.00     0.061 C 
HETATM   49  C32 UNL     1      74.099  62.012  65.701  1.00  0.00     0.046 C 
HETATM   50  C33 UNL     1      75.887  60.796  66.959  1.00  0.00     0.046 C 
HETATM   51  C34 UNL     1      75.152  59.982  64.784  1.00  0.00     0.046 C 
ENDBRANCH  47  48
ENDBRANCH  33  47
ENDBRANCH  13  16
ENDBRANCH   3   4
TORSDOF 8
ENDMDL
MODEL 4
REMARK VINA RESULT: -7.393537942      3.925      7.829
REMARK  8 active torsions:
REMARK  status: ('A' for Active; 'I' for Inactive)
REMARK    1  A    between atoms: C3_3  and  C4_4 
REMARK       I    between atoms: C4_4  and  N1_6 
REMARK    2  A    between atoms: C8_10  and  O2_11 
REMARK    3  A    between atoms: C11_15  and  C12_16 
REMARK       I    between atoms: N3_24  and  C19_25 
REMARK    4  A    between atoms: C19_25  and  C20_27 
REMARK    5  A    between atoms: C23_30  and  O4_31 
REMARK    6  A    between atoms: O4_31  and  C24_32 
REMARK       I    between atoms: N6_42  and  C30_43 
REMARK    7  A    between atoms: C30_43  and  O6_45 
REMARK    8  A    between atoms: O6_45  and  C31_46 
ROOT
HETATM    1  C1  UNL     1      69.046  51.233  69.145  1.00  0.00     0.012 C 
HETATM    2  C2  UNL     1      69.979  51.923  68.814  1.00  0.00    -0.108 C 
HETATM    3  C3  UNL     1      71.100  52.742  68.395  1.00  0.00     0.196 C 
ENDROOT
BRANCH   3   4
HETATM    4  C4  UNL     1      70.954  53.153  66.972  1.00  0.00     0.231 C 
HETATM    5  O1  UNL     1      69.818  53.073  66.441  1.00  0.00    -0.272 OA
HETATM    6  N1  UNL     1      72.067  53.630  66.213  1.00  0.00    -0.348 N 
HETATM    7  C5  UNL     1      73.360  53.698  66.877  1.00  0.00     0.135 C 
HETATM    8  C9  UNL     1      71.854  54.016  64.845  1.00  0.00     0.168 C 
HETATM    9  C6  UNL     1      74.372  54.090  65.854  1.00  0.00     0.039 C 
HETATM   10  C7  UNL     1      74.167  53.286  64.606  1.00  0.00     0.055 C 
HETATM   11  C10 UNL     1      73.935  55.329  65.076  1.00  0.00    -0.036 C 
HETATM   12  C8  UNL     1      73.189  54.404  64.219  1.00  0.00     0.098 C 
HETATM   13  C11 UNL     1      74.243  56.566  65.356  1.00  0.00     0.036 C 
BRANCH  12  14
HETATM   14  O2  UNL     1      73.131  54.614  62.867  1.00  0.00    -0.384 OA
ATOM     15  H2  UNL     1      73.256  53.818  62.364  1.00  0.00     0.211 HD
ENDBRANCH  12  14
BRANCH  13  16
HETATM   16  C12 UNL     1      73.838  57.752  64.623  1.00  0.00     0.039 A 
HETATM   17  C13 UNL     1      74.107  57.940  63.309  1.00  0.00     0.032 A 
HETATM   18  C14 UNL     1      73.529  59.117  62.943  1.00  0.00     0.034 A 
HETATM   19  C15 UNL     1      72.913  59.620  64.063  1.00  0.00     0.054 A 
HETATM   20  N2  UNL     1      73.096  58.770  65.137  1.00  0.00    -0.322 N 
HETATM   21  C35 UNL     1      72.165  60.787  64.261  1.00  0.00     0.126 C 
HETATM   22  C16 UNL     1      72.572  58.978  66.454  1.00  0.00     0.104 C 
HETATM   23  C17 UNL     1      71.210  59.413  66.649  1.00  0.00     0.179 C 
HETATM   24  C18 UNL     1      70.543  59.348  67.973  1.00  0.00     0.163 C 
HETATM   25  O7  UNL     1      71.267  60.829  66.619  1.00  0.00    -0.370 OA
HETATM   26  N3  UNL     1      69.337  60.210  67.891  1.00  0.00    -0.347 N 
HETATM   27  C19 UNL     1      68.180  59.791  68.582  1.00  0.00     0.224 C 
HETATM   28  C27 UNL     1      69.295  61.471  67.115  1.00  0.00     0.159 C 
HETATM   29  O3  UNL     1      68.249  58.681  69.211  1.00  0.00    -0.273 OA
HETATM   30  C28 UNL     1      70.148  61.235  65.911  1.00  0.00     0.158 C 
HETATM   31  C29 UNL     1      70.553  62.404  65.056  1.00  0.00     0.167 C 
HETATM   32  N6  UNL     1      71.495  61.896  63.968  1.00  0.00    -0.299 N 
HETATM   33  C30 UNL     1      71.539  62.660  62.786  1.00  0.00     0.367 C 
HETATM   34  O5  UNL     1      72.283  62.312  61.844  1.00  0.00    -0.238 OA
BRANCH  27  35
HETATM   35  C20 UNL     1      66.924  60.519  68.636  1.00  0.00     0.078 C 
HETATM   36  C21 UNL     1      66.964  61.915  69.139  1.00  0.00     0.017 C 
HETATM   37  C22 UNL     1      67.460  61.968  70.540  1.00  0.00     0.033 C 
HETATM   38  C23 UNL     1      67.019  60.898  71.467  1.00  0.00     0.131 C 
HETATM   39  C25 UNL     1      66.178  59.794  70.922  1.00  0.00     0.033 C 
HETATM   40  C26 UNL     1      65.894  59.794  69.472  1.00  0.00     0.017 C 
BRANCH  38  41
HETATM   41  O4  UNL     1      66.603  61.366  72.739  1.00  0.00    -0.319 OA
BRANCH  41  42
HETATM   42  C24 UNL     1      67.459  62.125  73.493  1.00  0.00     0.225 C 
HETATM   43  N4  UNL     1      68.559  61.573  73.846  1.00  0.00    -0.368 N 
ATOM     44  H42 UNL     1      68.741  60.613  73.554  1.00  0.00     0.159 HD
ATOM     45  H41 UNL     1      69.196  62.138  74.407  1.00  0.00     0.159 HD
HETATM   46  N5  UNL     1      67.206  63.459  73.898  1.00  0.00    -0.057 NA
ENDBRANCH  41  42
ENDBRANCH  38  41
ENDBRANCH  27  35
BRANCH  33  47
HETATM   47  O6  UNL     1      70.768  63.790  62.649  1.00  0.00    -0.294 OA
BRANCH  47  48
HETATM   48  C31 UNL     1      69.678  63.809  61.772  1.00  0.00     0.061 C 
HETATM   49  C32 UNL     1      68.553  64.636  62.347  1.00  0.00     0.046 C 
HETATM   50  C33 UNL     1      70.121  64.352  60.418  1.00  0.00     0.046 C 
HETATM   51  C34 UNL     1      69.177  62.399  61.526  1.00  0.00     0.046 C 
ENDBRANCH  47  48
ENDBRANCH  33  47
ENDBRANCH  13  16
ENDBRANCH   3   4
TORSDOF 8
ENDMDL
MODEL 5
REMARK VINA RESULT: -7.315697979      2.544      8.263
REMARK  8 active torsions:
REMARK  status: ('A' for Active; 'I' for Inactive)
REMARK    1  A    between atoms: C3_3  and  C4_4 
REMARK       I    between atoms: C4_4  and  N1_6 
REMARK    2  A    between atoms: C8_10  and  O2_11 
REMARK    3  A    between atoms: C11_15  and  C12_16 
REMARK       I    between atoms: N3_24  and  C19_25 
REMARK    4  A    between atoms: C19_25  and  C20_27 
REMARK    5  A    between atoms: C23_30  and  O4_31 
REMARK    6  A    between atoms: O4_31  and  C24_32 
REMARK       I    between atoms: N6_42  and  C30_43 
REMARK    7  A    between atoms: C30_43  and  O6_45 
REMARK    8  A    between atoms: O6_45  and  C31_46 
ROOT
HETATM    1  C1  UNL     1      70.107  56.651  60.238  1.00  0.00     0.012 C 
HETATM    2  C2  UNL     1      70.603  55.576  60.001  1.00  0.00    -0.108 C 
HETATM    3  C3  UNL     1      71.220  54.297  59.714  1.00  0.00     0.196 C 
ENDROOT
BRANCH   3   4
HETATM    4  C4  UNL     1      72.581  54.217  60.311  1.00  0.00     0.231 C 
HETATM    5  O1  UNL     1      73.311  55.239  60.271  1.00  0.00    -0.272 OA
HETATM    6  N1  UNL     1      73.063  53.017  60.919  1.00  0.00    -0.348 N 
HETATM    7  C5  UNL     1      72.177  51.863  60.934  1.00  0.00     0.135 C 
HETATM    8  C9  UNL     1      74.386  53.011  61.482  1.00  0.00     0.168 C 
HETATM    9  C6  UNL     1      72.944  50.712  61.491  1.00  0.00     0.039 C 
HETATM   10  C7  UNL     1      74.302  50.657  60.859  1.00  0.00     0.055 C 
HETATM   11  C10 UNL     1      73.622  51.074  62.811  1.00  0.00    -0.036 C 
HETATM   12  C8  UNL     1      74.709  51.612  61.990  1.00  0.00     0.098 C 
HETATM   13  C11 UNL     1      73.134  50.884  64.007  1.00  0.00     0.036 C 
BRANCH  12  14
HETATM   14  O2  UNL     1      76.011  51.448  62.381  1.00  0.00    -0.384 OA
ATOM     15  H2  UNL     1      76.172  51.753  63.266  1.00  0.00     0.211 HD
ENDBRANCH  12  14
BRANCH  13  16
HETATM   16  C12 UNL     1      73.768  51.219  65.269  1.00  0.00     0.039 A 
HETATM   17  C13 UNL     1      74.514  50.342  65.981  1.00  0.00     0.032 A 
HETATM   18  C14 UNL     1      75.000  51.009  67.065  1.00  0.00     0.034 A 
HETATM   19  C15 UNL     1      74.528  52.296  66.979  1.00  0.00     0.054 A 
HETATM   20  N2  UNL     1      73.747  52.451  65.849  1.00  0.00    -0.322 N 
HETATM   21  C35 UNL     1      74.720  53.407  67.810  1.00  0.00     0.126 C 
HETATM   22  C16 UNL     1      73.113  53.669  65.443  1.00  0.00     0.104 C 
HETATM   23  C17 UNL     1      73.825  54.923  65.485  1.00  0.00     0.179 C 
HETATM   24  C18 UNL     1      73.320  56.140  64.800  1.00  0.00     0.163 C 
HETATM   25  O7  UNL     1      73.604  55.429  66.791  1.00  0.00    -0.370 OA
HETATM   26  N3  UNL     1      74.067  57.293  65.363  1.00  0.00    -0.347 N 
HETATM   27  C19 UNL     1      74.403  58.349  64.490  1.00  0.00     0.224 C 
HETATM   28  C27 UNL     1      74.478  57.375  66.784  1.00  0.00     0.159 C 
HETATM   29  O3  UNL     1      74.060  58.223  63.265  1.00  0.00    -0.273 OA
HETATM   30  C28 UNL     1      74.813  55.977  67.191  1.00  0.00     0.158 C 
HETATM   31  C29 UNL     1      74.993  55.658  68.650  1.00  0.00     0.167 C 
HETATM   32  N6  UNL     1      75.223  54.155  68.785  1.00  0.00    -0.299 N 
HETATM   33  C30 UNL     1      75.942  53.743  69.923  1.00  0.00     0.367 C 
HETATM   34  O5  UNL     1      76.175  52.529  70.109  1.00  0.00    -0.238 OA
BRANCH  27  35
HETATM   35  C20 UNL     1      75.104  59.564  64.871  1.00  0.00     0.078 C 
HETATM   36  C21 UNL     1      74.503  60.390  65.949  1.00  0.00     0.017 C 
HETATM   37  C22 UNL     1      73.149  60.872  65.566  1.00  0.00     0.033 C 
HETATM   38  C23 UNL     1      72.940  61.290  64.159  1.00  0.00     0.131 C 
HETATM   39  C25 UNL     1      74.069  61.125  63.198  1.00  0.00     0.033 C 
HETATM   40  C26 UNL     1      75.307  60.486  63.691  1.00  0.00     0.017 C 
BRANCH  38  41
HETATM   41  O4  UNL     1      72.234  62.511  64.014  1.00  0.00    -0.319 OA
BRANCH  41  42
HETATM   42  C24 UNL     1      71.421  62.695  62.926  1.00  0.00     0.225 C 
HETATM   43  N4  UNL     1      71.559  63.794  62.284  1.00  0.00    -0.368 N 
ATOM     44  H42 UNL     1      72.254  64.467  62.608  1.00  0.00     0.159 HD
ATOM     45  H41 UNL     1      70.954  63.932  61.475  1.00  0.00     0.159 HD
HETATM   46  N5  UNL     1      70.456  61.761  62.476  1.00  0.00    -0.057 NA
ENDBRANCH  41  42
ENDBRANCH  38  41
ENDBRANCH  27  35
BRANCH  33  47
HETATM   47  O6  UNL     1      76.397  54.662  70.839  1.00  0.00    -0.294 OA
BRANCH  47  48
HETATM   48  C31 UNL     1      76.019  54.576  72.183  1.00  0.00     0.061 C 
HETATM   49  C32 UNL     1      76.311  55.875  72.896  1.00  0.00     0.046 C 
HETATM   50  C33 UNL     1      74.540  54.220  72.277  1.00  0.00     0.046 C 
HETATM   51  C34 UNL     1      76.775  53.456  72.872  1.00  0.00     0.046 C 
ENDBRANCH  47  48
ENDBRANCH  33  47
ENDBRANCH  13  16
ENDBRANCH   3   4
TORSDOF 8
ENDMDL
