MODEL 1
REMARK VINA RESULT: -8.156198488      0.000      0.000
REMARK  9 active torsions:
REMARK  status: ('A' for Active; 'I' for Inactive)
REMARK    1  A    between atoms: C7_7  and  C28_43 
REMARK    2  A    between atoms: C10_10  and  C11_11 
REMARK    3  A    between atoms: C13_13  and  C14_14 
REMARK       I    between atoms: C14_14  and  N1_16 
REMARK    4  A    between atoms: N2_19  and  S1_20 
REMARK    5  A    between atoms: C18_24  and  C19_25 
REMARK    6  A    between atoms: C19_25  and  N4_29 
REMARK    7  A    between atoms: N4_29  and  C20_31 
REMARK    8  A    between atoms: C25_36  and  O4_37 
REMARK    9  A    between atoms: C26_39  and  O5_40 
ROOT
HETATM    1  C14 UNL     1      13.711  -9.773  14.358  1.00  0.00     0.224 C 
HETATM    2  O1  UNL     1      13.926 -10.539  13.396  1.00  0.00    -0.273 OA
HETATM    3  N1  UNL     1      12.542  -9.977  15.112  1.00  0.00    -0.348 N 
HETATM    4  C15 UNL     1      11.608 -11.041  14.865  1.00  0.00     0.146 C 
HETATM    5  C16 UNL     1      10.640 -11.282  15.967  1.00  0.00     0.156 C 
HETATM    6  N2  UNL     1      10.102 -10.154  16.630  1.00  0.00    -0.296 N 
HETATM    7  C18 UNL     1      10.836  -8.937  16.564  1.00  0.00     0.180 C 
HETATM    8  C27 UNL     1      12.264  -9.040  16.172  1.00  0.00     0.159 C 
ENDROOT
BRANCH   1   9
HETATM    9  C13 UNL     1      14.653  -8.713  14.667  1.00  0.00     0.087 C 
HETATM   10  C12 UNL     1      16.048  -9.034  15.054  1.00  0.00     0.020 C 
HETATM   11  C11 UNL     1      16.967  -7.963  14.405  1.00  0.00     0.000 C 
HETATM   12  C30 UNL     1      15.937  -6.909  14.302  1.00  0.00    -0.035 C 
HETATM   13  C28 UNL     1      14.983  -7.783  13.492  1.00  0.00    -0.021 C 
HETATM   14  C31 UNL     1      16.120  -5.556  13.860  1.00  0.00     0.016 C 
HETATM   15  C32 UNL     1      15.420  -6.656  15.727  1.00  0.00     0.016 C 
HETATM   16  C29 UNL     1      13.755  -6.946  13.236  1.00  0.00     0.017 C 
BRANCH  11  17
HETATM   17  C10 UNL     1      17.818  -8.400  13.332  1.00  0.00     0.007 C 
HETATM   18  C5  UNL     1      18.600  -9.698  13.402  1.00  0.00     0.032 C 
HETATM   19  C4  UNL     1      19.507  -9.835  12.158  1.00  0.00     0.045 C 
HETATM   20  C6  UNL     1      19.413  -9.692  14.597  1.00  0.00     0.023 C 
HETATM   21  C33 UNL     1      17.852 -10.892  12.950  1.00  0.00     0.164 C 
HETATM   22  C3  UNL     1      18.549  -9.831  11.064  1.00  0.00    -0.015 C 
HETATM   23  C2  UNL     1      17.496 -10.505  11.558  1.00  0.00    -0.019 C 
HETATM   24  C1  UNL     1      16.222 -10.803  10.854  1.00  0.00     0.052 C 
HETATM   25  C7  UNL     1      19.356  -8.312  15.297  1.00  0.00    -0.004 C 
HETATM   26  C8  UNL     1      19.810  -7.417  14.216  1.00  0.00     0.006 C 
HETATM   27  C9  UNL     1      18.931  -7.391  12.992  1.00  0.00     0.007 C 
HETATM   28  O6  UNL     1      17.531 -11.974  13.445  1.00  0.00    -0.292 OA
ENDBRANCH  11  17
ENDBRANCH   1   9
BRANCH   7  29
HETATM   29  C19 UNL     1      10.164  -7.946  15.683  1.00  0.00     0.096 C 
HETATM   30  N3  UNL     1      10.208  -6.702  16.032  1.00  0.00    -0.387 N 
ATOM     31  H32 UNL     1      10.698  -6.478  16.897  1.00  0.00     0.157 HD
ATOM     32  H31 UNL     1       9.747  -6.023  15.427  1.00  0.00     0.157 HD
BRANCH  29  33
HETATM   33  N4  UNL     1       9.485  -8.256  14.484  1.00  0.00    -0.371 N 
ATOM     34  H4  UNL     1       9.939  -8.941  13.880  1.00  0.00     0.161 HD
BRANCH  33  35
HETATM   35  C20 UNL     1       8.247  -7.734  14.012  1.00  0.00     0.114 C 
HETATM   36  C21 UNL     1       8.300  -7.225  12.604  1.00  0.00     0.028 C 
HETATM   37  C22 UNL     1       7.419  -5.992  12.480  1.00  0.00     0.002 C 
HETATM   38  C23 UNL     1       5.975  -6.345  12.255  1.00  0.00     0.003 C 
HETATM   39  C24 UNL     1       5.450  -7.089  13.466  1.00  0.00     0.034 C 
HETATM   40  C25 UNL     1       5.904  -8.513  13.452  1.00  0.00     0.148 C 
HETATM   41  C26 UNL     1       7.180  -8.779  14.164  1.00  0.00     0.169 C 
BRANCH  40  42
HETATM   42  O4  UNL     1       4.890  -9.289  14.019  1.00  0.00    -0.393 OA
ATOM     43  H4  UNL     1       4.161  -9.301  13.411  1.00  0.00     0.210 HD
ENDBRANCH  40  42
BRANCH  41  44
HETATM   44  O5  UNL     1       7.006  -8.984  15.552  1.00  0.00    -0.391 OA
ATOM     45  H5  UNL     1       6.070  -9.013  15.709  1.00  0.00     0.210 HD
ENDBRANCH  41  44
ENDBRANCH  33  35
ENDBRANCH  29  33
ENDBRANCH   7  29
BRANCH   6  46
HETATM   46  S1  UNL     1       9.489 -10.472  18.190  1.00  0.00     0.225 S 
HETATM   47  C17 UNL     1      10.032 -12.007  18.849  1.00  0.00     0.186 C 
HETATM   48  O2  UNL     1       9.827  -9.345  19.149  1.00  0.00    -0.206 OA
HETATM   49  O3  UNL     1       7.971 -10.495  18.124  1.00  0.00    -0.206 OA
ENDBRANCH   6  46
TORSDOF 9
ENDMDL
MODEL 2
REMARK VINA RESULT: -7.775743441      1.012      1.071
REMARK  9 active torsions:
REMARK  status: ('A' for Active; 'I' for Inactive)
REMARK    1  A    between atoms: C7_7  and  C28_43 
REMARK    2  A    between atoms: C10_10  and  C11_11 
REMARK    3  A    between atoms: C13_13  and  C14_14 
REMARK       I    between atoms: C14_14  and  N1_16 
REMARK    4  A    between atoms: N2_19  and  S1_20 
REMARK    5  A    between atoms: C18_24  and  C19_25 
REMARK    6  A    between atoms: C19_25  and  N4_29 
REMARK    7  A    between atoms: N4_29  and  C20_31 
REMARK    8  A    between atoms: C25_36  and  O4_37 
REMARK    9  A    between atoms: C26_39  and  O5_40 
ROOT
HETATM    1  C14 UNL     1      14.574  -9.618  14.530  1.00  0.00     0.224 C 
HETATM    2  O1  UNL     1      14.793 -10.538  13.713  1.00  0.00    -0.273 OA
HETATM    3  N1  UNL     1      13.398  -9.686  15.297  1.00  0.00    -0.348 N 
HETATM    4  C15 UNL     1      12.460 -10.774  15.225  1.00  0.00     0.146 C 
HETATM    5  C16 UNL     1      11.482 -10.819  16.344  1.00  0.00     0.156 C 
HETATM    6  N2  UNL     1      10.945  -9.593  16.800  1.00  0.00    -0.296 N 
HETATM    7  C18 UNL     1      11.686  -8.408  16.534  1.00  0.00     0.180 C 
HETATM    8  C27 UNL     1      13.116  -8.582  16.179  1.00  0.00     0.159 C 
ENDROOT
BRANCH   1   9
HETATM    9  C13 UNL     1      15.520  -8.526  14.663  1.00  0.00     0.087 C 
HETATM   10  C12 UNL     1      16.898  -8.776  15.149  1.00  0.00     0.020 C 
HETATM   11  C11 UNL     1      17.850  -7.854  14.339  1.00  0.00     0.000 C 
HETATM   12  C30 UNL     1      16.837  -6.832  14.003  1.00  0.00    -0.035 C 
HETATM   13  C28 UNL     1      15.898  -7.839  13.343  1.00  0.00    -0.021 C 
HETATM   14  C31 UNL     1      17.051  -5.590  13.319  1.00  0.00     0.016 C 
HETATM   15  C32 UNL     1      16.279  -6.310  15.337  1.00  0.00     0.016 C 
HETATM   16  C29 UNL     1      14.689  -7.058  12.893  1.00  0.00     0.017 C 
BRANCH  11  17
HETATM   17  C10 UNL     1      18.728  -8.493  13.396  1.00  0.00     0.007 C 
HETATM   18  C5  UNL     1      19.279  -9.887  13.627  1.00  0.00     0.032 C 
HETATM   19  C4  UNL     1      20.279 -10.252  12.506  1.00  0.00     0.045 C 
HETATM   20  C6  UNL     1      19.952  -9.921  14.906  1.00  0.00     0.023 C 
HETATM   21  C33 UNL     1      18.401 -10.982  13.157  1.00  0.00     0.164 C 
HETATM   22  C3  UNL     1      19.456 -10.179  11.310  1.00  0.00    -0.015 C 
HETATM   23  C2  UNL     1      18.262 -10.646  11.715  1.00  0.00    -0.019 C 
HETATM   24  C1  UNL     1      17.037 -10.794  10.885  1.00  0.00     0.052 C 
HETATM   25  C7  UNL     1      20.044  -8.502  15.519  1.00  0.00    -0.004 C 
HETATM   26  C8  UNL     1      20.748  -7.768  14.452  1.00  0.00     0.006 C 
HETATM   27  C9  UNL     1      20.019  -7.695  13.134  1.00  0.00     0.007 C 
HETATM   28  O6  UNL     1      17.859 -11.963  13.670  1.00  0.00    -0.292 OA
ENDBRANCH  11  17
ENDBRANCH   1   9
BRANCH   7  29
HETATM   29  C19 UNL     1      11.026  -7.578  15.492  1.00  0.00     0.096 C 
HETATM   30  N3  UNL     1      11.688  -7.333  14.409  1.00  0.00    -0.387 N 
ATOM     31  H32 UNL     1      12.629  -7.720  14.341  1.00  0.00     0.157 HD
ATOM     32  H31 UNL     1      11.235  -6.764  13.694  1.00  0.00     0.157 HD
BRANCH  29  33
HETATM   33  N4  UNL     1       9.723  -7.043  15.587  1.00  0.00    -0.371 N 
ATOM     34  H4  UNL     1       9.542  -6.453  16.399  1.00  0.00     0.161 HD
BRANCH  33  35
HETATM   35  C20 UNL     1       8.629  -7.221  14.693  1.00  0.00     0.114 C 
HETATM   36  C21 UNL     1       8.965  -6.943  13.260  1.00  0.00     0.028 C 
HETATM   37  C22 UNL     1       7.773  -6.286  12.581  1.00  0.00     0.002 C 
HETATM   38  C23 UNL     1       6.762  -7.292  12.107  1.00  0.00     0.003 C 
HETATM   39  C24 UNL     1       6.186  -8.020  13.304  1.00  0.00     0.034 C 
HETATM   40  C25 UNL     1       7.137  -9.061  13.801  1.00  0.00     0.148 C 
HETATM   41  C26 UNL     1       8.080  -8.608  14.855  1.00  0.00     0.169 C 
BRANCH  40  42
HETATM   42  O4  UNL     1       6.382 -10.131  14.287  1.00  0.00    -0.393 OA
ATOM     43  H4  UNL     1       5.465  -9.897  14.211  1.00  0.00     0.210 HD
ENDBRANCH  40  42
BRANCH  41  44
HETATM   44  O5  UNL     1       7.529  -8.678  16.156  1.00  0.00    -0.391 OA
ATOM     45  H5  UNL     1       7.581  -9.586  16.426  1.00  0.00     0.210 HD
ENDBRANCH  41  44
ENDBRANCH  33  35
ENDBRANCH  29  33
ENDBRANCH   7  29
BRANCH   6  46
HETATM   46  S1  UNL     1      10.317  -9.638  18.385  1.00  0.00     0.225 S 
HETATM   47  C17 UNL     1      10.911 -10.996  19.327  1.00  0.00     0.186 C 
HETATM   48  O2  UNL     1      10.590  -8.337  19.117  1.00  0.00    -0.206 OA
HETATM   49  O3  UNL     1       8.803  -9.741  18.309  1.00  0.00    -0.206 OA
ENDBRANCH   6  46
TORSDOF 9
ENDMDL
MODEL 3
REMARK VINA RESULT: -7.723768766      1.223      1.590
REMARK  9 active torsions:
REMARK  status: ('A' for Active; 'I' for Inactive)
REMARK    1  A    between atoms: C7_7  and  C28_43 
REMARK    2  A    between atoms: C10_10  and  C11_11 
REMARK    3  A    between atoms: C13_13  and  C14_14 
REMARK       I    between atoms: C14_14  and  N1_16 
REMARK    4  A    between atoms: N2_19  and  S1_20 
REMARK    5  A    between atoms: C18_24  and  C19_25 
REMARK    6  A    between atoms: C19_25  and  N4_29 
REMARK    7  A    between atoms: N4_29  and  C20_31 
REMARK    8  A    between atoms: C25_36  and  O4_37 
REMARK    9  A    between atoms: C26_39  and  O5_40 
ROOT
HETATM    1  C14 UNL     1      14.262  -9.587  14.436  1.00  0.00     0.224 C 
HETATM    2  O1  UNL     1      14.450 -10.495  13.599  1.00  0.00    -0.273 OA
HETATM    3  N1  UNL     1      13.118  -9.668  15.249  1.00  0.00    -0.348 N 
HETATM    4  C15 UNL     1      12.180 -10.757  15.200  1.00  0.00     0.146 C 
HETATM    5  C16 UNL     1      11.248 -10.820  16.357  1.00  0.00     0.156 C 
HETATM    6  N2  UNL     1      10.727  -9.601  16.851  1.00  0.00    -0.296 N 
HETATM    7  C18 UNL     1      11.455  -8.411  16.571  1.00  0.00     0.180 C 
HETATM    8  C27 UNL     1      12.869  -8.576  16.157  1.00  0.00     0.159 C 
ENDROOT
BRANCH   1   9
HETATM    9  C13 UNL     1      15.210  -8.494  14.546  1.00  0.00     0.087 C 
HETATM   10  C12 UNL     1      16.608  -8.747  14.969  1.00  0.00     0.020 C 
HETATM   11  C11 UNL     1      17.523  -7.810  14.133  1.00  0.00     0.000 C 
HETATM   12  C30 UNL     1      16.495  -6.786  13.857  1.00  0.00    -0.035 C 
HETATM   13  C28 UNL     1      15.530  -7.785  13.223  1.00  0.00    -0.021 C 
HETATM   14  C31 UNL     1      16.676  -5.533  13.185  1.00  0.00     0.016 C 
HETATM   15  C32 UNL     1      15.993  -6.286  15.222  1.00  0.00     0.016 C 
HETATM   16  C29 UNL     1      14.301  -7.001  12.836  1.00  0.00     0.017 C 
BRANCH  11  17
HETATM   17  C10 UNL     1      18.361  -8.432  13.145  1.00  0.00     0.007 C 
HETATM   18  C5  UNL     1      18.930  -9.826  13.333  1.00  0.00     0.032 C 
HETATM   19  C4  UNL     1      19.880 -10.169  12.163  1.00  0.00     0.045 C 
HETATM   20  C6  UNL     1      19.660  -9.871  14.580  1.00  0.00     0.023 C 
HETATM   21  C33 UNL     1      18.038 -10.920  12.889  1.00  0.00     0.164 C 
HETATM   22  C3  UNL     1      19.004 -10.087  11.006  1.00  0.00    -0.015 C 
HETATM   23  C2  UNL     1      17.832 -10.567  11.458  1.00  0.00    -0.019 C 
HETATM   24  C1  UNL     1      16.573 -10.712  10.683  1.00  0.00     0.052 C 
HETATM   25  C7  UNL     1      19.771  -8.459  15.206  1.00  0.00    -0.004 C 
HETATM   26  C8  UNL     1      20.422  -7.707  14.117  1.00  0.00     0.006 C 
HETATM   27  C9  UNL     1      19.635  -7.623  12.835  1.00  0.00     0.007 C 
HETATM   28  O6  UNL     1      17.525 -11.911  13.413  1.00  0.00    -0.292 OA
ENDBRANCH  11  17
ENDBRANCH   1   9
BRANCH   7  29
HETATM   29  C19 UNL     1      10.752  -7.569  15.568  1.00  0.00     0.096 C 
HETATM   30  N3  UNL     1      11.471  -6.953  14.689  1.00  0.00    -0.387 N 
ATOM     31  H32 UNL     1      12.481  -7.078  14.743  1.00  0.00     0.157 HD
ATOM     32  H31 UNL     1      10.988  -6.376  14.000  1.00  0.00     0.157 HD
BRANCH  29  33
HETATM   33  N4  UNL     1       9.353  -7.396  15.493  1.00  0.00    -0.371 N 
ATOM     34  H4  UNL     1       8.943  -6.771  16.187  1.00  0.00     0.161 HD
BRANCH  33  35
HETATM   35  C20 UNL     1       8.440  -7.983  14.570  1.00  0.00     0.114 C 
HETATM   36  C21 UNL     1       7.265  -8.648  15.219  1.00  0.00     0.028 C 
HETATM   37  C22 UNL     1       6.896  -9.898  14.436  1.00  0.00     0.002 C 
HETATM   38  C23 UNL     1       6.019  -9.591  13.254  1.00  0.00     0.003 C 
HETATM   39  C24 UNL     1       6.786  -8.721  12.278  1.00  0.00     0.034 C 
HETATM   40  C25 UNL     1       6.822  -7.302  12.747  1.00  0.00     0.148 C 
HETATM   41  C26 UNL     1       7.992  -6.942  13.588  1.00  0.00     0.169 C 
BRANCH  40  42
HETATM   42  O4  UNL     1       6.794  -6.480  11.618  1.00  0.00    -0.393 OA
ATOM     43  H4  UNL     1       7.568  -5.930  11.642  1.00  0.00     0.210 HD
ENDBRANCH  40  42
BRANCH  41  44
HETATM   44  O5  UNL     1       9.128  -6.583  12.828  1.00  0.00    -0.391 OA
ATOM     45  H5  UNL     1       9.764  -6.227  13.438  1.00  0.00     0.210 HD
ENDBRANCH  41  44
ENDBRANCH  33  35
ENDBRANCH  29  33
ENDBRANCH   7  29
BRANCH   6  46
HETATM   46  S1  UNL     1      10.164  -9.670  18.460  1.00  0.00     0.225 S 
HETATM   47  C17 UNL     1      10.630 -11.143  19.295  1.00  0.00     0.186 C 
HETATM   48  O2  UNL     1      10.620  -8.456  19.249  1.00  0.00    -0.206 OA
HETATM   49  O3  UNL     1       8.646  -9.591  18.450  1.00  0.00    -0.206 OA
ENDBRANCH   6  46
TORSDOF 9
ENDMDL
MODEL 4
REMARK VINA RESULT: -7.489491762      1.979      2.816
REMARK  9 active torsions:
REMARK  status: ('A' for Active; 'I' for Inactive)
REMARK    1  A    between atoms: C7_7  and  C28_43 
REMARK    2  A    between atoms: C10_10  and  C11_11 
REMARK    3  A    between atoms: C13_13  and  C14_14 
REMARK       I    between atoms: C14_14  and  N1_16 
REMARK    4  A    between atoms: N2_19  and  S1_20 
REMARK    5  A    between atoms: C18_24  and  C19_25 
REMARK    6  A    between atoms: C19_25  and  N4_29 
REMARK    7  A    between atoms: N4_29  and  C20_31 
REMARK    8  A    between atoms: C25_36  and  O4_37 
REMARK    9  A    between atoms: C26_39  and  O5_40 
ROOT
HETATM    1  C14 UNL     1      14.003 -10.913  13.849  1.00  0.00     0.224 C 
HETATM    2  O1  UNL     1      13.665 -11.644  12.895  1.00  0.00    -0.273 OA
HETATM    3  N1  UNL     1      13.096 -10.755  14.911  1.00  0.00    -0.348 N 
HETATM    4  C15 UNL     1      11.824 -11.421  14.980  1.00  0.00     0.146 C 
HETATM    5  C16 UNL     1      11.181 -11.387  16.320  1.00  0.00     0.156 C 
HETATM    6  N2  UNL     1      11.272 -10.188  17.064  1.00  0.00    -0.296 N 
HETATM    7  C18 UNL     1      12.329  -9.290  16.745  1.00  0.00     0.180 C 
HETATM    8  C27 UNL     1      13.464  -9.847  15.969  1.00  0.00     0.159 C 
ENDROOT
BRANCH   1   9
HETATM    9  C13 UNL     1      15.298 -10.259  13.837  1.00  0.00     0.087 C 
HETATM   10  C12 UNL     1      16.544 -11.053  13.708  1.00  0.00     0.020 C 
HETATM   11  C11 UNL     1      17.517 -10.246  12.805  1.00  0.00     0.000 C 
HETATM   12  C30 UNL     1      16.937  -8.918  13.091  1.00  0.00    -0.035 C 
HETATM   13  C28 UNL     1      15.536  -9.325  12.643  1.00  0.00    -0.021 C 
HETATM   14  C31 UNL     1      17.423  -7.643  12.647  1.00  0.00     0.016 C 
HETATM   15  C32 UNL     1      17.021  -8.718  14.614  1.00  0.00     0.016 C 
HETATM   16  C29 UNL     1      14.657  -8.116  12.849  1.00  0.00     0.017 C 
BRANCH  11  17
HETATM   17  C10 UNL     1      17.777 -10.773  11.493  1.00  0.00     0.007 C 
HETATM   18  C5  UNL     1      18.133 -12.230  11.267  1.00  0.00     0.032 C 
HETATM   19  C4  UNL     1      18.468 -12.466   9.777  1.00  0.00     0.045 C 
HETATM   20  C6  UNL     1      19.281 -12.564  12.081  1.00  0.00     0.023 C 
HETATM   21  C33 UNL     1      16.970 -13.132  11.117  1.00  0.00     0.164 C 
HETATM   22  C3  UNL     1      17.230 -12.095   9.111  1.00  0.00    -0.015 C 
HETATM   23  C2  UNL     1      16.273 -12.519   9.954  1.00  0.00    -0.019 C 
HETATM   24  C1  UNL     1      14.804 -12.397   9.766  1.00  0.00     0.052 C 
HETATM   25  C7  UNL     1      19.865 -11.301  12.758  1.00  0.00    -0.004 C 
HETATM   26  C8  UNL     1      20.144 -10.445  11.589  1.00  0.00     0.006 C 
HETATM   27  C9  UNL     1      18.937 -10.060  10.773  1.00  0.00     0.007 C 
HETATM   28  O6  UNL     1      16.551 -14.139  11.692  1.00  0.00    -0.292 OA
ENDBRANCH  11  17
ENDBRANCH   1   9
BRANCH   7  29
HETATM   29  C19 UNL     1      11.820  -8.077  16.054  1.00  0.00     0.096 C 
HETATM   30  N3  UNL     1      12.676  -7.336  15.430  1.00  0.00    -0.387 N 
ATOM     31  H32 UNL     1      13.652  -7.628  15.457  1.00  0.00     0.157 HD
ATOM     32  H31 UNL     1      12.326  -6.503  14.956  1.00  0.00     0.157 HD
BRANCH  29  33
HETATM   33  N4  UNL     1      10.468  -7.672  16.017  1.00  0.00    -0.371 N 
ATOM     34  H4  UNL     1      10.169  -7.048  16.767  1.00  0.00     0.161 HD
BRANCH  33  35
HETATM   35  C20 UNL     1       9.468  -8.024  15.066  1.00  0.00     0.114 C 
HETATM   36  C21 UNL     1       8.148  -8.381  15.677  1.00  0.00     0.028 C 
HETATM   37  C22 UNL     1       7.511  -9.508  14.879  1.00  0.00     0.002 C 
HETATM   38  C23 UNL     1       6.770  -9.002  13.672  1.00  0.00     0.003 C 
HETATM   39  C24 UNL     1       7.754  -8.349  12.723  1.00  0.00     0.034 C 
HETATM   40  C25 UNL     1       8.119  -6.979  13.196  1.00  0.00     0.148 C 
HETATM   41  C26 UNL     1       9.316  -6.910  14.073  1.00  0.00     0.169 C 
BRANCH  40  42
HETATM   42  O4  UNL     1       8.326  -6.180  12.070  1.00  0.00    -0.393 OA
ATOM     43  H4  UNL     1       7.881  -5.354  12.215  1.00  0.00     0.210 HD
ENDBRANCH  40  42
BRANCH  41  44
HETATM   44  O5  UNL     1      10.528  -6.841  13.349  1.00  0.00    -0.391 OA
ATOM     45  H5  UNL     1      10.389  -7.314  12.538  1.00  0.00     0.210 HD
ENDBRANCH  41  44
ENDBRANCH  33  35
ENDBRANCH  29  33
ENDBRANCH   7  29
BRANCH   6  46
HETATM   46  S1  UNL     1      11.048 -10.376  18.745  1.00  0.00     0.225 S 
HETATM   47  C17 UNL     1       9.364 -10.294  19.234  1.00  0.00     0.186 C 
HETATM   48  O2  UNL     1      11.672 -11.669  19.236  1.00  0.00    -0.206 OA
HETATM   49  O3  UNL     1      11.804  -9.272  19.465  1.00  0.00    -0.206 OA
ENDBRANCH   6  46
TORSDOF 9
ENDMDL
MODEL 5
REMARK VINA RESULT: -7.348682496      2.228      5.517
REMARK  9 active torsions:
REMARK  status: ('A' for Active; 'I' for Inactive)
REMARK    1  A    between atoms: C7_7  and  C28_43 
REMARK    2  A    between atoms: C10_10  and  C11_11 
REMARK    3  A    between atoms: C13_13  and  C14_14 
REMARK       I    between atoms: C14_14  and  N1_16 
REMARK    4  A    between atoms: N2_19  and  S1_20 
REMARK    5  A    between atoms: C18_24  and  C19_25 
REMARK    6  A    between atoms: C19_25  and  N4_29 
REMARK    7  A    between atoms: N4_29  and  C20_31 
REMARK    8  A    between atoms: C25_36  and  O4_37 
REMARK    9  A    between atoms: C26_39  and  O5_40 
ROOT
HETATM    1  C14 UNL     1      12.488  -8.040  15.174  1.00  0.00     0.224 C 
HETATM    2  O1  UNL     1      13.053  -6.956  15.428  1.00  0.00    -0.273 OA
HETATM    3  N1  UNL     1      11.104  -8.018  14.926  1.00  0.00    -0.348 N 
HETATM    4  C15 UNL     1      10.316  -6.817  14.906  1.00  0.00     0.146 C 
HETATM    5  C16 UNL     1       8.968  -6.972  14.298  1.00  0.00     0.156 C 
HETATM    6  N2  UNL     1       8.250  -8.157  14.583  1.00  0.00    -0.296 N 
HETATM    7  C18 UNL     1       8.993  -9.297  14.999  1.00  0.00     0.180 C 
HETATM    8  C27 UNL     1      10.449  -9.284  14.711  1.00  0.00     0.159 C 
ENDROOT
BRANCH   1   9
HETATM    9  C13 UNL     1      13.259  -9.269  15.140  1.00  0.00     0.087 C 
HETATM   10  C12 UNL     1      14.147  -9.572  13.993  1.00  0.00     0.020 C 
HETATM   11  C11 UNL     1      15.423 -10.252  14.561  1.00  0.00     0.000 C 
HETATM   12  C30 UNL     1      14.793 -10.772  15.792  1.00  0.00    -0.035 C 
HETATM   13  C28 UNL     1      14.315  -9.396  16.246  1.00  0.00    -0.021 C 
HETATM   14  C31 UNL     1      15.393 -11.618  16.783  1.00  0.00     0.016 C 
HETATM   15  C32 UNL     1      13.628 -11.670  15.345  1.00  0.00     0.016 C 
HETATM   16  C29 UNL     1      13.572  -9.612  17.541  1.00  0.00     0.017 C 
BRANCH  11  17
HETATM   17  C10 UNL     1      16.643  -9.492  14.511  1.00  0.00     0.007 C 
HETATM   18  C5  UNL     1      16.966  -8.564  13.354  1.00  0.00     0.032 C 
HETATM   19  C4  UNL     1      18.387  -7.983  13.527  1.00  0.00     0.045 C 
HETATM   20  C6  UNL     1      16.894  -9.311  12.119  1.00  0.00     0.023 C 
HETATM   21  C33 UNL     1      16.423  -7.195  13.493  1.00  0.00     0.164 C 
HETATM   22  C3  UNL     1      18.289  -7.270  14.789  1.00  0.00    -0.015 C 
HETATM   23  C2  UNL     1      17.044  -6.762  14.773  1.00  0.00    -0.019 C 
HETATM   24  C1  UNL     1      16.408  -5.933  15.831  1.00  0.00     0.052 C 
HETATM   25  C7  UNL     1      16.696 -10.822  12.397  1.00  0.00    -0.004 C 
HETATM   26  C8  UNL     1      17.862 -11.117  13.250  1.00  0.00     0.006 C 
HETATM   27  C9  UNL     1      17.906 -10.371  14.559  1.00  0.00     0.007 C 
HETATM   28  O6  UNL     1      15.671  -6.471  12.837  1.00  0.00    -0.292 OA
ENDBRANCH  11  17
ENDBRANCH   1   9
BRANCH   7  29
HETATM   29  C19 UNL     1       8.789  -9.581  16.443  1.00  0.00     0.096 C 
HETATM   30  N3  UNL     1       7.609  -9.947  16.824  1.00  0.00    -0.387 N 
ATOM     31  H32 UNL     1       6.887 -10.012  16.107  1.00  0.00     0.157 HD
ATOM     32  H31 UNL     1       7.470 -10.143  17.815  1.00  0.00     0.157 HD
BRANCH  29  33
HETATM   33  N4  UNL     1       9.788  -9.492  17.436  1.00  0.00    -0.371 N 
ATOM     34  H4  UNL     1      10.687  -9.118  17.131  1.00  0.00     0.161 HD
BRANCH  33  35
HETATM   35  C20 UNL     1       9.702  -9.859  18.810  1.00  0.00     0.114 C 
HETATM   36  C21 UNL     1       9.892 -11.323  19.061  1.00  0.00     0.028 C 
HETATM   37  C22 UNL     1       8.975 -11.765  20.191  1.00  0.00     0.002 C 
HETATM   38  C23 UNL     1       9.571 -11.496  21.545  1.00  0.00     0.003 C 
HETATM   39  C24 UNL     1       9.737 -10.001  21.728  1.00  0.00     0.034 C 
HETATM   40  C25 UNL     1      10.939  -9.506  20.990  1.00  0.00     0.148 C 
HETATM   41  C26 UNL     1      10.686  -9.047  19.600  1.00  0.00     0.169 C 
BRANCH  40  42
HETATM   42  O4  UNL     1      11.490  -8.457  21.729  1.00  0.00    -0.393 OA
ATOM     43  H4  UNL     1      11.156  -7.643  21.370  1.00  0.00     0.210 HD
ENDBRANCH  40  42
BRANCH  41  44
HETATM   44  O5  UNL     1      10.252  -7.703  19.533  1.00  0.00    -0.391 OA
ATOM     45  H5  UNL     1       9.405  -7.710  19.103  1.00  0.00     0.210 HD
ENDBRANCH  41  44
ENDBRANCH  33  35
ENDBRANCH  29  33
ENDBRANCH   7  29
BRANCH   6  46
HETATM   46  S1  UNL     1       7.031  -8.539  13.452  1.00  0.00     0.225 S 
HETATM   47  C17 UNL     1       5.797  -7.297  13.318  1.00  0.00     0.186 C 
HETATM   48  O2  UNL     1       7.627  -8.831  12.087  1.00  0.00    -0.206 OA
HETATM   49  O3  UNL     1       6.357  -9.833  13.877  1.00  0.00    -0.206 OA
ENDBRANCH   6  46
TORSDOF 9
ENDMDL
