MODEL 1
REMARK VINA RESULT: -7.773090101      0.000      0.000
REMARK  5 active torsions:
REMARK  status: ('A' for Active; 'I' for Inactive)
REMARK       I    between atoms: C2_4  and  N2_5 
REMARK       I    between atoms: C2_4  and  N3_10 
REMARK       I    between atoms: N2_5  and  C3_7 
REMARK    1  A    between atoms: N6_33  and  C21_34 
REMARK    2  A    between atoms: C21_34  and  C22_35 
REMARK    3  A    between atoms: C22_35  and  C23_37 
REMARK    4  A    between atoms: C23_37  and  N7_38 
REMARK       I    between atoms: N8_41  and  C26_42 
REMARK       I    between atoms: C26_42  and  N9_44 
REMARK    5  A    between atoms: N9_44  and  C27_46 
ROOT
HETATM    1  C1  UNL     1      17.326 -10.211  13.664  1.00  0.00     0.165 C 
HETATM    2  N1  UNL     1      16.835  -8.935  13.351  1.00  0.00    -0.230 N 
ATOM      3  H1  UNL     1      16.411  -8.865  12.427  1.00  0.00     0.177 HD
HETATM    4  C2  UNL     1      16.824  -7.836  14.023  1.00  0.00     0.678 C 
HETATM    5  N2  UNL     1      16.238  -6.731  13.382  1.00  0.00    -0.160 N 
ATOM      6  H2  UNL     1      15.862  -6.871  12.444  1.00  0.00     0.187 HD
HETATM    7  C3  UNL     1      16.135  -5.459  13.938  1.00  0.00     0.231 C 
HETATM    8  C4  UNL     1      15.486  -4.345  13.160  1.00  0.00     0.118 C 
HETATM    9  O1  UNL     1      16.558  -5.180  15.067  1.00  0.00    -0.273 OA
HETATM   10  N3  UNL     1      17.382  -7.778  15.345  1.00  0.00    -0.216 N 
HETATM   11  C5  UNL     1      18.805  -7.640  15.445  1.00  0.00     0.141 C 
HETATM   12  C6  UNL     1      19.305  -6.875  16.627  1.00  0.00     0.020 C 
HETATM   13  C7  UNL     1      20.300  -7.649  17.466  1.00  0.00     0.002 C 
HETATM   14  C8  UNL     1      21.476  -6.786  17.899  1.00  0.00     0.000 C 
HETATM   15  C9  UNL     1      21.646  -6.854  19.384  1.00  0.00     0.000 C 
HETATM   16  C10 UNL     1      23.013  -7.420  19.786  1.00  0.00     0.000 C 
HETATM   17  C11 UNL     1      23.273  -6.971  21.187  1.00  0.00     0.000 C 
HETATM   18  C12 UNL     1      24.199  -7.868  21.955  1.00  0.00     0.002 C 
HETATM   19  C13 UNL     1      23.745  -9.286  22.033  1.00  0.00     0.027 C 
HETATM   20  C14 UNL     1      23.538  -9.759  23.461  1.00  0.00     0.232 C 
HETATM   21  N4  UNL     1      22.376  -9.133  24.060  1.00  0.00    -0.075 N 
ATOM     22  H41 UNL     1      22.332  -8.140  23.833  1.00  0.00     0.277 HD
ATOM     23  H42 UNL     1      22.474  -9.062  25.072  1.00  0.00     0.277 HD
HETATM   24  C15 UNL     1      21.148  -9.809  23.696  1.00  0.00     0.233 C 
HETATM   25  C16 UNL     1      20.248  -8.783  23.026  1.00  0.00     0.055 C 
HETATM   26  C17 UNL     1      18.829  -9.268  22.931  1.00  0.00     0.233 C 
HETATM   27  N5  UNL     1      18.346  -9.032  21.591  1.00  0.00    -0.075 N 
ATOM     28  H51 UNL     1      17.732  -9.783  21.278  1.00  0.00     0.277 HD
ATOM     29  H52 UNL     1      19.089  -9.140  20.902  1.00  0.00     0.277 HD
HETATM   30  C18 UNL     1      17.700  -7.735  21.481  1.00  0.00     0.234 C 
HETATM   31  C19 UNL     1      16.964  -7.674  20.149  1.00  0.00     0.057 C 
HETATM   32  C20 UNL     1      16.643  -9.094  19.687  1.00  0.00     0.274 C 
HETATM   33  N6  UNL     1      15.878  -9.043  18.484  1.00  0.00     0.097 N 
HETATM   34  C32 UNL     1      16.667  -9.169  17.267  1.00  0.00     0.293 C 
HETATM   35  C33 UNL     1      16.524  -7.878  16.487  1.00  0.00     0.171 C 
ENDROOT
BRANCH  33  36
HETATM   36  C21 UNL     1      14.865 -10.098  18.427  1.00  0.00     0.352 C 
BRANCH  36  37
HETATM   37  C22 UNL     1      13.490  -9.569  18.549  1.00  0.00     0.183 C 
HETATM   38  O2  UNL     1      13.070  -9.241  19.631  1.00  0.00    -0.294 OA
BRANCH  37  39
HETATM   39  C23 UNL     1      12.632  -9.442  17.353  1.00  0.00     0.352 C 
BRANCH  39  40
HETATM   40  N7  UNL     1      11.975 -10.709  17.093  1.00  0.00     0.098 N 
HETATM   41  C24 UNL     1      11.832 -10.909  15.680  1.00  0.00     0.293 C 
HETATM   42  C25 UNL     1      10.986  -9.846  15.076  1.00  0.00     0.158 C 
HETATM   43  N8  UNL     1       9.694  -9.882  15.711  1.00  0.00    -0.331 N 
HETATM   44  C26 UNL     1       8.618  -9.180  15.099  1.00  0.00     0.318 C 
HETATM   45  C30 UNL     1       9.500 -10.616  16.915  1.00  0.00     0.158 C 
HETATM   46  O3  UNL     1       7.475  -9.176  15.634  1.00  0.00    -0.247 OA
HETATM   47  N9  UNL     1       8.824  -8.487  13.891  1.00  0.00    -0.339 N 
ATOM     48  H9  UNL     1       9.749  -8.491  13.463  1.00  0.00     0.164 HD
HETATM   49  C31 UNL     1      10.697 -10.782  17.782  1.00  0.00     0.293 C 
BRANCH  47  50
HETATM   50  C27 UNL     1       7.753  -7.774  13.251  1.00  0.00     0.078 C 
HETATM   51  C28 UNL     1       8.251  -6.455  12.754  1.00  0.00     0.032 C 
HETATM   52  C29 UNL     1       7.209  -8.554  12.065  1.00  0.00     0.032 C 
ENDBRANCH  47  50
ENDBRANCH  39  40
ENDBRANCH  37  39
ENDBRANCH  36  37
ENDBRANCH  33  36
TORSDOF 5
ENDMDL
MODEL 2
REMARK VINA RESULT: -7.591938877      1.489      1.856
REMARK  5 active torsions:
REMARK  status: ('A' for Active; 'I' for Inactive)
REMARK       I    between atoms: C2_4  and  N2_5 
REMARK       I    between atoms: C2_4  and  N3_10 
REMARK       I    between atoms: N2_5  and  C3_7 
REMARK    1  A    between atoms: N6_33  and  C21_34 
REMARK    2  A    between atoms: C21_34  and  C22_35 
REMARK    3  A    between atoms: C22_35  and  C23_37 
REMARK    4  A    between atoms: C23_37  and  N7_38 
REMARK       I    between atoms: N8_41  and  C26_42 
REMARK       I    between atoms: C26_42  and  N9_44 
REMARK    5  A    between atoms: N9_44  and  C27_46 
ROOT
HETATM    1  C1  UNL     1      17.548  -9.932  12.813  1.00  0.00     0.165 C 
HETATM    2  N1  UNL     1      16.921  -8.695  12.606  1.00  0.00    -0.230 N 
ATOM      3  H1  UNL     1      16.605  -8.542  11.649  1.00  0.00     0.177 HD
HETATM    4  C2  UNL     1      16.673  -7.718  13.409  1.00  0.00     0.678 C 
HETATM    5  N2  UNL     1      16.017  -6.612  12.844  1.00  0.00    -0.160 N 
ATOM      6  H2  UNL     1      15.780  -6.656  11.853  1.00  0.00     0.187 HD
HETATM    7  C3  UNL     1      15.667  -5.460  13.543  1.00  0.00     0.231 C 
HETATM    8  C4  UNL     1      14.964  -4.332  12.836  1.00  0.00     0.118 C 
HETATM    9  O1  UNL     1      15.908  -5.302  14.747  1.00  0.00    -0.273 OA
HETATM   10  N3  UNL     1      17.055  -7.790  14.791  1.00  0.00    -0.216 N 
HETATM   11  C5  UNL     1      18.421  -7.493  15.105  1.00  0.00     0.141 C 
HETATM   12  C6  UNL     1      18.662  -6.856  16.435  1.00  0.00     0.020 C 
HETATM   13  C7  UNL     1      19.651  -7.618  17.294  1.00  0.00     0.002 C 
HETATM   14  C8  UNL     1      20.631  -6.690  17.996  1.00  0.00     0.000 C 
HETATM   15  C9  UNL     1      20.630  -6.957  19.468  1.00  0.00     0.000 C 
HETATM   16  C10 UNL     1      22.006  -7.403  19.977  1.00  0.00     0.000 C 
HETATM   17  C11 UNL     1      22.030  -7.139  21.448  1.00  0.00     0.000 C 
HETATM   18  C12 UNL     1      22.976  -8.019  22.212  1.00  0.00     0.002 C 
HETATM   19  C13 UNL     1      22.722  -9.477  22.039  1.00  0.00     0.027 C 
HETATM   20  C14 UNL     1      22.416 -10.181  23.349  1.00  0.00     0.232 C 
HETATM   21  N4  UNL     1      21.113  -9.800  23.858  1.00  0.00    -0.075 N 
ATOM     22  H41 UNL     1      20.956  -8.797  23.761  1.00  0.00     0.277 HD
ATOM     23  H42 UNL     1      21.079  -9.869  24.875  1.00  0.00     0.277 HD
HETATM   24  C15 UNL     1      20.047 -10.562  23.242  1.00  0.00     0.233 C 
HETATM   25  C16 UNL     1      19.096  -9.566  22.595  1.00  0.00     0.055 C 
HETATM   26  C17 UNL     1      17.782 -10.204  22.242  1.00  0.00     0.233 C 
HETATM   27  N5  UNL     1      17.434  -9.833  20.891  1.00  0.00    -0.075 N 
ATOM     28  H51 UNL     1      16.975 -10.600  20.399  1.00  0.00     0.277 HD
ATOM     29  H52 UNL     1      18.263  -9.743  20.302  1.00  0.00     0.277 HD
HETATM   30  C18 UNL     1      16.628  -8.625  20.864  1.00  0.00     0.234 C 
HETATM   31  C19 UNL     1      16.055  -8.457  19.463  1.00  0.00     0.057 C 
HETATM   32  C20 UNL     1      15.997  -9.821  18.777  1.00  0.00     0.274 C 
HETATM   33  N6  UNL     1      15.383  -9.686  17.498  1.00  0.00     0.097 N 
HETATM   34  C32 UNL     1      16.321  -9.530  16.395  1.00  0.00     0.293 C 
HETATM   35  C33 UNL     1      16.090  -8.165  15.780  1.00  0.00     0.171 C 
ENDROOT
BRANCH  33  36
HETATM   36  C21 UNL     1      14.544 -10.839  17.162  1.00  0.00     0.352 C 
BRANCH  36  37
HETATM   37  C22 UNL     1      13.101 -10.538  17.266  1.00  0.00     0.183 C 
HETATM   38  O2  UNL     1      12.502 -10.827  18.273  1.00  0.00    -0.294 OA
BRANCH  37  39
HETATM   39  C23 UNL     1      12.393  -9.887  16.146  1.00  0.00     0.352 C 
BRANCH  39  40
HETATM   40  N7  UNL     1      12.312  -8.459  16.389  1.00  0.00     0.098 N 
HETATM   41  C24 UNL     1      11.045  -8.130  16.978  1.00  0.00     0.293 C 
HETATM   42  C25 UNL     1       9.927  -8.483  16.065  1.00  0.00     0.158 C 
HETATM   43  N8  UNL     1      10.101  -7.751  14.836  1.00  0.00    -0.331 N 
HETATM   44  C26 UNL     1       9.006  -7.676  13.931  1.00  0.00     0.318 C 
HETATM   45  C30 UNL     1      11.339  -7.111  14.545  1.00  0.00     0.158 C 
HETATM   46  O3  UNL     1       9.126  -7.058  12.837  1.00  0.00    -0.247 OA
HETATM   47  N9  UNL     1       7.781  -8.290  14.252  1.00  0.00    -0.339 N 
ATOM     48  H9  UNL     1       7.688  -8.790  15.136  1.00  0.00     0.164 HD
HETATM   49  C31 UNL     1      12.549  -7.710  15.167  1.00  0.00     0.293 C 
BRANCH  47  50
HETATM   50  C27 UNL     1       6.658  -8.225  13.358  1.00  0.00     0.078 C 
HETATM   51  C28 UNL     1       5.762  -9.399  13.586  1.00  0.00     0.032 C 
HETATM   52  C29 UNL     1       5.851  -6.957  13.586  1.00  0.00     0.032 C 
ENDBRANCH  47  50
ENDBRANCH  39  40
ENDBRANCH  37  39
ENDBRANCH  36  37
ENDBRANCH  33  36
TORSDOF 5
ENDMDL
MODEL 3
REMARK VINA RESULT: -7.575761610      4.018      8.527
REMARK  5 active torsions:
REMARK  status: ('A' for Active; 'I' for Inactive)
REMARK       I    between atoms: C2_4  and  N2_5 
REMARK       I    between atoms: C2_4  and  N3_10 
REMARK       I    between atoms: N2_5  and  C3_7 
REMARK    1  A    between atoms: N6_33  and  C21_34 
REMARK    2  A    between atoms: C21_34  and  C22_35 
REMARK    3  A    between atoms: C22_35  and  C23_37 
REMARK    4  A    between atoms: C23_37  and  N7_38 
REMARK       I    between atoms: N8_41  and  C26_42 
REMARK       I    between atoms: C26_42  and  N9_44 
REMARK    5  A    between atoms: N9_44  and  C27_46 
ROOT
HETATM    1  C1  UNL     1      14.377  -5.563  13.204  1.00  0.00     0.165 C 
HETATM    2  N1  UNL     1      15.360  -5.502  14.202  1.00  0.00    -0.230 N 
ATOM      3  H1  UNL     1      15.421  -4.601  14.674  1.00  0.00     0.177 HD
HETATM    4  C2  UNL     1      16.199  -6.382  14.629  1.00  0.00     0.678 C 
HETATM    5  N2  UNL     1      17.054  -5.963  15.662  1.00  0.00    -0.160 N 
ATOM      6  H2  UNL     1      16.953  -5.007  16.004  1.00  0.00     0.187 HD
HETATM    7  C3  UNL     1      18.030  -6.762  16.252  1.00  0.00     0.231 C 
HETATM    8  C4  UNL     1      18.893  -6.209  17.355  1.00  0.00     0.118 C 
HETATM    9  O1  UNL     1      18.237  -7.934  15.913  1.00  0.00    -0.273 OA
HETATM   10  N3  UNL     1      16.230  -7.701  14.062  1.00  0.00    -0.216 N 
HETATM   11  C5  UNL     1      16.934  -7.862  12.824  1.00  0.00     0.141 C 
HETATM   12  C6  UNL     1      17.594  -9.185  12.616  1.00  0.00     0.020 C 
HETATM   13  C7  UNL     1      17.166  -9.875  11.337  1.00  0.00     0.002 C 
HETATM   14  C8  UNL     1      18.344 -10.502  10.604  1.00  0.00     0.000 C 
HETATM   15  C9  UNL     1      18.068 -11.946  10.327  1.00  0.00     0.000 C 
HETATM   16  C10 UNL     1      18.066 -12.258   8.826  1.00  0.00     0.000 C 
HETATM   17  C11 UNL     1      18.303 -13.728   8.689  1.00  0.00     0.000 C 
HETATM   18  C12 UNL     1      17.750 -14.321   7.426  1.00  0.00     0.002 C 
HETATM   19  C13 UNL     1      16.288 -14.100   7.240  1.00  0.00     0.027 C 
HETATM   20  C14 UNL     1      15.506 -15.396   7.139  1.00  0.00     0.232 C 
HETATM   21  N4  UNL     1      15.454 -16.081   8.415  1.00  0.00    -0.075 N 
ATOM     22  H41 UNL     1      16.359 -16.059   8.884  1.00  0.00     0.277 HD
ATOM     23  H42 UNL     1      15.363 -17.089   8.291  1.00  0.00     0.277 HD
HETATM   24  C15 UNL     1      14.407 -15.559   9.269  1.00  0.00     0.233 C 
HETATM   25  C16 UNL     1      15.066 -15.088  10.556  1.00  0.00     0.055 C 
HETATM   26  C17 UNL     1      14.056 -14.863  11.646  1.00  0.00     0.233 C 
HETATM   27  N5  UNL     1      14.319 -13.587  12.267  1.00  0.00    -0.075 N 
ATOM     28  H51 UNL     1      13.455 -13.113  12.530  1.00  0.00     0.277 HD
ATOM     29  H52 UNL     1      14.671 -12.908  11.592  1.00  0.00     0.277 HD
HETATM   30  C18 UNL     1      15.217 -13.725  13.401  1.00  0.00     0.234 C 
HETATM   31  C19 UNL     1      15.218 -12.416  14.179  1.00  0.00     0.057 C 
HETATM   32  C20 UNL     1      13.914 -11.669  13.906  1.00  0.00     0.274 C 
HETATM   33  N6  UNL     1      13.869 -10.483  14.697  1.00  0.00     0.097 N 
HETATM   34  C32 UNL     1      14.325  -9.285  14.007  1.00  0.00     0.293 C 
HETATM   35  C33 UNL     1      15.559  -8.778  14.726  1.00  0.00     0.171 C 
ENDROOT
BRANCH  33  36
HETATM   36  C21 UNL     1      12.518 -10.189  15.178  1.00  0.00     0.352 C 
BRANCH  36  37
HETATM   37  C22 UNL     1      12.355 -10.476  16.619  1.00  0.00     0.183 C 
HETATM   38  O2  UNL     1      13.331 -10.582  17.320  1.00  0.00    -0.294 OA
BRANCH  37  39
HETATM   39  C23 UNL     1      11.006 -10.634  17.199  1.00  0.00     0.352 C 
BRANCH  39  40
HETATM   40  N7  UNL     1      10.598  -9.389  17.820  1.00  0.00     0.098 N 
HETATM   41  C24 UNL     1       9.182  -9.208  17.679  1.00  0.00     0.293 C 
HETATM   42  C25 UNL     1       8.797  -9.128  16.245  1.00  0.00     0.158 C 
HETATM   43  N8  UNL     1       9.496  -8.016  15.652  1.00  0.00    -0.331 N 
HETATM   44  C26 UNL     1       9.063  -7.543  14.382  1.00  0.00     0.318 C 
HETATM   45  C30 UNL     1      10.585  -7.402  16.332  1.00  0.00     0.158 C 
HETATM   46  O3  UNL     1       9.661  -6.582  13.824  1.00  0.00    -0.247 OA
HETATM   47  N9  UNL     1       7.963  -8.145  13.742  1.00  0.00    -0.339 N 
ATOM     48  H9  UNL     1       7.484  -8.923  14.195  1.00  0.00     0.164 HD
HETATM   49  C31 UNL     1      11.343  -8.268  17.273  1.00  0.00     0.293 C 
BRANCH  47  50
HETATM   50  C27 UNL     1       7.503  -7.684  12.461  1.00  0.00     0.078 C 
HETATM   51  C28 UNL     1       6.877  -8.815  11.712  1.00  0.00     0.032 C 
HETATM   52  C29 UNL     1       6.465  -6.584  12.617  1.00  0.00     0.032 C 
ENDBRANCH  47  50
ENDBRANCH  39  40
ENDBRANCH  37  39
ENDBRANCH  36  37
ENDBRANCH  33  36
TORSDOF 5
ENDMDL
MODEL 4
REMARK VINA RESULT: -7.503523245      3.154      4.735
REMARK  5 active torsions:
REMARK  status: ('A' for Active; 'I' for Inactive)
REMARK       I    between atoms: C2_4  and  N2_5 
REMARK       I    between atoms: C2_4  and  N3_10 
REMARK       I    between atoms: N2_5  and  C3_7 
REMARK    1  A    between atoms: N6_33  and  C21_34 
REMARK    2  A    between atoms: C21_34  and  C22_35 
REMARK    3  A    between atoms: C22_35  and  C23_37 
REMARK    4  A    between atoms: C23_37  and  N7_38 
REMARK       I    between atoms: N8_41  and  C26_42 
REMARK       I    between atoms: C26_42  and  N9_44 
REMARK    5  A    between atoms: N9_44  and  C27_46 
ROOT
HETATM    1  C1  UNL     1      17.463 -14.770  12.783  1.00  0.00     0.165 C 
HETATM    2  N1  UNL     1      16.924 -14.140  11.652  1.00  0.00    -0.230 N 
ATOM      3  H1  UNL     1      16.487 -14.777  10.987  1.00  0.00     0.177 HD
HETATM    4  C2  UNL     1      16.882 -12.900  11.304  1.00  0.00     0.678 C 
HETATM    5  N2  UNL     1      16.251 -12.629  10.078  1.00  0.00    -0.160 N 
ATOM      6  H2  UNL     1      15.870 -13.417   9.556  1.00  0.00     0.187 HD
HETATM    7  C3  UNL     1      16.109 -11.357   9.528  1.00  0.00     0.231 C 
HETATM    8  C4  UNL     1      15.414 -11.181   8.204  1.00  0.00     0.118 C 
HETATM    9  O1  UNL     1      16.535 -10.333  10.077  1.00  0.00    -0.273 OA
HETATM   10  N3  UNL     1      17.453 -11.883  12.142  1.00  0.00    -0.216 N 
HETATM   11  C5  UNL     1      18.871 -11.694  12.062  1.00  0.00     0.141 C 
HETATM   12  C6  UNL     1      19.356 -10.299  12.288  1.00  0.00     0.020 C 
HETATM   13  C7  UNL     1      20.388 -10.195  13.393  1.00  0.00     0.002 C 
HETATM   14  C8  UNL     1      21.538  -9.272  13.016  1.00  0.00     0.000 C 
HETATM   15  C9  UNL     1      21.726  -8.227  14.071  1.00  0.00     0.000 C 
HETATM   16  C10 UNL     1      23.117  -8.296  14.713  1.00  0.00     0.000 C 
HETATM   17  C11 UNL     1      23.376  -6.959  15.328  1.00  0.00     0.000 C 
HETATM   18  C12 UNL     1      24.341  -6.991  16.477  1.00  0.00     0.002 C 
HETATM   19  C13 UNL     1      23.937  -7.905  17.583  1.00  0.00     0.027 C 
HETATM   20  C14 UNL     1      23.763  -7.183  18.908  1.00  0.00     0.232 C 
HETATM   21  N4  UNL     1      22.587  -6.336  18.895  1.00  0.00    -0.075 N 
ATOM     22  H41 UNL     1      22.506  -5.828  18.015  1.00  0.00     0.277 HD
ATOM     23  H42 UNL     1      22.694  -5.544  19.528  1.00  0.00     0.277 HD
HETATM   24  C15 UNL     1      21.379  -7.082  19.184  1.00  0.00     0.233 C 
HETATM   25  C16 UNL     1      20.437  -6.890  18.005  1.00  0.00     0.055 C 
HETATM   26  C17 UNL     1      19.034  -7.311  18.343  1.00  0.00     0.233 C 
HETATM   27  N5  UNL     1      18.528  -8.140  17.276  1.00  0.00    -0.075 N 
ATOM     28  H51 UNL     1      17.937  -8.891  17.634  1.00  0.00     0.277 HD
ATOM     29  H52 UNL     1      19.268  -8.708  16.861  1.00  0.00     0.277 HD
HETATM   30  C18 UNL     1      17.837  -7.350  16.272  1.00  0.00     0.234 C 
HETATM   31  C19 UNL     1      17.084  -8.296  15.346  1.00  0.00     0.057 C 
HETATM   32  C20 UNL     1      16.808  -9.605  16.083  1.00  0.00     0.274 C 
HETATM   33  N6  UNL     1      16.028 -10.464  15.253  1.00  0.00     0.097 N 
HETATM   34  C32 UNL     1      16.808 -11.430  14.491  1.00  0.00     0.293 C 
HETATM   35  C33 UNL     1      16.611 -11.127  13.020  1.00  0.00     0.171 C 
ENDROOT
BRANCH  33  36
HETATM   36  C21 UNL     1      15.052 -11.239  16.020  1.00  0.00     0.352 C 
BRANCH  36  37
HETATM   37  C22 UNL     1      13.810 -11.495  15.261  1.00  0.00     0.183 C 
HETATM   38  O2  UNL     1      13.444 -12.630  15.080  1.00  0.00    -0.294 OA
BRANCH  37  39
HETATM   39  C23 UNL     1      13.020 -10.369  14.724  1.00  0.00     0.352 C 
BRANCH  39  40
HETATM   40  N7  UNL     1      12.673  -9.464  15.804  1.00  0.00     0.098 N 
HETATM   41  C24 UNL     1      11.333  -9.719  16.250  1.00  0.00     0.293 C 
HETATM   42  C25 UNL     1      10.355  -9.488  15.154  1.00  0.00     0.158 C 
HETATM   43  N8  UNL     1      10.477  -8.119  14.722  1.00  0.00    -0.331 N 
HETATM   44  C26 UNL     1       9.446  -7.571  13.909  1.00  0.00     0.318 C 
HETATM   45  C30 UNL     1      11.598  -7.335  15.114  1.00  0.00     0.158 C 
HETATM   46  O3  UNL     1       9.526  -6.379  13.499  1.00  0.00    -0.247 OA
HETATM   47  N9  UNL     1       8.330  -8.355  13.560  1.00  0.00    -0.339 N 
ATOM     48  H9  UNL     1       8.270  -9.317  13.892  1.00  0.00     0.164 HD
HETATM   49  C31 UNL     1      12.853  -8.080  15.399  1.00  0.00     0.293 C 
BRANCH  47  50
HETATM   50  C27 UNL     1       7.274  -7.823  12.744  1.00  0.00     0.078 C 
HETATM   51  C28 UNL     1       6.876  -8.831  11.714  1.00  0.00     0.032 C 
HETATM   52  C29 UNL     1       6.050  -7.490  13.582  1.00  0.00     0.032 C 
ENDBRANCH  47  50
ENDBRANCH  39  40
ENDBRANCH  37  39
ENDBRANCH  36  37
ENDBRANCH  33  36
TORSDOF 5
ENDMDL
MODEL 5
REMARK VINA RESULT: -7.484463426      4.132      8.451
REMARK  5 active torsions:
REMARK  status: ('A' for Active; 'I' for Inactive)
REMARK       I    between atoms: C2_4  and  N2_5 
REMARK       I    between atoms: C2_4  and  N3_10 
REMARK       I    between atoms: N2_5  and  C3_7 
REMARK    1  A    between atoms: N6_33  and  C21_34 
REMARK    2  A    between atoms: C21_34  and  C22_35 
REMARK    3  A    between atoms: C22_35  and  C23_37 
REMARK    4  A    between atoms: C23_37  and  N7_38 
REMARK       I    between atoms: N8_41  and  C26_42 
REMARK       I    between atoms: C26_42  and  N9_44 
REMARK    5  A    between atoms: N9_44  and  C27_46 
ROOT
HETATM    1  C1  UNL     1      15.029  -4.759  13.001  1.00  0.00     0.165 C 
HETATM    2  N1  UNL     1      15.873  -4.758  14.121  1.00  0.00    -0.230 N 
ATOM      3  H1  UNL     1      15.978  -3.847  14.565  1.00  0.00     0.177 HD
HETATM    4  C2  UNL     1      16.541  -5.703  14.688  1.00  0.00     0.678 C 
HETATM    5  N2  UNL     1      17.296  -5.331  15.812  1.00  0.00    -0.160 N 
ATOM      6  H2  UNL     1      17.264  -4.353  16.103  1.00  0.00     0.187 HD
HETATM    7  C3  UNL     1      18.086  -6.203  16.558  1.00  0.00     0.231 C 
HETATM    8  C4  UNL     1      18.856  -5.694  17.747  1.00  0.00     0.118 C 
HETATM    9  O1  UNL     1      18.197  -7.407  16.292  1.00  0.00    -0.273 OA
HETATM   10  N3  UNL     1      16.490  -7.045  14.178  1.00  0.00    -0.216 N 
HETATM   11  C5  UNL     1      17.326  -7.346  13.054  1.00  0.00     0.141 C 
HETATM   12  C6  UNL     1      17.848  -8.744  12.984  1.00  0.00     0.020 C 
HETATM   13  C7  UNL     1      17.513  -9.445  11.684  1.00  0.00     0.002 C 
HETATM   14  C8  UNL     1      18.694 -10.236  11.140  1.00  0.00     0.000 C 
HETATM   15  C9  UNL     1      18.289 -11.653  10.880  1.00  0.00     0.000 C 
HETATM   16  C10 UNL     1      18.447 -12.038   9.404  1.00  0.00     0.000 C 
HETATM   17  C11 UNL     1      18.526 -13.530   9.352  1.00  0.00     0.000 C 
HETATM   18  C12 UNL     1      18.077 -14.121   8.048  1.00  0.00     0.002 C 
HETATM   19  C13 UNL     1      16.688 -13.748   7.658  1.00  0.00     0.027 C 
HETATM   20  C14 UNL     1      15.778 -14.953   7.497  1.00  0.00     0.232 C 
HETATM   21  N4  UNL     1      15.480 -15.562   8.778  1.00  0.00    -0.075 N 
ATOM     22  H41 UNL     1      16.313 -15.617   9.364  1.00  0.00     0.277 HD
ATOM     23  H42 UNL     1      15.288 -16.559   8.678  1.00  0.00     0.277 HD
HETATM   24  C15 UNL     1      14.399 -14.883   9.462  1.00  0.00     0.233 C 
HETATM   25  C16 UNL     1      14.935 -14.424  10.810  1.00  0.00     0.055 C 
HETATM   26  C17 UNL     1      13.824 -14.033  11.744  1.00  0.00     0.233 C 
HETATM   27  N5  UNL     1      14.153 -12.764  12.350  1.00  0.00    -0.075 N 
ATOM     28  H51 UNL     1      13.323 -12.184  12.476  1.00  0.00     0.277 HD
ATOM     29  H52 UNL     1      14.667 -12.164  11.705  1.00  0.00     0.277 HD
HETATM   30  C18 UNL     1      14.872 -12.944  13.599  1.00  0.00     0.234 C 
HETATM   31  C19 UNL     1      14.925 -11.605  14.323  1.00  0.00     0.057 C 
HETATM   32  C20 UNL     1      13.765 -10.732  13.849  1.00  0.00     0.274 C 
HETATM   33  N6  UNL     1      13.756  -9.510  14.584  1.00  0.00     0.097 N 
HETATM   34  C32 UNL     1      14.436  -8.407  13.921  1.00  0.00     0.293 C 
HETATM   35  C33 UNL     1      15.616  -8.005  14.782  1.00  0.00     0.171 C 
ENDROOT
BRANCH  33  36
HETATM   36  C21 UNL     1      12.397  -9.043  14.867  1.00  0.00     0.352 C 
BRANCH  36  37
HETATM   37  C22 UNL     1      11.664  -9.951  15.774  1.00  0.00     0.183 C 
HETATM   38  O2  UNL     1      12.207 -10.371  16.765  1.00  0.00    -0.294 OA
BRANCH  37  39
HETATM   39  C23 UNL     1      10.273 -10.343  15.469  1.00  0.00     0.352 C 
BRANCH  39  40
HETATM   40  N7  UNL     1       9.363  -9.585  16.306  1.00  0.00     0.098 N 
HETATM   41  C24 UNL     1       8.319 -10.438  16.798  1.00  0.00     0.293 C 
HETATM   42  C25 UNL     1       7.519 -10.999  15.677  1.00  0.00     0.158 C 
HETATM   43  N8  UNL     1       6.949  -9.902  14.937  1.00  0.00    -0.331 N 
HETATM   44  C26 UNL     1       5.900 -10.178  14.017  1.00  0.00     0.318 C 
HETATM   45  C30 UNL     1       7.421  -8.574  15.135  1.00  0.00     0.158 C 
HETATM   46  O3  UNL     1       5.387  -9.245  13.339  1.00  0.00    -0.247 OA
HETATM   47  N9  UNL     1       5.427 -11.495  13.859  1.00  0.00    -0.339 N 
ATOM     48  H9  UNL     1       5.845 -12.246  14.408  1.00  0.00     0.164 HD
HETATM   49  C31 UNL     1       8.831  -8.439  15.588  1.00  0.00     0.293 C 
BRANCH  47  50
HETATM   50  C27 UNL     1       4.365 -11.799  12.940  1.00  0.00     0.078 C 
HETATM   51  C28 UNL     1       4.940 -12.209  11.623  1.00  0.00     0.032 C 
HETATM   52  C29 UNL     1       3.503 -12.939  13.458  1.00  0.00     0.032 C 
ENDBRANCH  47  50
ENDBRANCH  39  40
ENDBRANCH  37  39
ENDBRANCH  36  37
ENDBRANCH  33  36
TORSDOF 5
ENDMDL
