MODEL 1
REMARK VINA RESULT: -5.239891709      0.000      0.000
REMARK  3 active torsions:
REMARK  status: ('A' for Active; 'I' for Inactive)
REMARK    1  A    between atoms: C8_8  and  N1_9 
REMARK    2  A    between atoms: N1_9  and  S1_11 
REMARK    3  A    between atoms: S1_11  and  C9_14 
ROOT
HETATM    1  C1  UNL     1      -3.000   9.719  26.206  1.00  0.00     0.015 C 
HETATM    2  C2  UNL     1      -2.466  10.523  27.373  1.00  0.00    -0.042 C 
HETATM    3  C3  UNL     1      -3.441  10.576  28.526  1.00  0.00     0.010 C 
HETATM    4  C4  UNL     1      -3.077  11.785  29.364  1.00  0.00     0.007 C 
HETATM    5  C5  UNL     1      -1.575  11.953  29.269  1.00  0.00     0.009 C 
HETATM    6  C6  UNL     1      -1.256  12.597  27.940  1.00  0.00     0.007 C 
HETATM    7  C7  UNL     1      -2.140  11.942  26.890  1.00  0.00     0.010 C 
HETATM    8  C8  UNL     1      -0.965  10.540  29.302  1.00  0.00     0.097 C 
HETATM    9  C13 UNL     1      -1.169   9.956  27.899  1.00  0.00     0.035 C 
ENDROOT
BRANCH   8  10
HETATM   10  N1  UNL     1       0.396  10.677  29.628  1.00  0.00    -0.314 N 
ATOM     11  H1  UNL     1       0.936  11.482  29.310  1.00  0.00     0.172 HD
BRANCH  10  12
HETATM   12  S1  UNL     1       1.098   9.474  30.555  1.00  0.00     0.234 S 
HETATM   13  O1  UNL     1       2.381   8.940  29.931  1.00  0.00    -0.205 OA
HETATM   14  O2  UNL     1       0.187   8.264  30.651  1.00  0.00    -0.205 OA
BRANCH  12  15
HETATM   15  C9  UNL     1       1.391   9.983  32.222  1.00  0.00     0.072 C 
HETATM   16  C10 UNL     1       2.828  10.487  32.312  1.00  0.00     0.033 C 
HETATM   17  C11 UNL     1       1.317   8.756  33.156  1.00  0.00     0.033 C 
HETATM   18  C12 UNL     1       0.397  10.965  32.755  1.00  0.00     0.033 C 
ENDBRANCH  12  15
ENDBRANCH  10  12
ENDBRANCH   8  10
TORSDOF 3
ENDMDL
MODEL 2
REMARK VINA RESULT: -5.208419809      0.156      1.011
REMARK  3 active torsions:
REMARK  status: ('A' for Active; 'I' for Inactive)
REMARK    1  A    between atoms: C8_8  and  N1_9 
REMARK    2  A    between atoms: N1_9  and  S1_11 
REMARK    3  A    between atoms: S1_11  and  C9_14 
ROOT
HETATM    1  C1  UNL     1      -2.966   9.716  26.196  1.00  0.00     0.015 C 
HETATM    2  C2  UNL     1      -2.453  10.529  27.366  1.00  0.00    -0.042 C 
HETATM    3  C3  UNL     1      -3.439  10.571  28.511  1.00  0.00     0.010 C 
HETATM    4  C4  UNL     1      -3.098  11.786  29.349  1.00  0.00     0.007 C 
HETATM    5  C5  UNL     1      -1.597  11.973  29.268  1.00  0.00     0.009 C 
HETATM    6  C6  UNL     1      -1.275  12.620  27.941  1.00  0.00     0.007 C 
HETATM    7  C7  UNL     1      -2.141  11.952  26.884  1.00  0.00     0.010 C 
HETATM    8  C8  UNL     1      -0.970  10.568  29.309  1.00  0.00     0.097 C 
HETATM    9  C13 UNL     1      -1.154   9.980  27.905  1.00  0.00     0.035 C 
ENDROOT
BRANCH   8  10
HETATM   10  N1  UNL     1       0.386  10.724  29.647  1.00  0.00    -0.314 N 
ATOM     11  H1  UNL     1       0.923  11.525  29.316  1.00  0.00     0.172 HD
BRANCH  10  12
HETATM   12  S1  UNL     1       1.087   9.547  30.609  1.00  0.00     0.234 S 
HETATM   13  O1  UNL     1       2.399   9.036  30.030  1.00  0.00    -0.205 OA
HETATM   14  O2  UNL     1       0.200   8.319  30.692  1.00  0.00    -0.205 OA
BRANCH  12  15
HETATM   15  C9  UNL     1       1.318  10.083  32.277  1.00  0.00     0.072 C 
HETATM   16  C10 UNL     1       1.228   8.856  33.180  1.00  0.00     0.033 C 
HETATM   17  C11 UNL     1       0.144  10.996  32.693  1.00  0.00     0.033 C 
HETATM   18  C12 UNL     1       2.560  10.882  32.507  1.00  0.00     0.033 C 
ENDBRANCH  12  15
ENDBRANCH  10  12
ENDBRANCH   8  10
TORSDOF 3
ENDMDL
MODEL 3
REMARK VINA RESULT: -5.202155820     10.258     12.850
REMARK  3 active torsions:
REMARK  status: ('A' for Active; 'I' for Inactive)
REMARK    1  A    between atoms: C8_8  and  N1_9 
REMARK    2  A    between atoms: N1_9  and  S1_11 
REMARK    3  A    between atoms: S1_11  and  C9_14 
ROOT
HETATM    1  C1  UNL     1      -3.974  15.672  23.341  1.00  0.00     0.015 C 
HETATM    2  C2  UNL     1      -4.978  14.633  22.888  1.00  0.00    -0.042 C 
HETATM    3  C3  UNL     1      -6.299  14.759  23.613  1.00  0.00     0.010 C 
HETATM    4  C4  UNL     1      -6.998  13.419  23.503  1.00  0.00     0.007 C 
HETATM    5  C5  UNL     1      -6.601  12.821  22.169  1.00  0.00     0.009 C 
HETATM    6  C6  UNL     1      -5.210  12.246  22.306  1.00  0.00     0.007 C 
HETATM    7  C7  UNL     1      -4.384  13.237  23.111  1.00  0.00     0.010 C 
HETATM    8  C8  UNL     1      -6.570  13.977  21.153  1.00  0.00     0.097 C 
HETATM    9  C13 UNL     1      -5.260  14.731  21.408  1.00  0.00     0.035 C 
ENDROOT
BRANCH   8  10
HETATM   10  N1  UNL     1      -6.615  13.407  19.868  1.00  0.00    -0.314 N 
ATOM     11  H1  UNL     1      -6.091  12.560  19.648  1.00  0.00     0.172 HD
BRANCH  10  12
HETATM   12  S1  UNL     1      -7.556  14.170  18.713  1.00  0.00     0.234 S 
HETATM   13  O1  UNL     1      -6.851  15.372  18.098  1.00  0.00    -0.205 OA
HETATM   14  O2  UNL     1      -8.817  14.741  19.334  1.00  0.00    -0.205 OA
BRANCH  12  15
HETATM   15  C9  UNL     1      -8.105  13.066  17.447  1.00  0.00     0.072 C 
HETATM   16  C10 UNL     1      -7.696  11.652  17.849  1.00  0.00     0.033 C 
HETATM   17  C11 UNL     1      -7.345  13.365  16.136  1.00  0.00     0.033 C 
HETATM   18  C12 UNL     1      -9.558  13.177  17.112  1.00  0.00     0.033 C 
ENDBRANCH  12  15
ENDBRANCH  10  12
ENDBRANCH   8  10
TORSDOF 3
ENDMDL
MODEL 4
REMARK VINA RESULT: -5.195138923     10.228     12.843
REMARK  3 active torsions:
REMARK  status: ('A' for Active; 'I' for Inactive)
REMARK    1  A    between atoms: C8_8  and  N1_9 
REMARK    2  A    between atoms: N1_9  and  S1_11 
REMARK    3  A    between atoms: S1_11  and  C9_14 
ROOT
HETATM    1  C1  UNL     1      -3.930  15.691  23.359  1.00  0.00     0.015 C 
HETATM    2  C2  UNL     1      -4.991  14.700  22.930  1.00  0.00    -0.042 C 
HETATM    3  C3  UNL     1      -6.320  14.955  23.604  1.00  0.00     0.010 C 
HETATM    4  C4  UNL     1      -7.107  13.662  23.542  1.00  0.00     0.007 C 
HETATM    5  C5  UNL     1      -6.715  12.965  22.256  1.00  0.00     0.009 C 
HETATM    6  C6  UNL     1      -5.373  12.306  22.467  1.00  0.00     0.007 C 
HETATM    7  C7  UNL     1      -4.502  13.280  23.245  1.00  0.00     0.010 C 
HETATM    8  C8  UNL     1      -6.575  14.059  21.182  1.00  0.00     0.097 C 
HETATM    9  C13 UNL     1      -5.223  14.735  21.438  1.00  0.00     0.035 C 
ENDROOT
BRANCH   8  10
HETATM   10  N1  UNL     1      -6.622  13.424  19.928  1.00  0.00    -0.314 N 
ATOM     11  H1  UNL     1      -6.112  12.558  19.755  1.00  0.00     0.172 HD
BRANCH  10  12
HETATM   12  S1  UNL     1      -7.545  14.140  18.729  1.00  0.00     0.234 S 
HETATM   13  O1  UNL     1      -6.853  15.350  18.115  1.00  0.00    -0.205 OA
HETATM   14  O2  UNL     1      -8.841  14.688  19.299  1.00  0.00    -0.205 OA
BRANCH  12  15
HETATM   15  C9  UNL     1      -8.023  13.000  17.467  1.00  0.00     0.072 C 
HETATM   16  C10 UNL     1      -7.377  13.449  16.160  1.00  0.00     0.033 C 
HETATM   17  C11 UNL     1      -9.548  13.096  17.236  1.00  0.00     0.033 C 
HETATM   18  C12 UNL     1      -7.748  11.566  17.787  1.00  0.00     0.033 C 
ENDBRANCH  12  15
ENDBRANCH  10  12
ENDBRANCH   8  10
TORSDOF 3
ENDMDL
MODEL 5
REMARK VINA RESULT: -5.180726428     10.243     12.834
REMARK  3 active torsions:
REMARK  status: ('A' for Active; 'I' for Inactive)
REMARK    1  A    between atoms: C8_8  and  N1_9 
REMARK    2  A    between atoms: N1_9  and  S1_11 
REMARK    3  A    between atoms: S1_11  and  C9_14 
ROOT
HETATM    1  C1  UNL     1      -3.950  15.682  23.349  1.00  0.00     0.015 C 
HETATM    2  C2  UNL     1      -4.967  14.653  22.902  1.00  0.00    -0.042 C 
HETATM    3  C3  UNL     1      -6.289  14.805  23.619  1.00  0.00     0.010 C 
HETATM    4  C4  UNL     1      -7.007  13.474  23.519  1.00  0.00     0.007 C 
HETATM    5  C5  UNL     1      -6.612  12.856  22.194  1.00  0.00     0.009 C 
HETATM    6  C6  UNL     1      -5.231  12.263  22.344  1.00  0.00     0.007 C 
HETATM    7  C7  UNL     1      -4.394  13.250  23.143  1.00  0.00     0.010 C 
HETATM    8  C8  UNL     1      -6.560  14.000  21.166  1.00  0.00     0.097 C 
HETATM    9  C13 UNL     1      -5.241  14.739  21.419  1.00  0.00     0.035 C 
ENDROOT
BRANCH   8  10
HETATM   10  N1  UNL     1      -6.606  13.418  19.887  1.00  0.00    -0.314 N 
ATOM     11  H1  UNL     1      -6.096  12.559  19.680  1.00  0.00     0.172 HD
BRANCH  10  12
HETATM   12  S1  UNL     1      -7.526  14.185  18.717  1.00  0.00     0.234 S 
HETATM   13  O1  UNL     1      -6.816  15.397  18.129  1.00  0.00    -0.205 OA
HETATM   14  O2  UNL     1      -8.804  14.742  19.315  1.00  0.00    -0.205 OA
BRANCH  12  15
HETATM   15  C9  UNL     1      -8.039  13.088  17.430  1.00  0.00     0.072 C 
HETATM   16  C10 UNL     1      -9.563  13.123  17.365  1.00  0.00     0.033 C 
HETATM   17  C11 UNL     1      -7.669  11.638  17.810  1.00  0.00     0.033 C 
HETATM   18  C12 UNL     1      -7.395  13.341  16.104  1.00  0.00     0.033 C 
ENDBRANCH  12  15
ENDBRANCH  10  12
ENDBRANCH   8  10
TORSDOF 3
ENDMDL
