MODEL 1
REMARK VINA RESULT: -6.674403787      0.000      0.000
REMARK  2 active torsions:
REMARK  status: ('A' for Active; 'I' for Inactive)
REMARK       I    between atoms: C1_2  and  N1_3 
REMARK    1  A    between atoms: C1_2  and  C6_10 
REMARK    2  A    between atoms: N1_3  and  C2_5 
ROOT
HETATM    1  C6  UNL     1      -4.972  14.336  23.021  1.00  0.00     0.042 C 
HETATM    2  C7  UNL     1      -4.893  15.730  23.643  1.00  0.00     0.024 C 
HETATM    3  C8  UNL     1      -6.170  16.477  23.440  1.00  0.00    -0.013 C 
HETATM    4  C9  UNL     1      -7.292  15.668  24.053  1.00  0.00     0.009 C 
HETATM    5  C10 UNL     1      -7.435  14.384  23.297  1.00  0.00    -0.013 C 
HETATM    6  C11 UNL     1      -7.594  14.578  21.817  1.00  0.00     0.009 C 
HETATM    7  C12 UNL     1      -6.376  15.311  21.275  1.00  0.00    -0.013 C 
HETATM    8  C13 UNL     1      -6.361  16.671  21.947  1.00  0.00     0.009 C 
HETATM    9  C14 UNL     1      -5.105  14.541  21.533  1.00  0.00     0.024 C 
HETATM   10  C15 UNL     1      -6.154  13.570  23.500  1.00  0.00     0.024 C 
ENDROOT
BRANCH   1  11
HETATM   11  C1  UNL     1      -3.729  13.640  23.396  1.00  0.00     0.226 C 
HETATM   12  O1  UNL     1      -3.715  12.384  23.388  1.00  0.00    -0.273 OA
HETATM   13  N1  UNL     1      -2.538  14.310  23.769  1.00  0.00    -0.354 N 
ATOM     14  H1  UNL     1      -2.545  15.330  23.778  1.00  0.00     0.163 HD
BRANCH  13  15
HETATM   15  C2  UNL     1      -1.318  13.642  24.137  1.00  0.00     0.110 C 
HETATM   16  C3  UNL     1      -1.186  13.385  25.618  1.00  0.00     0.053 C 
HETATM   17  C4  UNL     1       0.153  13.953  26.006  1.00  0.00     0.169 C 
HETATM   18  O2  UNL     1       0.846  14.109  24.829  1.00  0.00    -0.389 OA
HETATM   19  C5  UNL     1      -0.069  14.445  23.856  1.00  0.00     0.192 C 
ENDBRANCH  13  15
ENDBRANCH   1  11
TORSDOF 2
ENDMDL
MODEL 2
REMARK VINA RESULT: -6.449159292      0.693      2.048
REMARK  2 active torsions:
REMARK  status: ('A' for Active; 'I' for Inactive)
REMARK       I    between atoms: C1_2  and  N1_3 
REMARK    1  A    between atoms: C1_2  and  C6_10 
REMARK    2  A    between atoms: N1_3  and  C2_5 
ROOT
HETATM    1  C6  UNL     1      -4.844  14.369  22.876  1.00  0.00     0.042 C 
HETATM    2  C7  UNL     1      -5.141  13.610  21.583  1.00  0.00     0.024 C 
HETATM    3  C8  UNL     1      -6.211  14.294  20.798  1.00  0.00    -0.013 C 
HETATM    4  C9  UNL     1      -5.755  15.707  20.509  1.00  0.00     0.009 C 
HETATM    5  C10 UNL     1      -5.642  16.455  21.800  1.00  0.00    -0.013 C 
HETATM    6  C11 UNL     1      -6.891  16.403  22.632  1.00  0.00     0.009 C 
HETATM    7  C12 UNL     1      -7.216  14.951  22.954  1.00  0.00    -0.013 C 
HETATM    8  C13 UNL     1      -7.482  14.267  21.626  1.00  0.00     0.009 C 
HETATM    9  C14 UNL     1      -6.095  14.288  23.714  1.00  0.00     0.024 C 
HETATM   10  C15 UNL     1      -4.532  15.804  22.631  1.00  0.00     0.024 C 
ENDROOT
BRANCH   1  11
HETATM   11  C1  UNL     1      -3.690  13.698  23.500  1.00  0.00     0.226 C 
HETATM   12  O1  UNL     1      -3.820  12.511  23.888  1.00  0.00    -0.273 OA
HETATM   13  N1  UNL     1      -2.431  14.319  23.690  1.00  0.00    -0.354 N 
ATOM     14  H1  UNL     1      -2.322  15.284  23.378  1.00  0.00     0.163 HD
BRANCH  13  15
HETATM   15  C2  UNL     1      -1.297  13.676  24.297  1.00  0.00     0.110 C 
HETATM   16  C3  UNL     1      -1.278  13.765  25.804  1.00  0.00     0.053 C 
HETATM   17  C4  UNL     1       0.078  14.316  26.156  1.00  0.00     0.169 C 
HETATM   18  O2  UNL     1       0.852  14.143  25.032  1.00  0.00    -0.389 OA
HETATM   19  C5  UNL     1       0.030  14.303  23.939  1.00  0.00     0.192 C 
ENDBRANCH  13  15
ENDBRANCH   1  11
TORSDOF 2
ENDMDL
MODEL 3
REMARK VINA RESULT: -6.357704056      0.208      1.728
REMARK  2 active torsions:
REMARK  status: ('A' for Active; 'I' for Inactive)
REMARK       I    between atoms: C1_2  and  N1_3 
REMARK    1  A    between atoms: C1_2  and  C6_10 
REMARK    2  A    between atoms: N1_3  and  C2_5 
ROOT
HETATM    1  C6  UNL     1      -5.002  14.473  22.999  1.00  0.00     0.042 C 
HETATM    2  C7  UNL     1      -6.172  13.719  23.631  1.00  0.00     0.024 C 
HETATM    3  C8  UNL     1      -7.476  14.323  23.225  1.00  0.00    -0.013 C 
HETATM    4  C9  UNL     1      -7.560  14.293  21.714  1.00  0.00     0.009 C 
HETATM    5  C10 UNL     1      -6.494  15.181  21.151  1.00  0.00    -0.013 C 
HETATM    6  C11 UNL     1      -6.521  16.575  21.711  1.00  0.00     0.009 C 
HETATM    7  C12 UNL     1      -6.333  16.510  23.219  1.00  0.00    -0.013 C 
HETATM    8  C13 UNL     1      -7.519  15.739  23.767  1.00  0.00     0.009 C 
HETATM    9  C14 UNL     1      -5.022  15.861  23.587  1.00  0.00     0.024 C 
HETATM   10  C15 UNL     1      -5.134  14.584  21.521  1.00  0.00     0.024 C 
ENDROOT
BRANCH   1  11
HETATM   11  C1  UNL     1      -3.784  13.720  23.345  1.00  0.00     0.226 C 
HETATM   12  O1  UNL     1      -3.798  12.469  23.240  1.00  0.00    -0.273 OA
HETATM   13  N1  UNL     1      -2.587  14.330  23.796  1.00  0.00    -0.354 N 
ATOM     14  H1  UNL     1      -2.572  15.346  23.884  1.00  0.00     0.163 HD
BRANCH  13  15
HETATM   15  C2  UNL     1      -1.391  13.607  24.137  1.00  0.00     0.110 C 
HETATM   16  C3  UNL     1      -1.307  13.218  25.593  1.00  0.00     0.053 C 
HETATM   17  C4  UNL     1       0.031  13.721  26.066  1.00  0.00     0.169 C 
HETATM   18  O2  UNL     1       0.760  13.964  24.926  1.00  0.00    -0.389 OA
HETATM   19  C5  UNL     1      -0.120  14.404  23.961  1.00  0.00     0.192 C 
ENDBRANCH  13  15
ENDBRANCH   1  11
TORSDOF 2
ENDMDL
MODEL 4
REMARK VINA RESULT: -5.532989867      3.005      4.864
REMARK  2 active torsions:
REMARK  status: ('A' for Active; 'I' for Inactive)
REMARK       I    between atoms: C1_2  and  N1_3 
REMARK    1  A    between atoms: C1_2  and  C6_10 
REMARK    2  A    between atoms: N1_3  and  C2_5 
ROOT
HETATM    1  C6  UNL     1      -5.781  13.763  22.704  1.00  0.00     0.042 C 
HETATM    2  C7  UNL     1      -6.172  14.288  21.322  1.00  0.00     0.024 C 
HETATM    3  C8  UNL     1      -6.754  15.660  21.419  1.00  0.00    -0.013 C 
HETATM    4  C9  UNL     1      -5.730  16.561  22.075  1.00  0.00     0.009 C 
HETATM    5  C10 UNL     1      -5.509  16.100  23.482  1.00  0.00    -0.013 C 
HETATM    6  C11 UNL     1      -6.778  15.980  24.277  1.00  0.00     0.009 C 
HETATM    7  C12 UNL     1      -7.702  14.982  23.594  1.00  0.00    -0.013 C 
HETATM    8  C13 UNL     1      -8.030  15.565  22.233  1.00  0.00     0.009 C 
HETATM    9  C14 UNL     1      -7.063  13.620  23.484  1.00  0.00     0.024 C 
HETATM   10  C15 UNL     1      -4.886  14.703  23.432  1.00  0.00     0.024 C 
ENDROOT
BRANCH   1  11
HETATM   11  C1  UNL     1      -5.096  12.477  22.483  1.00  0.00     0.226 C 
HETATM   12  O1  UNL     1      -4.018  12.256  23.087  1.00  0.00    -0.273 OA
HETATM   13  N1  UNL     1      -5.587  11.465  21.621  1.00  0.00    -0.354 N 
ATOM     14  H1  UNL     1      -6.462  11.641  21.127  1.00  0.00     0.163 HD
BRANCH  13  15
HETATM   15  C2  UNL     1      -4.929  10.206  21.398  1.00  0.00     0.110 C 
HETATM   16  C3  UNL     1      -5.205   9.605  20.041  1.00  0.00     0.053 C 
HETATM   17  C4  UNL     1      -5.676   8.201  20.313  1.00  0.00     0.169 C 
HETATM   18  O2  UNL     1      -5.297   7.925  21.606  1.00  0.00    -0.389 OA
HETATM   19  C5  UNL     1      -5.389   9.100  22.319  1.00  0.00     0.192 C 
ENDBRANCH  13  15
ENDBRANCH   1  11
TORSDOF 2
ENDMDL
MODEL 5
REMARK VINA RESULT: -5.492669339      2.497      3.411
REMARK  2 active torsions:
REMARK  status: ('A' for Active; 'I' for Inactive)
REMARK       I    between atoms: C1_2  and  N1_3 
REMARK    1  A    between atoms: C1_2  and  C6_10 
REMARK    2  A    between atoms: N1_3  and  C2_5 
ROOT
HETATM    1  C6  UNL     1      -5.245  13.938  22.901  1.00  0.00     0.042 C 
HETATM    2  C7  UNL     1      -4.637  15.218  23.475  1.00  0.00     0.024 C 
HETATM    3  C8  UNL     1      -5.594  16.359  23.362  1.00  0.00    -0.013 C 
HETATM    4  C9  UNL     1      -6.865  15.982  24.094  1.00  0.00     0.009 C 
HETATM    5  C10 UNL     1      -7.506  14.828  23.389  1.00  0.00    -0.013 C 
HETATM    6  C11 UNL     1      -7.725  15.070  21.923  1.00  0.00     0.009 C 
HETATM    7  C12 UNL     1      -6.384  15.342  21.257  1.00  0.00    -0.013 C 
HETATM    8  C13 UNL     1      -5.843  16.612  21.888  1.00  0.00     0.009 C 
HETATM    9  C14 UNL     1      -5.435  14.182  21.425  1.00  0.00     0.024 C 
HETATM   10  C15 UNL     1      -6.569  13.622  23.502  1.00  0.00     0.024 C 
ENDROOT
BRANCH   1  11
HETATM   11  C1  UNL     1      -4.286  12.856  23.185  1.00  0.00     0.226 C 
HETATM   12  O1  UNL     1      -3.099  13.158  23.458  1.00  0.00    -0.273 OA
HETATM   13  N1  UNL     1      -4.629  11.481  23.167  1.00  0.00    -0.354 N 
ATOM     14  H1  UNL     1      -5.593  11.231  22.945  1.00  0.00     0.163 HD
BRANCH  13  15
HETATM   15  C2  UNL     1      -3.703  10.415  23.443  1.00  0.00     0.110 C 
HETATM   16  C3  UNL     1      -3.993   9.143  22.685  1.00  0.00     0.053 C 
HETATM   17  C4  UNL     1      -4.044   8.058  23.727  1.00  0.00     0.169 C 
HETATM   18  O2  UNL     1      -3.437   8.585  24.843  1.00  0.00    -0.389 OA
HETATM   19  C5  UNL     1      -3.734   9.930  24.874  1.00  0.00     0.192 C 
ENDBRANCH  13  15
ENDBRANCH   1  11
TORSDOF 2
ENDMDL
