MODEL 1
REMARK VINA RESULT: -5.683981230      0.000      0.000
REMARK  4 active torsions:
REMARK  status: ('A' for Active; 'I' for Inactive)
REMARK    1  A    between atoms: C1_2  and  C2_3 
REMARK    2  A    between atoms: C7_8  and  C12_13 
REMARK    3  A    between atoms: C12_13  and  N1_14 
REMARK    4  A    between atoms: N1_14  and  C13_17 
ROOT
HETATM    1  C2  UNL     1      -5.047  14.702  21.427  1.00  0.00     0.059 C 
HETATM    2  C3  UNL     1      -5.276  15.250  22.792  1.00  0.00     0.005 C 
HETATM    3  C4  UNL     1      -4.025  15.507  23.583  1.00  0.00     0.032 C 
HETATM    4  C5  UNL     1      -3.261  14.230  23.607  1.00  0.00    -0.030 C 
HETATM    5  C6  UNL     1      -3.901  13.075  23.543  1.00  0.00    -0.023 C 
HETATM    6  C7  UNL     1      -5.368  12.896  23.441  1.00  0.00     0.049 C 
HETATM    7  C8  UNL     1      -6.091  14.223  23.583  1.00  0.00     0.001 C 
HETATM    8  C9  UNL     1      -7.450  14.204  22.910  1.00  0.00     0.011 C 
HETATM    9  C10 UNL     1      -7.270  13.525  21.572  1.00  0.00    -0.005 C 
HETATM   10  C11 UNL     1      -7.125  12.051  21.893  1.00  0.00     0.045 C 
HETATM   11  C12 UNL     1      -5.610  12.347  22.059  1.00  0.00     0.138 C 
HETATM   12  C17 UNL     1      -5.824  13.464  21.114  1.00  0.00     0.037 C 
ENDROOT
BRANCH  11  13
HETATM   13  N1  UNL     1      -4.885  11.191  21.677  1.00  0.00    -0.061 N 
ATOM     14  H12 UNL     1      -5.165  10.864  20.751  1.00  0.00     0.278 HD
ATOM     15  H11 UNL     1      -3.909  11.409  21.478  1.00  0.00     0.278 HD
BRANCH  13  16
HETATM   16  C13 UNL     1      -5.001  10.166  22.646  1.00  0.00     0.187 C 
HETATM   17  C14 UNL     1      -5.362   8.782  22.046  1.00  0.00     0.033 C 
HETATM   18  C15 UNL     1      -4.607   8.198  23.217  1.00  0.00     0.004 C 
HETATM   19  C16 UNL     1      -3.775   9.499  23.192  1.00  0.00     0.033 C 
ENDBRANCH  13  16
ENDBRANCH  11  13
BRANCH   1  20
HETATM   20  C1  UNL     1      -5.409  15.747  20.408  1.00  0.00     0.236 C 
HETATM   21  O1  UNL     1      -4.743  15.877  19.389  1.00  0.00    -0.306 OA
ENDBRANCH   1  20
TORSDOF 4
ENDMDL
MODEL 2
REMARK VINA RESULT: -5.594824174      2.093      3.178
REMARK  4 active torsions:
REMARK  status: ('A' for Active; 'I' for Inactive)
REMARK    1  A    between atoms: C1_2  and  C2_3 
REMARK    2  A    between atoms: C7_8  and  C12_13 
REMARK    3  A    between atoms: C12_13  and  N1_14 
REMARK    4  A    between atoms: N1_14  and  C13_17 
ROOT
HETATM    1  C2  UNL     1      -6.993  15.024  21.158  1.00  0.00     0.059 C 
HETATM    2  C3  UNL     1      -7.947  15.295  22.268  1.00  0.00     0.005 C 
HETATM    3  C4  UNL     1      -7.808  16.651  22.898  1.00  0.00     0.032 C 
HETATM    4  C5  UNL     1      -6.388  16.783  23.327  1.00  0.00    -0.030 C 
HETATM    5  C6  UNL     1      -5.697  15.709  23.665  1.00  0.00    -0.023 C 
HETATM    6  C7  UNL     1      -6.197  14.314  23.664  1.00  0.00     0.049 C 
HETATM    7  C8  UNL     1      -7.686  14.269  23.375  1.00  0.00     0.001 C 
HETATM    8  C9  UNL     1      -8.109  12.939  22.780  1.00  0.00     0.011 C 
HETATM    9  C10 UNL     1      -7.076  12.574  21.739  1.00  0.00    -0.005 C 
HETATM   10  C11 UNL     1      -5.862  12.125  22.528  1.00  0.00     0.045 C 
HETATM   11  C12 UNL     1      -5.456  13.623  22.550  1.00  0.00     0.138 C 
HETATM   12  C17 UNL     1      -6.224  13.749  21.293  1.00  0.00     0.037 C 
ENDROOT
BRANCH  11  13
HETATM   13  N1  UNL     1      -4.041  13.701  22.555  1.00  0.00    -0.061 N 
ATOM     14  H12 UNL     1      -3.628  13.049  21.888  1.00  0.00     0.278 HD
ATOM     15  H11 UNL     1      -3.712  14.576  22.145  1.00  0.00     0.278 HD
BRANCH  13  16
HETATM   16  C13 UNL     1      -3.519  13.511  23.858  1.00  0.00     0.187 C 
HETATM   17  C14 UNL     1      -2.876  12.116  24.070  1.00  0.00     0.033 C 
HETATM   18  C15 UNL     1      -1.982  12.801  25.077  1.00  0.00     0.004 C 
HETATM   19  C16 UNL     1      -2.181  14.076  24.227  1.00  0.00     0.033 C 
ENDBRANCH  13  16
ENDBRANCH  11  13
BRANCH   1  20
HETATM   20  C1  UNL     1      -7.749  14.974  19.858  1.00  0.00     0.236 C 
HETATM   21  O1  UNL     1      -8.972  15.015  19.849  1.00  0.00    -0.306 OA
ENDBRANCH   1  20
TORSDOF 4
ENDMDL
MODEL 3
REMARK VINA RESULT: -5.573903905      2.590      4.200
REMARK  4 active torsions:
REMARK  status: ('A' for Active; 'I' for Inactive)
REMARK    1  A    between atoms: C1_2  and  C2_3 
REMARK    2  A    between atoms: C7_8  and  C12_13 
REMARK    3  A    between atoms: C12_13  and  N1_14 
REMARK    4  A    between atoms: N1_14  and  C13_17 
ROOT
HETATM    1  C2  UNL     1      -7.769  14.203  22.548  1.00  0.00     0.059 C 
HETATM    2  C3  UNL     1      -8.384  15.289  21.737  1.00  0.00     0.005 C 
HETATM    3  C4  UNL     1      -8.519  14.979  20.273  1.00  0.00     0.032 C 
HETATM    4  C5  UNL     1      -7.162  14.608  19.785  1.00  0.00    -0.030 C 
HETATM    5  C6  UNL     1      -6.089  15.119  20.363  1.00  0.00    -0.023 C 
HETATM    6  C7  UNL     1      -6.079  16.067  21.502  1.00  0.00     0.049 C 
HETATM    7  C8  UNL     1      -7.486  16.525  21.842  1.00  0.00     0.001 C 
HETATM    8  C9  UNL     1      -7.604  16.969  23.288  1.00  0.00     0.011 C 
HETATM    9  C10 UNL     1      -6.866  15.950  24.124  1.00  0.00    -0.005 C 
HETATM   10  C11 UNL     1      -5.397  16.237  23.890  1.00  0.00     0.045 C 
HETATM   11  C12 UNL     1      -5.518  15.290  22.664  1.00  0.00     0.138 C 
HETATM   12  C17 UNL     1      -6.621  14.637  23.402  1.00  0.00     0.037 C 
ENDROOT
BRANCH  11  13
HETATM   13  N1  UNL     1      -4.273  14.640  22.479  1.00  0.00    -0.061 N 
ATOM     14  H12 UNL     1      -4.223  14.180  21.569  1.00  0.00     0.278 HD
ATOM     15  H11 UNL     1      -3.514  15.311  22.357  1.00  0.00     0.278 HD
BRANCH  13  16
HETATM   16  C13 UNL     1      -4.002  13.735  23.533  1.00  0.00     0.187 C 
HETATM   17  C14 UNL     1      -4.101  12.245  23.113  1.00  0.00     0.033 C 
HETATM   18  C15 UNL     1      -3.071  11.986  24.188  1.00  0.00     0.004 C 
HETATM   19  C16 UNL     1      -2.587  13.429  23.923  1.00  0.00     0.033 C 
ENDBRANCH  13  16
ENDBRANCH  11  13
BRANCH   1  20
HETATM   20  C1  UNL     1      -8.815  13.605  23.448  1.00  0.00     0.236 C 
HETATM   21  O1  UNL     1      -9.982  13.536  23.083  1.00  0.00    -0.306 OA
ENDBRANCH   1  20
TORSDOF 4
ENDMDL
MODEL 4
REMARK VINA RESULT: -5.542463099      5.751      8.148
REMARK  4 active torsions:
REMARK  status: ('A' for Active; 'I' for Inactive)
REMARK    1  A    between atoms: C1_2  and  C2_3 
REMARK    2  A    between atoms: C7_8  and  C12_13 
REMARK    3  A    between atoms: C12_13  and  N1_14 
REMARK    4  A    between atoms: N1_14  and  C13_17 
ROOT
HETATM    1  C2  UNL     1      -1.901   9.344  28.393  1.00  0.00     0.059 C 
HETATM    2  C3  UNL     1      -3.375   9.535  28.472  1.00  0.00     0.005 C 
HETATM    3  C4  UNL     1      -4.153   8.881  27.365  1.00  0.00     0.032 C 
HETATM    4  C5  UNL     1      -3.585   9.384  26.084  1.00  0.00    -0.030 C 
HETATM    5  C6  UNL     1      -3.042  10.587  26.029  1.00  0.00    -0.023 C 
HETATM    6  C7  UNL     1      -2.924  11.544  27.154  1.00  0.00     0.049 C 
HETATM    7  C8  UNL     1      -3.662  11.037  28.380  1.00  0.00     0.001 C 
HETATM    8  C9  UNL     1      -3.099  11.619  29.662  1.00  0.00     0.011 C 
HETATM    9  C10 UNL     1      -1.593  11.561  29.549  1.00  0.00    -0.005 C 
HETATM   10  C11 UNL     1      -1.227  12.671  28.584  1.00  0.00     0.045 C 
HETATM   11  C12 UNL     1      -1.452  11.622  27.461  1.00  0.00     0.138 C 
HETATM   12  C17 UNL     1      -1.103  10.605  28.476  1.00  0.00     0.037 C 
ENDROOT
BRANCH  11  13
HETATM   13  N1  UNL     1      -0.574  11.921  26.390  1.00  0.00    -0.061 N 
ATOM     14  H12 UNL     1       0.394  11.985  26.707  1.00  0.00     0.278 HD
ATOM     15  H11 UNL     1      -0.478  11.131  25.752  1.00  0.00     0.278 HD
BRANCH  13  16
HETATM   16  C13 UNL     1      -0.975  13.094  25.706  1.00  0.00     0.187 C 
HETATM   17  C14 UNL     1       0.199  14.055  25.383  1.00  0.00     0.033 C 
HETATM   18  C15 UNL     1      -0.622  14.483  24.189  1.00  0.00     0.004 C 
HETATM   19  C16 UNL     1      -1.225  13.061  24.229  1.00  0.00     0.033 C 
ENDBRANCH  13  16
ENDBRANCH  11  13
BRANCH   1  20
HETATM   20  C1  UNL     1      -1.459   8.441  29.512  1.00  0.00     0.236 C 
HETATM   21  O1  UNL     1      -2.231   8.150  30.417  1.00  0.00    -0.306 OA
ENDBRANCH   1  20
TORSDOF 4
ENDMDL
MODEL 5
REMARK VINA RESULT: -5.534869445      1.907      3.120
REMARK  4 active torsions:
REMARK  status: ('A' for Active; 'I' for Inactive)
REMARK    1  A    between atoms: C1_2  and  C2_3 
REMARK    2  A    between atoms: C7_8  and  C12_13 
REMARK    3  A    between atoms: C12_13  and  N1_14 
REMARK    4  A    between atoms: N1_14  and  C13_17 
ROOT
HETATM    1  C2  UNL     1      -5.614  15.340  21.271  1.00  0.00     0.059 C 
HETATM    2  C3  UNL     1      -7.035  15.772  21.366  1.00  0.00     0.005 C 
HETATM    3  C4  UNL     1      -7.277  16.941  22.278  1.00  0.00     0.032 C 
HETATM    4  C5  UNL     1      -6.707  16.576  23.604  1.00  0.00    -0.030 C 
HETATM    5  C6  UNL     1      -6.662  15.310  23.980  1.00  0.00    -0.023 C 
HETATM    6  C7  UNL     1      -7.136  14.149  23.191  1.00  0.00     0.049 C 
HETATM    7  C8  UNL     1      -7.847  14.602  21.929  1.00  0.00     0.001 C 
HETATM    8  C9  UNL     1      -7.806  13.543  20.843  1.00  0.00     0.011 C 
HETATM    9  C10 UNL     1      -6.400  12.990  20.820  1.00  0.00    -0.005 C 
HETATM   10  C11 UNL     1      -6.305  12.102  22.044  1.00  0.00     0.045 C 
HETATM   11  C12 UNL     1      -5.893  13.388  22.812  1.00  0.00     0.138 C 
HETATM   12  C17 UNL     1      -5.387  13.882  21.514  1.00  0.00     0.037 C 
ENDROOT
BRANCH  11  13
HETATM   13  N1  UNL     1      -5.006  13.021  23.853  1.00  0.00    -0.061 N 
ATOM     14  H12 UNL     1      -5.209  13.529  24.714  1.00  0.00     0.278 HD
ATOM     15  H11 UNL     1      -5.188  12.073  24.184  1.00  0.00     0.278 HD
BRANCH  13  16
HETATM   16  C13 UNL     1      -3.655  13.182  23.461  1.00  0.00     0.187 C 
HETATM   17  C14 UNL     1      -3.009  14.490  23.988  1.00  0.00     0.033 C 
HETATM   18  C15 UNL     1      -1.705  13.727  23.964  1.00  0.00     0.004 C 
HETATM   19  C16 UNL     1      -2.563  12.463  24.194  1.00  0.00     0.033 C 
ENDBRANCH  13  16
ENDBRANCH  11  13
BRANCH   1  20
HETATM   20  C1  UNL     1      -5.087  15.671  19.902  1.00  0.00     0.236 C 
HETATM   21  O1  UNL     1      -5.852  15.787  18.954  1.00  0.00    -0.306 OA
ENDBRANCH   1  20
TORSDOF 4
ENDMDL
