MODEL 1
REMARK VINA RESULT: -8.568499860      0.000      0.000
REMARK  9 active torsions:
REMARK  status: ('A' for Active; 'I' for Inactive)
REMARK    1  A    between atoms: C2_2  and  C3_3 
REMARK    2  A    between atoms: C3_3  and  O1_4 
REMARK    3  A    between atoms: N1_9  and  C7_10 
REMARK    4  A    between atoms: C10_13  and  C11_14 
REMARK    5  A    between atoms: C11_14  and  O2_15 
REMARK    6  A    between atoms: C11_14  and  C27_36 
REMARK    7  A    between atoms: O2_15  and  C12_16 
REMARK    8  A    between atoms: C15_21  and  C16_22 
REMARK    9  A    between atoms: C22_30  and  C23_31 
ROOT
HETATM    1  C23 UNL     1      19.042   0.107 -23.064  1.00  0.00     0.072 C 
HETATM    2  C24 UNL     1      19.720  -1.192 -23.544  1.00  0.00     0.036 C 
HETATM    3  C25 UNL     1      17.614  -0.044 -23.742  1.00  0.00     0.036 C 
HETATM    4  C26 UNL     1      19.657   1.218 -23.690  1.00  0.00     0.073 C 
HETATM    5  N3  UNL     1      20.124   2.104 -24.260  1.00  0.00    -0.196 NA
ENDROOT
BRANCH   1   6
HETATM    6  C22 UNL     1      18.751   0.128 -21.651  1.00  0.00     0.011 A 
HETATM    7  C12 UNL     1      18.057   1.272 -21.138  1.00  0.00     0.093 A 
HETATM    8  C13 UNL     1      17.729   1.390 -19.810  1.00  0.00     0.124 A 
HETATM    9  N2  UNL     1      18.054   0.420 -18.943  1.00  0.00    -0.372 N 
HETATM   10  C14 UNL     1      18.691  -0.644 -19.396  1.00  0.00     0.100 A 
ATOM     11  H2  UNL     1      17.815   0.502 -17.955  1.00  0.00     0.164 HD
HETATM   12  C15 UNL     1      19.060  -0.832 -20.755  1.00  0.00     0.000 A 
BRANCH   7  13
HETATM   13  O2  UNL     1      17.694   2.285 -21.955  1.00  0.00    -0.341 OA
BRANCH  13  14
HETATM   14  C11 UNL     1      16.650   3.231 -21.767  1.00  0.00     0.165 C 
BRANCH  14  15
HETATM   15  C10 UNL     1      17.024   4.136 -20.660  1.00  0.00     0.042 C 
HETATM   16  C9  UNL     1      16.694   5.570 -20.730  1.00  0.00     0.017 C 
HETATM   17  C8  UNL     1      15.232   5.879 -20.509  1.00  0.00     0.085 C 
HETATM   18  C7  UNL     1      14.589   5.193 -19.364  1.00  0.00     0.119 C 
HETATM   19  O4  UNL     1      15.054   3.899 -19.255  1.00  0.00    -0.338 OA
HETATM   20  C31 UNL     1      16.389   3.680 -19.328  1.00  0.00     0.184 C 
BRANCH  18  21
HETATM   21  N1  UNL     1      14.412   5.915 -18.178  1.00  0.00    -0.344 N 
HETATM   22  C6  UNL     1      14.999   7.141 -17.942  1.00  0.00     0.066 C 
HETATM   23  C5  UNL     1      14.536   7.863 -16.694  1.00  0.00     0.046 C 
HETATM   24  C4  UNL     1      13.287   7.237 -16.156  1.00  0.00     0.018 C 
HETATM   25  C2  UNL     1      13.689   5.791 -15.826  1.00  0.00    -0.006 C 
HETATM   26  C1  UNL     1      14.882   5.884 -14.900  1.00  0.00     0.019 C 
HETATM   27  C32 UNL     1      14.055   5.080 -17.091  1.00  0.00     0.141 C 
BRANCH  25  28
HETATM   28  C3  UNL     1      12.559   5.165 -15.086  1.00  0.00     0.175 C 
BRANCH  28  29
HETATM   29  O1  UNL     1      12.277   3.878 -15.535  1.00  0.00    -0.400 OA
ATOM     30  H1  UNL     1      12.009   3.862 -16.447  1.00  0.00     0.209 HD
ENDBRANCH  28  29
ENDBRANCH  25  28
ENDBRANCH  18  21
ENDBRANCH  14  15
BRANCH  14  31
HETATM   31  C27 UNL     1      16.625   3.971 -23.113  1.00  0.00     0.177 C 
HETATM   32  C28 UNL     1      16.211   3.102 -24.266  1.00  0.00     0.266 C 
HETATM   33  N4  UNL     1      17.141   3.194 -25.406  1.00  0.00    -0.071 N 
HETATM   34  C29 UNL     1      17.243   4.638 -25.670  1.00  0.00     0.258 C 
ATOM     35  H42 UNL     1      18.036   2.731 -25.253  1.00  0.00     0.277 HD
ATOM     36  H41 UNL     1      16.866   2.639 -26.216  1.00  0.00     0.277 HD
HETATM   37  C30 UNL     1      17.899   5.241 -24.460  1.00  0.00     0.196 C 
HETATM   38  O3  UNL     1      18.004   4.268 -23.441  1.00  0.00    -0.380 OA
ENDBRANCH  14  31
ENDBRANCH  13  14
ENDBRANCH   7  13
BRANCH  12  39
HETATM   39  C16 UNL     1      19.632  -2.134 -21.016  1.00  0.00    -0.021 A 
HETATM   40  C17 UNL     1      18.940  -3.291 -20.797  1.00  0.00     0.036 A 
HETATM   41  C18 UNL     1      19.553  -4.538 -21.007  1.00  0.00     0.036 A 
HETATM   42 CL1  UNL     1      18.713  -6.050 -20.744  1.00  0.00    -0.084 Cl
HETATM   43  C19 UNL     1      20.855  -4.574 -21.432  1.00  0.00     0.047 A 
HETATM   44  C20 UNL     1      21.559  -3.416 -21.653  1.00  0.00     0.036 A 
HETATM   45 CL2  UNL     1      23.224  -3.420 -22.197  1.00  0.00    -0.084 Cl
HETATM   46  C21 UNL     1      20.926  -2.211 -21.438  1.00  0.00     0.036 A 
ENDBRANCH  12  39
ENDBRANCH   1   6
TORSDOF 9
ENDMDL
MODEL 2
REMARK VINA RESULT: -8.406411429      0.107      1.392
REMARK  9 active torsions:
REMARK  status: ('A' for Active; 'I' for Inactive)
REMARK    1  A    between atoms: C2_2  and  C3_3 
REMARK    2  A    between atoms: C3_3  and  O1_4 
REMARK    3  A    between atoms: N1_9  and  C7_10 
REMARK    4  A    between atoms: C10_13  and  C11_14 
REMARK    5  A    between atoms: C11_14  and  O2_15 
REMARK    6  A    between atoms: C11_14  and  C27_36 
REMARK    7  A    between atoms: O2_15  and  C12_16 
REMARK    8  A    between atoms: C15_21  and  C16_22 
REMARK    9  A    between atoms: C22_30  and  C23_31 
ROOT
HETATM    1  C23 UNL     1      19.076   0.082 -23.066  1.00  0.00     0.072 C 
HETATM    2  C24 UNL     1      19.787  -1.206 -23.525  1.00  0.00     0.036 C 
HETATM    3  C25 UNL     1      17.659  -0.107 -23.757  1.00  0.00     0.036 C 
HETATM    4  C26 UNL     1      19.673   1.200 -23.696  1.00  0.00     0.073 C 
HETATM    5  N3  UNL     1      20.127   2.091 -24.270  1.00  0.00    -0.196 NA
ENDROOT
BRANCH   1   6
HETATM    6  C22 UNL     1      18.769   0.110 -21.656  1.00  0.00     0.011 A 
HETATM    7  C12 UNL     1      18.029   1.235 -21.164  1.00  0.00     0.093 A 
HETATM    8  C13 UNL     1      17.682   1.357 -19.842  1.00  0.00     0.124 A 
HETATM    9  N2  UNL     1      18.034   0.411 -18.959  1.00  0.00    -0.372 N 
HETATM   10  C14 UNL     1      18.714  -0.634 -19.392  1.00  0.00     0.100 A 
ATOM     11  H2  UNL     1      17.781   0.497 -17.975  1.00  0.00     0.164 HD
HETATM   12  C15 UNL     1      19.104  -0.826 -20.745  1.00  0.00     0.000 A 
BRANCH   7  13
HETATM   13  O2  UNL     1      17.637   2.223 -21.999  1.00  0.00    -0.341 OA
BRANCH  13  14
HETATM   14  C11 UNL     1      16.613   3.188 -21.794  1.00  0.00     0.165 C 
BRANCH  14  15
HETATM   15  C10 UNL     1      16.999   4.054 -20.660  1.00  0.00     0.042 C 
HETATM   16  C9  UNL     1      16.727   5.501 -20.704  1.00  0.00     0.017 C 
HETATM   17  C8  UNL     1      15.274   5.864 -20.508  1.00  0.00     0.085 C 
HETATM   18  C7  UNL     1      14.579   5.179 -19.393  1.00  0.00     0.119 C 
HETATM   19  O4  UNL     1      14.990   3.866 -19.303  1.00  0.00    -0.338 OA
HETATM   20  C31 UNL     1      16.316   3.595 -19.352  1.00  0.00     0.184 C 
BRANCH  18  21
HETATM   21  N1  UNL     1      14.404   5.882 -18.195  1.00  0.00    -0.344 N 
HETATM   22  C6  UNL     1      14.916   7.145 -17.975  1.00  0.00     0.066 C 
HETATM   23  C5  UNL     1      14.458   7.827 -16.704  1.00  0.00     0.046 C 
HETATM   24  C4  UNL     1      13.279   7.116 -16.118  1.00  0.00     0.018 C 
HETATM   25  C2  UNL     1      13.792   5.699 -15.816  1.00  0.00    -0.006 C 
HETATM   26  C1  UNL     1      15.015   5.870 -14.940  1.00  0.00     0.019 C 
HETATM   27  C32 UNL     1      14.151   5.020 -17.100  1.00  0.00     0.141 C 
BRANCH  25  28
HETATM   28  C3  UNL     1      12.739   4.994 -15.033  1.00  0.00     0.175 C 
BRANCH  28  29
HETATM   29  O1  UNL     1      12.343   3.801 -15.630  1.00  0.00    -0.400 OA
ATOM     30  H1  UNL     1      12.583   3.757 -16.549  1.00  0.00     0.209 HD
ENDBRANCH  28  29
ENDBRANCH  25  28
ENDBRANCH  18  21
ENDBRANCH  14  15
BRANCH  14  31
HETATM   31  C27 UNL     1      16.619   3.965 -23.119  1.00  0.00     0.177 C 
HETATM   32  C28 UNL     1      16.221   3.130 -24.303  1.00  0.00     0.266 C 
HETATM   33  N4  UNL     1      17.173   3.247 -25.422  1.00  0.00    -0.071 N 
HETATM   34  C29 UNL     1      17.290   4.697 -25.645  1.00  0.00     0.258 C 
ATOM     35  H42 UNL     1      18.062   2.774 -25.266  1.00  0.00     0.277 HD
ATOM     36  H41 UNL     1      16.910   2.716 -26.253  1.00  0.00     0.277 HD
HETATM   37  C30 UNL     1      17.926   5.262 -24.407  1.00  0.00     0.196 C 
HETATM   38  O3  UNL     1      18.006   4.260 -23.414  1.00  0.00    -0.380 OA
ENDBRANCH  14  31
ENDBRANCH  13  14
ENDBRANCH   7  13
BRANCH  12  39
HETATM   39  C16 UNL     1      19.727  -2.109 -20.982  1.00  0.00    -0.021 A 
HETATM   40  C17 UNL     1      21.014  -2.222 -21.428  1.00  0.00     0.036 A 
HETATM   41  C18 UNL     1      21.563  -3.486 -21.704  1.00  0.00     0.036 A 
HETATM   42 CL1  UNL     1      23.204  -3.689 -22.275  1.00  0.00    -0.084 Cl
HETATM   43  C19 UNL     1      20.787  -4.601 -21.520  1.00  0.00     0.047 A 
HETATM   44  C20 UNL     1      19.493  -4.496 -21.073  1.00  0.00     0.036 A 
HETATM   45 CL2  UNL     1      18.471  -5.897 -20.826  1.00  0.00    -0.084 Cl
HETATM   46  C21 UNL     1      18.988  -3.242 -20.813  1.00  0.00     0.036 A 
ENDBRANCH  12  39
ENDBRANCH   1   6
TORSDOF 9
ENDMDL
MODEL 3
REMARK VINA RESULT: -8.330595647      4.699     10.325
REMARK  9 active torsions:
REMARK  status: ('A' for Active; 'I' for Inactive)
REMARK    1  A    between atoms: C2_2  and  C3_3 
REMARK    2  A    between atoms: C3_3  and  O1_4 
REMARK    3  A    between atoms: N1_9  and  C7_10 
REMARK    4  A    between atoms: C10_13  and  C11_14 
REMARK    5  A    between atoms: C11_14  and  O2_15 
REMARK    6  A    between atoms: C11_14  and  C27_36 
REMARK    7  A    between atoms: O2_15  and  C12_16 
REMARK    8  A    between atoms: C15_21  and  C16_22 
REMARK    9  A    between atoms: C22_30  and  C23_31 
ROOT
HETATM    1  C23 UNL     1      15.548   7.268 -18.863  1.00  0.00     0.072 C 
HETATM    2  C24 UNL     1      16.463   6.607 -17.813  1.00  0.00     0.036 C 
HETATM    3  C25 UNL     1      16.122   8.749 -18.857  1.00  0.00     0.036 C 
HETATM    4  C26 UNL     1      14.231   7.356 -18.351  1.00  0.00     0.073 C 
HETATM    5  N3  UNL     1      13.181   7.481 -17.892  1.00  0.00    -0.196 NA
ENDROOT
BRANCH   1   6
HETATM    6  C22 UNL     1      15.783   6.815 -20.212  1.00  0.00     0.011 A 
HETATM    7  C12 UNL     1      16.218   5.460 -20.386  1.00  0.00     0.093 A 
HETATM    8  C13 UNL     1      16.465   4.927 -21.627  1.00  0.00     0.124 A 
HETATM    9  N2  UNL     1      16.305   5.674 -22.728  1.00  0.00    -0.372 N 
HETATM   10  C14 UNL     1      15.903   6.924 -22.591  1.00  0.00     0.100 A 
ATOM     11  H2  UNL     1      16.489   5.285 -23.653  1.00  0.00     0.164 HD
HETATM   12  C15 UNL     1      15.626   7.538 -21.340  1.00  0.00     0.000 A 
BRANCH   7  13
HETATM   13  O2  UNL     1      16.396   4.649 -19.319  1.00  0.00    -0.341 OA
BRANCH  13  14
HETATM   14  C11 UNL     1      16.331   3.229 -19.278  1.00  0.00     0.165 C 
BRANCH  14  15
HETATM   15  C10 UNL     1      17.708   2.691 -19.304  1.00  0.00     0.042 C 
HETATM   16  C9  UNL     1      18.017   1.410 -18.645  1.00  0.00     0.017 C 
HETATM   17  C8  UNL     1      17.511   0.195 -19.388  1.00  0.00     0.085 C 
HETATM   18  C7  UNL     1      17.769   0.173 -20.847  1.00  0.00     0.119 C 
HETATM   19  O4  UNL     1      17.616   1.434 -21.383  1.00  0.00    -0.338 OA
HETATM   20  C31 UNL     1      18.198   2.484 -20.754  1.00  0.00     0.184 C 
BRANCH  18  21
HETATM   21  N1  UNL     1      18.839  -0.599 -21.315  1.00  0.00    -0.344 N 
HETATM   22  C6  UNL     1      19.585  -0.266 -22.427  1.00  0.00     0.066 C 
HETATM   23  C5  UNL     1      20.822  -1.106 -22.665  1.00  0.00     0.046 C 
HETATM   24  C4  UNL     1      21.156  -1.909 -21.448  1.00  0.00     0.018 C 
HETATM   25  C2  UNL     1      19.929  -2.807 -21.226  1.00  0.00    -0.006 C 
HETATM   26  C1  UNL     1      19.713  -3.556 -22.524  1.00  0.00     0.019 C 
HETATM   27  C32 UNL     1      18.744  -1.952 -20.906  1.00  0.00     0.141 C 
BRANCH  25  28
HETATM   28  C3  UNL     1      20.272  -3.788 -20.160  1.00  0.00     0.175 C 
BRANCH  28  29
HETATM   29  O1  UNL     1      19.250  -4.705 -19.933  1.00  0.00    -0.400 OA
ATOM     30  H1  UNL     1      19.577  -5.550 -19.644  1.00  0.00     0.209 HD
ENDBRANCH  28  29
ENDBRANCH  25  28
ENDBRANCH  18  21
ENDBRANCH  14  15
BRANCH  14  31
HETATM   31  C27 UNL     1      15.652   2.966 -17.926  1.00  0.00     0.177 C 
HETATM   32  C28 UNL     1      14.875   1.681 -17.887  1.00  0.00     0.266 C 
HETATM   33  N4  UNL     1      13.506   1.863 -17.372  1.00  0.00    -0.071 N 
HETATM   34  C29 UNL     1      13.695   2.561 -16.089  1.00  0.00     0.258 C 
ATOM     35  H42 UNL     1      12.876   2.337 -18.017  1.00  0.00     0.277 HD
ATOM     36  H41 UNL     1      12.966   1.000 -17.303  1.00  0.00     0.277 HD
HETATM   37  C30 UNL     1      14.270   3.907 -16.424  1.00  0.00     0.196 C 
HETATM   38  O3  UNL     1      14.601   3.955 -17.797  1.00  0.00    -0.380 OA
ENDBRANCH  14  31
ENDBRANCH  13  14
ENDBRANCH   7  13
BRANCH  12  39
HETATM   39  C16 UNL     1      15.080   8.870 -21.467  1.00  0.00    -0.021 A 
HETATM   40  C17 UNL     1      13.738   9.118 -21.390  1.00  0.00     0.036 A 
HETATM   41  C18 UNL     1      13.242  10.419 -21.578  1.00  0.00     0.036 A 
HETATM   42 CL1  UNL     1      11.535  10.791 -21.490  1.00  0.00    -0.084 Cl
HETATM   43  C19 UNL     1      14.125  11.434 -21.840  1.00  0.00     0.047 A 
HETATM   44  C20 UNL     1      15.475  11.194 -21.920  1.00  0.00     0.036 A 
HETATM   45 CL2  UNL     1      16.634  12.464 -22.253  1.00  0.00    -0.084 Cl
HETATM   46  C21 UNL     1      15.925   9.907 -21.730  1.00  0.00     0.036 A 
ENDBRANCH  12  39
ENDBRANCH   1   6
TORSDOF 9
ENDMDL
MODEL 4
REMARK VINA RESULT: -8.249823280      3.677      9.196
REMARK  9 active torsions:
REMARK  status: ('A' for Active; 'I' for Inactive)
REMARK    1  A    between atoms: C2_2  and  C3_3 
REMARK    2  A    between atoms: C3_3  and  O1_4 
REMARK    3  A    between atoms: N1_9  and  C7_10 
REMARK    4  A    between atoms: C10_13  and  C11_14 
REMARK    5  A    between atoms: C11_14  and  O2_15 
REMARK    6  A    between atoms: C11_14  and  C27_36 
REMARK    7  A    between atoms: O2_15  and  C12_16 
REMARK    8  A    between atoms: C15_21  and  C16_22 
REMARK    9  A    between atoms: C22_30  and  C23_31 
ROOT
HETATM    1  C23 UNL     1      16.548   1.879 -18.040  1.00  0.00     0.072 C 
HETATM    2  C24 UNL     1      15.610   1.810 -16.820  1.00  0.00     0.036 C 
HETATM    3  C25 UNL     1      15.762   0.954 -19.064  1.00  0.00     0.036 C 
HETATM    4  C26 UNL     1      17.755   1.200 -17.745  1.00  0.00     0.073 C 
HETATM    5  N3  UNL     1      18.701   0.584 -17.511  1.00  0.00    -0.196 NA
ENDROOT
BRANCH   1   6
HETATM    6  C22 UNL     1      16.571   3.167 -18.689  1.00  0.00     0.011 A 
HETATM    7  C12 UNL     1      17.031   3.215 -20.045  1.00  0.00     0.093 A 
HETATM    8  C13 UNL     1      17.088   4.389 -20.755  1.00  0.00     0.124 A 
HETATM    9  N2  UNL     1      16.707   5.542 -20.187  1.00  0.00    -0.372 N 
HETATM   10  C14 UNL     1      16.278   5.520 -18.940  1.00  0.00     0.100 A 
ATOM     11  H2  UNL     1      16.749   6.418 -20.708  1.00  0.00     0.164 HD
HETATM   12  C15 UNL     1      16.191   4.343 -18.148  1.00  0.00     0.000 A 
BRANCH   7  13
HETATM   13  O2  UNL     1      17.425   2.089 -20.682  1.00  0.00    -0.341 OA
BRANCH  13  14
HETATM   14  C11 UNL     1      18.234   1.979 -21.846  1.00  0.00     0.165 C 
BRANCH  14  15
HETATM   15  C10 UNL     1      18.105   0.607 -22.383  1.00  0.00     0.042 C 
HETATM   16  C9  UNL     1      19.195   0.017 -23.179  1.00  0.00     0.017 C 
HETATM   17  C8  UNL     1      20.399  -0.399 -22.365  1.00  0.00     0.085 C 
HETATM   18  C7  UNL     1      20.114  -1.154 -21.123  1.00  0.00     0.119 C 
HETATM   19  O4  UNL     1      18.989  -0.653 -20.502  1.00  0.00    -0.338 OA
HETATM   20  C31 UNL     1      17.884  -0.418 -21.249  1.00  0.00     0.184 C 
BRANCH  18  21
HETATM   21  N1  UNL     1      20.269  -2.545 -21.148  1.00  0.00    -0.344 N 
HETATM   22  C6  UNL     1      19.298  -3.425 -20.715  1.00  0.00     0.066 C 
HETATM   23  C5  UNL     1      19.560  -4.888 -21.002  1.00  0.00     0.046 C 
HETATM   24  C4  UNL     1      20.666  -5.040 -21.998  1.00  0.00     0.018 C 
HETATM   25  C2  UNL     1      21.887  -4.395 -21.323  1.00  0.00    -0.006 C 
HETATM   26  C1  UNL     1      22.046  -5.087 -19.986  1.00  0.00     0.019 C 
HETATM   27  C32 UNL     1      21.631  -2.933 -21.134  1.00  0.00     0.141 C 
BRANCH  25  28
HETATM   28  C3  UNL     1      23.080  -4.697 -22.161  1.00  0.00     0.175 C 
BRANCH  28  29
HETATM   29  O1  UNL     1      23.615  -3.557 -22.755  1.00  0.00    -0.400 OA
ATOM     30  H1  UNL     1      23.660  -3.629 -23.702  1.00  0.00     0.209 HD
ENDBRANCH  28  29
ENDBRANCH  25  28
ENDBRANCH  18  21
ENDBRANCH  14  15
BRANCH  14  31
HETATM   31  C27 UNL     1      17.602   3.012 -22.789  1.00  0.00     0.177 C 
HETATM   32  C28 UNL     1      16.527   2.440 -23.669  1.00  0.00     0.266 C 
HETATM   33  N4  UNL     1      16.715   2.785 -25.089  1.00  0.00    -0.071 N 
HETATM   34  C29 UNL     1      16.857   4.251 -25.087  1.00  0.00     0.258 C 
ATOM     35  H42 UNL     1      17.483   2.291 -25.542  1.00  0.00     0.277 HD
ATOM     36  H41 UNL     1      15.981   2.437 -25.706  1.00  0.00     0.277 HD
HETATM   37  C30 UNL     1      18.128   4.548 -24.343  1.00  0.00     0.196 C 
HETATM   38  O3  UNL     1      18.623   3.363 -23.754  1.00  0.00    -0.380 OA
ENDBRANCH  14  31
ENDBRANCH  13  14
ENDBRANCH   7  13
BRANCH  12  39
HETATM   39  C16 UNL     1      15.570   4.566 -16.862  1.00  0.00    -0.021 A 
HETATM   40  C17 UNL     1      14.216   4.684 -16.717  1.00  0.00     0.036 A 
HETATM   41  C18 UNL     1      13.656   4.959 -15.458  1.00  0.00     0.036 A 
HETATM   42 CL1  UNL     1      11.932   5.120 -15.215  1.00  0.00    -0.084 Cl
HETATM   43  C19 UNL     1      14.489   5.107 -14.380  1.00  0.00     0.047 A 
HETATM   44  C20 UNL     1      15.850   4.991 -14.516  1.00  0.00     0.036 A 
HETATM   45 CL2  UNL     1      16.947   5.174 -13.163  1.00  0.00    -0.084 Cl
HETATM   46  C21 UNL     1      16.365   4.720 -15.765  1.00  0.00     0.036 A 
ENDBRANCH  12  39
ENDBRANCH   1   6
TORSDOF 9
ENDMDL
MODEL 5
REMARK VINA RESULT: -8.223237814      4.702     10.527
REMARK  9 active torsions:
REMARK  status: ('A' for Active; 'I' for Inactive)
REMARK    1  A    between atoms: C2_2  and  C3_3 
REMARK    2  A    between atoms: C3_3  and  O1_4 
REMARK    3  A    between atoms: N1_9  and  C7_10 
REMARK    4  A    between atoms: C10_13  and  C11_14 
REMARK    5  A    between atoms: C11_14  and  O2_15 
REMARK    6  A    between atoms: C11_14  and  C27_36 
REMARK    7  A    between atoms: O2_15  and  C12_16 
REMARK    8  A    between atoms: C15_21  and  C16_22 
REMARK    9  A    between atoms: C22_30  and  C23_31 
ROOT
HETATM    1  C23 UNL     1      16.013   7.066 -17.438  1.00  0.00     0.072 C 
HETATM    2  C24 UNL     1      17.006   6.155 -16.691  1.00  0.00     0.036 C 
HETATM    3  C25 UNL     1      16.739   8.470 -17.290  1.00  0.00     0.036 C 
HETATM    4  C26 UNL     1      14.813   7.165 -16.693  1.00  0.00     0.073 C 
HETATM    5  N3  UNL     1      13.871   7.288 -16.041  1.00  0.00    -0.196 NA
ENDROOT
BRANCH   1   6
HETATM    6  C22 UNL     1      15.977   6.847 -18.864  1.00  0.00     0.011 A 
HETATM    7  C12 UNL     1      16.258   5.522 -19.335  1.00  0.00     0.093 A 
HETATM    8  C13 UNL     1      16.246   5.206 -20.670  1.00  0.00     0.124 A 
HETATM    9  N2  UNL     1      15.966   6.145 -21.586  1.00  0.00    -0.372 N 
HETATM   10  C14 UNL     1      15.702   7.370 -21.174  1.00  0.00     0.100 A 
ATOM     11  H2  UNL     1      15.957   5.916 -22.580  1.00  0.00     0.164 HD
HETATM   12  C15 UNL     1      15.694   7.766 -19.809  1.00  0.00     0.000 A 
BRANCH   7  13
HETATM   13  O2  UNL     1      16.543   4.526 -18.467  1.00  0.00    -0.341 OA
BRANCH  13  14
HETATM   14  C11 UNL     1      16.430   3.124 -18.675  1.00  0.00     0.165 C 
BRANCH  14  15
HETATM   15  C10 UNL     1      17.788   2.553 -18.801  1.00  0.00     0.042 C 
HETATM   16  C9  UNL     1      18.071   1.195 -18.306  1.00  0.00     0.017 C 
HETATM   17  C8  UNL     1      17.510   0.092 -19.173  1.00  0.00     0.085 C 
HETATM   18  C7  UNL     1      17.733   0.235 -20.631  1.00  0.00     0.119 C 
HETATM   19  O4  UNL     1      17.607   1.555 -21.010  1.00  0.00    -0.338 OA
HETATM   20  C31 UNL     1      18.237   2.505 -20.278  1.00  0.00     0.184 C 
BRANCH  18  21
HETATM   21  N1  UNL     1      18.766  -0.507 -21.215  1.00  0.00    -0.344 N 
HETATM   22  C6  UNL     1      19.401  -0.134 -22.382  1.00  0.00     0.066 C 
HETATM   23  C5  UNL     1      20.623  -0.946 -22.754  1.00  0.00     0.046 C 
HETATM   24  C4  UNL     1      21.080  -1.773 -21.595  1.00  0.00     0.018 C 
HETATM   25  C2  UNL     1      19.891  -2.697 -21.286  1.00  0.00    -0.006 C 
HETATM   26  C1  UNL     1      19.568  -3.417 -22.577  1.00  0.00     0.019 C 
HETATM   27  C32 UNL     1      18.728  -1.871 -20.835  1.00  0.00     0.141 C 
BRANCH  25  28
HETATM   28  C3  UNL     1      20.345  -3.699 -20.282  1.00  0.00     0.175 C 
BRANCH  28  29
HETATM   29  O1  UNL     1      19.346  -4.610 -19.949  1.00  0.00    -0.400 OA
ATOM     30  H1  UNL     1      19.567  -5.499 -20.201  1.00  0.00     0.209 HD
ENDBRANCH  28  29
ENDBRANCH  25  28
ENDBRANCH  18  21
ENDBRANCH  14  15
BRANCH  14  31
HETATM   31  C27 UNL     1      15.741   2.652 -17.387  1.00  0.00     0.177 C 
HETATM   32  C28 UNL     1      14.701   1.593 -17.619  1.00  0.00     0.266 C 
HETATM   33  N4  UNL     1      13.418   1.906 -16.965  1.00  0.00    -0.071 N 
HETATM   34  C29 UNL     1      13.785   2.177 -15.565  1.00  0.00     0.258 C 
ATOM     35  H42 UNL     1      12.893   2.657 -17.412  1.00  0.00     0.277 HD
ATOM     36  H41 UNL     1      12.703   1.188 -17.079  1.00  0.00     0.277 HD
HETATM   37  C30 UNL     1      14.635   3.415 -15.586  1.00  0.00     0.196 C 
HETATM   38  O3  UNL     1      14.937   3.763 -16.921  1.00  0.00    -0.380 OA
ENDBRANCH  14  31
ENDBRANCH  13  14
ENDBRANCH   7  13
BRANCH  12  39
HETATM   39  C16 UNL     1      15.250   9.128 -19.613  1.00  0.00    -0.021 A 
HETATM   40  C17 UNL     1      13.954   9.435 -19.308  1.00  0.00     0.036 A 
HETATM   41  C18 UNL     1      13.550  10.775 -19.185  1.00  0.00     0.036 A 
HETATM   42 CL1  UNL     1      11.905  11.225 -18.795  1.00  0.00    -0.084 Cl
HETATM   43  C19 UNL     1      14.476  11.768 -19.375  1.00  0.00     0.047 A 
HETATM   44  C20 UNL     1      15.780  11.469 -19.683  1.00  0.00     0.036 A 
HETATM   45 CL2  UNL     1      16.992  12.708 -19.934  1.00  0.00    -0.084 Cl
HETATM   46  C21 UNL     1      16.141  10.144 -19.796  1.00  0.00     0.036 A 
ENDBRANCH  12  39
ENDBRANCH   1   6
TORSDOF 9
ENDMDL
