MODEL 1
REMARK VINA RESULT: -9.570056715      0.000      0.000
REMARK  10 active torsions:
REMARK  status: ('A' for Active; 'I' for Inactive)
REMARK       I    between atoms: N1_2  and  C3_4 
REMARK    1  A    between atoms: C3_4  and  O2_6 
REMARK    2  A    between atoms: O2_6  and  C4_7 
REMARK    3  A    between atoms: C8_12  and  N2_13 
REMARK    4  A    between atoms: N3_15  and  C9_17 
REMARK    5  A    between atoms: N4_19  and  C10_20 
REMARK    6  A    between atoms: C10_20  and  C11_21 
REMARK    7  A    between atoms: C11_21  and  C12_22 
REMARK    8  A    between atoms: C12_22  and  N5_23 
REMARK    9  A    between atoms: N5_23  and  C13_25 
REMARK   10  A    between atoms: C20_36  and  O3_37 
ROOT
HETATM    1  C9  UNL     1      18.820   0.516 -22.451  1.00  0.00     0.157 A 
HETATM    2  S1  UNL     1      19.408  -0.879 -23.198  1.00  0.00     0.014 SA
HETATM    3  N4  UNL     1      19.088  -1.427 -21.653  1.00  0.00    -0.294 N 
HETATM    4  C20 UNL     1      18.664  -0.215 -21.294  1.00  0.00     0.186 A 
ENDROOT
BRANCH   1   5
HETATM    5  N3  UNL     1      18.626   1.821 -22.941  1.00  0.00    -0.289 N 
HETATM    6  N2  UNL     1      17.664   2.151 -23.702  1.00  0.00    -0.297 N 
ATOM      7  H2  UNL     1      16.988   1.439 -23.979  1.00  0.00     0.187 HD
ATOM      8  H3  UNL     1      19.296   2.541 -22.671  1.00  0.00     0.188 HD
BRANCH   6   9
HETATM    9  C8  UNL     1      17.496   3.479 -24.180  1.00  0.00     0.085 A 
HETATM   10  C7  UNL     1      18.226   3.822 -25.309  1.00  0.00     0.040 A 
HETATM   11  C6  UNL     1      18.081   5.105 -25.791  1.00  0.00     0.024 A 
HETATM   12 BR1  UNL     1      19.394   2.583 -26.179  1.00  0.00    -0.049 Br
HETATM   13  C5  UNL     1      17.242   6.012 -25.174  1.00  0.00     0.040 A 
HETATM   14  C4  UNL     1      16.513   5.678 -24.051  1.00  0.00     0.100 A 
HETATM   15  C21 UNL     1      16.658   4.395 -23.569  1.00  0.00     0.074 A 
HETATM   16 BR2  UNL     1      15.670   3.888 -22.021  1.00  0.00    -0.046 Br
BRANCH  14  17
HETATM   17  O2  UNL     1      15.668   6.604 -23.436  1.00  0.00    -0.260 OA
BRANCH  17  18
HETATM   18  C3  UNL     1      16.124   7.841 -23.002  1.00  0.00     0.367 C 
HETATM   19  N1  UNL     1      16.316   8.160 -21.638  1.00  0.00    -0.336 N 
HETATM   20  C1  UNL     1      16.055   7.226 -20.561  1.00  0.00     0.154 C 
HETATM   21  C2  UNL     1      16.796   9.478 -21.287  1.00  0.00     0.154 C 
HETATM   22  O1  UNL     1      16.371   8.701 -23.878  1.00  0.00    -0.238 OA
ENDBRANCH  17  18
ENDBRANCH  14  17
ENDBRANCH   6   9
ENDBRANCH   1   5
BRANCH   4  23
HETATM   23  O3  UNL     1      18.169   0.252 -20.049  1.00  0.00    -0.344 OA
ATOM     24  H3  UNL     1      17.407  -0.067 -19.581  1.00  0.00     0.219 HD
ENDBRANCH   4  23
BRANCH   3  25
HETATM   25  C10 UNL     1      19.205  -2.693 -20.942  1.00  0.00     0.141 C 
BRANCH  25  26
HETATM   26  C11 UNL     1      20.503  -3.376 -21.269  1.00  0.00     0.041 C 
BRANCH  26  27
HETATM   27  C12 UNL     1      20.406  -4.800 -20.727  1.00  0.00     0.139 C 
BRANCH  27  28
HETATM   28  N5  UNL     1      19.027  -5.129 -20.513  1.00  0.00    -0.226 N 
ATOM     29  H5  UNL     1      18.320  -4.449 -20.795  1.00  0.00     0.177 HD
BRANCH  28  30
HETATM   30  C13 UNL     1      18.631  -6.235 -19.984  1.00  0.00     0.679 A 
HETATM   31  N6  UNL     1      17.981  -7.244 -20.585  1.00  0.00    -0.190 N 
HETATM   32  C14 UNL     1      17.759  -8.207 -19.672  1.00  0.00     0.076 A 
ATOM     33  H6  UNL     1      17.704  -7.276 -21.567  1.00  0.00     0.184 HD
HETATM   34  C15 UNL     1      17.138  -9.440 -19.758  1.00  0.00     0.032 A 
HETATM   35  C19 UNL     1      18.278  -7.807 -18.460  1.00  0.00     0.076 A 
HETATM   36  C16 UNL     1      17.041 -10.249 -18.657  1.00  0.00     0.002 A 
HETATM   37  C17 UNL     1      17.563  -9.842 -17.447  1.00  0.00     0.002 A 
HETATM   38  C18 UNL     1      18.180  -8.619 -17.354  1.00  0.00     0.032 A 
HETATM   39  N7  UNL     1      18.807  -6.584 -18.699  1.00  0.00    -0.190 N 
ATOM     40  H7  UNL     1      19.274  -6.007 -18.000  1.00  0.00     0.184 HD
ENDBRANCH  28  30
ENDBRANCH  27  28
ENDBRANCH  26  27
ENDBRANCH  25  26
ENDBRANCH   3  25
TORSDOF 10
ENDMDL
MODEL 2
REMARK VINA RESULT: -9.559026013      1.731      2.776
REMARK  10 active torsions:
REMARK  status: ('A' for Active; 'I' for Inactive)
REMARK       I    between atoms: N1_2  and  C3_4 
REMARK    1  A    between atoms: C3_4  and  O2_6 
REMARK    2  A    between atoms: O2_6  and  C4_7 
REMARK    3  A    between atoms: C8_12  and  N2_13 
REMARK    4  A    between atoms: N3_15  and  C9_17 
REMARK    5  A    between atoms: N4_19  and  C10_20 
REMARK    6  A    between atoms: C10_20  and  C11_21 
REMARK    7  A    between atoms: C11_21  and  C12_22 
REMARK    8  A    between atoms: C12_22  and  N5_23 
REMARK    9  A    between atoms: N5_23  and  C13_25 
REMARK   10  A    between atoms: C20_36  and  O3_37 
ROOT
HETATM    1  C9  UNL     1      18.921   0.142 -23.052  1.00  0.00     0.157 A 
HETATM    2  S1  UNL     1      19.796  -0.883 -24.069  1.00  0.00     0.014 SA
HETATM    3  N4  UNL     1      20.043  -1.589 -22.575  1.00  0.00    -0.294 N 
HETATM    4  C20 UNL     1      19.298  -0.650 -21.990  1.00  0.00     0.186 A 
ENDROOT
BRANCH   1   5
HETATM    5  N3  UNL     1      18.165   1.297 -23.325  1.00  0.00    -0.289 N 
HETATM    6  N2  UNL     1      18.561   2.475 -23.066  1.00  0.00    -0.297 N 
ATOM      7  H2  UNL     1      19.477   2.603 -22.635  1.00  0.00     0.187 HD
ATOM      8  H3  UNL     1      17.247   1.181 -23.756  1.00  0.00     0.188 HD
BRANCH   6   9
HETATM    9  C8  UNL     1      17.773   3.622 -23.355  1.00  0.00     0.085 A 
HETATM   10  C7  UNL     1      16.877   4.016 -22.372  1.00  0.00     0.040 A 
HETATM   11  C6  UNL     1      16.100   5.125 -22.630  1.00  0.00     0.024 A 
HETATM   12 BR1  UNL     1      16.707   3.074 -20.716  1.00  0.00    -0.049 Br
HETATM   13  C5  UNL     1      16.210   5.815 -23.821  1.00  0.00     0.040 A 
HETATM   14  C4  UNL     1      17.099   5.430 -24.803  1.00  0.00     0.100 A 
HETATM   15  C21 UNL     1      17.876   4.321 -24.545  1.00  0.00     0.074 A 
HETATM   16 BR2  UNL     1      19.119   3.751 -25.873  1.00  0.00    -0.046 Br
BRANCH  14  17
HETATM   17  O2  UNL     1      17.201   6.137 -26.003  1.00  0.00    -0.260 OA
BRANCH  17  18
HETATM   18  C3  UNL     1      17.668   7.443 -26.050  1.00  0.00     0.367 C 
HETATM   19  N1  UNL     1      18.853   7.819 -26.723  1.00  0.00    -0.336 N 
HETATM   20  C1  UNL     1      19.697   6.875 -27.430  1.00  0.00     0.154 C 
HETATM   21  C2  UNL     1      19.255   9.208 -26.714  1.00  0.00     0.154 C 
HETATM   22  O1  UNL     1      16.989   8.315 -25.460  1.00  0.00    -0.238 OA
ENDBRANCH  17  18
ENDBRANCH  14  17
ENDBRANCH   6   9
ENDBRANCH   1   5
BRANCH   4  23
HETATM   23  O3  UNL     1      18.953  -0.470 -20.626  1.00  0.00    -0.344 OA
ATOM     24  H3  UNL     1      18.963  -1.130 -19.943  1.00  0.00     0.219 HD
ENDBRANCH   4  23
BRANCH   3  25
HETATM   25  C10 UNL     1      20.765  -2.748 -22.067  1.00  0.00     0.141 C 
BRANCH  25  26
HETATM   26  C11 UNL     1      19.922  -3.989 -22.158  1.00  0.00     0.041 C 
BRANCH  26  27
HETATM   27  C12 UNL     1      19.904  -4.619 -20.768  1.00  0.00     0.139 C 
BRANCH  27  28
HETATM   28  N5  UNL     1      18.574  -5.065 -20.471  1.00  0.00    -0.226 N 
ATOM     29  H5  UNL     1      17.798  -4.438 -20.683  1.00  0.00     0.177 HD
BRANCH  28  30
HETATM   30  C13 UNL     1      18.307  -6.213 -19.951  1.00  0.00     0.679 A 
HETATM   31  N6  UNL     1      17.712  -7.262 -20.543  1.00  0.00    -0.190 N 
HETATM   32  C14 UNL     1      17.627  -8.261 -19.646  1.00  0.00     0.076 A 
ATOM     33  H6  UNL     1      17.383  -7.296 -21.508  1.00  0.00     0.184 HD
HETATM   34  C15 UNL     1      17.110  -9.541 -19.731  1.00  0.00     0.032 A 
HETATM   35  C19 UNL     1      18.178  -7.844 -18.453  1.00  0.00     0.076 A 
HETATM   36  C16 UNL     1      17.147 -10.380 -18.648  1.00  0.00     0.002 A 
HETATM   37  C17 UNL     1      17.700  -9.955 -17.459  1.00  0.00     0.002 A 
HETATM   38  C18 UNL     1      18.214  -8.686 -17.366  1.00  0.00     0.032 A 
HETATM   39  N7  UNL     1      18.585  -6.575 -18.688  1.00  0.00    -0.190 N 
ATOM     40  H7  UNL     1      19.040  -5.975 -18.000  1.00  0.00     0.184 HD
ENDBRANCH  28  30
ENDBRANCH  27  28
ENDBRANCH  26  27
ENDBRANCH  25  26
ENDBRANCH   3  25
TORSDOF 10
ENDMDL
MODEL 3
REMARK VINA RESULT: -9.494659769      2.393      3.340
REMARK  10 active torsions:
REMARK  status: ('A' for Active; 'I' for Inactive)
REMARK       I    between atoms: N1_2  and  C3_4 
REMARK    1  A    between atoms: C3_4  and  O2_6 
REMARK    2  A    between atoms: O2_6  and  C4_7 
REMARK    3  A    between atoms: C8_12  and  N2_13 
REMARK    4  A    between atoms: N3_15  and  C9_17 
REMARK    5  A    between atoms: N4_19  and  C10_20 
REMARK    6  A    between atoms: C10_20  and  C11_21 
REMARK    7  A    between atoms: C11_21  and  C12_22 
REMARK    8  A    between atoms: C12_22  and  N5_23 
REMARK    9  A    between atoms: N5_23  and  C13_25 
REMARK   10  A    between atoms: C20_36  and  O3_37 
ROOT
HETATM    1  C9  UNL     1      20.480  -1.293 -22.352  1.00  0.00     0.157 A 
HETATM    2  S1  UNL     1      21.978  -1.738 -21.713  1.00  0.00     0.014 SA
HETATM    3  N4  UNL     1      21.325  -3.220 -22.122  1.00  0.00    -0.294 N 
HETATM    4  C20 UNL     1      20.219  -2.627 -22.573  1.00  0.00     0.186 A 
ENDROOT
BRANCH   1   5
HETATM    5  N3  UNL     1      19.882  -0.030 -22.522  1.00  0.00    -0.289 N 
HETATM    6  N2  UNL     1      18.626   0.152 -22.580  1.00  0.00    -0.297 N 
ATOM      7  H2  UNL     1      18.007  -0.656 -22.500  1.00  0.00     0.187 HD
ATOM      8  H3  UNL     1      20.491   0.784 -22.604  1.00  0.00     0.188 HD
BRANCH   6   9
HETATM    9  C8  UNL     1      18.053   1.441 -22.753  1.00  0.00     0.085 A 
HETATM   10  C7  UNL     1      17.650   2.093 -21.597  1.00  0.00     0.040 A 
HETATM   11  C6  UNL     1      17.089   3.345 -21.740  1.00  0.00     0.024 A 
HETATM   12 BR1  UNL     1      17.851   1.310 -19.864  1.00  0.00    -0.049 Br
HETATM   13  C5  UNL     1      16.937   3.925 -22.983  1.00  0.00     0.040 A 
HETATM   14  C4  UNL     1      17.336   3.282 -24.137  1.00  0.00     0.100 A 
HETATM   15  C21 UNL     1      17.896   2.030 -23.995  1.00  0.00     0.074 A 
HETATM   16 BR2  UNL     1      18.463   1.104 -25.561  1.00  0.00    -0.046 Br
BRANCH  14  17
HETATM   17  O2  UNL     1      17.176   3.878 -25.390  1.00  0.00    -0.260 OA
BRANCH  17  18
HETATM   18  C3  UNL     1      17.348   5.242 -25.582  1.00  0.00     0.367 C 
HETATM   19  N1  UNL     1      18.507   5.802 -26.166  1.00  0.00    -0.336 N 
HETATM   20  C1  UNL     1      19.629   5.007 -26.621  1.00  0.00     0.154 C 
HETATM   21  C2  UNL     1      18.590   7.238 -26.324  1.00  0.00     0.154 C 
HETATM   22  O1  UNL     1      16.417   5.994 -25.212  1.00  0.00    -0.238 OA
ENDBRANCH  17  18
ENDBRANCH  14  17
ENDBRANCH   6   9
ENDBRANCH   1   5
BRANCH   4  23
HETATM   23  O3  UNL     1      19.046  -3.184 -23.143  1.00  0.00    -0.344 OA
ATOM     24  H3  UNL     1      18.973  -3.632 -23.977  1.00  0.00     0.219 HD
ENDBRANCH   4  23
BRANCH   3  25
HETATM   25  C10 UNL     1      21.745  -4.613 -22.041  1.00  0.00     0.141 C 
BRANCH  25  26
HETATM   26  C11 UNL     1      21.412  -5.198 -20.698  1.00  0.00     0.041 C 
BRANCH  26  27
HETATM   27  C12 UNL     1      20.172  -4.468 -20.189  1.00  0.00     0.139 C 
BRANCH  27  28
HETATM   28  N5  UNL     1      19.001  -5.189 -20.596  1.00  0.00    -0.226 N 
ATOM     29  H5  UNL     1      18.449  -4.814 -21.367  1.00  0.00     0.177 HD
BRANCH  28  30
HETATM   30  C13 UNL     1      18.609  -6.284 -20.041  1.00  0.00     0.679 A 
HETATM   31  N6  UNL     1      17.955  -7.305 -20.616  1.00  0.00    -0.190 N 
HETATM   32  C14 UNL     1      17.739  -8.249 -19.681  1.00  0.00     0.076 A 
ATOM     33  H6  UNL     1      17.671  -7.358 -21.595  1.00  0.00     0.184 HD
HETATM   34  C15 UNL     1      17.118  -9.483 -19.738  1.00  0.00     0.032 A 
HETATM   35  C19 UNL     1      18.266  -7.824 -18.481  1.00  0.00     0.076 A 
HETATM   36  C16 UNL     1      17.028 -10.269 -18.619  1.00  0.00     0.002 A 
HETATM   37  C17 UNL     1      17.558  -9.836 -17.422  1.00  0.00     0.002 A 
HETATM   38  C18 UNL     1      18.176  -8.612 -17.358  1.00  0.00     0.032 A 
HETATM   39  N7  UNL     1      18.793  -6.606 -18.750  1.00  0.00    -0.190 N 
ATOM     40  H7  UNL     1      19.265  -6.014 -18.066  1.00  0.00     0.184 HD
ENDBRANCH  28  30
ENDBRANCH  27  28
ENDBRANCH  26  27
ENDBRANCH  25  26
ENDBRANCH   3  25
TORSDOF 10
ENDMDL
MODEL 4
REMARK VINA RESULT: -9.327613693      1.107      1.140
REMARK  10 active torsions:
REMARK  status: ('A' for Active; 'I' for Inactive)
REMARK       I    between atoms: N1_2  and  C3_4 
REMARK    1  A    between atoms: C3_4  and  O2_6 
REMARK    2  A    between atoms: O2_6  and  C4_7 
REMARK    3  A    between atoms: C8_12  and  N2_13 
REMARK    4  A    between atoms: N3_15  and  C9_17 
REMARK    5  A    between atoms: N4_19  and  C10_20 
REMARK    6  A    between atoms: C10_20  and  C11_21 
REMARK    7  A    between atoms: C11_21  and  C12_22 
REMARK    8  A    between atoms: C12_22  and  N5_23 
REMARK    9  A    between atoms: N5_23  and  C13_25 
REMARK   10  A    between atoms: C20_36  and  O3_37 
ROOT
HETATM    1  C9  UNL     1      19.037   0.125 -22.886  1.00  0.00     0.157 A 
HETATM    2  S1  UNL     1      19.048  -0.626 -21.375  1.00  0.00     0.014 SA
HETATM    3  N4  UNL     1      19.357  -1.910 -22.398  1.00  0.00    -0.294 N 
HETATM    4  C20 UNL     1      19.299  -1.101 -23.456  1.00  0.00     0.186 A 
ENDROOT
BRANCH   1   5
HETATM    5  N3  UNL     1      18.830   1.468 -23.254  1.00  0.00    -0.289 N 
HETATM    6  N2  UNL     1      17.843   1.862 -23.949  1.00  0.00    -0.297 N 
ATOM      7  H2  UNL     1      17.157   1.176 -24.265  1.00  0.00     0.187 HD
ATOM      8  H3  UNL     1      19.510   2.162 -22.945  1.00  0.00     0.188 HD
BRANCH   6   9
HETATM    9  C8  UNL     1      17.662   3.227 -24.304  1.00  0.00     0.085 A 
HETATM   10  C7  UNL     1      18.458   3.704 -25.335  1.00  0.00     0.040 A 
HETATM   11  C6  UNL     1      18.301   5.026 -25.696  1.00  0.00     0.024 A 
HETATM   12 BR1  UNL     1      19.729   2.595 -26.236  1.00  0.00    -0.049 Br
HETATM   13  C5  UNL     1      17.388   5.840 -25.056  1.00  0.00     0.040 A 
HETATM   14  C4  UNL     1      16.593   5.372 -24.030  1.00  0.00     0.100 A 
HETATM   15  C21 UNL     1      16.750   4.051 -23.669  1.00  0.00     0.074 A 
HETATM   16 BR2  UNL     1      15.673   3.359 -22.257  1.00  0.00    -0.046 Br
BRANCH  14  17
HETATM   17  O2  UNL     1      15.673   6.205 -23.390  1.00  0.00    -0.260 OA
BRANCH  17  18
HETATM   18  C3  UNL     1      16.039   7.434 -22.858  1.00  0.00     0.367 C 
HETATM   19  N1  UNL     1      16.224   7.655 -21.474  1.00  0.00    -0.336 N 
HETATM   20  C1  UNL     1      16.048   6.620 -20.475  1.00  0.00     0.154 C 
HETATM   21  C2  UNL     1      16.606   8.974 -21.020  1.00  0.00     0.154 C 
HETATM   22  O1  UNL     1      16.209   8.379 -23.663  1.00  0.00    -0.238 OA
ENDBRANCH  17  18
ENDBRANCH  14  17
ENDBRANCH   6   9
ENDBRANCH   1   5
BRANCH   4  23
HETATM   23  O3  UNL     1      19.460  -1.383 -24.837  1.00  0.00    -0.344 OA
ATOM     24  H3  UNL     1      19.989  -2.071 -25.222  1.00  0.00     0.219 HD
ENDBRANCH   4  23
BRANCH   3  25
HETATM   25  C10 UNL     1      19.598  -3.339 -22.249  1.00  0.00     0.141 C 
BRANCH  25  26
HETATM   26  C11 UNL     1      20.895  -3.595 -21.534  1.00  0.00     0.041 C 
BRANCH  26  27
HETATM   27  C12 UNL     1      20.666  -4.788 -20.609  1.00  0.00     0.139 C 
BRANCH  27  28
HETATM   28  N5  UNL     1      19.264  -5.082 -20.559  1.00  0.00    -0.226 N 
ATOM     29  H5  UNL     1      18.614  -4.401 -20.954  1.00  0.00     0.177 HD
BRANCH  28  30
HETATM   30  C13 UNL     1      18.778  -6.158 -20.042  1.00  0.00     0.679 A 
HETATM   31  N6  UNL     1      17.928  -7.028 -20.609  1.00  0.00    -0.190 N 
HETATM   32  C14 UNL     1      17.677  -8.011 -19.725  1.00  0.00     0.076 A 
ATOM     33  H6  UNL     1      17.538  -6.956 -21.550  1.00  0.00     0.184 HD
HETATM   34  C15 UNL     1      16.882  -9.140 -19.797  1.00  0.00     0.032 A 
HETATM   35  C19 UNL     1      18.383  -7.767 -18.567  1.00  0.00     0.076 A 
HETATM   36  C16 UNL     1      16.798 -10.001 -18.735  1.00  0.00     0.002 A 
HETATM   37  C17 UNL     1      17.507  -9.749 -17.579  1.00  0.00     0.002 A 
HETATM   38  C18 UNL     1      18.298  -8.630 -17.500  1.00  0.00     0.032 A 
HETATM   39  N7  UNL     1      19.048  -6.613 -18.807  1.00  0.00    -0.190 N 
ATOM     40  H7  UNL     1      19.669  -6.152 -18.142  1.00  0.00     0.184 HD
ENDBRANCH  28  30
ENDBRANCH  27  28
ENDBRANCH  26  27
ENDBRANCH  25  26
ENDBRANCH   3  25
TORSDOF 10
ENDMDL
MODEL 5
REMARK VINA RESULT: -9.246348357      1.909      2.698
REMARK  10 active torsions:
REMARK  status: ('A' for Active; 'I' for Inactive)
REMARK       I    between atoms: N1_2  and  C3_4 
REMARK    1  A    between atoms: C3_4  and  O2_6 
REMARK    2  A    between atoms: O2_6  and  C4_7 
REMARK    3  A    between atoms: C8_12  and  N2_13 
REMARK    4  A    between atoms: N3_15  and  C9_17 
REMARK    5  A    between atoms: N4_19  and  C10_20 
REMARK    6  A    between atoms: C10_20  and  C11_21 
REMARK    7  A    between atoms: C11_21  and  C12_22 
REMARK    8  A    between atoms: C12_22  and  N5_23 
REMARK    9  A    between atoms: N5_23  and  C13_25 
REMARK   10  A    between atoms: C20_36  and  O3_37 
ROOT
HETATM    1  C9  UNL     1      18.885   0.711 -22.739  1.00  0.00     0.157 A 
HETATM    2  S1  UNL     1      18.963  -0.253 -21.355  1.00  0.00     0.014 SA
HETATM    3  N4  UNL     1      19.384  -1.339 -22.553  1.00  0.00    -0.294 N 
HETATM    4  C20 UNL     1      19.254  -0.389 -23.481  1.00  0.00     0.186 A 
ENDROOT
BRANCH   1   5
HETATM    5  N3  UNL     1      18.560   2.069 -22.906  1.00  0.00    -0.289 N 
HETATM    6  N2  UNL     1      17.603   2.480 -23.634  1.00  0.00    -0.297 N 
ATOM      7  H2  UNL     1      17.032   1.795 -24.130  1.00  0.00     0.187 HD
ATOM      8  H3  UNL     1      19.124   2.764 -22.415  1.00  0.00     0.188 HD
BRANCH   6   9
HETATM    9  C8  UNL     1      17.300   3.860 -23.782  1.00  0.00     0.085 A 
HETATM   10  C7  UNL     1      16.426   4.401 -22.850  1.00  0.00     0.040 A 
HETATM   11  C6  UNL     1      16.115   5.739 -22.974  1.00  0.00     0.024 A 
HETATM   12 BR1  UNL     1      15.668   3.353 -21.441  1.00  0.00    -0.049 Br
HETATM   13  C5  UNL     1      16.654   6.508 -23.985  1.00  0.00     0.040 A 
HETATM   14  C4  UNL     1      17.524   5.978 -24.916  1.00  0.00     0.100 A 
HETATM   15  C21 UNL     1      17.834   4.640 -24.792  1.00  0.00     0.074 A 
HETATM   16 BR2  UNL     1      19.033   3.864 -26.054  1.00  0.00    -0.046 Br
BRANCH  14  17
HETATM   17  O2  UNL     1      18.062   6.767 -25.935  1.00  0.00    -0.260 OA
BRANCH  17  18
HETATM   18  C3  UNL     1      17.510   7.991 -26.286  1.00  0.00     0.367 C 
HETATM   19  N1  UNL     1      17.981   9.226 -25.785  1.00  0.00    -0.336 N 
HETATM   20  C1  UNL     1      19.087   9.334 -24.854  1.00  0.00     0.154 C 
HETATM   21  C2  UNL     1      17.338  10.449 -26.214  1.00  0.00     0.154 C 
HETATM   22  O1  UNL     1      16.549   7.976 -27.089  1.00  0.00    -0.238 OA
ENDBRANCH  17  18
ENDBRANCH  14  17
ENDBRANCH   6   9
ENDBRANCH   1   5
BRANCH   4  23
HETATM   23  O3  UNL     1      19.437  -0.448 -24.886  1.00  0.00    -0.344 OA
ATOM     24  H3  UNL     1      18.946  -0.975 -25.505  1.00  0.00     0.219 HD
ENDBRANCH   4  23
BRANCH   3  25
HETATM   25  C10 UNL     1      19.749  -2.747 -22.615  1.00  0.00     0.141 C 
BRANCH  25  26
HETATM   26  C11 UNL     1      20.350  -3.205 -21.315  1.00  0.00     0.041 C 
BRANCH  26  27
HETATM   27  C12 UNL     1      20.095  -4.706 -21.210  1.00  0.00     0.139 C 
BRANCH  27  28
HETATM   28  N5  UNL     1      18.854  -4.926 -20.526  1.00  0.00    -0.226 N 
ATOM     29  H5  UNL     1      18.206  -4.143 -20.441  1.00  0.00     0.177 HD
BRANCH  28  30
HETATM   30  C13 UNL     1      18.514  -6.058 -20.013  1.00  0.00     0.679 A 
HETATM   31  N6  UNL     1      17.842  -7.057 -20.606  1.00  0.00    -0.190 N 
HETATM   32  C14 UNL     1      17.698  -8.056 -19.715  1.00  0.00     0.076 A 
ATOM     33  H6  UNL     1      17.499  -7.059 -21.567  1.00  0.00     0.184 HD
HETATM   34  C15 UNL     1      17.093  -9.296 -19.805  1.00  0.00     0.032 A 
HETATM   35  C19 UNL     1      18.291  -7.690 -18.527  1.00  0.00     0.076 A 
HETATM   36  C16 UNL     1      17.084 -10.146 -18.730  1.00  0.00     0.002 A 
HETATM   37  C17 UNL     1      17.680  -9.772 -17.544  1.00  0.00     0.002 A 
HETATM   38  C18 UNL     1      18.282  -8.541 -17.447  1.00  0.00     0.032 A 
HETATM   39  N7  UNL     1      18.782  -6.449 -18.756  1.00  0.00    -0.190 N 
ATOM     40  H7  UNL     1      19.285  -5.888 -18.069  1.00  0.00     0.184 HD
ENDBRANCH  28  30
ENDBRANCH  27  28
ENDBRANCH  26  27
ENDBRANCH  25  26
ENDBRANCH   3  25
TORSDOF 10
ENDMDL
