MODEL 1
REMARK VINA RESULT: -8.332625447      0.000      0.000
REMARK  7 active torsions:
REMARK  status: ('A' for Active; 'I' for Inactive)
REMARK    1  A    between atoms: O1_2  and  C2_3 
REMARK    2  A    between atoms: C4_5  and  C5_6 
REMARK    3  A    between atoms: C17_23  and  O4_24 
REMARK    4  A    between atoms: C18_26  and  C19_27 
REMARK    5  A    between atoms: C19_27  and  C21_29 
REMARK    6  A    between atoms: C21_29  and  C22_30 
REMARK    7  A    between atoms: C22_30  and  C23_31 
ROOT
HETATM    1  C5  UNL     1      16.093   3.004 -17.472  1.00  0.00     0.213 C 
HETATM    2  O2  UNL     1      14.993   3.019 -18.308  1.00  0.00    -0.369 OA
HETATM    3  C6  UNL     1      15.313   2.246 -19.468  1.00  0.00     0.156 C 
HETATM    4  C7  UNL     1      15.259   0.818 -19.008  1.00  0.00     0.267 C 
HETATM    5  N1  UNL     1      15.508   0.736 -17.580  1.00  0.00    -0.043 N 
ATOM      6  H11 UNL     1      15.659  -0.205 -17.219  1.00  0.00     0.280 HD
ATOM      7  H12 UNL     1      14.703   0.936 -16.988  1.00  0.00     0.280 HD
HETATM    8  C8  UNL     1      16.667   1.674 -17.420  1.00  0.00     0.355 C 
HETATM    9  O3  UNL     1      17.520   1.254 -18.362  1.00  0.00    -0.345 OA
HETATM   10  C9  UNL     1      17.777   1.929 -19.511  1.00  0.00     0.067 C 
HETATM   11  C10 UNL     1      18.925   2.890 -19.143  1.00  0.00     0.046 C 
HETATM   12  C11 UNL     1      18.387   0.869 -20.401  1.00  0.00     0.038 C 
HETATM   13  C12 UNL     1      17.843   0.853 -21.797  1.00  0.00     0.009 C 
HETATM   14  C13 UNL     1      17.759   2.270 -22.201  1.00  0.00     0.004 C 
HETATM   15  C14 UNL     1      17.965   2.389 -23.664  1.00  0.00    -0.026 C 
HETATM   16  C15 UNL     1      17.196   1.490 -24.526  1.00  0.00     0.016 C 
HETATM   17  C16 UNL     1      19.437   2.200 -24.056  1.00  0.00     0.042 C 
HETATM   18  C17 UNL     1      19.431   2.909 -25.430  1.00  0.00     0.128 C 
HETATM   19  C18 UNL     1      18.297   3.910 -25.394  1.00  0.00     0.054 C 
HETATM   20  C24 UNL     1      17.940   3.872 -23.967  1.00  0.00     0.074 C 
HETATM   21  C25 UNL     1      16.750   4.482 -23.437  1.00  0.00     0.133 C 
HETATM   22  O7  UNL     1      15.845   5.011 -24.086  1.00  0.00    -0.297 OA
HETATM   23  C26 UNL     1      16.674   4.428 -21.929  1.00  0.00     0.088 C 
HETATM   24  C27 UNL     1      16.598   2.910 -21.574  1.00  0.00    -0.024 C 
HETATM   25  C28 UNL     1      15.237   2.569 -22.144  1.00  0.00     0.016 C 
HETATM   26  C29 UNL     1      16.610   2.682 -20.090  1.00  0.00     0.059 C 
ENDROOT
BRANCH   1  27
HETATM   27  C4  UNL     1      15.670   3.523 -16.138  1.00  0.00    -0.001 A 
HETATM   28  C3  UNL     1      14.392   3.403 -15.666  1.00  0.00     0.050 A 
HETATM   29  C2  UNL     1      14.083   3.829 -14.366  1.00  0.00     0.090 A 
HETATM   30  C32 UNL     1      15.038   4.373 -13.540  1.00  0.00     0.069 A 
HETATM   31  C31 UNL     1      16.333   4.489 -14.035  1.00  0.00     0.051 A 
HETATM   32 CL2  UNL     1      14.669   4.910 -11.917  1.00  0.00    -0.081 Cl
HETATM   33  C30 UNL     1      16.640   4.075 -15.296  1.00  0.00     0.044 A 
HETATM   34 CL1  UNL     1      18.274   4.209 -15.963  1.00  0.00    -0.084 Cl
BRANCH  29  35
HETATM   35  O1  UNL     1      12.793   3.706 -13.887  1.00  0.00    -0.354 OA
HETATM   36  C1  UNL     1      11.819   4.722 -14.026  1.00  0.00     0.210 C 
ENDBRANCH  29  35
ENDBRANCH   1  27
BRANCH  18  37
HETATM   37  O4  UNL     1      19.360   1.990 -26.442  1.00  0.00    -0.395 OA
ATOM     38  H4  UNL     1      19.902   2.259 -27.174  1.00  0.00     0.210 HD
ENDBRANCH  18  37
BRANCH  19  39
HETATM   39  C19 UNL     1      18.656   5.294 -25.832  1.00  0.00    -0.080 C 
HETATM   40  C20 UNL     1      19.729   5.354 -26.901  1.00  0.00     0.043 C 
BRANCH  39  41
HETATM   41  C21 UNL     1      17.606   6.306 -25.969  1.00  0.00    -0.013 C 
BRANCH  41  42
HETATM   42  C22 UNL     1      17.852   7.743 -25.825  1.00  0.00     0.140 C 
BRANCH  42  43
HETATM   43  C23 UNL     1      17.523   8.380 -24.549  1.00  0.00     0.176 C 
HETATM   44  O5  UNL     1      18.385   9.070 -23.949  1.00  0.00    -0.648 OA
HETATM   45  O6  UNL     1      16.280   8.268 -23.935  1.00  0.00    -0.648 OA
ENDBRANCH  42  43
ENDBRANCH  41  42
ENDBRANCH  39  41
ENDBRANCH  19  39
TORSDOF 7
ENDMDL
MODEL 2
REMARK VINA RESULT: -7.610104494      1.451      1.873
REMARK  7 active torsions:
REMARK  status: ('A' for Active; 'I' for Inactive)
REMARK    1  A    between atoms: O1_2  and  C2_3 
REMARK    2  A    between atoms: C4_5  and  C5_6 
REMARK    3  A    between atoms: C17_23  and  O4_24 
REMARK    4  A    between atoms: C18_26  and  C19_27 
REMARK    5  A    between atoms: C19_27  and  C21_29 
REMARK    6  A    between atoms: C21_29  and  C22_30 
REMARK    7  A    between atoms: C22_30  and  C23_31 
ROOT
HETATM    1  C5  UNL     1      16.062   3.091 -17.648  1.00  0.00     0.213 C 
HETATM    2  O2  UNL     1      14.963   3.031 -18.482  1.00  0.00    -0.369 OA
HETATM    3  C6  UNL     1      15.323   2.256 -19.628  1.00  0.00     0.156 C 
HETATM    4  C7  UNL     1      15.347   0.835 -19.141  1.00  0.00     0.267 C 
HETATM    5  N1  UNL     1      15.601   0.794 -17.713  1.00  0.00    -0.043 N 
ATOM      6  H11 UNL     1      15.802  -0.131 -17.335  1.00  0.00     0.280 HD
ATOM      7  H12 UNL     1      14.786   0.961 -17.123  1.00  0.00     0.280 HD
HETATM    8  C8  UNL     1      16.707   1.796 -17.572  1.00  0.00     0.355 C 
HETATM    9  O3  UNL     1      17.581   1.404 -18.507  1.00  0.00    -0.345 OA
HETATM   10  C9  UNL     1      17.801   2.071 -19.669  1.00  0.00     0.067 C 
HETATM   11  C10 UNL     1      18.896   3.099 -19.320  1.00  0.00     0.046 C 
HETATM   12  C11 UNL     1      18.466   1.029 -20.540  1.00  0.00     0.038 C 
HETATM   13  C12 UNL     1      17.923   0.959 -21.935  1.00  0.00     0.009 C 
HETATM   14  C13 UNL     1      17.763   2.361 -22.364  1.00  0.00     0.004 C 
HETATM   15  C14 UNL     1      17.962   2.464 -23.830  1.00  0.00    -0.026 C 
HETATM   16  C15 UNL     1      17.241   1.509 -24.674  1.00  0.00     0.016 C 
HETATM   17  C16 UNL     1      19.442   2.347 -24.220  1.00  0.00     0.042 C 
HETATM   18  C17 UNL     1      19.397   3.029 -25.607  1.00  0.00     0.128 C 
HETATM   19  C18 UNL     1      18.211   3.968 -25.588  1.00  0.00     0.054 C 
HETATM   20  C24 UNL     1      17.857   3.937 -24.160  1.00  0.00     0.074 C 
HETATM   21  C25 UNL     1      16.636   4.492 -23.639  1.00  0.00     0.133 C 
HETATM   22  O7  UNL     1      15.703   4.959 -24.297  1.00  0.00    -0.297 OA
HETATM   23  C26 UNL     1      16.563   4.462 -22.130  1.00  0.00     0.088 C 
HETATM   24  C27 UNL     1      16.569   2.949 -21.748  1.00  0.00    -0.024 C 
HETATM   25  C28 UNL     1      15.228   2.525 -22.309  1.00  0.00     0.016 C 
HETATM   26  C29 UNL     1      16.594   2.750 -20.259  1.00  0.00     0.059 C 
ENDROOT
BRANCH   1  27
HETATM   27  C4  UNL     1      15.613   3.611 -16.322  1.00  0.00    -0.001 A 
HETATM   28  C3  UNL     1      14.314   3.541 -15.900  1.00  0.00     0.050 A 
HETATM   29  C2  UNL     1      13.975   3.964 -14.606  1.00  0.00     0.090 A 
HETATM   30  C32 UNL     1      14.921   4.456 -13.738  1.00  0.00     0.069 A 
HETATM   31  C31 UNL     1      16.237   4.520 -14.183  1.00  0.00     0.051 A 
HETATM   32 CL2  UNL     1      14.516   4.987 -12.122  1.00  0.00    -0.081 Cl
HETATM   33  C30 UNL     1      16.574   4.109 -15.437  1.00  0.00     0.044 A 
HETATM   34 CL1  UNL     1      18.236   4.180 -16.042  1.00  0.00    -0.084 Cl
BRANCH  29  35
HETATM   35  O1  UNL     1      12.664   3.892 -14.176  1.00  0.00    -0.354 OA
HETATM   36  C1  UNL     1      11.713   4.908 -14.430  1.00  0.00     0.210 C 
ENDBRANCH  29  35
ENDBRANCH   1  27
BRANCH  18  37
HETATM   37  O4  UNL     1      19.375   2.089 -26.602  1.00  0.00    -0.395 OA
ATOM     38  H4  UNL     1      19.552   2.492 -27.444  1.00  0.00     0.210 HD
ENDBRANCH  18  37
BRANCH  19  39
HETATM   39  C19 UNL     1      18.495   5.361 -26.052  1.00  0.00    -0.080 C 
HETATM   40  C20 UNL     1      18.298   6.427 -24.992  1.00  0.00     0.043 C 
BRANCH  39  41
HETATM   41  C21 UNL     1      19.619   5.608 -26.958  1.00  0.00    -0.013 C 
BRANCH  41  42
HETATM   42  C22 UNL     1      19.853   6.897 -27.615  1.00  0.00     0.140 C 
BRANCH  42  43
HETATM   43  C23 UNL     1      20.770   6.939 -28.754  1.00  0.00     0.176 C 
HETATM   44  O5  UNL     1      22.010   6.997 -28.563  1.00  0.00    -0.648 OA
HETATM   45  O6  UNL     1      20.346   6.920 -30.079  1.00  0.00    -0.648 OA
ENDBRANCH  42  43
ENDBRANCH  41  42
ENDBRANCH  39  41
ENDBRANCH  19  39
TORSDOF 7
ENDMDL
MODEL 3
REMARK VINA RESULT: -7.510517525      4.068      7.652
REMARK  7 active torsions:
REMARK  status: ('A' for Active; 'I' for Inactive)
REMARK    1  A    between atoms: O1_2  and  C2_3 
REMARK    2  A    between atoms: C4_5  and  C5_6 
REMARK    3  A    between atoms: C17_23  and  O4_24 
REMARK    4  A    between atoms: C18_26  and  C19_27 
REMARK    5  A    between atoms: C19_27  and  C21_29 
REMARK    6  A    between atoms: C21_29  and  C22_30 
REMARK    7  A    between atoms: C22_30  and  C23_31 
ROOT
HETATM    1  C5  UNL     1      16.464   4.735 -22.240  1.00  0.00     0.213 C 
HETATM    2  O2  UNL     1      17.845   4.758 -22.228  1.00  0.00    -0.369 OA
HETATM    3  C6  UNL     1      18.306   3.993 -23.344  1.00  0.00     0.156 C 
HETATM    4  C7  UNL     1      18.051   4.863 -24.541  1.00  0.00     0.267 C 
HETATM    5  N1  UNL     1      16.970   5.793 -24.270  1.00  0.00    -0.043 N 
ATOM      6  H11 UNL     1      16.620   6.300 -25.082  1.00  0.00     0.280 HD
ATOM      7  H12 UNL     1      17.236   6.626 -23.746  1.00  0.00     0.280 HD
HETATM    8  C8  UNL     1      15.970   4.906 -23.592  1.00  0.00     0.355 C 
HETATM    9  O3  UNL     1      15.880   3.866 -24.430  1.00  0.00    -0.345 OA
HETATM   10  C9  UNL     1      16.397   2.637 -24.175  1.00  0.00     0.067 C 
HETATM   11  C10 UNL     1      15.276   1.900 -23.415  1.00  0.00     0.046 C 
HETATM   12  C11 UNL     1      16.461   2.002 -25.546  1.00  0.00     0.038 C 
HETATM   13  C12 UNL     1      17.753   1.301 -25.837  1.00  0.00     0.009 C 
HETATM   14  C13 UNL     1      18.080   0.557 -24.606  1.00  0.00     0.004 C 
HETATM   15  C14 UNL     1      18.827  -0.678 -24.948  1.00  0.00    -0.026 C 
HETATM   16  C15 UNL     1      19.957  -0.546 -25.869  1.00  0.00     0.016 C 
HETATM   17  C16 UNL     1      17.913  -1.756 -25.547  1.00  0.00     0.042 C 
HETATM   18  C17 UNL     1      18.775  -3.009 -25.267  1.00  0.00     0.128 C 
HETATM   19  C18 UNL     1      19.651  -2.673 -24.080  1.00  0.00     0.054 C 
HETATM   20  C24 UNL     1      19.047  -1.406 -23.640  1.00  0.00     0.074 C 
HETATM   21  C25 UNL     1      19.657  -0.538 -22.668  1.00  0.00     0.133 C 
HETATM   22  O7  UNL     1      20.774  -0.672 -22.164  1.00  0.00    -0.297 OA
HETATM   23  C26 UNL     1      18.782   0.630 -22.279  1.00  0.00     0.088 C 
HETATM   24  C27 UNL     1      18.609   1.468 -23.585  1.00  0.00    -0.024 C 
HETATM   25  C28 UNL     1      20.027   1.963 -23.777  1.00  0.00     0.016 C 
HETATM   26  C29 UNL     1      17.677   2.629 -23.385  1.00  0.00     0.059 C 
ENDROOT
BRANCH   1  27
HETATM   27  C4  UNL     1      15.972   5.778 -21.291  1.00  0.00    -0.001 A 
HETATM   28  C3  UNL     1      15.849   7.095 -21.635  1.00  0.00     0.050 A 
HETATM   29  C2  UNL     1      15.294   8.007 -20.724  1.00  0.00     0.090 A 
HETATM   30  C32 UNL     1      14.866   7.612 -19.479  1.00  0.00     0.069 A 
HETATM   31  C31 UNL     1      14.998   6.268 -19.145  1.00  0.00     0.051 A 
HETATM   32 CL2  UNL     1      14.172   8.735 -18.333  1.00  0.00    -0.081 Cl
HETATM   33  C30 UNL     1      15.534   5.377 -20.025  1.00  0.00     0.044 A 
HETATM   34 CL1  UNL     1      15.724   3.661 -19.635  1.00  0.00    -0.084 Cl
BRANCH  29  35
HETATM   35  O1  UNL     1      15.167   9.339 -21.071  1.00  0.00    -0.354 OA
HETATM   36  C1  UNL     1      14.923   9.770 -22.396  1.00  0.00     0.210 C 
ENDBRANCH  29  35
ENDBRANCH   1  27
BRANCH  18  37
HETATM   37  O4  UNL     1      19.451  -3.387 -26.396  1.00  0.00    -0.395 OA
ATOM     38  H4  UNL     1      20.293  -2.952 -26.441  1.00  0.00     0.210 HD
ENDBRANCH  18  37
BRANCH  19  39
HETATM   39  C19 UNL     1      19.652  -3.689 -22.983  1.00  0.00    -0.080 C 
HETATM   40  C20 UNL     1      21.015  -3.954 -22.375  1.00  0.00     0.043 C 
BRANCH  39  41
HETATM   41  C21 UNL     1      18.545  -3.723 -22.024  1.00  0.00    -0.013 C 
BRANCH  41  42
HETATM   42  C22 UNL     1      18.688  -4.202 -20.647  1.00  0.00     0.140 C 
BRANCH  42  43
HETATM   43  C23 UNL     1      18.625  -5.643 -20.403  1.00  0.00     0.176 C 
HETATM   44  O5  UNL     1      19.678  -6.289 -20.176  1.00  0.00    -0.648 OA
HETATM   45  O6  UNL     1      17.439  -6.369 -20.406  1.00  0.00    -0.648 OA
ENDBRANCH  42  43
ENDBRANCH  41  42
ENDBRANCH  39  41
ENDBRANCH  19  39
TORSDOF 7
ENDMDL
MODEL 4
REMARK VINA RESULT: -7.467100674      3.452     10.230
REMARK  7 active torsions:
REMARK  status: ('A' for Active; 'I' for Inactive)
REMARK    1  A    between atoms: O1_2  and  C2_3 
REMARK    2  A    between atoms: C4_5  and  C5_6 
REMARK    3  A    between atoms: C17_23  and  O4_24 
REMARK    4  A    between atoms: C18_26  and  C19_27 
REMARK    5  A    between atoms: C19_27  and  C21_29 
REMARK    6  A    between atoms: C21_29  and  C22_30 
REMARK    7  A    between atoms: C22_30  and  C23_31 
ROOT
HETATM    1  C5  UNL     1      17.643   1.947 -20.587  1.00  0.00     0.213 C 
HETATM    2  O2  UNL     1      16.340   2.366 -20.776  1.00  0.00    -0.369 OA
HETATM    3  C6  UNL     1      16.063   3.386 -19.814  1.00  0.00     0.156 C 
HETATM    4  C7  UNL     1      16.791   4.599 -20.317  1.00  0.00     0.267 C 
HETATM    5  N1  UNL     1      17.913   4.207 -21.150  1.00  0.00    -0.043 N 
ATOM      6  H11 UNL     1      18.559   4.958 -21.390  1.00  0.00     0.280 HD
ATOM      7  H12 UNL     1      17.677   3.975 -22.114  1.00  0.00     0.280 HD
HETATM    8  C8  UNL     1      18.507   3.086 -20.351  1.00  0.00     0.355 C 
HETATM    9  O3  UNL     1      18.623   3.622 -19.130  1.00  0.00    -0.345 OA
HETATM   10  C9  UNL     1      17.835   3.290 -18.076  1.00  0.00     0.067 C 
HETATM   11  C10 UNL     1      18.549   2.087 -17.427  1.00  0.00     0.046 C 
HETATM   12  C11 UNL     1      18.026   4.452 -17.127  1.00  0.00     0.038 C 
HETATM   13  C12 UNL     1      16.753   4.975 -16.533  1.00  0.00     0.009 C 
HETATM   14  C13 UNL     1      15.971   3.778 -16.169  1.00  0.00     0.004 C 
HETATM   15  C14 UNL     1      15.127   4.071 -14.985  1.00  0.00    -0.026 C 
HETATM   16  C15 UNL     1      14.334   5.302 -15.014  1.00  0.00     0.016 C 
HETATM   17  C16 UNL     1      15.949   4.123 -13.690  1.00  0.00     0.042 C 
HETATM   18  C17 UNL     1      14.823   3.870 -12.661  1.00  0.00     0.128 C 
HETATM   19  C18 UNL     1      13.738   3.106 -13.387  1.00  0.00     0.054 C 
HETATM   20  C24 UNL     1      14.428   2.773 -14.643  1.00  0.00     0.074 C 
HETATM   21  C25 UNL     1      13.752   2.238 -15.795  1.00  0.00     0.133 C 
HETATM   22  O7  UNL     1      12.535   2.085 -15.926  1.00  0.00    -0.297 OA
HETATM   23  C26 UNL     1      14.692   1.849 -16.911  1.00  0.00     0.088 C 
HETATM   24  C27 UNL     1      15.367   3.182 -17.364  1.00  0.00    -0.024 C 
HETATM   25  C28 UNL     1      14.173   3.898 -17.960  1.00  0.00     0.016 C 
HETATM   26  C29 UNL     1      16.410   2.949 -18.419  1.00  0.00     0.059 C 
ENDROOT
BRANCH   1  27
HETATM   27  C4  UNL     1      18.045   1.129 -21.770  1.00  0.00    -0.001 A 
HETATM   28  C3  UNL     1      17.977   1.597 -23.053  1.00  0.00     0.050 A 
HETATM   29  C2  UNL     1      18.457   0.811 -24.111  1.00  0.00     0.090 A 
HETATM   30  C32 UNL     1      19.001  -0.433 -23.895  1.00  0.00     0.069 A 
HETATM   31  C31 UNL     1      19.063  -0.894 -22.584  1.00  0.00     0.051 A 
HETATM   32 CL2  UNL     1      19.604  -1.425 -25.202  1.00  0.00    -0.081 Cl
HETATM   33  C30 UNL     1      18.600  -0.135 -21.552  1.00  0.00     0.044 A 
HETATM   34 CL1  UNL     1      18.657  -0.689 -19.872  1.00  0.00    -0.084 Cl
BRANCH  29  35
HETATM   35  O1  UNL     1      18.392   1.284 -25.408  1.00  0.00    -0.354 OA
HETATM   36  C1  UNL     1      17.446   2.247 -25.830  1.00  0.00     0.210 C 
ENDBRANCH  29  35
ENDBRANCH   1  27
BRANCH  18  37
HETATM   37  O4  UNL     1      14.420   5.049 -12.092  1.00  0.00    -0.395 OA
ATOM     38  H4  UNL     1      13.543   4.964 -11.740  1.00  0.00     0.210 HD
ENDBRANCH  18  37
BRANCH  19  39
HETATM   39  C19 UNL     1      13.249   1.878 -12.689  1.00  0.00    -0.080 C 
HETATM   40  C20 UNL     1      11.950   2.064 -11.929  1.00  0.00     0.043 C 
BRANCH  39  41
HETATM   41  C21 UNL     1      13.390   0.571 -13.337  1.00  0.00    -0.013 C 
BRANCH  41  42
HETATM   42  C22 UNL     1      13.212  -0.700 -12.630  1.00  0.00     0.140 C 
BRANCH  42  43
HETATM   43  C23 UNL     1      12.545  -1.798 -13.331  1.00  0.00     0.176 C 
HETATM   44  O5  UNL     1      12.269  -1.689 -14.552  1.00  0.00    -0.648 OA
HETATM   45  O6  UNL     1      12.185  -2.992 -12.716  1.00  0.00    -0.648 OA
ENDBRANCH  42  43
ENDBRANCH  41  42
ENDBRANCH  39  41
ENDBRANCH  19  39
TORSDOF 7
ENDMDL
MODEL 5
REMARK VINA RESULT: -7.229200298      3.603      9.076
REMARK  7 active torsions:
REMARK  status: ('A' for Active; 'I' for Inactive)
REMARK    1  A    between atoms: O1_2  and  C2_3 
REMARK    2  A    between atoms: C4_5  and  C5_6 
REMARK    3  A    between atoms: C17_23  and  O4_24 
REMARK    4  A    between atoms: C18_26  and  C19_27 
REMARK    5  A    between atoms: C19_27  and  C21_29 
REMARK    6  A    between atoms: C21_29  and  C22_30 
REMARK    7  A    between atoms: C22_30  and  C23_31 
ROOT
HETATM    1  C5  UNL     1      16.966   2.536 -19.684  1.00  0.00     0.213 C 
HETATM    2  O2  UNL     1      18.065   2.551 -18.847  1.00  0.00    -0.369 OA
HETATM    3  C6  UNL     1      17.589   2.581 -17.499  1.00  0.00     0.156 C 
HETATM    4  C7  UNL     1      17.091   1.189 -17.234  1.00  0.00     0.267 C 
HETATM    5  N1  UNL     1      16.711   0.543 -18.477  1.00  0.00    -0.043 N 
ATOM      6  H11 UNL     1      16.204  -0.336 -18.372  1.00  0.00     0.280 HD
ATOM      7  H12 UNL     1      17.482   0.143 -19.012  1.00  0.00     0.280 HD
HETATM    8  C8  UNL     1      15.954   1.636 -19.169  1.00  0.00     0.355 C 
HETATM    9  O3  UNL     1      15.089   2.037 -18.229  1.00  0.00    -0.345 OA
HETATM   10  C9  UNL     1      15.187   3.213 -17.557  1.00  0.00     0.067 C 
HETATM   11  C10 UNL     1      14.430   4.224 -18.442  1.00  0.00     0.046 C 
HETATM   12  C11 UNL     1      14.316   2.985 -16.342  1.00  0.00     0.038 C 
HETATM   13  C12 UNL     1      14.934   3.434 -15.052  1.00  0.00     0.009 C 
HETATM   14  C13 UNL     1      15.550   4.742 -15.348  1.00  0.00     0.004 C 
HETATM   15  C14 UNL     1      15.524   5.596 -14.137  1.00  0.00    -0.026 C 
HETATM   16  C15 UNL     1      15.991   4.999 -12.884  1.00  0.00     0.016 C 
HETATM   17  C16 UNL     1      14.119   6.145 -13.849  1.00  0.00     0.042 C 
HETATM   18  C17 UNL     1      14.493   7.360 -12.970  1.00  0.00     0.128 C 
HETATM   19  C18 UNL     1      15.902   7.755 -13.354  1.00  0.00     0.054 C 
HETATM   20  C24 UNL     1      16.101   6.930 -14.557  1.00  0.00     0.074 C 
HETATM   21  C25 UNL     1      17.382   6.756 -15.190  1.00  0.00     0.133 C 
HETATM   22  O7  UNL     1      18.467   7.169 -14.774  1.00  0.00    -0.297 OA
HETATM   23  C26 UNL     1      17.307   5.980 -16.483  1.00  0.00     0.088 C 
HETATM   24  C27 UNL     1      16.807   4.557 -16.082  1.00  0.00    -0.024 C 
HETATM   25  C28 UNL     1      17.999   4.067 -15.288  1.00  0.00     0.016 C 
HETATM   26  C29 UNL     1      16.590   3.682 -17.283  1.00  0.00     0.059 C 
ENDROOT
BRANCH   1  27
HETATM   27  C4  UNL     1      17.433   2.183 -21.058  1.00  0.00    -0.001 A 
HETATM   28  C3  UNL     1      18.347   1.195 -21.299  1.00  0.00     0.050 A 
HETATM   29  C2  UNL     1      18.673   0.851 -22.620  1.00  0.00     0.090 A 
HETATM   30  C32 UNL     1      18.096   1.486 -23.693  1.00  0.00     0.069 A 
HETATM   31  C31 UNL     1      17.168   2.489 -23.431  1.00  0.00     0.051 A 
HETATM   32 CL2  UNL     1      18.491   1.069 -25.345  1.00  0.00    -0.081 Cl
HETATM   33  C30 UNL     1      16.845   2.826 -22.151  1.00  0.00     0.044 A 
HETATM   34 CL1  UNL     1      15.673   4.099 -21.776  1.00  0.00    -0.084 Cl
BRANCH  29  35
HETATM   35  O1  UNL     1      19.595  -0.149 -22.866  1.00  0.00    -0.354 OA
HETATM   36  C1  UNL     1      19.607  -1.376 -22.162  1.00  0.00     0.210 C 
ENDBRANCH  29  35
ENDBRANCH   1  27
BRANCH  18  37
HETATM   37  O4  UNL     1      14.316   7.064 -11.645  1.00  0.00    -0.395 OA
ATOM     38  H4  UNL     1      13.998   7.825 -11.174  1.00  0.00     0.210 HD
ENDBRANCH  18  37
BRANCH  19  39
HETATM   39  C19 UNL     1      16.098   9.207 -13.648  1.00  0.00    -0.080 C 
HETATM   40  C20 UNL     1      17.348   9.808 -13.037  1.00  0.00     0.043 C 
BRANCH  39  41
HETATM   41  C21 UNL     1      15.761   9.731 -14.975  1.00  0.00    -0.013 C 
BRANCH  41  42
HETATM   42  C22 UNL     1      16.682  10.539 -15.778  1.00  0.00     0.140 C 
BRANCH  42  43
HETATM   43  C23 UNL     1      17.415   9.886 -16.863  1.00  0.00     0.176 C 
HETATM   44  O5  UNL     1      18.671   9.875 -16.857  1.00  0.00    -0.648 OA
HETATM   45  O6  UNL     1      16.794   9.257 -17.937  1.00  0.00    -0.648 OA
ENDBRANCH  42  43
ENDBRANCH  41  42
ENDBRANCH  39  41
ENDBRANCH  19  39
TORSDOF 7
ENDMDL
