MODEL 1
REMARK VINA RESULT: -8.989547415      0.000      0.000
REMARK  10 active torsions:
REMARK  status: ('A' for Active; 'I' for Inactive)
REMARK    1  A    between atoms: C6_6  and  N1_7 
REMARK    2  A    between atoms: N1_7  and  C18_20 
REMARK    3  A    between atoms: C7_8  and  C8_9 
REMARK    4  A    between atoms: C18_20  and  O1_21 
REMARK    5  A    between atoms: C18_20  and  C19_23 
REMARK    6  A    between atoms: C19_23  and  N2_24 
REMARK    7  A    between atoms: N3_27  and  C22_28 
REMARK    8  A    between atoms: C24_30  and  O2_31 
REMARK    9  A    between atoms: N4_33  and  C25_34 
REMARK   10  A    between atoms: C31_41  and  O3_42 
ROOT
HETATM    1  N2  UNL     1      18.666   0.050 -22.240  1.00  0.00    -0.382 N 
HETATM    2  C20 UNL     1      18.668  -0.168 -20.856  1.00  0.00     0.078 C 
HETATM    3  C21 UNL     1      19.686  -1.142 -20.313  1.00  0.00     0.168 C 
HETATM    4  N3  UNL     1      19.912  -2.252 -21.217  1.00  0.00    -0.367 N 
HETATM    5  C32 UNL     1      20.136  -1.888 -22.596  1.00  0.00     0.099 C 
HETATM    6  C33 UNL     1      20.291  -3.074 -23.511  1.00  0.00     0.034 C 
HETATM    7  C34 UNL     1      19.007  -1.022 -23.111  1.00  0.00     0.147 C 
ENDROOT
BRANCH   1   8
HETATM    8  C19 UNL     1      18.869   1.348 -22.746  1.00  0.00     0.206 C 
BRANCH   8   9
HETATM    9  C18 UNL     1      17.661   1.897 -23.532  1.00  0.00     0.136 C 
BRANCH   9  10
HETATM   10  N1  UNL     1      17.337   3.214 -23.159  1.00  0.00    -0.338 N 
HETATM   11  C7  UNL     1      16.501   3.621 -22.159  1.00  0.00     0.076 C 
BRANCH  10  12
HETATM   12  C6  UNL     1      17.216   3.982 -24.406  1.00  0.00     0.094 C 
HETATM   13  C2  UNL     1      18.482   4.656 -24.804  1.00  0.00     0.005 C 
HETATM   14  C1  UNL     1      18.877   4.241 -26.231  1.00  0.00     0.012 C 
HETATM   15  C3  UNL     1      18.239   6.129 -24.820  1.00  0.00     0.006 C 
HETATM   16  C4  UNL     1      16.833   6.388 -24.372  1.00  0.00     0.002 C 
HETATM   17  C5  UNL     1      16.145   5.055 -24.262  1.00  0.00     0.026 C 
ENDBRANCH  10  12
BRANCH  11  18
HETATM   18  C8  UNL     1      16.742   3.426 -20.711  1.00  0.00    -0.006 C 
HETATM   19  C9  UNL     1      15.997   2.100 -20.402  1.00  0.00     0.019 C 
HETATM   20  C10 UNL     1      15.921   1.783 -18.961  1.00  0.00    -0.011 C 
HETATM   21  C11 UNL     1      17.342   1.575 -18.467  1.00  0.00     0.009 C 
HETATM   22  C15 UNL     1      15.222   2.883 -18.224  1.00  0.00     0.030 C 
HETATM   23  C12 UNL     1      18.059   2.856 -18.698  1.00  0.00    -0.011 C 
HETATM   24  C13 UNL     1      17.409   3.953 -17.903  1.00  0.00     0.030 C 
HETATM   25  C17 UNL     1      18.105   3.266 -20.186  1.00  0.00     0.019 C 
HETATM   26  C14 UNL     1      16.012   4.141 -18.446  1.00  0.00     0.039 C 
HETATM   27 CL1  UNL     1      15.255   5.441 -17.490  1.00  0.00    -0.119 Cl
HETATM   28  C16 UNL     1      16.015   4.486 -19.889  1.00  0.00     0.040 C 
ENDBRANCH  11  18
ENDBRANCH   9  10
BRANCH   9  29
HETATM   29  O1  UNL     1      16.714   0.982 -23.828  1.00  0.00    -0.348 OA
ATOM     30  H1  UNL     1      16.330   0.421 -23.164  1.00  0.00     0.219 HD
ENDBRANCH   9  29
ENDBRANCH   8   9
ENDBRANCH   1   8
BRANCH   4  31
HETATM   31  C22 UNL     1      19.938  -3.618 -20.837  1.00  0.00     0.087 A 
HETATM   32  C23 UNL     1      21.085  -4.364 -20.656  1.00  0.00     0.090 A 
HETATM   33  C24 UNL     1      20.674  -5.622 -20.292  1.00  0.00     0.151 A 
HETATM   34  N4  UNL     1      19.327  -5.652 -20.251  1.00  0.00    -0.271 N 
HETATM   35  C31 UNL     1      18.872  -4.459 -20.576  1.00  0.00     0.176 A 
BRANCH  33  36
HETATM   36  O2  UNL     1      21.551  -6.691 -20.011  1.00  0.00    -0.346 OA
ATOM     37  H2  UNL     1      21.796  -7.359 -20.640  1.00  0.00     0.219 HD
ENDBRANCH  33  36
BRANCH  34  38
HETATM   38  C25 UNL     1      18.581  -6.809 -19.899  1.00  0.00     0.043 A 
HETATM   39  C26 UNL     1      18.683  -7.241 -18.568  1.00  0.00     0.033 A 
HETATM   40  C27 UNL     1      17.998  -8.347 -18.142  1.00  0.00     0.044 A 
HETATM   41  C28 UNL     1      17.196  -9.047 -19.025  1.00  0.00     0.116 A 
HETATM   42  F1  UNL     1      16.536 -10.140 -18.559  1.00  0.00    -0.206 F 
HETATM   43  C29 UNL     1      17.108  -8.606 -20.334  1.00  0.00     0.044 A 
HETATM   44  C30 UNL     1      17.792  -7.493 -20.784  1.00  0.00     0.033 A 
ENDBRANCH  34  38
BRANCH  35  45
HETATM   45  O3  UNL     1      17.530  -4.080 -20.653  1.00  0.00    -0.344 OA
ATOM     46  H3  UNL     1      17.043  -3.679 -19.943  1.00  0.00     0.219 HD
ENDBRANCH  35  45
ENDBRANCH   4  31
TORSDOF 10
ENDMDL
MODEL 2
REMARK VINA RESULT: -8.857006108      4.837      9.004
REMARK  10 active torsions:
REMARK  status: ('A' for Active; 'I' for Inactive)
REMARK    1  A    between atoms: C6_6  and  N1_7 
REMARK    2  A    between atoms: N1_7  and  C18_20 
REMARK    3  A    between atoms: C7_8  and  C8_9 
REMARK    4  A    between atoms: C18_20  and  O1_21 
REMARK    5  A    between atoms: C18_20  and  C19_23 
REMARK    6  A    between atoms: C19_23  and  N2_24 
REMARK    7  A    between atoms: N3_27  and  C22_28 
REMARK    8  A    between atoms: C24_30  and  O2_31 
REMARK    9  A    between atoms: N4_33  and  C25_34 
REMARK   10  A    between atoms: C31_41  and  O3_42 
ROOT
HETATM    1  N2  UNL     1      17.698   6.221 -24.709  1.00  0.00    -0.382 N 
HETATM    2  C20 UNL     1      18.673   5.673 -25.553  1.00  0.00     0.078 C 
HETATM    3  C21 UNL     1      18.404   4.296 -26.113  1.00  0.00     0.168 C 
HETATM    4  N3  UNL     1      17.715   3.448 -25.162  1.00  0.00    -0.367 N 
HETATM    5  C32 UNL     1      16.569   4.046 -24.519  1.00  0.00     0.099 C 
HETATM    6  C33 UNL     1      15.930   3.157 -23.486  1.00  0.00     0.034 C 
HETATM    7  C34 UNL     1      16.946   5.357 -23.865  1.00  0.00     0.147 C 
ENDROOT
BRANCH   1   8
HETATM    8  C19 UNL     1      17.088   7.445 -25.044  1.00  0.00     0.206 C 
BRANCH   8   9
HETATM    9  C18 UNL     1      17.484   7.967 -26.441  1.00  0.00     0.136 C 
BRANCH   9  10
HETATM   10  N1  UNL     1      18.421   9.013 -26.373  1.00  0.00    -0.338 N 
HETATM   11  C7  UNL     1      19.744   8.977 -26.707  1.00  0.00     0.076 C 
BRANCH  10  12
HETATM   12  C6  UNL     1      18.123   9.759 -25.142  1.00  0.00     0.094 C 
HETATM   13  C2  UNL     1      17.322  10.990 -25.383  1.00  0.00     0.005 C 
HETATM   14  C1  UNL     1      16.043  10.965 -24.529  1.00  0.00     0.012 C 
HETATM   15  C3  UNL     1      18.130  12.165 -24.941  1.00  0.00     0.006 C 
HETATM   16  C4  UNL     1      19.468  11.679 -24.475  1.00  0.00     0.002 C 
HETATM   17  C5  UNL     1      19.415  10.175 -24.452  1.00  0.00     0.026 C 
ENDBRANCH  10  12
BRANCH  11  18
HETATM   18  C8  UNL     1      20.275   8.788 -28.078  1.00  0.00    -0.006 C 
HETATM   19  C9  UNL     1      20.454   7.250 -28.179  1.00  0.00     0.019 C 
HETATM   20  C10 UNL     1      21.164   6.813 -29.399  1.00  0.00    -0.011 C 
HETATM   21  C11 UNL     1      20.303   7.202 -30.589  1.00  0.00     0.009 C 
HETATM   22  C15 UNL     1      22.524   7.438 -29.459  1.00  0.00     0.030 C 
HETATM   23  C12 UNL     1      20.169   8.682 -30.545  1.00  0.00    -0.011 C 
HETATM   24  C13 UNL     1      21.522   9.319 -30.679  1.00  0.00     0.030 C 
HETATM   25  C17 UNL     1      19.493   9.191 -29.253  1.00  0.00     0.019 C 
HETATM   26  C14 UNL     1      22.331   8.928 -29.465  1.00  0.00     0.039 C 
HETATM   27 CL1  UNL     1      23.934   9.688 -29.642  1.00  0.00    -0.119 Cl
HETATM   28  C16 UNL     1      21.685   9.357 -28.201  1.00  0.00     0.040 C 
ENDBRANCH  11  18
ENDBRANCH   9  10
BRANCH   9  29
HETATM   29  O1  UNL     1      16.489   7.954 -27.354  1.00  0.00    -0.348 OA
ATOM     30  H1  UNL     1      16.507   7.381 -28.111  1.00  0.00     0.219 HD
ENDBRANCH   9  29
ENDBRANCH   8   9
ENDBRANCH   1   8
BRANCH   4  31
HETATM   31  C22 UNL     1      18.079   2.114 -24.849  1.00  0.00     0.087 A 
HETATM   32  C23 UNL     1      17.888   1.028 -25.680  1.00  0.00     0.090 A 
HETATM   33  C24 UNL     1      18.377  -0.064 -25.009  1.00  0.00     0.151 A 
HETATM   34  N4  UNL     1      18.851   0.330 -23.809  1.00  0.00    -0.271 N 
HETATM   35  C31 UNL     1      18.678   1.632 -23.700  1.00  0.00     0.176 A 
BRANCH  33  36
HETATM   36  O2  UNL     1      18.371  -1.377 -25.523  1.00  0.00    -0.346 OA
ATOM     37  H2  UNL     1      18.704  -2.134 -25.056  1.00  0.00     0.219 HD
ENDBRANCH  33  36
BRANCH  34  38
HETATM   38  C25 UNL     1      19.436  -0.559 -22.870  1.00  0.00     0.043 A 
HETATM   39  C26 UNL     1      20.687  -1.098 -23.208  1.00  0.00     0.033 A 
HETATM   40  C27 UNL     1      21.324  -1.963 -22.360  1.00  0.00     0.044 A 
HETATM   41  C28 UNL     1      20.735  -2.313 -21.158  1.00  0.00     0.116 A 
HETATM   42  F1  UNL     1      21.402  -3.177 -20.348  1.00  0.00    -0.206 F 
HETATM   43  C29 UNL     1      19.501  -1.771 -20.840  1.00  0.00     0.044 A 
HETATM   44  C30 UNL     1      18.843  -0.897 -21.683  1.00  0.00     0.033 A 
ENDBRANCH  34  38
BRANCH  35  45
HETATM   45  O3  UNL     1      19.035   2.422 -22.605  1.00  0.00    -0.344 OA
ATOM     46  H3  UNL     1      19.873   2.377 -22.160  1.00  0.00     0.219 HD
ENDBRANCH  35  45
ENDBRANCH   4  31
TORSDOF 10
ENDMDL
MODEL 3
REMARK VINA RESULT: -8.835046060      4.821      9.032
REMARK  10 active torsions:
REMARK  status: ('A' for Active; 'I' for Inactive)
REMARK    1  A    between atoms: C6_6  and  N1_7 
REMARK    2  A    between atoms: N1_7  and  C18_20 
REMARK    3  A    between atoms: C7_8  and  C8_9 
REMARK    4  A    between atoms: C18_20  and  O1_21 
REMARK    5  A    between atoms: C18_20  and  C19_23 
REMARK    6  A    between atoms: C19_23  and  N2_24 
REMARK    7  A    between atoms: N3_27  and  C22_28 
REMARK    8  A    between atoms: C24_30  and  O2_31 
REMARK    9  A    between atoms: N4_33  and  C25_34 
REMARK   10  A    between atoms: C31_41  and  O3_42 
ROOT
HETATM    1  N2  UNL     1      17.733   6.192 -24.713  1.00  0.00    -0.382 N 
HETATM    2  C20 UNL     1      18.705   5.640 -25.558  1.00  0.00     0.078 C 
HETATM    3  C21 UNL     1      18.428   4.265 -26.119  1.00  0.00     0.168 C 
HETATM    4  N3  UNL     1      17.735   3.419 -25.170  1.00  0.00    -0.367 N 
HETATM    5  C32 UNL     1      16.593   4.023 -24.526  1.00  0.00     0.099 C 
HETATM    6  C33 UNL     1      15.949   3.136 -23.493  1.00  0.00     0.034 C 
HETATM    7  C34 UNL     1      16.976   5.331 -23.870  1.00  0.00     0.147 C 
ENDROOT
BRANCH   1   8
HETATM    8  C19 UNL     1      17.128   7.419 -25.047  1.00  0.00     0.206 C 
BRANCH   8   9
HETATM    9  C18 UNL     1      17.435   7.884 -26.486  1.00  0.00     0.136 C 
BRANCH   9  10
HETATM   10  N1  UNL     1      18.404   8.902 -26.522  1.00  0.00    -0.338 N 
HETATM   11  C7  UNL     1      19.736   8.782 -26.796  1.00  0.00     0.076 C 
BRANCH  10  12
HETATM   12  C6  UNL     1      18.088   9.818 -25.418  1.00  0.00     0.094 C 
HETATM   13  C2  UNL     1      17.268  10.985 -25.841  1.00  0.00     0.005 C 
HETATM   14  C1  UNL     1      15.985  11.065 -24.995  1.00  0.00     0.012 C 
HETATM   15  C3  UNL     1      18.053  12.226 -25.576  1.00  0.00     0.006 C 
HETATM   16  C4  UNL     1      19.397  11.838 -25.040  1.00  0.00     0.002 C 
HETATM   17  C5  UNL     1      19.370  10.354 -24.794  1.00  0.00     0.026 C 
ENDBRANCH  10  12
BRANCH  11  18
HETATM   18  C8  UNL     1      20.309   8.392 -28.105  1.00  0.00    -0.006 C 
HETATM   19  C9  UNL     1      21.684   9.110 -28.119  1.00  0.00     0.019 C 
HETATM   20  C10 UNL     1      22.380   9.036 -29.420  1.00  0.00    -0.011 C 
HETATM   21  C11 UNL     1      22.683   7.573 -29.691  1.00  0.00     0.009 C 
HETATM   22  C15 UNL     1      21.535   9.647 -30.495  1.00  0.00     0.030 C 
HETATM   23  C12 UNL     1      21.371   6.875 -29.743  1.00  0.00    -0.011 C 
HETATM   24  C13 UNL     1      20.544   7.431 -30.867  1.00  0.00     0.030 C 
HETATM   25  C17 UNL     1      20.575   6.983 -28.424  1.00  0.00     0.019 C 
HETATM   26  C14 UNL     1      20.246   8.876 -30.541  1.00  0.00     0.039 C 
HETATM   27 CL1  UNL     1      19.269   9.520 -31.886  1.00  0.00    -0.119 Cl
HETATM   28  C16 UNL     1      19.526   9.021 -29.253  1.00  0.00     0.040 C 
ENDBRANCH  11  18
ENDBRANCH   9  10
BRANCH   9  29
HETATM   29  O1  UNL     1      16.375   7.873 -27.323  1.00  0.00    -0.348 OA
ATOM     30  H1  UNL     1      16.133   7.101 -27.820  1.00  0.00     0.219 HD
ENDBRANCH   9  29
ENDBRANCH   8   9
ENDBRANCH   1   8
BRANCH   4  31
HETATM   31  C22 UNL     1      18.092   2.083 -24.858  1.00  0.00     0.087 A 
HETATM   32  C23 UNL     1      17.906   1.001 -25.694  1.00  0.00     0.090 A 
HETATM   33  C24 UNL     1      18.386  -0.095 -25.022  1.00  0.00     0.151 A 
HETATM   34  N4  UNL     1      18.851   0.294 -23.818  1.00  0.00    -0.271 N 
HETATM   35  C31 UNL     1      18.681   1.596 -23.705  1.00  0.00     0.176 A 
BRANCH  33  36
HETATM   36  O2  UNL     1      18.380  -1.406 -25.541  1.00  0.00    -0.346 OA
ATOM     37  H2  UNL     1      18.837  -1.669 -26.331  1.00  0.00     0.219 HD
ENDBRANCH  33  36
BRANCH  34  38
HETATM   38  C25 UNL     1      19.425  -0.600 -22.876  1.00  0.00     0.043 A 
HETATM   39  C26 UNL     1      20.681  -1.136 -23.203  1.00  0.00     0.033 A 
HETATM   40  C27 UNL     1      21.308  -2.006 -22.352  1.00  0.00     0.044 A 
HETATM   41  C28 UNL     1      20.705  -2.362 -21.159  1.00  0.00     0.116 A 
HETATM   42  F1  UNL     1      21.363  -3.231 -20.346  1.00  0.00    -0.206 F 
HETATM   43  C29 UNL     1      19.467  -1.824 -20.853  1.00  0.00     0.044 A 
HETATM   44  C30 UNL     1      18.818  -0.946 -21.699  1.00  0.00     0.033 A 
ENDBRANCH  34  38
BRANCH  35  45
HETATM   45  O3  UNL     1      19.031   2.381 -22.604  1.00  0.00    -0.344 OA
ATOM     46  H3  UNL     1      19.824   2.267 -22.093  1.00  0.00     0.219 HD
ENDBRANCH  35  45
ENDBRANCH   4  31
TORSDOF 10
ENDMDL
MODEL 4
REMARK VINA RESULT: -8.716761764      3.211      5.808
REMARK  10 active torsions:
REMARK  status: ('A' for Active; 'I' for Inactive)
REMARK    1  A    between atoms: C6_6  and  N1_7 
REMARK    2  A    between atoms: N1_7  and  C18_20 
REMARK    3  A    between atoms: C7_8  and  C8_9 
REMARK    4  A    between atoms: C18_20  and  O1_21 
REMARK    5  A    between atoms: C18_20  and  C19_23 
REMARK    6  A    between atoms: C19_23  and  N2_24 
REMARK    7  A    between atoms: N3_27  and  C22_28 
REMARK    8  A    between atoms: C24_30  and  O2_31 
REMARK    9  A    between atoms: N4_33  and  C25_34 
REMARK   10  A    between atoms: C31_41  and  O3_42 
ROOT
HETATM    1  N2  UNL     1      16.077   4.226 -21.424  1.00  0.00    -0.382 N 
HETATM    2  C20 UNL     1      17.350   4.032 -20.872  1.00  0.00     0.078 C 
HETATM    3  C21 UNL     1      18.425   3.499 -21.789  1.00  0.00     0.168 C 
HETATM    4  N3  UNL     1      17.901   2.543 -22.743  1.00  0.00    -0.367 N 
HETATM    5  C32 UNL     1      16.702   2.956 -23.434  1.00  0.00     0.099 C 
HETATM    6  C33 UNL     1      16.151   1.903 -24.359  1.00  0.00     0.034 C 
HETATM    7  C34 UNL     1      15.623   3.348 -22.448  1.00  0.00     0.147 C 
ENDROOT
BRANCH   1   8
HETATM    8  C19 UNL     1      15.491   5.507 -21.403  1.00  0.00     0.206 C 
BRANCH   8   9
HETATM    9  C18 UNL     1      16.021   6.406 -20.267  1.00  0.00     0.136 C 
BRANCH   9  10
HETATM   10  N1  UNL     1      15.095   6.541 -19.218  1.00  0.00    -0.338 N 
HETATM   11  C7  UNL     1      14.343   5.563 -18.632  1.00  0.00     0.076 C 
BRANCH  10  12
HETATM   12  C6  UNL     1      14.380   7.803 -19.452  1.00  0.00     0.094 C 
HETATM   13  C2  UNL     1      14.649   8.831 -18.411  1.00  0.00     0.005 C 
HETATM   14  C1  UNL     1      15.168  10.123 -19.065  1.00  0.00     0.012 C 
HETATM   15  C3  UNL     1      13.359   9.161 -17.737  1.00  0.00     0.006 C 
HETATM   16  C4  UNL     1      12.282   8.293 -18.314  1.00  0.00     0.002 C 
HETATM   17  C5  UNL     1      12.877   7.559 -19.484  1.00  0.00     0.026 C 
ENDBRANCH  10  12
BRANCH  11  18
HETATM   18  C8  UNL     1      14.877   4.443 -17.822  1.00  0.00    -0.006 C 
HETATM   19  C9  UNL     1      13.920   4.401 -16.602  1.00  0.00     0.019 C 
HETATM   20  C10 UNL     1      14.360   3.480 -15.533  1.00  0.00    -0.011 C 
HETATM   21  C11 UNL     1      14.347   2.076 -16.109  1.00  0.00     0.009 C 
HETATM   22  C15 UNL     1      15.717   3.874 -15.037  1.00  0.00     0.030 C 
HETATM   23  C12 UNL     1      15.305   2.078 -17.246  1.00  0.00    -0.011 C 
HETATM   24  C13 UNL     1      16.685   2.399 -16.746  1.00  0.00     0.030 C 
HETATM   25  C17 UNL     1      14.923   3.077 -18.360  1.00  0.00     0.019 C 
HETATM   26  C14 UNL     1      16.656   3.811 -16.208  1.00  0.00     0.039 C 
HETATM   27 CL1  UNL     1      18.298   4.174 -15.615  1.00  0.00    -0.119 Cl
HETATM   28  C16 UNL     1      16.242   4.793 -17.239  1.00  0.00     0.040 C 
ENDBRANCH  11  18
ENDBRANCH   9  10
BRANCH   9  29
HETATM   29  O1  UNL     1      16.798   7.433 -20.674  1.00  0.00    -0.348 OA
ATOM     30  H1  UNL     1      16.445   8.173 -21.154  1.00  0.00     0.219 HD
ENDBRANCH   9  29
ENDBRANCH   8   9
ENDBRANCH   1   8
BRANCH   4  31
HETATM   31  C22 UNL     1      18.481   1.283 -23.035  1.00  0.00     0.087 A 
HETATM   32  C23 UNL     1      18.801   0.836 -24.301  1.00  0.00     0.090 A 
HETATM   33  C24 UNL     1      19.338  -0.417 -24.144  1.00  0.00     0.151 A 
HETATM   34  N4  UNL     1      19.350  -0.733 -22.834  1.00  0.00    -0.271 N 
HETATM   35  C31 UNL     1      18.838   0.276 -22.157  1.00  0.00     0.176 A 
BRANCH  33  36
HETATM   36  O2  UNL     1      19.798  -1.219 -25.209  1.00  0.00    -0.346 OA
ATOM     37  H2  UNL     1      19.724  -2.166 -25.234  1.00  0.00     0.219 HD
ENDBRANCH  33  36
BRANCH  34  38
HETATM   38  C25 UNL     1      19.853  -1.961 -22.330  1.00  0.00     0.043 A 
HETATM   39  C26 UNL     1      21.240  -2.039 -22.130  1.00  0.00     0.033 A 
HETATM   40  C27 UNL     1      21.809  -3.186 -21.646  1.00  0.00     0.044 A 
HETATM   41  C28 UNL     1      21.017  -4.280 -21.351  1.00  0.00     0.116 A 
HETATM   42  F1  UNL     1      21.626  -5.399 -20.875  1.00  0.00    -0.206 F 
HETATM   43  C29 UNL     1      19.651  -4.186 -21.554  1.00  0.00     0.044 A 
HETATM   44  C30 UNL     1      19.057  -3.038 -22.042  1.00  0.00     0.033 A 
ENDBRANCH  34  38
BRANCH  35  45
HETATM   45  O3  UNL     1      18.672   0.340 -20.772  1.00  0.00    -0.344 OA
ATOM     46  H3  UNL     1      18.031  -0.163 -20.284  1.00  0.00     0.219 HD
ENDBRANCH  35  45
ENDBRANCH   4  31
TORSDOF 10
ENDMDL
MODEL 5
REMARK VINA RESULT: -8.569940772      3.227      5.826
REMARK  10 active torsions:
REMARK  status: ('A' for Active; 'I' for Inactive)
REMARK    1  A    between atoms: C6_6  and  N1_7 
REMARK    2  A    between atoms: N1_7  and  C18_20 
REMARK    3  A    between atoms: C7_8  and  C8_9 
REMARK    4  A    between atoms: C18_20  and  O1_21 
REMARK    5  A    between atoms: C18_20  and  C19_23 
REMARK    6  A    between atoms: C19_23  and  N2_24 
REMARK    7  A    between atoms: N3_27  and  C22_28 
REMARK    8  A    between atoms: C24_30  and  O2_31 
REMARK    9  A    between atoms: N4_33  and  C25_34 
REMARK   10  A    between atoms: C31_41  and  O3_42 
ROOT
HETATM    1  N2  UNL     1      16.148   4.266 -21.430  1.00  0.00    -0.382 N 
HETATM    2  C20 UNL     1      17.449   4.093 -20.940  1.00  0.00     0.078 C 
HETATM    3  C21 UNL     1      18.478   3.544 -21.900  1.00  0.00     0.168 C 
HETATM    4  N3  UNL     1      17.911   2.563 -22.803  1.00  0.00    -0.367 N 
HETATM    5  C32 UNL     1      16.675   2.952 -23.439  1.00  0.00     0.099 C 
HETATM    6  C33 UNL     1      16.084   1.875 -24.309  1.00  0.00     0.034 C 
HETATM    7  C34 UNL     1      15.647   3.361 -22.407  1.00  0.00     0.147 C 
ENDROOT
BRANCH   1   8
HETATM    8  C19 UNL     1      15.554   5.543 -21.408  1.00  0.00     0.206 C 
BRANCH   8   9
HETATM    9  C18 UNL     1      16.078   6.445 -20.271  1.00  0.00     0.136 C 
BRANCH   9  10
HETATM   10  N1  UNL     1      15.102   6.687 -19.289  1.00  0.00    -0.338 N 
HETATM   11  C7  UNL     1      14.302   5.776 -18.659  1.00  0.00     0.076 C 
BRANCH  10  12
HETATM   12  C6  UNL     1      14.422   7.931 -19.675  1.00  0.00     0.094 C 
HETATM   13  C2  UNL     1      14.772   9.084 -18.801  1.00  0.00     0.005 C 
HETATM   14  C1  UNL     1      15.309  10.248 -19.653  1.00  0.00     0.012 C 
HETATM   15  C3  UNL     1      13.525   9.559 -18.134  1.00  0.00     0.006 C 
HETATM   16  C4  UNL     1      12.394   8.664 -18.541  1.00  0.00     0.002 C 
HETATM   17  C5  UNL     1      12.912   7.748 -19.615  1.00  0.00     0.026 C 
ENDBRANCH  10  12
BRANCH  11  18
HETATM   18  C8  UNL     1      14.772   4.728 -17.724  1.00  0.00    -0.006 C 
HETATM   19  C9  UNL     1      16.241   5.139 -17.439  1.00  0.00     0.019 C 
HETATM   20  C10 UNL     1      17.002   4.131 -16.674  1.00  0.00    -0.011 C 
HETATM   21  C11 UNL     1      16.344   4.002 -15.311  1.00  0.00     0.009 C 
HETATM   22  C15 UNL     1      17.027   2.828 -17.414  1.00  0.00     0.030 C 
HETATM   23  C12 UNL     1      14.950   3.549 -15.559  1.00  0.00    -0.011 C 
HETATM   24  C13 UNL     1      14.964   2.208 -16.235  1.00  0.00     0.030 C 
HETATM   25  C17 UNL     1      14.133   4.541 -16.415  1.00  0.00     0.019 C 
HETATM   26  C14 UNL     1      15.602   2.390 -17.592  1.00  0.00     0.039 C 
HETATM   27 CL1  UNL     1      15.615   0.789 -18.378  1.00  0.00    -0.119 Cl
HETATM   28  C16 UNL     1      14.872   3.376 -18.425  1.00  0.00     0.040 C 
ENDBRANCH  11  18
ENDBRANCH   9  10
BRANCH   9  29
HETATM   29  O1  UNL     1      16.954   7.396 -20.660  1.00  0.00    -0.348 OA
ATOM     30  H1  UNL     1      17.697   7.648 -20.123  1.00  0.00     0.219 HD
ENDBRANCH   9  29
ENDBRANCH   8   9
ENDBRANCH   1   8
BRANCH   4  31
HETATM   31  C22 UNL     1      18.484   1.300 -23.095  1.00  0.00     0.087 A 
HETATM   32  C23 UNL     1      18.818   0.858 -24.359  1.00  0.00     0.090 A 
HETATM   33  C24 UNL     1      19.342  -0.401 -24.204  1.00  0.00     0.151 A 
HETATM   34  N4  UNL     1      19.333  -0.725 -22.895  1.00  0.00    -0.271 N 
HETATM   35  C31 UNL     1      18.821   0.284 -22.219  1.00  0.00     0.176 A 
BRANCH  33  36
HETATM   36  O2  UNL     1      19.809  -1.200 -25.268  1.00  0.00    -0.346 OA
ATOM     37  H2  UNL     1      20.603  -1.023 -25.758  1.00  0.00     0.219 HD
ENDBRANCH  33  36
BRANCH  34  38
HETATM   38  C25 UNL     1      19.818  -1.961 -22.393  1.00  0.00     0.043 A 
HETATM   39  C26 UNL     1      21.197  -2.043 -22.147  1.00  0.00     0.033 A 
HETATM   40  C27 UNL     1      21.749  -3.197 -21.662  1.00  0.00     0.044 A 
HETATM   41  C28 UNL     1      20.947  -4.295 -21.409  1.00  0.00     0.116 A 
HETATM   42  F1  UNL     1      21.539  -5.421 -20.930  1.00  0.00    -0.206 F 
HETATM   43  C29 UNL     1      19.589  -4.197 -21.657  1.00  0.00     0.044 A 
HETATM   44  C30 UNL     1      19.013  -3.041 -22.148  1.00  0.00     0.033 A 
ENDBRANCH  34  38
BRANCH  35  45
HETATM   45  O3  UNL     1      18.636   0.340 -20.836  1.00  0.00    -0.344 OA
ATOM     46  H3  UNL     1      19.316   0.165 -20.195  1.00  0.00     0.219 HD
ENDBRANCH  35  45
ENDBRANCH   4  31
TORSDOF 10
ENDMDL
