MODEL 1
REMARK VINA RESULT: -8.179278070      0.000      0.000
REMARK  11 active torsions:
REMARK  status: ('A' for Active; 'I' for Inactive)
REMARK    1  A    between atoms: C2_2  and  C3_3 
REMARK    2  A    between atoms: C4_4  and  C5_5 
REMARK    3  A    between atoms: C8_8  and  O1_9 
REMARK    4  A    between atoms: C11_13  and  O2_14 
REMARK    5  A    between atoms: C11_13  and  C12_16 
REMARK    6  A    between atoms: C20_25  and  C21_26 
REMARK    7  A    between atoms: C21_26  and  C22_27 
REMARK    8  A    between atoms: C22_27  and  C24_29 
REMARK    9  A    between atoms: C24_29  and  C25_30 
REMARK   10  A    between atoms: C25_30  and  O4_31 
REMARK   11  A    between atoms: C25_30  and  C26_33 
ROOT
HETATM    1  C5  UNL     1      15.956   2.222 -18.489  1.00  0.00     0.046 C 
HETATM    2  C6  UNL     1      14.817   1.870 -17.625  1.00  0.00     0.023 C 
HETATM    3  C7  UNL     1      15.227   0.877 -16.515  1.00  0.00     0.014 C 
HETATM    4  C8  UNL     1      14.064   2.973 -16.983  1.00  0.00     0.130 C 
HETATM    5  C9  UNL     1      14.798   4.262 -16.906  1.00  0.00     0.052 C 
HETATM    6  C10 UNL     1      15.715   4.342 -15.724  1.00  0.00     0.016 C 
HETATM    7  C11 UNL     1      15.469   4.680 -18.215  1.00  0.00     0.117 C 
HETATM    8  C19 UNL     1      15.975   3.643 -19.074  1.00  0.00    -0.035 C 
HETATM    9  C20 UNL     1      15.905   3.602 -20.514  1.00  0.00     0.007 C 
ENDROOT
BRANCH   1  10
HETATM   10  C4  UNL     1      17.275   1.809 -17.969  1.00  0.00    -0.017 C 
HETATM   11  C3  UNL     1      18.100   0.994 -18.530  1.00  0.00    -0.004 C 
BRANCH  11  12
HETATM   12  C2  UNL     1      17.881   0.323 -19.794  1.00  0.00    -0.011 C 
HETATM   13  C1  UNL     1      17.911  -1.031 -19.832  1.00  0.00     0.011 C 
ENDBRANCH  11  12
ENDBRANCH   1  10
BRANCH   7  14
HETATM   14  O2  UNL     1      16.616   5.429 -17.728  1.00  0.00    -0.382 OA
ATOM     15  H2  UNL     1      16.516   6.253 -18.191  1.00  0.00     0.211 HD
ENDBRANCH   7  14
BRANCH   7  16
HETATM   16  C12 UNL     1      14.588   5.770 -18.820  1.00  0.00     0.184 C 
HETATM   17  C13 UNL     1      13.595   6.329 -17.887  1.00  0.00     0.004 C 
HETATM   18  C14 UNL     1      13.109   7.566 -18.058  1.00  0.00    -0.025 C 
HETATM   19  C15 UNL     1      13.602   8.345 -19.213  1.00  0.00     0.064 C 
HETATM   20  C16 UNL     1      14.973   7.953 -19.589  1.00  0.00     0.058 C 
HETATM   21  C17 UNL     1      15.102   8.088 -21.120  1.00  0.00     0.046 C 
HETATM   22  C18 UNL     1      15.889   9.087 -19.065  1.00  0.00     0.046 C 
HETATM   23  O3  UNL     1      15.513   6.807 -19.139  1.00  0.00    -0.368 OA
ENDBRANCH   7  16
BRANCH   9  24
HETATM   24  C21 UNL     1      15.528   4.298 -21.504  1.00  0.00     0.007 C 
BRANCH  24  25
HETATM   25  C22 UNL     1      16.296   4.291 -22.801  1.00  0.00    -0.063 C 
HETATM   26  C23 UNL     1      16.153   5.436 -23.713  1.00  0.00     0.048 C 
BRANCH  25  27
HETATM   27  C24 UNL     1      17.050   3.248 -23.024  1.00  0.00     0.014 C 
BRANCH  27  28
HETATM   28  C25 UNL     1      16.777   2.174 -24.011  1.00  0.00     0.174 C 
BRANCH  28  29
HETATM   29  O4  UNL     1      15.504   2.490 -24.561  1.00  0.00    -0.389 OA
ATOM     30  H4  UNL     1      14.888   2.362 -23.850  1.00  0.00     0.210 HD
ENDBRANCH  28  29
BRANCH  28  31
HETATM   31  C26 UNL     1      17.759   2.295 -25.134  1.00  0.00     0.205 C 
HETATM   32  O5  UNL     1      18.977   3.066 -24.736  1.00  0.00    -0.325 OA
HETATM   33  C27 UNL     1      19.374   1.862 -24.070  1.00  0.00     0.157 C 
HETATM   34  N1  UNL     1      19.912   1.158 -23.199  1.00  0.00    -0.336 N 
HETATM   35  C34 UNL     1      18.706   1.155 -25.268  1.00  0.00     0.158 C 
HETATM   36  C28 UNL     1      19.901  -0.255 -23.098  1.00  0.00     0.069 A 
ATOM     37  H1  UNL     1      20.421   1.657 -22.470  1.00  0.00     0.168 HD
HETATM   38  C29 UNL     1      20.588  -0.922 -22.098  1.00  0.00     0.035 A 
HETATM   39  C33 UNL     1      19.163  -0.908 -24.081  1.00  0.00     0.122 A 
HETATM   40  C30 UNL     1      20.528  -2.295 -22.091  1.00  0.00     0.046 A 
HETATM   41  C31 UNL     1      19.796  -2.979 -23.065  1.00  0.00     0.141 A 
HETATM   42  F1  UNL     1      19.761  -4.329 -23.022  1.00  0.00    -0.204 F 
HETATM   43  C32 UNL     1      19.120  -2.283 -24.052  1.00  0.00     0.108 A 
HETATM   44 CL1  UNL     1      18.202  -3.130 -25.273  1.00  0.00    -0.078 Cl
HETATM   45  O6  UNL     1      18.518  -0.132 -25.019  1.00  0.00    -0.325 OA
HETATM   46  C35 UNL     1      19.643   1.357 -26.509  1.00  0.00     0.059 C 
ENDBRANCH  28  31
ENDBRANCH  27  28
ENDBRANCH  25  27
ENDBRANCH  24  25
ENDBRANCH   9  24
BRANCH   4  47
HETATM   47  O1  UNL     1      13.743   2.611 -15.656  1.00  0.00    -0.395 OA
ATOM     48  H1  UNL     1      13.958   3.329 -15.073  1.00  0.00     0.210 HD
ENDBRANCH   4  47
TORSDOF 11
ENDMDL
MODEL 2
REMARK VINA RESULT: -8.030722282      2.591      5.410
REMARK  11 active torsions:
REMARK  status: ('A' for Active; 'I' for Inactive)
REMARK    1  A    between atoms: C2_2  and  C3_3 
REMARK    2  A    between atoms: C4_4  and  C5_5 
REMARK    3  A    between atoms: C8_8  and  O1_9 
REMARK    4  A    between atoms: C11_13  and  O2_14 
REMARK    5  A    between atoms: C11_13  and  C12_16 
REMARK    6  A    between atoms: C20_25  and  C21_26 
REMARK    7  A    between atoms: C21_26  and  C22_27 
REMARK    8  A    between atoms: C22_27  and  C24_29 
REMARK    9  A    between atoms: C24_29  and  C25_30 
REMARK   10  A    between atoms: C25_30  and  O4_31 
REMARK   11  A    between atoms: C25_30  and  C26_33 
ROOT
HETATM    1  C5  UNL     1      17.248   8.100 -23.689  1.00  0.00     0.046 C 
HETATM    2  C6  UNL     1      17.976   9.263 -23.157  1.00  0.00     0.023 C 
HETATM    3  C7  UNL     1      18.501  10.175 -24.289  1.00  0.00     0.014 C 
HETATM    4  C8  UNL     1      17.284  10.127 -22.172  1.00  0.00     0.130 C 
HETATM    5  C9  UNL     1      15.803  10.001 -22.171  1.00  0.00     0.052 C 
HETATM    6  C10 UNL     1      15.144  10.846 -23.217  1.00  0.00     0.016 C 
HETATM    7  C11 UNL     1      15.298   8.558 -22.160  1.00  0.00     0.117 C 
HETATM    8  C19 UNL     1      16.078   7.565 -22.848  1.00  0.00    -0.035 C 
HETATM    9  C20 UNL     1      16.339   6.215 -22.413  1.00  0.00     0.007 C 
ENDROOT
BRANCH   1  10
HETATM   10  C4  UNL     1      16.918   8.182 -25.126  1.00  0.00    -0.017 C 
HETATM   11  C3  UNL     1      17.242   7.332 -26.038  1.00  0.00    -0.004 C 
BRANCH  11  12
HETATM   12  C2  UNL     1      18.001   6.119 -25.817  1.00  0.00    -0.011 C 
HETATM   13  C1  UNL     1      19.119   5.902 -26.551  1.00  0.00     0.011 C 
ENDBRANCH  11  12
ENDBRANCH   1  10
BRANCH   7  14
HETATM   14  O2  UNL     1      14.040   8.685 -22.877  1.00  0.00    -0.382 OA
ATOM     15  H2  UNL     1      13.477   9.062 -22.210  1.00  0.00     0.211 HD
ENDBRANCH   7  14
BRANCH   7  16
HETATM   16  C12 UNL     1      14.843   8.273 -20.731  1.00  0.00     0.184 C 
HETATM   17  C13 UNL     1      15.751   8.792 -19.695  1.00  0.00     0.004 C 
HETATM   18  C14 UNL     1      15.302   9.079 -18.465  1.00  0.00    -0.025 C 
HETATM   19  C15 UNL     1      13.868   8.854 -18.187  1.00  0.00     0.064 C 
HETATM   20  C16 UNL     1      13.048   8.998 -19.404  1.00  0.00     0.058 C 
HETATM   21  C17 UNL     1      11.873   8.004 -19.305  1.00  0.00     0.046 C 
HETATM   22  C18 UNL     1      12.348  10.374 -19.274  1.00  0.00     0.046 C 
HETATM   23  O3  UNL     1      13.614   8.986 -20.624  1.00  0.00    -0.368 OA
ENDBRANCH   7  16
BRANCH   9  24
HETATM   24  C21 UNL     1      16.042   5.402 -21.486  1.00  0.00     0.007 C 
BRANCH  24  25
HETATM   25  C22 UNL     1      15.905   3.926 -21.758  1.00  0.00    -0.063 C 
HETATM   26  C23 UNL     1      15.994   2.988 -20.629  1.00  0.00     0.048 C 
BRANCH  25  27
HETATM   27  C24 UNL     1      15.712   3.579 -23.003  1.00  0.00     0.014 C 
BRANCH  27  28
HETATM   28  C25 UNL     1      16.331   2.416 -23.686  1.00  0.00     0.174 C 
BRANCH  28  29
HETATM   29  O4  UNL     1      15.454   2.106 -24.761  1.00  0.00    -0.389 OA
ATOM     30  H4  UNL     1      15.940   2.321 -25.548  1.00  0.00     0.210 HD
ENDBRANCH  28  29
BRANCH  28  31
HETATM   31  C26 UNL     1      17.618   2.857 -24.310  1.00  0.00     0.205 C 
HETATM   32  O5  UNL     1      18.521   3.528 -23.325  1.00  0.00    -0.325 OA
HETATM   33  C27 UNL     1      18.807   2.201 -22.866  1.00  0.00     0.157 C 
HETATM   34  N1  UNL     1      19.092   1.307 -22.053  1.00  0.00    -0.336 N 
HETATM   35  C34 UNL     1      18.684   1.820 -24.356  1.00  0.00     0.158 C 
HETATM   36  C28 UNL     1      19.219  -0.082 -22.300  1.00  0.00     0.069 A 
ATOM     37  H1  UNL     1      19.254   1.609 -21.092  1.00  0.00     0.168 HD
HETATM   38  C29 UNL     1      19.594  -0.971 -21.308  1.00  0.00     0.035 A 
HETATM   39  C33 UNL     1      18.951  -0.471 -23.610  1.00  0.00     0.122 A 
HETATM   40  C30 UNL     1      19.702  -2.298 -21.649  1.00  0.00     0.046 A 
HETATM   41  C31 UNL     1      19.441  -2.719 -22.956  1.00  0.00     0.141 A 
HETATM   42  F1  UNL     1      19.556  -4.032 -23.250  1.00  0.00    -0.204 F 
HETATM   43  C32 UNL     1      19.067  -1.805 -23.926  1.00  0.00     0.108 A 
HETATM   44 CL1  UNL     1      18.736  -2.323 -25.561  1.00  0.00    -0.078 Cl
HETATM   45  O6  UNL     1      18.580   0.508 -24.505  1.00  0.00    -0.325 OA
HETATM   46  C35 UNL     1      19.959   2.368 -25.083  1.00  0.00     0.059 C 
ENDBRANCH  28  31
ENDBRANCH  27  28
ENDBRANCH  25  27
ENDBRANCH  24  25
ENDBRANCH   9  24
BRANCH   4  47
HETATM   47  O1  UNL     1      17.574  11.481 -22.451  1.00  0.00    -0.395 OA
ATOM     48  H1  UNL     1      16.918  12.034 -22.044  1.00  0.00     0.210 HD
ENDBRANCH   4  47
TORSDOF 11
ENDMDL
MODEL 3
REMARK VINA RESULT: -7.913117213      4.517      7.900
REMARK  11 active torsions:
REMARK  status: ('A' for Active; 'I' for Inactive)
REMARK    1  A    between atoms: C2_2  and  C3_3 
REMARK    2  A    between atoms: C4_4  and  C5_5 
REMARK    3  A    between atoms: C8_8  and  O1_9 
REMARK    4  A    between atoms: C11_13  and  O2_14 
REMARK    5  A    between atoms: C11_13  and  C12_16 
REMARK    6  A    between atoms: C20_25  and  C21_26 
REMARK    7  A    between atoms: C21_26  and  C22_27 
REMARK    8  A    between atoms: C22_27  and  C24_29 
REMARK    9  A    between atoms: C24_29  and  C25_30 
REMARK   10  A    between atoms: C25_30  and  O4_31 
REMARK   11  A    between atoms: C25_30  and  C26_33 
ROOT
HETATM    1  C5  UNL     1      16.322   4.034 -17.451  1.00  0.00     0.046 C 
HETATM    2  C6  UNL     1      17.625   3.511 -17.007  1.00  0.00     0.023 C 
HETATM    3  C7  UNL     1      17.489   2.646 -15.734  1.00  0.00     0.014 C 
HETATM    4  C8  UNL     1      18.436   2.747 -17.984  1.00  0.00     0.130 C 
HETATM    5  C9  UNL     1      17.671   2.203 -19.135  1.00  0.00     0.052 C 
HETATM    6  C10 UNL     1      17.002   0.899 -18.829  1.00  0.00     0.016 C 
HETATM    7  C11 UNL     1      16.736   3.215 -19.798  1.00  0.00     0.117 C 
HETATM    8  C19 UNL     1      16.120   4.212 -18.964  1.00  0.00    -0.035 C 
HETATM    9  C20 UNL     1      15.906   5.601 -19.289  1.00  0.00     0.007 C 
ENDROOT
BRANCH   1  10
HETATM   10  C4  UNL     1      15.153   3.415 -16.795  1.00  0.00    -0.017 C 
HETATM   11  C3  UNL     1      14.190   4.031 -16.201  1.00  0.00    -0.004 C 
BRANCH  11  12
HETATM   12  C2  UNL     1      14.077   5.468 -16.065  1.00  0.00    -0.011 C 
HETATM   13  C1  UNL     1      13.205   6.136 -16.859  1.00  0.00     0.011 C 
ENDBRANCH  11  12
ENDBRANCH   1  10
BRANCH   7  14
HETATM   14  O2  UNL     1      15.673   2.352 -20.288  1.00  0.00    -0.382 OA
ATOM     15  H2  UNL     1      15.047   2.988 -20.616  1.00  0.00     0.211 HD
ENDBRANCH   7  14
BRANCH   7  16
HETATM   16  C12 UNL     1      17.427   3.660 -21.085  1.00  0.00     0.184 C 
HETATM   17  C13 UNL     1      18.605   2.853 -21.446  1.00  0.00     0.004 C 
HETATM   18  C14 UNL     1      19.014   2.761 -22.718  1.00  0.00    -0.025 C 
HETATM   19  C15 UNL     1      18.245   3.499 -23.742  1.00  0.00     0.064 C 
HETATM   20  C16 UNL     1      16.831   3.655 -23.354  1.00  0.00     0.058 C 
HETATM   21  C17 UNL     1      16.337   5.012 -23.898  1.00  0.00     0.046 C 
HETATM   22  C18 UNL     1      16.048   2.633 -24.216  1.00  0.00     0.046 C 
HETATM   23  O3  UNL     1      16.435   3.448 -22.086  1.00  0.00    -0.368 OA
ENDBRANCH   7  16
BRANCH   9  24
HETATM   24  C21 UNL     1      16.047   6.424 -20.243  1.00  0.00     0.007 C 
BRANCH  24  25
HETATM   25  C22 UNL     1      15.736   7.888 -20.063  1.00  0.00    -0.063 C 
HETATM   26  C23 UNL     1      16.237   8.575 -18.862  1.00  0.00     0.048 C 
BRANCH  25  27
HETATM   27  C24 UNL     1      15.031   8.453 -21.006  1.00  0.00     0.014 C 
BRANCH  27  28
HETATM   28  C25 UNL     1      15.502   8.750 -22.382  1.00  0.00     0.174 C 
BRANCH  28  29
HETATM   29  O4  UNL     1      14.678   7.965 -23.234  1.00  0.00    -0.389 OA
ATOM     30  H4  UNL     1      15.238   7.262 -23.541  1.00  0.00     0.210 HD
ENDBRANCH  28  29
BRANCH  28  31
HETATM   31  C26 UNL     1      15.186  10.180 -22.697  1.00  0.00     0.205 C 
HETATM   32  O5  UNL     1      16.129  11.125 -22.025  1.00  0.00    -0.325 OA
HETATM   33  C27 UNL     1      17.050  10.749 -23.055  1.00  0.00     0.157 C 
HETATM   34  N1  UNL     1      18.152  10.504 -23.573  1.00  0.00    -0.336 N 
HETATM   35  C34 UNL     1      15.795  10.697 -23.952  1.00  0.00     0.158 C 
HETATM   36  C28 UNL     1      18.410  10.063 -24.895  1.00  0.00     0.069 A 
ATOM     37  H1  UNL     1      18.969  10.635 -22.976  1.00  0.00     0.168 HD
HETATM   38  C29 UNL     1      19.698   9.874 -25.365  1.00  0.00     0.035 A 
HETATM   39  C33 UNL     1      17.276   9.852 -25.674  1.00  0.00     0.122 A 
HETATM   40  C30 UNL     1      19.847   9.457 -26.666  1.00  0.00     0.046 A 
HETATM   41  C31 UNL     1      18.728   9.238 -27.473  1.00  0.00     0.141 A 
HETATM   42  F1  UNL     1      18.916   8.826 -28.747  1.00  0.00    -0.204 F 
HETATM   43  C32 UNL     1      17.452   9.436 -26.974  1.00  0.00     0.108 A 
HETATM   44 CL1  UNL     1      16.048   9.161 -27.976  1.00  0.00    -0.078 Cl
HETATM   45  O6  UNL     1      16.048  10.069 -25.090  1.00  0.00    -0.325 OA
HETATM   46  C35 UNL     1      15.349  12.177 -24.214  1.00  0.00     0.059 C 
ENDBRANCH  28  31
ENDBRANCH  27  28
ENDBRANCH  25  27
ENDBRANCH  24  25
ENDBRANCH   9  24
BRANCH   4  47
HETATM   47  O1  UNL     1      19.029   1.640 -17.335  1.00  0.00    -0.395 OA
ATOM     48  H1  UNL     1      18.781   0.842 -17.785  1.00  0.00     0.210 HD
ENDBRANCH   4  47
TORSDOF 11
ENDMDL
MODEL 4
REMARK VINA RESULT: -7.862014308      1.566      2.411
REMARK  11 active torsions:
REMARK  status: ('A' for Active; 'I' for Inactive)
REMARK    1  A    between atoms: C2_2  and  C3_3 
REMARK    2  A    between atoms: C4_4  and  C5_5 
REMARK    3  A    between atoms: C8_8  and  O1_9 
REMARK    4  A    between atoms: C11_13  and  O2_14 
REMARK    5  A    between atoms: C11_13  and  C12_16 
REMARK    6  A    between atoms: C20_25  and  C21_26 
REMARK    7  A    between atoms: C21_26  and  C22_27 
REMARK    8  A    between atoms: C22_27  and  C24_29 
REMARK    9  A    between atoms: C24_29  and  C25_30 
REMARK   10  A    between atoms: C25_30  and  O4_31 
REMARK   11  A    between atoms: C25_30  and  C26_33 
ROOT
HETATM    1  C5  UNL     1      15.322   4.780 -17.066  1.00  0.00     0.046 C 
HETATM    2  C6  UNL     1      13.986   4.937 -16.468  1.00  0.00     0.023 C 
HETATM    3  C7  UNL     1      14.030   4.798 -14.930  1.00  0.00     0.014 C 
HETATM    4  C8  UNL     1      13.222   6.166 -16.785  1.00  0.00     0.130 C 
HETATM    5  C9  UNL     1      14.045   7.296 -17.287  1.00  0.00     0.052 C 
HETATM    6  C10 UNL     1      14.671   8.096 -16.186  1.00  0.00     0.016 C 
HETATM    7  C11 UNL     1      15.036   6.909 -18.385  1.00  0.00     0.117 C 
HETATM    8  C19 UNL     1      15.617   5.594 -18.336  1.00  0.00    -0.035 C 
HETATM    9  C20 UNL     1      15.874   4.719 -19.454  1.00  0.00     0.007 C 
ENDROOT
BRANCH   1  10
HETATM   10  C4  UNL     1      16.439   4.817 -16.101  1.00  0.00    -0.017 C 
HETATM   11  C3  UNL     1      17.359   3.927 -15.959  1.00  0.00    -0.004 C 
BRANCH  11  12
HETATM   12  C2  UNL     1      17.469   2.708 -16.732  1.00  0.00    -0.011 C 
HETATM   13  C1  UNL     1      18.423   2.622 -17.691  1.00  0.00     0.011 C 
ENDBRANCH  11  12
ENDBRANCH   1  10
BRANCH   7  14
HETATM   14  O2  UNL     1      16.111   7.860 -18.156  1.00  0.00    -0.382 OA
ATOM     15  H2  UNL     1      16.848   7.414 -18.556  1.00  0.00     0.211 HD
ENDBRANCH   7  14
BRANCH   7  16
HETATM   16  C12 UNL     1      14.431   7.395 -19.700  1.00  0.00     0.184 C 
HETATM   17  C13 UNL     1      13.306   8.332 -19.535  1.00  0.00     0.004 C 
HETATM   18  C14 UNL     1      12.996   9.212 -20.497  1.00  0.00    -0.025 C 
HETATM   19  C15 UNL     1      13.819   9.207 -21.724  1.00  0.00     0.064 C 
HETATM   20  C16 UNL     1      15.194   8.750 -21.456  1.00  0.00     0.058 C 
HETATM   21  C17 UNL     1      15.690   7.982 -22.700  1.00  0.00     0.046 C 
HETATM   22  C18 UNL     1      16.068  10.029 -21.471  1.00  0.00     0.046 C 
HETATM   23  O3  UNL     1      15.500   8.108 -20.315  1.00  0.00    -0.368 OA
ENDBRANCH   7  16
BRANCH   9  24
HETATM   24  C21 UNL     1      15.805   4.688 -20.719  1.00  0.00     0.007 C 
BRANCH  24  25
HETATM   25  C22 UNL     1      15.978   3.398 -21.479  1.00  0.00    -0.063 C 
HETATM   26  C23 UNL     1      16.124   2.146 -20.721  1.00  0.00     0.048 C 
BRANCH  25  27
HETATM   27  C24 UNL     1      15.986   3.488 -22.782  1.00  0.00     0.014 C 
BRANCH  27  28
HETATM   28  C25 UNL     1      16.392   2.415 -23.723  1.00  0.00     0.174 C 
BRANCH  28  29
HETATM   29  O4  UNL     1      15.372   2.384 -24.714  1.00  0.00    -0.389 OA
ATOM     30  H4  UNL     1      15.777   2.739 -25.497  1.00  0.00     0.210 HD
ENDBRANCH  28  29
BRANCH  28  31
HETATM   31  C26 UNL     1      17.644   2.842 -24.424  1.00  0.00     0.205 C 
HETATM   32  O5  UNL     1      18.597   3.531 -23.502  1.00  0.00    -0.325 OA
HETATM   33  C27 UNL     1      18.908   2.214 -23.033  1.00  0.00     0.157 C 
HETATM   34  N1  UNL     1      19.236   1.336 -22.218  1.00  0.00    -0.336 N 
HETATM   35  C34 UNL     1      18.705   1.803 -24.506  1.00  0.00     0.158 C 
HETATM   36  C28 UNL     1      19.349  -0.058 -22.445  1.00  0.00     0.069 A 
ATOM     37  H1  UNL     1      19.449   1.656 -21.273  1.00  0.00     0.168 HD
HETATM   38  C29 UNL     1      19.777  -0.928 -21.456  1.00  0.00     0.035 A 
HETATM   39  C33 UNL     1      19.012  -0.472 -23.730  1.00  0.00     0.122 A 
HETATM   40  C30 UNL     1      19.867  -2.261 -21.776  1.00  0.00     0.046 A 
HETATM   41  C31 UNL     1      19.536  -2.707 -23.058  1.00  0.00     0.141 A 
HETATM   42  F1  UNL     1      19.636  -4.027 -23.332  1.00  0.00    -0.204 F 
HETATM   43  C32 UNL     1      19.112  -1.813 -24.025  1.00  0.00     0.108 A 
HETATM   44 CL1  UNL     1      18.694  -2.363 -25.629  1.00  0.00    -0.078 Cl
HETATM   45  O6  UNL     1      18.594   0.488 -24.623  1.00  0.00    -0.325 OA
HETATM   46  C35 UNL     1      19.940   2.336 -25.311  1.00  0.00     0.059 C 
ENDBRANCH  28  31
ENDBRANCH  27  28
ENDBRANCH  25  27
ENDBRANCH  24  25
ENDBRANCH   9  24
BRANCH   4  47
HETATM   47  O1  UNL     1      12.572   6.627 -15.618  1.00  0.00    -0.395 OA
ATOM     48  H1  UNL     1      12.928   6.177 -14.861  1.00  0.00     0.210 HD
ENDBRANCH   4  47
TORSDOF 11
ENDMDL
MODEL 5
REMARK VINA RESULT: -7.792902546      1.444      4.602
REMARK  11 active torsions:
REMARK  status: ('A' for Active; 'I' for Inactive)
REMARK    1  A    between atoms: C2_2  and  C3_3 
REMARK    2  A    between atoms: C4_4  and  C5_5 
REMARK    3  A    between atoms: C8_8  and  O1_9 
REMARK    4  A    between atoms: C11_13  and  O2_14 
REMARK    5  A    between atoms: C11_13  and  C12_16 
REMARK    6  A    between atoms: C20_25  and  C21_26 
REMARK    7  A    between atoms: C21_26  and  C22_27 
REMARK    8  A    between atoms: C22_27  and  C24_29 
REMARK    9  A    between atoms: C24_29  and  C25_30 
REMARK   10  A    between atoms: C25_30  and  O4_31 
REMARK   11  A    between atoms: C25_30  and  C26_33 
ROOT
HETATM    1  C5  UNL     1      14.889   7.338 -18.917  1.00  0.00     0.046 C 
HETATM    2  C6  UNL     1      15.775   7.936 -17.906  1.00  0.00     0.023 C 
HETATM    3  C7  UNL     1      15.044   9.010 -17.069  1.00  0.00     0.014 C 
HETATM    4  C8  UNL     1      16.466   7.027 -16.961  1.00  0.00     0.130 C 
HETATM    5  C9  UNL     1      15.852   5.680 -16.836  1.00  0.00     0.052 C 
HETATM    6  C10 UNL     1      14.710   5.646 -15.868  1.00  0.00     0.016 C 
HETATM    7  C11 UNL     1      15.524   5.015 -18.173  1.00  0.00     0.117 C 
HETATM    8  C19 UNL     1      15.127   5.860 -19.267  1.00  0.00    -0.035 C 
HETATM    9  C20 UNL     1      15.505   5.719 -20.652  1.00  0.00     0.007 C 
ENDROOT
BRANCH   1  10
HETATM   10  C4  UNL     1      13.456   7.653 -18.747  1.00  0.00    -0.017 C 
HETATM   11  C3  UNL     1      12.705   8.287 -19.579  1.00  0.00    -0.004 C 
BRANCH  11  12
HETATM   12  C2  UNL     1      13.136   8.815 -20.857  1.00  0.00    -0.011 C 
HETATM   13  C1  UNL     1      13.398  10.140 -20.965  1.00  0.00     0.011 C 
ENDBRANCH  11  12
ENDBRANCH   1  10
BRANCH   7  14
HETATM   14  O2  UNL     1      14.371   4.203 -17.820  1.00  0.00    -0.382 OA
ATOM     15  H2  UNL     1      14.777   3.502 -17.322  1.00  0.00     0.211 HD
ENDBRANCH   7  14
BRANCH   7  16
HETATM   16  C12 UNL     1      16.610   3.969 -18.411  1.00  0.00     0.184 C 
HETATM   17  C13 UNL     1      17.396   3.634 -17.212  1.00  0.00     0.004 C 
HETATM   18  C14 UNL     1      18.009   2.447 -17.099  1.00  0.00    -0.025 C 
HETATM   19  C15 UNL     1      17.871   1.493 -18.219  1.00  0.00     0.064 C 
HETATM   20  C16 UNL     1      16.601   1.685 -18.944  1.00  0.00     0.058 C 
HETATM   21  C17 UNL     1      16.852   1.364 -20.433  1.00  0.00     0.046 C 
HETATM   22  C18 UNL     1      15.684   0.521 -18.492  1.00  0.00     0.046 C 
HETATM   23  O3  UNL     1      15.877   2.807 -18.787  1.00  0.00    -0.368 OA
ENDBRANCH   7  16
BRANCH   9  24
HETATM   24  C21 UNL     1      16.151   4.950 -21.425  1.00  0.00     0.007 C 
BRANCH  24  25
HETATM   25  C22 UNL     1      16.075   5.104 -22.922  1.00  0.00    -0.063 C 
HETATM   26  C23 UNL     1      16.448   6.395 -23.520  1.00  0.00     0.048 C 
BRANCH  25  27
HETATM   27  C24 UNL     1      15.676   4.058 -23.595  1.00  0.00     0.014 C 
BRANCH  27  28
HETATM   28  C25 UNL     1      16.461   2.819 -23.821  1.00  0.00     0.174 C 
BRANCH  28  29
HETATM   29  O4  UNL     1      15.632   1.995 -24.630  1.00  0.00    -0.389 OA
ATOM     30  H4  UNL     1      16.125   1.855 -25.429  1.00  0.00     0.210 HD
ENDBRANCH  28  29
BRANCH  28  31
HETATM   31  C26 UNL     1      17.657   3.157 -24.656  1.00  0.00     0.205 C 
HETATM   32  O5  UNL     1      18.737   3.809 -23.854  1.00  0.00    -0.325 OA
HETATM   33  C27 UNL     1      19.020   2.487 -23.381  1.00  0.00     0.157 C 
HETATM   34  N1  UNL     1      19.379   1.611 -22.579  1.00  0.00    -0.336 N 
HETATM   35  C34 UNL     1      18.645   2.056 -24.814  1.00  0.00     0.158 C 
HETATM   36  C28 UNL     1      19.391   0.207 -22.776  1.00  0.00     0.069 A 
ATOM     37  H1  UNL     1      19.705   1.939 -21.670  1.00  0.00     0.168 HD
HETATM   38  C29 UNL     1      19.868  -0.663 -21.811  1.00  0.00     0.035 A 
HETATM   39  C33 UNL     1      18.902  -0.215 -24.008  1.00  0.00     0.122 A 
HETATM   40  C30 UNL     1      19.850  -2.007 -22.100  1.00  0.00     0.046 A 
HETATM   41  C31 UNL     1      19.366  -2.462 -23.330  1.00  0.00     0.141 A 
HETATM   42  F1  UNL     1      19.364  -3.791 -23.575  1.00  0.00    -0.204 F 
HETATM   43  C32 UNL     1      18.896  -1.566 -24.274  1.00  0.00     0.108 A 
HETATM   44 CL1  UNL     1      18.286  -2.127 -25.812  1.00  0.00    -0.078 Cl
HETATM   45  O6  UNL     1      18.449   0.747 -24.882  1.00  0.00    -0.325 OA
HETATM   46  C35 UNL     1      19.819   2.497 -25.754  1.00  0.00     0.059 C 
ENDBRANCH  28  31
ENDBRANCH  27  28
ENDBRANCH  25  27
ENDBRANCH  24  25
ENDBRANCH   9  24
BRANCH   4  47
HETATM   47  O1  UNL     1      16.455   7.598 -15.669  1.00  0.00    -0.395 OA
ATOM     48  H1  UNL     1      15.869   7.100 -15.111  1.00  0.00     0.210 HD
ENDBRANCH   4  47
TORSDOF 11
ENDMDL
