MODEL 1
REMARK VINA RESULT: -6.518414485      0.000      0.000
REMARK  6 active torsions:
REMARK  status: ('A' for Active; 'I' for Inactive)
REMARK    1  A    between atoms: C2_2  and  N1_5 
REMARK    2  A    between atoms: C5_9  and  C6_10 
REMARK    3  A    between atoms: C6_10  and  N3_11 
REMARK    4  A    between atoms: N3_11  and  C7_12 
REMARK    5  A    between atoms: C7_12  and  O1_13 
REMARK    6  A    between atoms: C7_12  and  C8_15 
ROOT
HETATM    1  C6  UNL     1      24.334   0.413 -12.419  1.00  0.00     0.218 C 
ENDROOT
BRANCH   1   2
HETATM    2  C5  UNL     1      25.559   0.408 -11.598  1.00  0.00     0.095 A 
HETATM    3  C4  UNL     1      26.861   0.148 -12.118  1.00  0.00     0.142 A 
HETATM    4  N2  UNL     1      27.729   0.166 -11.140  1.00  0.00    -0.292 N 
HETATM    5  N1  UNL     1      27.079   0.421  -9.993  1.00  0.00    -0.214 N 
ATOM      6  H2  UNL     1      28.733   0.013 -11.234  1.00  0.00     0.188 HD
HETATM    7  N4  UNL     1      25.782   0.560 -10.308  1.00  0.00    -0.279 N 
ATOM      8  H4  UNL     1      25.051   0.761  -9.627  1.00  0.00     0.189 HD
BRANCH   5   9
HETATM    9  C2  UNL     1      27.685   0.500  -8.714  1.00  0.00     0.120 C 
HETATM   10  C1  UNL     1      27.315   1.796  -7.988  1.00  0.00     0.055 C 
HETATM   11  C3  UNL     1      29.185   0.431  -8.728  1.00  0.00     0.055 C 
HETATM   12 BR1  UNL     1      27.048  -1.025  -7.667  1.00  0.00    -0.059 Br
ENDBRANCH   5   9
ENDBRANCH   1   2
BRANCH   1  13
HETATM   13  N3  UNL     1      23.325  -0.396 -11.933  1.00  0.00    -0.389 NA
BRANCH  13  14
HETATM   14  C7  UNL     1      22.355  -1.169 -11.473  1.00  0.00     0.248 C 
BRANCH  14  15
HETATM   15  O1  UNL     1      22.441  -2.514 -11.677  1.00  0.00    -0.333 OA
ATOM     16  H1  UNL     1      22.106  -3.098 -11.007  1.00  0.00     0.220 HD
ENDBRANCH  14  15
BRANCH  14  17
HETATM   17  C8  UNL     1      21.124  -0.802 -10.731  1.00  0.00     0.144 A 
HETATM   18  C9  UNL     1      20.707   0.553 -10.571  1.00  0.00     0.070 A 
HETATM   19  C10 UNL     1      19.560   0.488  -9.873  1.00  0.00     0.082 A 
HETATM   20 CL1  UNL     1      18.531   1.832  -9.344  1.00  0.00    -0.080 Cl
HETATM   21  C11 UNL     1      19.261  -0.841  -9.598  1.00  0.00     0.167 A 
HETATM   22 CL2  UNL     1      17.878  -1.419  -8.712  1.00  0.00    -0.055 Cl
HETATM   23  O2  UNL     1      20.242  -1.522 -10.145  1.00  0.00    -0.291 OA
ENDBRANCH  14  17
ENDBRANCH  13  14
ENDBRANCH   1  13
TORSDOF 6
ENDMDL
MODEL 2
REMARK VINA RESULT: -6.285515025      0.575      1.347
REMARK  6 active torsions:
REMARK  status: ('A' for Active; 'I' for Inactive)
REMARK    1  A    between atoms: C2_2  and  N1_5 
REMARK    2  A    between atoms: C5_9  and  C6_10 
REMARK    3  A    between atoms: C6_10  and  N3_11 
REMARK    4  A    between atoms: N3_11  and  C7_12 
REMARK    5  A    between atoms: C7_12  and  O1_13 
REMARK    6  A    between atoms: C7_12  and  C8_15 
ROOT
HETATM    1  C6  UNL     1      24.413   0.437 -12.451  1.00  0.00     0.218 C 
ENDROOT
BRANCH   1   2
HETATM    2  C5  UNL     1      25.630   0.435 -11.619  1.00  0.00     0.095 A 
HETATM    3  C4  UNL     1      26.942   0.220 -12.132  1.00  0.00     0.142 A 
HETATM    4  N2  UNL     1      27.800   0.228 -11.146  1.00  0.00    -0.292 N 
HETATM    5  N1  UNL     1      27.133   0.433  -9.998  1.00  0.00    -0.214 N 
ATOM      6  H2  UNL     1      28.808   0.100 -11.234  1.00  0.00     0.188 HD
HETATM    7  N4  UNL     1      25.837   0.552 -10.323  1.00  0.00    -0.279 N 
ATOM      8  H4  UNL     1      25.095   0.715  -9.643  1.00  0.00     0.189 HD
BRANCH   5   9
HETATM    9  C2  UNL     1      27.725   0.485  -8.711  1.00  0.00     0.120 C 
HETATM   10  C1  UNL     1      27.363   1.776  -7.971  1.00  0.00     0.055 C 
HETATM   11  C3  UNL     1      29.225   0.399  -8.708  1.00  0.00     0.055 C 
HETATM   12 BR1  UNL     1      27.057  -1.046  -7.694  1.00  0.00    -0.059 Br
ENDBRANCH   5   9
ENDBRANCH   1   2
BRANCH   1  13
HETATM   13  N3  UNL     1      23.403  -0.378 -11.979  1.00  0.00    -0.389 NA
BRANCH  13  14
HETATM   14  C7  UNL     1      22.433  -1.159 -11.532  1.00  0.00     0.248 C 
BRANCH  14  15
HETATM   15  O1  UNL     1      22.566  -2.508 -11.668  1.00  0.00    -0.333 OA
ATOM     16  H1  UNL     1      23.010  -2.993 -10.983  1.00  0.00     0.220 HD
ENDBRANCH  14  15
BRANCH  14  17
HETATM   17  C8  UNL     1      21.156  -0.796 -10.868  1.00  0.00     0.144 A 
HETATM   18  C9  UNL     1      20.164  -1.768 -10.542  1.00  0.00     0.070 A 
HETATM   19  C10 UNL     1      19.178  -1.079  -9.945  1.00  0.00     0.082 A 
HETATM   20 CL1  UNL     1      17.651  -1.704  -9.296  1.00  0.00    -0.080 Cl
HETATM   21  C11 UNL     1      19.520   0.268  -9.894  1.00  0.00     0.167 A 
HETATM   22 CL2  UNL     1      18.553   1.547  -9.217  1.00  0.00    -0.055 Cl
HETATM   23  O2  UNL     1      20.702   0.331 -10.463  1.00  0.00    -0.291 OA
ENDBRANCH  14  17
ENDBRANCH  13  14
ENDBRANCH   1  13
TORSDOF 6
ENDMDL
MODEL 3
REMARK VINA RESULT: -6.239383514      1.705      2.090
REMARK  6 active torsions:
REMARK  status: ('A' for Active; 'I' for Inactive)
REMARK    1  A    between atoms: C2_2  and  N1_5 
REMARK    2  A    between atoms: C5_9  and  C6_10 
REMARK    3  A    between atoms: C6_10  and  N3_11 
REMARK    4  A    between atoms: N3_11  and  C7_12 
REMARK    5  A    between atoms: C7_12  and  O1_13 
REMARK    6  A    between atoms: C7_12  and  C8_15 
ROOT
HETATM    1  C6  UNL     1      23.938   0.046 -12.176  1.00  0.00     0.218 C 
ENDROOT
BRANCH   1   2
HETATM    2  C5  UNL     1      25.221   0.353 -11.518  1.00  0.00     0.095 A 
HETATM    3  C4  UNL     1      26.413   0.694 -12.221  1.00  0.00     0.142 A 
HETATM    4  N2  UNL     1      27.388   0.861 -11.367  1.00  0.00    -0.292 N 
HETATM    5  N1  UNL     1      26.915   0.647 -10.128  1.00  0.00    -0.214 N 
ATOM      6  H2  UNL     1      28.348   1.113 -11.602  1.00  0.00     0.188 HD
HETATM    7  N4  UNL     1      25.614   0.345 -10.260  1.00  0.00    -0.279 N 
ATOM      8  H4  UNL     1      24.999   0.134  -9.475  1.00  0.00     0.189 HD
BRANCH   5   9
HETATM    9  C2  UNL     1      27.685   0.717  -8.940  1.00  0.00     0.120 C 
HETATM   10  C1  UNL     1      27.437   2.022  -8.178  1.00  0.00     0.055 C 
HETATM   11  C3  UNL     1      29.169   0.620  -9.149  1.00  0.00     0.055 C 
HETATM   12 BR1  UNL     1      27.162  -0.793  -7.811  1.00  0.00    -0.059 Br
ENDBRANCH   5   9
ENDBRANCH   1   2
BRANCH   1  13
HETATM   13  N3  UNL     1      23.108  -0.779 -11.442  1.00  0.00    -0.389 NA
BRANCH  13  14
HETATM   14  C7  UNL     1      22.317  -1.568 -10.733  1.00  0.00     0.248 C 
BRANCH  14  15
HETATM   15  O1  UNL     1      22.769  -2.041  -9.537  1.00  0.00    -0.333 OA
ATOM     16  H1  UNL     1      22.497  -2.907  -9.258  1.00  0.00     0.220 HD
ENDBRANCH  14  15
BRANCH  14  17
HETATM   17  C8  UNL     1      20.947  -2.050 -11.033  1.00  0.00     0.144 A 
HETATM   18  C9  UNL     1      19.855  -1.845 -10.139  1.00  0.00     0.070 A 
HETATM   19  C10 UNL     1      18.790  -2.393 -10.751  1.00  0.00     0.082 A 
HETATM   20 CL1  UNL     1      17.119  -2.471 -10.164  1.00  0.00    -0.080 Cl
HETATM   21  C11 UNL     1      19.184  -2.923 -11.974  1.00  0.00     0.167 A 
HETATM   22 CL2  UNL     1      18.153  -3.739 -13.116  1.00  0.00    -0.055 Cl
HETATM   23  O2  UNL     1      20.470  -2.671 -12.047  1.00  0.00    -0.291 OA
ENDBRANCH  14  17
ENDBRANCH  13  14
ENDBRANCH   1  13
TORSDOF 6
ENDMDL
MODEL 4
REMARK VINA RESULT: -6.079102068      1.572      2.056
REMARK  6 active torsions:
REMARK  status: ('A' for Active; 'I' for Inactive)
REMARK    1  A    between atoms: C2_2  and  N1_5 
REMARK    2  A    between atoms: C5_9  and  C6_10 
REMARK    3  A    between atoms: C6_10  and  N3_11 
REMARK    4  A    between atoms: N3_11  and  C7_12 
REMARK    5  A    between atoms: C7_12  and  O1_13 
REMARK    6  A    between atoms: C7_12  and  C8_15 
ROOT
HETATM    1  C6  UNL     1      24.071   0.006 -12.143  1.00  0.00     0.218 C 
ENDROOT
BRANCH   1   2
HETATM    2  C5  UNL     1      25.370   0.204 -11.473  1.00  0.00     0.095 A 
HETATM    3  C4  UNL     1      26.621   0.227 -12.157  1.00  0.00     0.142 A 
HETATM    4  N2  UNL     1      27.587   0.371 -11.289  1.00  0.00    -0.292 N 
HETATM    5  N1  UNL     1      27.052   0.442 -10.058  1.00  0.00    -0.214 N 
ATOM      6  H2  UNL     1      28.581   0.421 -11.509  1.00  0.00     0.188 HD
HETATM    7  N4  UNL     1      25.723   0.339 -10.211  1.00  0.00    -0.279 N 
ATOM      8  H4  UNL     1      25.060   0.361  -9.436  1.00  0.00     0.189 HD
BRANCH   5   9
HETATM    9  C2  UNL     1      27.791   0.579  -8.857  1.00  0.00     0.120 C 
HETATM   10  C1  UNL     1      27.459   1.887  -8.132  1.00  0.00     0.055 C 
HETATM   11  C3  UNL     1      29.282   0.556  -9.033  1.00  0.00     0.055 C 
HETATM   12 BR1  UNL     1      27.322  -0.929  -7.703  1.00  0.00    -0.059 Br
ENDBRANCH   5   9
ENDBRANCH   1   2
BRANCH   1  13
HETATM   13  N3  UNL     1      23.014  -0.199 -11.278  1.00  0.00    -0.389 NA
BRANCH  13  14
HETATM   14  C7  UNL     1      22.005  -0.394 -10.444  1.00  0.00     0.248 C 
BRANCH  14  15
HETATM   15  O1  UNL     1      22.055   0.186  -9.212  1.00  0.00    -0.333 OA
ATOM     16  H1  UNL     1      21.844   1.109  -9.136  1.00  0.00     0.220 HD
ENDBRANCH  14  15
BRANCH  14  17
HETATM   17  C8  UNL     1      20.760  -1.178 -10.634  1.00  0.00     0.144 A 
HETATM   18  C9  UNL     1      20.552  -2.013 -11.772  1.00  0.00     0.070 A 
HETATM   19  C10 UNL     1      19.341  -2.567 -11.586  1.00  0.00     0.082 A 
HETATM   20 CL1  UNL     1      18.493  -3.709 -12.644  1.00  0.00    -0.080 Cl
HETATM   21  C11 UNL     1      18.801  -2.106 -10.391  1.00  0.00     0.167 A 
HETATM   22 CL2  UNL     1      17.249  -2.540  -9.732  1.00  0.00    -0.055 Cl
HETATM   23  O2  UNL     1      19.713  -1.294  -9.906  1.00  0.00    -0.291 OA
ENDBRANCH  14  17
ENDBRANCH  13  14
ENDBRANCH   1  13
TORSDOF 6
ENDMDL
MODEL 5
REMARK VINA RESULT: -6.008645878      0.976      1.708
REMARK  6 active torsions:
REMARK  status: ('A' for Active; 'I' for Inactive)
REMARK    1  A    between atoms: C2_2  and  N1_5 
REMARK    2  A    between atoms: C5_9  and  C6_10 
REMARK    3  A    between atoms: C6_10  and  N3_11 
REMARK    4  A    between atoms: N3_11  and  C7_12 
REMARK    5  A    between atoms: C7_12  and  O1_13 
REMARK    6  A    between atoms: C7_12  and  C8_15 
ROOT
HETATM    1  C6  UNL     1      24.399   0.386 -12.463  1.00  0.00     0.218 C 
ENDROOT
BRANCH   1   2
HETATM    2  C5  UNL     1      25.615   0.364 -11.627  1.00  0.00     0.095 A 
HETATM    3  C4  UNL     1      26.919   0.085 -12.130  1.00  0.00     0.142 A 
HETATM    4  N2  UNL     1      27.775   0.091 -11.142  1.00  0.00    -0.292 N 
HETATM    5  N1  UNL     1      27.114   0.356 -10.003  1.00  0.00    -0.214 N 
ATOM      6  H2  UNL     1      28.778  -0.076 -11.224  1.00  0.00     0.188 HD
HETATM    7  N4  UNL     1      25.824   0.514 -10.335  1.00  0.00    -0.279 N 
ATOM      8  H4  UNL     1      25.087   0.725  -9.662  1.00  0.00     0.189 HD
BRANCH   5   9
HETATM    9  C2  UNL     1      27.706   0.427  -8.717  1.00  0.00     0.120 C 
HETATM   10  C1  UNL     1      29.233   0.361  -8.789  1.00  0.00     0.055 C 
HETATM   11  C3  UNL     1      27.277  -0.659  -7.771  1.00  0.00     0.055 C 
HETATM   12 BR1  UNL     1      27.174   2.131  -7.918  1.00  0.00    -0.059 Br
ENDBRANCH   5   9
ENDBRANCH   1   2
BRANCH   1  13
HETATM   13  N3  UNL     1      23.373  -0.407 -11.989  1.00  0.00    -0.389 NA
BRANCH  13  14
HETATM   14  C7  UNL     1      22.388  -1.169 -11.542  1.00  0.00     0.248 C 
BRANCH  14  15
HETATM   15  O1  UNL     1      22.488  -2.520 -11.692  1.00  0.00    -0.333 OA
ATOM     16  H1  UNL     1      21.761  -3.064 -11.413  1.00  0.00     0.220 HD
ENDBRANCH  14  15
BRANCH  14  17
HETATM   17  C8  UNL     1      21.126  -0.783 -10.864  1.00  0.00     0.144 A 
HETATM   18  C9  UNL     1      20.135  -1.740 -10.497  1.00  0.00     0.070 A 
HETATM   19  C10 UNL     1      19.163  -1.030  -9.898  1.00  0.00     0.082 A 
HETATM   20 CL1  UNL     1      17.645  -1.631  -9.207  1.00  0.00    -0.080 Cl
HETATM   21  C11 UNL     1      19.515   0.314  -9.886  1.00  0.00     0.167 A 
HETATM   22 CL2  UNL     1      18.568   1.616  -9.222  1.00  0.00    -0.055 Cl
HETATM   23  O2  UNL     1      20.687   0.356 -10.478  1.00  0.00    -0.291 OA
ENDBRANCH  14  17
ENDBRANCH  13  14
ENDBRANCH   1  13
TORSDOF 6
ENDMDL
