MODEL 1
REMARK VINA RESULT: -2.330223225      0.000      0.000
REMARK  6 active torsions:
REMARK  status: ('A' for Active; 'I' for Inactive)
REMARK    1  A    between atoms: N1_4  and  C4_5 
REMARK    2  A    between atoms: C6_11  and  C7_12 
REMARK    3  A    between atoms: C8_13  and  C9_14 
REMARK    4  A    between atoms: C9_14  and  C10_16 
REMARK    5  A    between atoms: C11_20  and  O1_21 
REMARK    6  A    between atoms: O1_21  and  C12_22 
ROOT
HETATM    1  C4  UNL     1      25.652   1.093 -11.299  1.00  0.00     0.141 A 
HETATM    2  N2  UNL     1      25.566   1.756 -12.492  1.00  0.00    -0.336 N 
ATOM      3  H2  UNL     1      26.322   2.391 -12.748  1.00  0.00     0.168 HD
HETATM    4  C5  UNL     1      24.551   1.617 -13.334  1.00  0.00     0.183 A 
HETATM    5  N3  UNL     1      23.561   0.790 -13.003  1.00  0.00    -0.343 N 
ATOM      6  H3  UNL     1      22.772   0.671 -13.638  1.00  0.00     0.167 HD
HETATM    7  C6  UNL     1      23.586   0.100 -11.826  1.00  0.00     0.125 A 
HETATM    8  C11 UNL     1      24.618   0.239 -10.972  1.00  0.00     0.148 A 
ENDROOT
BRANCH   1   9
HETATM    9  N1  UNL     1      26.801   1.328 -10.509  1.00  0.00    -0.361 N 
HETATM   10  C3  UNL     1      26.694   1.865  -9.202  1.00  0.00     0.149 C 
HETATM   11  C2  UNL     1      27.992   2.018  -8.477  1.00  0.00     0.090 C 
HETATM   12  C1  UNL     1      27.749   1.669  -7.010  1.00  0.00     0.033 C 
HETATM   13  N4  UNL     1      29.079   1.220  -8.915  1.00  0.00    -0.414 N 
HETATM   14  C19 UNL     1      28.827   0.260  -9.933  1.00  0.00     0.134 C 
ATOM     15  H4  UNL     1      30.011   1.331  -8.513  1.00  0.00     0.153 HD
HETATM   16  C18 UNL     1      28.090   1.002 -11.059  1.00  0.00     0.143 C 
ENDBRANCH   1   9
BRANCH   8  17
HETATM   17  O1  UNL     1      24.669  -0.444  -9.779  1.00  0.00    -0.339 OA
BRANCH  17  18
HETATM   18  C12 UNL     1      25.761  -0.928  -9.088  1.00  0.00     0.129 C 
HETATM   19  C13 UNL     1      25.406  -1.259  -7.625  1.00  0.00     0.032 C 
HETATM   20  C14 UNL     1      26.719  -1.300  -6.879  1.00  0.00     0.002 C 
HETATM   21  C15 UNL     1      27.663  -2.305  -7.460  1.00  0.00     0.000 C 
HETATM   22  C16 UNL     1      27.754  -2.313  -8.941  1.00  0.00     0.002 C 
HETATM   23  C17 UNL     1      26.398  -2.188  -9.617  1.00  0.00     0.032 C 
ENDBRANCH  17  18
ENDBRANCH   8  17
BRANCH   7  24
HETATM   24  C7  UNL     1      22.412  -0.705 -11.523  1.00  0.00    -0.043 C 
HETATM   25  C8  UNL     1      21.401  -1.322 -11.269  1.00  0.00    -0.053 C 
BRANCH  25  26
HETATM   26  C9  UNL     1      20.152  -2.009 -10.964  1.00  0.00     0.356 C 
HETATM   27  F1  UNL     1      20.278  -2.795  -9.826  1.00  0.00    -0.226 F 
BRANCH  26  28
HETATM   28  C10 UNL     1      19.061  -1.042 -10.722  1.00  0.00     0.429 C 
HETATM   29  F2  UNL     1      17.905  -1.594 -11.319  1.00  0.00    -0.167 F 
HETATM   30  F3  UNL     1      18.788  -0.960  -9.353  1.00  0.00    -0.167 F 
HETATM   31  F4  UNL     1      19.216   0.201 -11.246  1.00  0.00    -0.167 F 
ENDBRANCH  26  28
ENDBRANCH  25  26
ENDBRANCH   7  24
TORSDOF 6
ENDMDL
MODEL 2
REMARK VINA RESULT: -1.655842999      0.672      1.227
REMARK  6 active torsions:
REMARK  status: ('A' for Active; 'I' for Inactive)
REMARK    1  A    between atoms: N1_4  and  C4_5 
REMARK    2  A    between atoms: C6_11  and  C7_12 
REMARK    3  A    between atoms: C8_13  and  C9_14 
REMARK    4  A    between atoms: C9_14  and  C10_16 
REMARK    5  A    between atoms: C11_20  and  O1_21 
REMARK    6  A    between atoms: O1_21  and  C12_22 
ROOT
HETATM    1  C4  UNL     1      25.531   1.069 -11.471  1.00  0.00     0.141 A 
HETATM    2  N2  UNL     1      25.442   1.613 -12.723  1.00  0.00    -0.336 N 
ATOM      3  H2  UNL     1      26.255   2.103 -13.095  1.00  0.00     0.168 HD
HETATM    4  C5  UNL     1      24.355   1.538 -13.477  1.00  0.00     0.183 A 
HETATM    5  N3  UNL     1      23.290   0.900 -12.993  1.00  0.00    -0.343 N 
ATOM      6  H3  UNL     1      22.445   0.832 -13.559  1.00  0.00     0.167 HD
HETATM    7  C6  UNL     1      23.314   0.337 -11.750  1.00  0.00     0.125 A 
HETATM    8  C11 UNL     1      24.419   0.411 -10.985  1.00  0.00     0.148 A 
ENDROOT
BRANCH   1   9
HETATM    9  N1  UNL     1      26.760   1.215 -10.787  1.00  0.00    -0.361 N 
HETATM   10  C3  UNL     1      26.815   1.788  -9.492  1.00  0.00     0.149 C 
HETATM   11  C2  UNL     1      28.179   1.837  -8.883  1.00  0.00     0.090 C 
HETATM   12  C1  UNL     1      28.033   1.543  -7.391  1.00  0.00     0.033 C 
HETATM   13  N4  UNL     1      29.149   0.934  -9.387  1.00  0.00    -0.414 N 
HETATM   14  C19 UNL     1      28.725  -0.021 -10.352  1.00  0.00     0.134 C 
ATOM     15  H4  UNL     1      30.117   0.968  -9.069  1.00  0.00     0.153 HD
HETATM   16  C18 UNL     1      27.963   0.761 -11.434  1.00  0.00     0.143 C 
ENDBRANCH   1   9
BRANCH   8  17
HETATM   17  O1  UNL     1      24.470  -0.147  -9.729  1.00  0.00    -0.339 OA
BRANCH  17  18
HETATM   18  C12 UNL     1      25.535  -0.720  -9.063  1.00  0.00     0.129 C 
HETATM   19  C13 UNL     1      25.175  -1.063  -7.604  1.00  0.00     0.032 C 
HETATM   20  C14 UNL     1      26.490  -1.210  -6.876  1.00  0.00     0.002 C 
HETATM   21  C15 UNL     1      27.358  -2.261  -7.492  1.00  0.00     0.000 C 
HETATM   22  C16 UNL     1      27.433  -2.238  -8.975  1.00  0.00     0.002 C 
HETATM   23  C17 UNL     1      26.080  -2.006  -9.631  1.00  0.00     0.032 C 
ENDBRANCH  17  18
ENDBRANCH   8  17
BRANCH   7  24
HETATM   24  C7  UNL     1      22.068  -0.256 -11.285  1.00  0.00    -0.043 C 
HETATM   25  C8  UNL     1      21.010  -0.691 -10.888  1.00  0.00    -0.053 C 
BRANCH  25  26
HETATM   26  C9  UNL     1      19.715  -1.154 -10.404  1.00  0.00     0.356 C 
HETATM   27  F1  UNL     1      18.719  -0.223 -10.669  1.00  0.00    -0.226 F 
BRANCH  26  28
HETATM   28  C10 UNL     1      19.329  -2.422 -11.056  1.00  0.00     0.429 C 
HETATM   29  F2  UNL     1      19.213  -3.379 -10.022  1.00  0.00    -0.167 F 
HETATM   30  F3  UNL     1      18.053  -2.303 -11.617  1.00  0.00    -0.167 F 
HETATM   31  F4  UNL     1      20.197  -2.933 -11.966  1.00  0.00    -0.167 F 
ENDBRANCH  26  28
ENDBRANCH  25  26
ENDBRANCH   7  24
TORSDOF 6
ENDMDL
MODEL 3
REMARK VINA RESULT: 0.504743829      4.046      6.747
REMARK  6 active torsions:
REMARK  status: ('A' for Active; 'I' for Inactive)
REMARK    1  A    between atoms: N1_4  and  C4_5 
REMARK    2  A    between atoms: C6_11  and  C7_12 
REMARK    3  A    between atoms: C8_13  and  C9_14 
REMARK    4  A    between atoms: C9_14  and  C10_16 
REMARK    5  A    between atoms: C11_20  and  O1_21 
REMARK    6  A    between atoms: O1_21  and  C12_22 
ROOT
HETATM    1  C4  UNL     1      23.173   0.083 -11.540  1.00  0.00     0.141 A 
HETATM    2  N2  UNL     1      23.194   0.551 -12.826  1.00  0.00    -0.336 N 
ATOM      3  H2  UNL     1      22.392   0.354 -13.424  1.00  0.00     0.168 HD
HETATM    4  C5  UNL     1      24.202   1.245 -13.334  1.00  0.00     0.183 A 
HETATM    5  N3  UNL     1      25.251   1.502 -12.555  1.00  0.00    -0.343 N 
ATOM      6  H3  UNL     1      26.036   2.035 -12.929  1.00  0.00     0.167 HD
HETATM    7  C6  UNL     1      25.293   1.062 -11.264  1.00  0.00     0.125 A 
HETATM    8  C11 UNL     1      24.268   0.359 -10.746  1.00  0.00     0.148 A 
ENDROOT
BRANCH   1   9
HETATM    9  N1  UNL     1      22.024  -0.631 -11.130  1.00  0.00    -0.361 N 
HETATM   10  C3  UNL     1      20.904   0.038 -10.575  1.00  0.00     0.149 C 
HETATM   11  C2  UNL     1      19.751  -0.847 -10.227  1.00  0.00     0.090 C 
HETATM   12  C1  UNL     1      18.467  -0.091 -10.565  1.00  0.00     0.033 C 
HETATM   13  N4  UNL     1      19.674  -2.102 -10.883  1.00  0.00    -0.414 N 
HETATM   14  C19 UNL     1      20.632  -2.379 -11.896  1.00  0.00     0.134 C 
ATOM     15  H4  UNL     1      18.956  -2.783 -10.636  1.00  0.00     0.153 HD
HETATM   16  C18 UNL     1      22.009  -2.061 -11.294  1.00  0.00     0.143 C 
ENDBRANCH   1   9
BRANCH   8  17
HETATM   17  O1  UNL     1      24.283  -0.097  -9.449  1.00  0.00    -0.339 OA
BRANCH  17  18
HETATM   18  C12 UNL     1      25.174  -0.947  -8.826  1.00  0.00     0.129 C 
HETATM   19  C13 UNL     1      26.253  -1.456  -9.801  1.00  0.00     0.032 C 
HETATM   20  C14 UNL     1      26.835  -2.697  -9.167  1.00  0.00     0.002 C 
HETATM   21  C15 UNL     1      27.403  -2.419  -7.811  1.00  0.00     0.000 C 
HETATM   22  C16 UNL     1      26.565  -1.568  -6.930  1.00  0.00     0.002 C 
HETATM   23  C17 UNL     1      25.951  -0.385  -7.662  1.00  0.00     0.032 C 
ENDBRANCH  17  18
ENDBRANCH   8  17
BRANCH   7  24
HETATM   24  C7  UNL     1      26.524   1.321 -10.532  1.00  0.00    -0.043 C 
HETATM   25  C8  UNL     1      27.518   1.523  -9.870  1.00  0.00    -0.053 C 
BRANCH  25  26
HETATM   26  C9  UNL     1      28.681   1.750  -9.021  1.00  0.00     0.356 C 
HETATM   27  F1  UNL     1      28.312   2.316  -7.808  1.00  0.00    -0.226 F 
BRANCH  26  28
HETATM   28  C10 UNL     1      29.379   0.482  -8.730  1.00  0.00     0.429 C 
HETATM   29  F2  UNL     1      29.013   0.122  -7.413  1.00  0.00    -0.167 F 
HETATM   30  F3  UNL     1      28.893  -0.535  -9.557  1.00  0.00    -0.167 F 
HETATM   31  F4  UNL     1      30.737   0.507  -8.764  1.00  0.00    -0.167 F 
ENDBRANCH  26  28
ENDBRANCH  25  26
ENDBRANCH   7  24
TORSDOF 6
ENDMDL
MODEL 4
REMARK VINA RESULT: 0.618395513      1.974      3.703
REMARK  6 active torsions:
REMARK  status: ('A' for Active; 'I' for Inactive)
REMARK    1  A    between atoms: N1_4  and  C4_5 
REMARK    2  A    between atoms: C6_11  and  C7_12 
REMARK    3  A    between atoms: C8_13  and  C9_14 
REMARK    4  A    between atoms: C9_14  and  C10_16 
REMARK    5  A    between atoms: C11_20  and  O1_21 
REMARK    6  A    between atoms: O1_21  and  C12_22 
ROOT
HETATM    1  C4  UNL     1      25.122  -0.287  -9.323  1.00  0.00     0.141 A 
HETATM    2  N2  UNL     1      25.089  -0.879  -8.090  1.00  0.00    -0.336 N 
ATOM      3  H2  UNL     1      25.881  -0.735  -7.464  1.00  0.00     0.168 HD
HETATM    4  C5  UNL     1      24.081  -1.629  -7.667  1.00  0.00     0.183 A 
HETATM    5  N3  UNL     1      23.046  -1.820  -8.483  1.00  0.00    -0.343 N 
ATOM      6  H3  UNL     1      22.262  -2.394  -8.173  1.00  0.00     0.167 HD
HETATM    7  C6  UNL     1      23.019  -1.259  -9.726  1.00  0.00     0.125 A 
HETATM    8  C11 UNL     1      24.041  -0.494 -10.156  1.00  0.00     0.148 A 
ENDROOT
BRANCH   1   9
HETATM    9  N1  UNL     1      26.256   0.498  -9.634  1.00  0.00    -0.361 N 
HETATM   10  C3  UNL     1      26.135   1.885  -9.903  1.00  0.00     0.149 C 
HETATM   11  C2  UNL     1      27.426   2.587 -10.175  1.00  0.00     0.090 C 
HETATM   12  C1  UNL     1      27.346   3.972  -9.534  1.00  0.00     0.033 C 
HETATM   13  N4  UNL     1      28.612   1.979  -9.692  1.00  0.00    -0.414 N 
HETATM   14  C19 UNL     1      28.477   0.809  -8.895  1.00  0.00     0.134 C 
ATOM     15  H4  UNL     1      29.530   2.366  -9.909  1.00  0.00     0.153 HD
HETATM   16  C18 UNL     1      27.546  -0.140  -9.666  1.00  0.00     0.143 C 
ENDBRANCH   1   9
BRANCH   8  17
HETATM   17  O1  UNL     1      24.040   0.082 -11.404  1.00  0.00    -0.339 OA
BRANCH  17  18
HETATM   18  C12 UNL     1      25.102   0.428 -12.215  1.00  0.00     0.129 C 
HETATM   19  C13 UNL     1      25.740  -0.809 -12.876  1.00  0.00     0.032 C 
HETATM   20  C14 UNL     1      27.120  -0.381 -13.313  1.00  0.00     0.002 C 
HETATM   21  C15 UNL     1      27.076   0.784 -14.250  1.00  0.00     0.000 C 
HETATM   22  C16 UNL     1      26.145   1.876 -13.867  1.00  0.00     0.002 C 
HETATM   23  C17 UNL     1      24.806   1.360 -13.363  1.00  0.00     0.032 C 
ENDBRANCH  17  18
ENDBRANCH   8  17
BRANCH   7  24
HETATM   24  C7  UNL     1      21.883  -1.606 -10.567  1.00  0.00    -0.043 C 
HETATM   25  C8  UNL     1      20.902  -1.897 -11.215  1.00  0.00    -0.053 C 
BRANCH  25  26
HETATM   26  C9  UNL     1      19.687  -2.247 -11.942  1.00  0.00     0.356 C 
HETATM   27  F1  UNL     1      19.651  -3.604 -12.232  1.00  0.00    -0.226 F 
BRANCH  26  28
HETATM   28  C10 UNL     1      18.484  -1.927 -11.146  1.00  0.00     0.429 C 
HETATM   29  F2  UNL     1      18.485  -0.523 -10.977  1.00  0.00    -0.167 F 
HETATM   30  F3  UNL     1      17.331  -2.227 -11.879  1.00  0.00    -0.167 F 
HETATM   31  F4  UNL     1      18.408  -2.470  -9.904  1.00  0.00    -0.167 F 
ENDBRANCH  26  28
ENDBRANCH  25  26
ENDBRANCH   7  24
TORSDOF 6
ENDMDL
MODEL 5
REMARK VINA RESULT: 1.621387808      0.806      1.576
REMARK  6 active torsions:
REMARK  status: ('A' for Active; 'I' for Inactive)
REMARK    1  A    between atoms: N1_4  and  C4_5 
REMARK    2  A    between atoms: C6_11  and  C7_12 
REMARK    3  A    between atoms: C8_13  and  C9_14 
REMARK    4  A    between atoms: C9_14  and  C10_16 
REMARK    5  A    between atoms: C11_20  and  O1_21 
REMARK    6  A    between atoms: O1_21  and  C12_22 
ROOT
HETATM    1  C4  UNL     1      25.276   1.000 -10.983  1.00  0.00     0.141 A 
HETATM    2  N2  UNL     1      25.288   1.589 -12.218  1.00  0.00    -0.336 N 
ATOM      3  H2  UNL     1      26.041   2.242 -12.434  1.00  0.00     0.168 HD
HETATM    4  C5  UNL     1      24.371   1.358 -13.146  1.00  0.00     0.183 A 
HETATM    5  N3  UNL     1      23.385   0.508 -12.866  1.00  0.00    -0.343 N 
ATOM      6  H3  UNL     1      22.670   0.317 -13.569  1.00  0.00     0.167 HD
HETATM    7  C6  UNL     1      23.315  -0.112 -11.653  1.00  0.00     0.125 A 
HETATM    8  C11 UNL     1      24.248   0.121 -10.709  1.00  0.00     0.148 A 
ENDROOT
BRANCH   1   9
HETATM    9  N1  UNL     1      26.328   1.330 -10.098  1.00  0.00    -0.361 N 
HETATM   10  C3  UNL     1      27.537   0.591 -10.087  1.00  0.00     0.149 C 
HETATM   11  C2  UNL     1      28.568   1.085  -9.125  1.00  0.00     0.090 C 
HETATM   12  C1  UNL     1      29.935   0.935  -9.792  1.00  0.00     0.033 C 
HETATM   13  N4  UNL     1      28.465   2.433  -8.698  1.00  0.00    -0.414 N 
HETATM   14  C19 UNL     1      27.460   3.242  -9.296  1.00  0.00     0.134 C 
ATOM     15  H4  UNL     1      29.091   2.810  -7.986  1.00  0.00     0.153 HD
HETATM   16  C18 UNL     1      26.149   2.445  -9.205  1.00  0.00     0.143 C 
ENDBRANCH   1   9
BRANCH   8  17
HETATM   17  O1  UNL     1      24.202  -0.490  -9.478  1.00  0.00    -0.339 OA
BRANCH  17  18
HETATM   18  C12 UNL     1      25.183  -1.190  -8.806  1.00  0.00     0.129 C 
HETATM   19  C13 UNL     1      26.335  -1.598  -9.744  1.00  0.00     0.032 C 
HETATM   20  C14 UNL     1      27.060  -2.724  -9.047  1.00  0.00     0.002 C 
HETATM   21  C15 UNL     1      27.563  -2.318  -7.698  1.00  0.00     0.000 C 
HETATM   22  C16 UNL     1      26.607  -1.544  -6.867  1.00  0.00     0.002 C 
HETATM   23  C17 UNL     1      25.860  -0.483  -7.659  1.00  0.00     0.032 C 
ENDBRANCH  17  18
ENDBRANCH   8  17
BRANCH   7  24
HETATM   24  C7  UNL     1      22.148  -0.950 -11.421  1.00  0.00    -0.043 C 
HETATM   25  C8  UNL     1      21.143  -1.595 -11.217  1.00  0.00    -0.053 C 
BRANCH  25  26
HETATM   26  C9  UNL     1      19.902  -2.317 -10.962  1.00  0.00     0.356 C 
HETATM   27  F1  UNL     1      19.998  -3.086  -9.810  1.00  0.00    -0.226 F 
BRANCH  26  28
HETATM   28  C10 UNL     1      18.773  -1.382 -10.785  1.00  0.00     0.429 C 
HETATM   29  F2  UNL     1      17.666  -1.971 -11.439  1.00  0.00    -0.167 F 
HETATM   30  F3  UNL     1      18.425  -1.301  -9.433  1.00  0.00    -0.167 F 
HETATM   31  F4  UNL     1      18.919  -0.138 -11.309  1.00  0.00    -0.167 F 
ENDBRANCH  26  28
ENDBRANCH  25  26
ENDBRANCH   7  24
TORSDOF 6
ENDMDL
