MODEL 1
REMARK VINA RESULT: -6.162171415      0.000      0.000
REMARK  5 active torsions:
REMARK  status: ('A' for Active; 'I' for Inactive)
REMARK    1  A    between atoms: C2_2  and  N1_5 
REMARK    2  A    between atoms: C10_12  and  N2_13 
REMARK    3  A    between atoms: N2_13  and  C11_15 
REMARK    4  A    between atoms: C11_15  and  C12_16 
REMARK    5  A    between atoms: C14_20  and  C15_21 
ROOT
HETATM    1  N1  UNL     1      27.034  -0.175  -9.739  1.00  0.00    -0.390 N 
HETATM    2  C5  UNL     1      27.289   0.441 -10.989  1.00  0.00     0.091 C 
HETATM    3  C6  UNL     1      27.365  -0.552 -12.141  1.00  0.00     0.051 C 
HETATM    4  C7  UNL     1      27.666   0.272 -13.384  1.00  0.00     0.169 C 
HETATM    5  O1  UNL     1      26.984   1.473 -13.389  1.00  0.00    -0.391 OA
HETATM    6  C8  UNL     1      25.764   1.379 -12.707  1.00  0.00     0.176 C 
HETATM    7  C9  UNL     1      26.070   1.297 -11.262  1.00  0.00     0.057 C 
HETATM    8  C10 UNL     1      25.064   0.804 -10.369  1.00  0.00     0.112 C 
HETATM    9  C17 UNL     1      25.860   0.314  -9.147  1.00  0.00     0.042 C 
HETATM   10  C18 UNL     1      25.991   1.501  -8.233  1.00  0.00     0.040 C 
HETATM   11  C19 UNL     1      24.985  -0.743  -8.504  1.00  0.00     0.040 C 
ENDROOT
BRANCH   8  12
HETATM   12  N2  UNL     1      24.028  -0.098 -10.680  1.00  0.00    -0.410 N 
ATOM     13  H2  UNL     1      24.050  -1.061 -10.343  1.00  0.00     0.154 HD
BRANCH  12  14
HETATM   14  C11 UNL     1      22.945   0.378 -11.482  1.00  0.00     0.156 C 
BRANCH  14  15
HETATM   15  C12 UNL     1      21.658  -0.359 -11.105  1.00  0.00    -0.010 A 
HETATM   16  C13 UNL     1      20.537   0.272 -10.744  1.00  0.00     0.099 A 
HETATM   17  N3  UNL     1      19.332  -0.410 -10.687  1.00  0.00    -0.348 N 
HETATM   18  C14 UNL     1      19.343  -1.734 -11.025  1.00  0.00     0.190 A 
ATOM     19  H3  UNL     1      18.470   0.057 -10.404  1.00  0.00     0.166 HD
HETATM   20  N4  UNL     1      20.461  -2.354 -11.357  1.00  0.00    -0.348 N 
HETATM   21  C16 UNL     1      21.674  -1.685 -11.402  1.00  0.00     0.099 A 
ATOM     22  H4  UNL     1      20.431  -3.348 -11.585  1.00  0.00     0.166 HD
BRANCH  18  23
HETATM   23  C15 UNL     1      18.076  -2.486 -11.306  1.00  0.00     0.449 C 
HETATM   24  F1  UNL     1      17.583  -2.981 -10.133  1.00  0.00    -0.163 F 
HETATM   25  F2  UNL     1      18.535  -3.610 -12.058  1.00  0.00    -0.163 F 
HETATM   26  F3  UNL     1      17.167  -1.850 -12.059  1.00  0.00    -0.163 F 
ENDBRANCH  18  23
ENDBRANCH  14  15
ENDBRANCH  12  14
ENDBRANCH   8  12
BRANCH   1  27
HETATM   27  C2  UNL     1      28.107  -0.616  -8.962  1.00  0.00     0.018 C 
HETATM   28  C1  UNL     1      27.928  -0.833  -7.501  1.00  0.00     0.037 C 
HETATM   29  C3  UNL     1      28.640  -1.899  -9.571  1.00  0.00     0.037 C 
HETATM   30  C4  UNL     1      29.285   0.379  -9.029  1.00  0.00     0.037 C 
ENDBRANCH   1  27
TORSDOF 5
ENDMDL
MODEL 2
REMARK VINA RESULT: -5.812641338      0.828      1.547
REMARK  5 active torsions:
REMARK  status: ('A' for Active; 'I' for Inactive)
REMARK    1  A    between atoms: C2_2  and  N1_5 
REMARK    2  A    between atoms: C10_12  and  N2_13 
REMARK    3  A    between atoms: N2_13  and  C11_15 
REMARK    4  A    between atoms: C11_15  and  C12_16 
REMARK    5  A    between atoms: C14_20  and  C15_21 
ROOT
HETATM    1  N1  UNL     1      27.116  -0.359  -9.699  1.00  0.00    -0.390 N 
HETATM    2  C5  UNL     1      27.315   0.310 -10.931  1.00  0.00     0.091 C 
HETATM    3  C6  UNL     1      26.981  -0.551 -12.141  1.00  0.00     0.051 C 
HETATM    4  C7  UNL     1      27.274   0.309 -13.361  1.00  0.00     0.169 C 
HETATM    5  O1  UNL     1      26.900   1.625 -13.171  1.00  0.00    -0.391 OA
HETATM    6  C8  UNL     1      25.810   1.732 -12.298  1.00  0.00     0.176 C 
HETATM    7  C9  UNL     1      26.304   1.438 -10.935  1.00  0.00     0.057 C 
HETATM    8  C10 UNL     1      25.358   1.089  -9.917  1.00  0.00     0.112 C 
HETATM    9  C17 UNL     1      26.193   0.313  -8.884  1.00  0.00     0.042 C 
HETATM   10  C18 UNL     1      26.736   1.342  -7.931  1.00  0.00     0.040 C 
HETATM   11  C19 UNL     1      25.202  -0.586  -8.171  1.00  0.00     0.040 C 
ENDROOT
BRANCH   8  12
HETATM   12  N2  UNL     1      24.105   0.474 -10.104  1.00  0.00    -0.410 N 
ATOM     13  H2  UNL     1      23.389   0.507  -9.377  1.00  0.00     0.154 HD
BRANCH  12  14
HETATM   14  C11 UNL     1      23.867  -0.196 -11.343  1.00  0.00     0.156 C 
BRANCH  14  15
HETATM   15  C12 UNL     1      22.432  -0.728 -11.379  1.00  0.00    -0.010 A 
HETATM   16  C13 UNL     1      22.136  -2.007 -11.626  1.00  0.00     0.099 A 
HETATM   17  N3  UNL     1      20.864  -2.497 -11.372  1.00  0.00    -0.348 N 
HETATM   18  C14 UNL     1      19.948  -1.627 -10.853  1.00  0.00     0.190 A 
ATOM     19  H3  UNL     1      20.622  -3.469 -11.566  1.00  0.00     0.166 HD
HETATM   20  N4  UNL     1      20.244  -0.359 -10.635  1.00  0.00    -0.348 N 
HETATM   21  C16 UNL     1      21.508   0.146 -10.899  1.00  0.00     0.099 A 
ATOM     22  H4  UNL     1      19.527   0.264 -10.263  1.00  0.00     0.166 HD
BRANCH  18  23
HETATM   23  C15 UNL     1      18.661  -2.106 -10.249  1.00  0.00     0.449 C 
HETATM   24  F1  UNL     1      18.305  -1.264  -9.235  1.00  0.00    -0.163 F 
HETATM   25  F2  UNL     1      19.038  -3.340  -9.638  1.00  0.00    -0.163 F 
HETATM   26  F3  UNL     1      17.670  -2.376 -11.111  1.00  0.00    -0.163 F 
ENDBRANCH  18  23
ENDBRANCH  14  15
ENDBRANCH  12  14
ENDBRANCH   8  12
BRANCH   1  27
HETATM   27  C2  UNL     1      28.161  -1.103  -9.147  1.00  0.00     0.018 C 
HETATM   28  C1  UNL     1      28.808  -2.182  -9.942  1.00  0.00     0.037 C 
HETATM   29  C3  UNL     1      29.240  -0.141  -8.688  1.00  0.00     0.037 C 
HETATM   30  C4  UNL     1      27.704  -1.834  -7.867  1.00  0.00     0.037 C 
ENDBRANCH   1  27
TORSDOF 5
ENDMDL
MODEL 3
REMARK VINA RESULT: -5.009200659      0.795      1.249
REMARK  5 active torsions:
REMARK  status: ('A' for Active; 'I' for Inactive)
REMARK    1  A    between atoms: C2_2  and  N1_5 
REMARK    2  A    between atoms: C10_12  and  N2_13 
REMARK    3  A    between atoms: N2_13  and  C11_15 
REMARK    4  A    between atoms: C11_15  and  C12_16 
REMARK    5  A    between atoms: C14_20  and  C15_21 
ROOT
HETATM    1  N1  UNL     1      27.111  -0.195  -9.884  1.00  0.00    -0.390 N 
HETATM    2  C5  UNL     1      27.362   0.307 -11.184  1.00  0.00     0.091 C 
HETATM    3  C6  UNL     1      26.903  -0.635 -12.289  1.00  0.00     0.051 C 
HETATM    4  C7  UNL     1      27.269   0.046 -13.599  1.00  0.00     0.169 C 
HETATM    5  O1  UNL     1      27.058   1.410 -13.552  1.00  0.00    -0.391 OA
HETATM    6  C8  UNL     1      26.007   1.742 -12.688  1.00  0.00     0.176 C 
HETATM    7  C9  UNL     1      26.492   1.540 -11.305  1.00  0.00     0.057 C 
HETATM    8  C10 UNL     1      25.533   1.420 -10.246  1.00  0.00     0.112 C 
HETATM    9  C17 UNL     1      26.292   0.668  -9.141  1.00  0.00     0.042 C 
HETATM   10  C18 UNL     1      26.973   1.722  -8.312  1.00  0.00     0.040 C 
HETATM   11  C19 UNL     1      25.217  -0.023  -8.324  1.00  0.00     0.040 C 
ENDROOT
BRANCH   8  12
HETATM   12  N2  UNL     1      24.212   0.944 -10.354  1.00  0.00    -0.410 N 
ATOM     13  H2  UNL     1      23.458   1.355  -9.803  1.00  0.00     0.154 HD
BRANCH  12  14
HETATM   14  C11 UNL     1      23.961  -0.133 -11.260  1.00  0.00     0.156 C 
BRANCH  14  15
HETATM   15  C12 UNL     1      22.624  -0.796 -10.919  1.00  0.00    -0.010 A 
HETATM   16  C13 UNL     1      21.617  -0.144 -10.332  1.00  0.00     0.099 A 
HETATM   17  N3  UNL     1      20.345  -0.696 -10.300  1.00  0.00    -0.348 N 
HETATM   18  C14 UNL     1      20.172  -1.911 -10.900  1.00  0.00     0.190 A 
ATOM     19  H3  UNL     1      19.569  -0.213  -9.846  1.00  0.00     0.166 HD
HETATM   20  N4  UNL     1      21.180  -2.557 -11.457  1.00  0.00    -0.348 N 
HETATM   21  C16 UNL     1      22.459  -2.022 -11.481  1.00  0.00     0.099 A 
ATOM     22  H4  UNL     1      21.014  -3.471 -11.879  1.00  0.00     0.166 HD
BRANCH  18  23
HETATM   23  C15 UNL     1      18.806  -2.451 -11.206  1.00  0.00     0.449 C 
HETATM   24  F1  UNL     1      17.957  -1.407 -11.437  1.00  0.00    -0.163 F 
HETATM   25  F2  UNL     1      18.409  -3.027  -9.961  1.00  0.00    -0.163 F 
HETATM   26  F3  UNL     1      18.749  -3.421 -12.129  1.00  0.00    -0.163 F 
ENDBRANCH  18  23
ENDBRANCH  14  15
ENDBRANCH  12  14
ENDBRANCH   8  12
BRANCH   1  27
HETATM   27  C2  UNL     1      28.072  -0.995  -9.262  1.00  0.00     0.018 C 
HETATM   28  C1  UNL     1      29.318  -0.382  -8.726  1.00  0.00     0.037 C 
HETATM   29  C3  UNL     1      27.400  -1.760  -8.138  1.00  0.00     0.037 C 
HETATM   30  C4  UNL     1      28.599  -2.079 -10.226  1.00  0.00     0.037 C 
ENDBRANCH   1  27
TORSDOF 5
ENDMDL
MODEL 4
REMARK VINA RESULT: -4.389572618      0.848      1.175
REMARK  5 active torsions:
REMARK  status: ('A' for Active; 'I' for Inactive)
REMARK    1  A    between atoms: C2_2  and  N1_5 
REMARK    2  A    between atoms: C10_12  and  N2_13 
REMARK    3  A    between atoms: N2_13  and  C11_15 
REMARK    4  A    between atoms: C11_15  and  C12_16 
REMARK    5  A    between atoms: C14_20  and  C15_21 
ROOT
HETATM    1  N1  UNL     1      27.243   0.242  -9.628  1.00  0.00    -0.390 N 
HETATM    2  C5  UNL     1      27.465   0.524 -10.998  1.00  0.00     0.091 C 
HETATM    3  C6  UNL     1      27.063  -0.621 -11.918  1.00  0.00     0.051 C 
HETATM    4  C7  UNL     1      27.390  -0.159 -13.330  1.00  0.00     0.169 C 
HETATM    5  O1  UNL     1      27.098   1.177 -13.520  1.00  0.00    -0.391 OA
HETATM    6  C8  UNL     1      26.029   1.594 -12.716  1.00  0.00     0.176 C 
HETATM    7  C9  UNL     1      26.523   1.665 -11.324  1.00  0.00     0.057 C 
HETATM    8  C10 UNL     1      25.572   1.675 -10.252  1.00  0.00     0.112 C 
HETATM    9  C17 UNL     1      26.373   1.172  -9.039  1.00  0.00     0.042 C 
HETATM   10  C18 UNL     1      26.990   2.393  -8.413  1.00  0.00     0.040 C 
HETATM   11  C19 UNL     1      25.340   0.573  -8.105  1.00  0.00     0.040 C 
ENDROOT
BRANCH   8  12
HETATM   12  N2  UNL     1      24.282   1.111 -10.263  1.00  0.00    -0.410 N 
ATOM     13  H2  UNL     1      23.538   1.488  -9.674  1.00  0.00     0.154 HD
BRANCH  12  14
HETATM   14  C11 UNL     1      24.046  -0.004 -11.124  1.00  0.00     0.156 C 
BRANCH  14  15
HETATM   15  C12 UNL     1      22.696  -0.642 -10.791  1.00  0.00    -0.010 A 
HETATM   16  C13 UNL     1      21.649   0.060 -10.348  1.00  0.00     0.099 A 
HETATM   17  N3  UNL     1      20.382  -0.501 -10.330  1.00  0.00    -0.348 N 
HETATM   18  C14 UNL     1      20.255  -1.781 -10.791  1.00  0.00     0.190 A 
ATOM     19  H3  UNL     1      19.575   0.020  -9.985  1.00  0.00     0.166 HD
HETATM   20  N4  UNL     1      21.300  -2.474 -11.204  1.00  0.00    -0.348 N 
HETATM   21  C16 UNL     1      22.574  -1.928 -11.212  1.00  0.00     0.099 A 
ATOM     22  H4  UNL     1      21.167  -3.434 -11.524  1.00  0.00     0.166 HD
BRANCH  18  23
HETATM   23  C15 UNL     1      18.915  -2.373 -11.114  1.00  0.00     0.449 C 
HETATM   24  F1  UNL     1      19.037  -3.180 -12.208  1.00  0.00    -0.163 F 
HETATM   25  F2  UNL     1      18.160  -1.236 -11.533  1.00  0.00    -0.163 F 
HETATM   26  F3  UNL     1      18.254  -2.932 -10.090  1.00  0.00    -0.163 F 
ENDBRANCH  18  23
ENDBRANCH  14  15
ENDBRANCH  12  14
ENDBRANCH   8  12
BRANCH   1  27
HETATM   27  C2  UNL     1      28.249  -0.379  -8.885  1.00  0.00     0.018 C 
HETATM   28  C1  UNL     1      28.249  -0.278  -7.401  1.00  0.00     0.037 C 
HETATM   29  C3  UNL     1      28.280  -1.848  -9.261  1.00  0.00     0.037 C 
HETATM   30  C4  UNL     1      29.640   0.164  -9.275  1.00  0.00     0.037 C 
ENDBRANCH   1  27
TORSDOF 5
ENDMDL
MODEL 5
REMARK VINA RESULT: -2.993229300      1.915      2.500
REMARK  5 active torsions:
REMARK  status: ('A' for Active; 'I' for Inactive)
REMARK    1  A    between atoms: C2_2  and  N1_5 
REMARK    2  A    between atoms: C10_12  and  N2_13 
REMARK    3  A    between atoms: N2_13  and  C11_15 
REMARK    4  A    between atoms: C11_15  and  C12_16 
REMARK    5  A    between atoms: C14_20  and  C15_21 
ROOT
HETATM    1  N1  UNL     1      26.848   0.244  -9.777  1.00  0.00    -0.390 N 
HETATM    2  C5  UNL     1      26.707   0.769 -11.084  1.00  0.00     0.091 C 
HETATM    3  C6  UNL     1      27.398  -0.075 -12.147  1.00  0.00     0.051 C 
HETATM    4  C7  UNL     1      27.166   0.644 -13.468  1.00  0.00     0.169 C 
HETATM    5  O1  UNL     1      25.896   1.177 -13.553  1.00  0.00    -0.391 OA
HETATM    6  C8  UNL     1      24.968   0.426 -12.821  1.00  0.00     0.176 C 
HETATM    7  C9  UNL     1      25.226   0.681 -11.387  1.00  0.00     0.057 C 
HETATM    8  C10 UNL     1      24.705  -0.237 -10.417  1.00  0.00     0.112 C 
HETATM    9  C17 UNL     1      25.605  -0.028  -9.187  1.00  0.00     0.042 C 
HETATM   10  C18 UNL     1      24.966   1.073  -8.387  1.00  0.00     0.040 C 
HETATM   11  C19 UNL     1      25.537  -1.335  -8.422  1.00  0.00     0.040 C 
ENDROOT
BRANCH   8  12
HETATM   12  N2  UNL     1      24.438  -1.607 -10.609  1.00  0.00    -0.410 N 
ATOM     13  H2  UNL     1      25.062  -2.322 -10.235  1.00  0.00     0.154 HD
BRANCH  12  14
HETATM   14  C11 UNL     1      23.265  -1.963 -11.345  1.00  0.00     0.156 C 
BRANCH  14  15
HETATM   15  C12 UNL     1      22.053  -1.218 -10.781  1.00  0.00    -0.010 A 
HETATM   16  C13 UNL     1      22.147  -0.301  -9.814  1.00  0.00     0.099 A 
HETATM   17  N3  UNL     1      21.081   0.540  -9.535  1.00  0.00    -0.348 N 
HETATM   18  C14 UNL     1      19.954   0.397 -10.293  1.00  0.00     0.190 A 
ATOM     19  H3  UNL     1      21.136   1.238  -8.793  1.00  0.00     0.166 HD
HETATM   20  N4  UNL     1      19.863  -0.528 -11.231  1.00  0.00    -0.348 N 
HETATM   21  C16 UNL     1      20.917  -1.385 -11.508  1.00  0.00     0.099 A 
ATOM     22  H4  UNL     1      18.996  -0.615 -11.763  1.00  0.00     0.166 HD
BRANCH  18  23
HETATM   23  C15 UNL     1      18.873   1.439 -10.302  1.00  0.00     0.449 C 
HETATM   24  F1  UNL     1      18.180   1.350 -11.474  1.00  0.00    -0.163 F 
HETATM   25  F2  UNL     1      19.611   2.659 -10.360  1.00  0.00    -0.163 F 
HETATM   26  F3  UNL     1      18.100   1.495  -9.209  1.00  0.00    -0.163 F 
ENDBRANCH  18  23
ENDBRANCH  14  15
ENDBRANCH  12  14
ENDBRANCH   8  12
BRANCH   1  27
HETATM   27  C2  UNL     1      27.949   0.618  -9.004  1.00  0.00     0.018 C 
HETATM   28  C1  UNL     1      29.315   0.601  -9.595  1.00  0.00     0.037 C 
HETATM   29  C3  UNL     1      27.691   2.006  -8.449  1.00  0.00     0.037 C 
HETATM   30  C4  UNL     1      28.090  -0.291  -7.765  1.00  0.00     0.037 C 
ENDBRANCH   1  27
TORSDOF 5
ENDMDL
