MODEL 1
REMARK VINA RESULT: -2.561658907      0.000      0.000
REMARK  4 active torsions:
REMARK  status: ('A' for Active; 'I' for Inactive)
REMARK    1  A    between atoms: C1_2  and  C2_5 
REMARK    2  A    between atoms: N2_9  and  C4_11 
REMARK    3  A    between atoms: N4_21  and  C12_22 
REMARK    4  A    between atoms: C12_22  and  C13_23 
ROOT
HETATM    1  C2  UNL     1      25.288   0.532 -11.924  1.00  0.00     0.193 A 
HETATM    2  N1  UNL     1      25.816   0.613 -10.694  1.00  0.00    -0.323 N 
ATOM      3  H1  UNL     1      26.704   1.105 -10.593  1.00  0.00     0.169 HD
HETATM    4  C3  UNL     1      25.263   0.093  -9.583  1.00  0.00     0.134 A 
HETATM    5  N2  UNL     1      25.849  -0.005  -8.436  1.00  0.00    -0.370 N 
ATOM      6  H2  UNL     1      25.382  -0.399  -7.619  1.00  0.00     0.161 HD
HETATM    7  C10 UNL     1      24.029  -0.570  -9.785  1.00  0.00     0.122 A 
HETATM    8  N3  UNL     1      23.284  -1.262  -8.921  1.00  0.00    -0.346 N 
ATOM      9  H3  UNL     1      23.453  -1.367  -7.921  1.00  0.00     0.167 HD
HETATM   10  C11 UNL     1      22.247  -1.804  -9.637  1.00  0.00     0.189 A 
HETATM   11  N4  UNL     1      22.363  -1.445 -10.921  1.00  0.00    -0.306 N 
HETATM   12  C19 UNL     1      23.480  -0.670 -11.008  1.00  0.00     0.145 A 
HETATM   13  N6  UNL     1      24.111  -0.114 -12.062  1.00  0.00    -0.322 N 
ATOM     14  H6  UNL     1      23.688  -0.183 -12.988  1.00  0.00     0.169 HD
ENDROOT
BRANCH  11  15
HETATM   15  C12 UNL     1      21.479  -1.770 -11.983  1.00  0.00     0.079 C 
BRANCH  15  16
HETATM   16  C13 UNL     1      20.041  -1.831 -11.842  1.00  0.00     0.055 C 
HETATM   17  C14 UNL     1      19.648  -0.556 -11.045  1.00  0.00     0.014 C 
HETATM   18  C15 UNL     1      18.243  -0.567 -10.579  1.00  0.00     0.034 C 
HETATM   19  C16 UNL     1      17.713  -1.967 -10.494  1.00  0.00     0.188 C 
HETATM   20  C17 UNL     1      17.752  -2.568 -11.877  1.00  0.00     0.066 C 
HETATM   21  N5  UNL     1      18.694  -2.936 -10.096  1.00  0.00    -0.066 N 
HETATM   22  C18 UNL     1      19.216  -2.942 -11.429  1.00  0.00     0.197 C 
ATOM     23  H52 UNL     1      19.311  -2.747  -9.306  1.00  0.00     0.278 HD
ATOM     24  H51 UNL     1      18.403  -3.809  -9.656  1.00  0.00     0.278 HD
ENDBRANCH  15  16
ENDBRANCH  11  15
BRANCH   1  25
HETATM   25  C1  UNL     1      25.960   1.062 -13.132  1.00  0.00     0.449 C 
HETATM   26  F1  UNL     1      26.763   2.129 -12.930  1.00  0.00    -0.163 F 
HETATM   27  F2  UNL     1      26.655   0.060 -13.782  1.00  0.00    -0.163 F 
HETATM   28  F3  UNL     1      24.947   1.461 -14.000  1.00  0.00    -0.163 F 
ENDBRANCH   1  25
BRANCH   5  29
HETATM   29  C4  UNL     1      27.231   0.485  -8.385  1.00  0.00     0.083 C 
HETATM   30  C5  UNL     1      27.943  -0.016  -9.663  1.00  0.00     0.025 C 
HETATM   31  C6  UNL     1      29.284   0.629  -9.648  1.00  0.00     0.002 C 
HETATM   32  C7  UNL     1      30.136   0.171  -8.504  1.00  0.00     0.000 C 
HETATM   33  C8  UNL     1      29.414  -0.103  -7.252  1.00  0.00     0.002 C 
HETATM   34  C9  UNL     1      27.944  -0.259  -7.282  1.00  0.00     0.025 C 
ENDBRANCH   5  29
TORSDOF 4
ENDMDL
MODEL 2
REMARK VINA RESULT: -2.533888240      2.538      7.770
REMARK  4 active torsions:
REMARK  status: ('A' for Active; 'I' for Inactive)
REMARK    1  A    between atoms: C1_2  and  C2_5 
REMARK    2  A    between atoms: N2_9  and  C4_11 
REMARK    3  A    between atoms: N4_21  and  C12_22 
REMARK    4  A    between atoms: C12_22  and  C13_23 
ROOT
HETATM    1  C2  UNL     1      24.584  -0.508  -9.141  1.00  0.00     0.193 A 
HETATM    2  N1  UNL     1      23.342  -0.549  -9.644  1.00  0.00    -0.323 N 
ATOM      3  H1  UNL     1      22.594  -0.870  -9.029  1.00  0.00     0.169 HD
HETATM    4  C3  UNL     1      23.008  -0.198 -10.899  1.00  0.00     0.134 A 
HETATM    5  N2  UNL     1      21.861  -0.415 -11.452  1.00  0.00    -0.370 N 
ATOM      6  H2  UNL     1      21.653  -0.120 -12.406  1.00  0.00     0.161 HD
HETATM    7  C10 UNL     1      24.086   0.246 -11.702  1.00  0.00     0.122 A 
HETATM    8  N3  UNL     1      24.106   0.570 -12.996  1.00  0.00    -0.346 N 
ATOM      9  H3  UNL     1      23.303   0.622 -13.621  1.00  0.00     0.167 HD
HETATM   10  C11 UNL     1      25.415   0.821 -13.322  1.00  0.00     0.189 A 
HETATM   11  N4  UNL     1      26.179   0.649 -12.237  1.00  0.00    -0.306 N 
HETATM   12  C19 UNL     1      25.343   0.292 -11.223  1.00  0.00     0.145 A 
HETATM   13  N6  UNL     1      25.577  -0.079  -9.949  1.00  0.00    -0.322 N 
ATOM     14  H6  UNL     1      26.530  -0.035  -9.585  1.00  0.00     0.169 HD
ENDROOT
BRANCH  11  15
HETATM   15  C12 UNL     1      27.583   0.840 -12.142  1.00  0.00     0.079 C 
BRANCH  15  16
HETATM   16  C13 UNL     1      28.364   0.498 -10.974  1.00  0.00     0.055 C 
HETATM   17  C14 UNL     1      27.999  -0.977 -10.648  1.00  0.00     0.014 C 
HETATM   18  C15 UNL     1      28.504  -1.429  -9.333  1.00  0.00     0.034 C 
HETATM   19  C16 UNL     1      28.749  -0.266  -8.419  1.00  0.00     0.188 C 
HETATM   20  C17 UNL     1      29.802   0.611  -9.049  1.00  0.00     0.066 C 
HETATM   21  N5  UNL     1      27.817   0.813  -8.590  1.00  0.00    -0.066 N 
HETATM   22  C18 UNL     1      28.538   1.242  -9.749  1.00  0.00     0.197 C 
ATOM     23  H52 UNL     1      26.817   0.620  -8.651  1.00  0.00     0.278 HD
ATOM     24  H51 UNL     1      27.642   1.464  -7.824  1.00  0.00     0.278 HD
ENDBRANCH  15  16
ENDBRANCH  11  15
BRANCH   1  25
HETATM   25  C1  UNL     1      24.922  -0.964  -7.772  1.00  0.00     0.449 C 
HETATM   26  F1  UNL     1      23.880  -1.405  -7.034  1.00  0.00    -0.163 F 
HETATM   27  F2  UNL     1      25.918  -1.920  -7.810  1.00  0.00    -0.163 F 
HETATM   28  F3  UNL     1      25.462   0.138  -7.115  1.00  0.00    -0.163 F 
ENDBRANCH   1  25
BRANCH   5  29
HETATM   29  C4  UNL     1      20.876  -1.113 -10.618  1.00  0.00     0.083 C 
HETATM   30  C5  UNL     1      20.065  -2.044 -11.550  1.00  0.00     0.025 C 
HETATM   31  C6  UNL     1      19.191  -2.843 -10.648  1.00  0.00     0.002 C 
HETATM   32  C7  UNL     1      18.178  -2.004  -9.930  1.00  0.00     0.000 C 
HETATM   33  C8  UNL     1      18.631  -0.658  -9.548  1.00  0.00     0.002 C 
HETATM   34  C9  UNL     1      19.851  -0.100 -10.170  1.00  0.00     0.025 C 
ENDBRANCH   5  29
TORSDOF 4
ENDMDL
MODEL 3
REMARK VINA RESULT: -2.165972527      0.577      1.080
REMARK  4 active torsions:
REMARK  status: ('A' for Active; 'I' for Inactive)
REMARK    1  A    between atoms: C1_2  and  C2_5 
REMARK    2  A    between atoms: N2_9  and  C4_11 
REMARK    3  A    between atoms: N4_21  and  C12_22 
REMARK    4  A    between atoms: C12_22  and  C13_23 
ROOT
HETATM    1  C2  UNL     1      25.378   0.321 -12.098  1.00  0.00     0.193 A 
HETATM    2  N1  UNL     1      26.034   0.083 -10.953  1.00  0.00    -0.323 N 
ATOM      3  H1  UNL     1      27.032   0.294 -10.929  1.00  0.00     0.169 HD
HETATM    4  C3  UNL     1      25.476  -0.414  -9.835  1.00  0.00     0.134 A 
HETATM    5  N2  UNL     1      26.126  -0.828  -8.799  1.00  0.00    -0.370 N 
ATOM      6  H2  UNL     1      25.654  -1.187  -7.969  1.00  0.00     0.161 HD
HETATM    7  C10 UNL     1      24.087  -0.679  -9.928  1.00  0.00     0.122 A 
HETATM    8  N3  UNL     1      23.271  -1.252  -9.043  1.00  0.00    -0.346 N 
ATOM      9  H3  UNL     1      23.507  -1.537  -8.093  1.00  0.00     0.167 HD
HETATM   10  C11 UNL     1      22.051  -1.384  -9.657  1.00  0.00     0.189 A 
HETATM   11  N4  UNL     1      22.129  -0.897 -10.901  1.00  0.00    -0.306 N 
HETATM   12  C19 UNL     1      23.407  -0.453 -11.065  1.00  0.00     0.145 A 
HETATM   13  N6  UNL     1      24.056   0.049 -12.135  1.00  0.00    -0.322 N 
ATOM     14  H6  UNL     1      23.535   0.228 -12.994  1.00  0.00     0.169 HD
ENDROOT
BRANCH  11  15
HETATM   15  C12 UNL     1      21.081  -0.816 -11.855  1.00  0.00     0.079 C 
BRANCH  15  16
HETATM   16  C13 UNL     1      19.733  -1.280 -11.612  1.00  0.00     0.055 C 
HETATM   17  C14 UNL     1      19.241  -0.488 -10.369  1.00  0.00     0.014 C 
HETATM   18  C15 UNL     1      17.973  -1.006  -9.808  1.00  0.00     0.034 C 
HETATM   19  C16 UNL     1      17.759  -2.440 -10.193  1.00  0.00     0.188 C 
HETATM   20  C17 UNL     1      17.670  -2.513 -11.698  1.00  0.00     0.066 C 
HETATM   21  N5  UNL     1      18.970  -3.206 -10.274  1.00  0.00    -0.066 N 
HETATM   22  C18 UNL     1      19.236  -2.634 -11.559  1.00  0.00     0.197 C 
ATOM     23  H52 UNL     1      19.666  -3.144  -9.532  1.00  0.00     0.278 HD
ATOM     24  H51 UNL     1      18.943  -4.220 -10.161  1.00  0.00     0.278 HD
ENDBRANCH  15  16
ENDBRANCH  11  15
BRANCH   1  25
HETATM   25  C1  UNL     1      26.043   0.808 -13.329  1.00  0.00     0.449 C 
HETATM   26  F1  UNL     1      26.959   1.784 -13.147  1.00  0.00    -0.163 F 
HETATM   27  F2  UNL     1      26.600  -0.243 -14.030  1.00  0.00    -0.163 F 
HETATM   28  F3  UNL     1      25.036   1.327 -14.138  1.00  0.00    -0.163 F 
ENDBRANCH   1  25
BRANCH   5  29
HETATM   29  C4  UNL     1      27.588  -0.747  -8.893  1.00  0.00     0.083 C 
HETATM   30  C5  UNL     1      28.115  -0.340  -7.497  1.00  0.00     0.025 C 
HETATM   31  C6  UNL     1      29.598  -0.422  -7.595  1.00  0.00     0.002 C 
HETATM   32  C7  UNL     1      30.172   0.577  -8.553  1.00  0.00     0.000 C 
HETATM   33  C8  UNL     1      29.350   0.856  -9.740  1.00  0.00     0.002 C 
HETATM   34  C9  UNL     1      27.929   0.448  -9.750  1.00  0.00     0.025 C 
ENDBRANCH   5  29
TORSDOF 4
ENDMDL
MODEL 4
REMARK VINA RESULT: -1.708653889      2.628      7.513
REMARK  4 active torsions:
REMARK  status: ('A' for Active; 'I' for Inactive)
REMARK    1  A    between atoms: C1_2  and  C2_5 
REMARK    2  A    between atoms: N2_9  and  C4_11 
REMARK    3  A    between atoms: N4_21  and  C12_22 
REMARK    4  A    between atoms: C12_22  and  C13_23 
ROOT
HETATM    1  C2  UNL     1      24.108  -0.314  -9.788  1.00  0.00     0.193 A 
HETATM    2  N1  UNL     1      22.974  -0.083 -10.467  1.00  0.00    -0.323 N 
ATOM      3  H1  UNL     1      22.092  -0.275  -9.992  1.00  0.00     0.169 HD
HETATM    4  C3  UNL     1      22.914   0.381 -11.729  1.00  0.00     0.134 A 
HETATM    5  N2  UNL     1      21.847   0.422 -12.456  1.00  0.00    -0.370 N 
ATOM      6  H2  UNL     1      21.851   0.794 -13.405  1.00  0.00     0.161 HD
HETATM    7  C10 UNL     1      24.169   0.636 -12.332  1.00  0.00     0.122 A 
HETATM    8  N3  UNL     1      24.452   1.005 -13.582  1.00  0.00    -0.346 N 
ATOM      9  H3  UNL     1      23.781   1.244 -14.312  1.00  0.00     0.167 HD
HETATM   10  C11 UNL     1      25.819   1.003 -13.696  1.00  0.00     0.189 A 
HETATM   11  N4  UNL     1      26.358   0.635 -12.528  1.00  0.00    -0.306 N 
HETATM   12  C19 UNL     1      25.320   0.409 -11.675  1.00  0.00     0.145 A 
HETATM   13  N6  UNL     1      25.278  -0.057 -10.410  1.00  0.00    -0.322 N 
ATOM     14  H6  UNL     1      26.152  -0.220  -9.911  1.00  0.00     0.169 HD
ENDROOT
BRANCH  11  15
HETATM   15  C12 UNL     1      27.740   0.537 -12.217  1.00  0.00     0.079 C 
BRANCH  15  16
HETATM   16  C13 UNL     1      28.251   0.317 -10.882  1.00  0.00     0.055 C 
HETATM   17  C14 UNL     1      27.794  -1.118 -10.495  1.00  0.00     0.014 C 
HETATM   18  C15 UNL     1      28.002  -1.432  -9.064  1.00  0.00     0.034 C 
HETATM   19  C16 UNL     1      28.073  -0.181  -8.241  1.00  0.00     0.188 C 
HETATM   20  C17 UNL     1      29.254   0.628  -8.718  1.00  0.00     0.066 C 
HETATM   21  N5  UNL     1      27.220   0.873  -8.711  1.00  0.00    -0.066 N 
HETATM   22  C18 UNL     1      28.178   1.183  -9.729  1.00  0.00     0.197 C 
ATOM     23  H52 UNL     1      26.252   0.674  -8.963  1.00  0.00     0.278 HD
ATOM     24  H51 UNL     1      26.902   1.599  -8.070  1.00  0.00     0.278 HD
ENDBRANCH  15  16
ENDBRANCH  11  15
BRANCH   1  25
HETATM   25  C1  UNL     1      24.134  -0.887  -8.423  1.00  0.00     0.449 C 
HETATM   26  F1  UNL     1      25.312  -1.423  -8.040  1.00  0.00    -0.163 F 
HETATM   27  F2  UNL     1      23.712   0.046  -7.495  1.00  0.00    -0.163 F 
HETATM   28  F3  UNL     1      23.187  -1.907  -8.409  1.00  0.00    -0.163 F 
ENDBRANCH   1  25
BRANCH   5  29
HETATM   29  C4  UNL     1      20.629  -0.101 -11.827  1.00  0.00     0.083 C 
HETATM   30  C5  UNL     1      20.518   0.553 -10.429  1.00  0.00     0.025 C 
HETATM   31  C6  UNL     1      19.199   0.119  -9.894  1.00  0.00     0.002 C 
HETATM   32  C7  UNL     1      19.126  -1.358  -9.657  1.00  0.00     0.000 C 
HETATM   33  C8  UNL     1      19.860  -2.188 -10.624  1.00  0.00     0.002 C 
HETATM   34  C9  UNL     1      20.866  -1.556 -11.505  1.00  0.00     0.025 C 
ENDBRANCH   5  29
TORSDOF 4
ENDMDL
MODEL 5
REMARK VINA RESULT: -0.622341728      2.886      8.359
REMARK  4 active torsions:
REMARK  status: ('A' for Active; 'I' for Inactive)
REMARK    1  A    between atoms: C1_2  and  C2_5 
REMARK    2  A    between atoms: N2_9  and  C4_11 
REMARK    3  A    between atoms: N4_21  and  C12_22 
REMARK    4  A    between atoms: C12_22  and  C13_23 
ROOT
HETATM    1  C2  UNL     1      20.272   0.404 -10.348  1.00  0.00     0.193 A 
HETATM    2  N1  UNL     1      19.891  -0.785 -10.836  1.00  0.00    -0.323 N 
ATOM      3  H1  UNL     1      18.894  -0.934 -10.991  1.00  0.00     0.169 HD
HETATM    4  C3  UNL     1      20.726  -1.797 -11.136  1.00  0.00     0.134 A 
HETATM    5  N2  UNL     1      20.361  -3.003 -11.419  1.00  0.00    -0.370 N 
ATOM      6  H2  UNL     1      21.034  -3.734 -11.650  1.00  0.00     0.161 HD
HETATM    7  C10 UNL     1      22.097  -1.528 -10.907  1.00  0.00     0.122 A 
HETATM    8  N3  UNL     1      23.151  -2.338 -11.011  1.00  0.00    -0.346 N 
ATOM      9  H3  UNL     1      23.149  -3.298 -11.356  1.00  0.00     0.167 HD
HETATM   10  C11 UNL     1      24.240  -1.632 -10.566  1.00  0.00     0.189 A 
HETATM   11  N4  UNL     1      23.848  -0.407 -10.196  1.00  0.00    -0.306 N 
HETATM   12  C19 UNL     1      22.505  -0.345 -10.414  1.00  0.00     0.145 A 
HETATM   13  N6  UNL     1      21.591   0.609 -10.146  1.00  0.00    -0.322 N 
ATOM     14  H6  UNL     1      21.904   1.509  -9.780  1.00  0.00     0.169 HD
ENDROOT
BRANCH  11  15
HETATM   15  C12 UNL     1      24.671   0.643  -9.710  1.00  0.00     0.079 C 
BRANCH  15  16
HETATM   16  C13 UNL     1      26.105   0.538  -9.560  1.00  0.00     0.055 C 
HETATM   17  C14 UNL     1      26.327  -0.383  -8.328  1.00  0.00     0.014 C 
HETATM   18  C15 UNL     1      27.730  -0.406  -7.858  1.00  0.00     0.034 C 
HETATM   19  C16 UNL     1      28.465   0.827  -8.293  1.00  0.00     0.188 C 
HETATM   20  C17 UNL     1      28.477   0.858  -9.802  1.00  0.00     0.066 C 
HETATM   21  N5  UNL     1      27.651   2.009  -8.322  1.00  0.00    -0.066 N 
HETATM   22  C18 UNL     1      27.098   1.587  -9.573  1.00  0.00     0.197 C 
ATOM     23  H52 UNL     1      27.036   2.226  -7.538  1.00  0.00     0.278 HD
ATOM     24  H51 UNL     1      28.082   2.930  -8.237  1.00  0.00     0.278 HD
ENDBRANCH  15  16
ENDBRANCH  11  15
BRANCH   1  25
HETATM   25  C1  UNL     1      19.316   1.471  -9.970  1.00  0.00     0.449 C 
HETATM   26  F1  UNL     1      18.806   1.377  -8.723  1.00  0.00    -0.163 F 
HETATM   27  F2  UNL     1      19.877   2.718 -10.163  1.00  0.00    -0.163 F 
HETATM   28  F3  UNL     1      18.253   1.378 -10.864  1.00  0.00    -0.163 F 
ENDBRANCH   1  25
BRANCH   5  29
HETATM   29  C4  UNL     1      18.916  -3.254 -11.386  1.00  0.00     0.083 C 
HETATM   30  C5  UNL     1      18.252  -2.237 -12.344  1.00  0.00     0.025 C 
HETATM   31  C6  UNL     1      16.817  -2.625 -12.401  1.00  0.00     0.002 C 
HETATM   32  C7  UNL     1      16.119  -2.458 -11.086  1.00  0.00     0.000 C 
HETATM   33  C8  UNL     1      16.935  -2.749  -9.897  1.00  0.00     0.002 C 
HETATM   34  C9  UNL     1      18.405  -2.830 -10.030  1.00  0.00     0.025 C 
ENDBRANCH   5  29
TORSDOF 4
ENDMDL
