MODEL 1
REMARK VINA RESULT: -5.219869867      0.000      0.000
REMARK  4 active torsions:
REMARK  status: ('A' for Active; 'I' for Inactive)
REMARK    1  A    between atoms: N1_1  and  N2_4 
REMARK    2  A    between atoms: N2_4  and  N3_6 
REMARK    3  A    between atoms: C1_8  and  C2_9 
REMARK    4  A    between atoms: C2_9  and  N4_10 
ROOT
HETATM    1  N3  UNL     1      83.263 -19.169  19.801  1.00  0.00    -0.300 N 
ATOM      2  H3  UNL     1      84.265 -19.346  19.864  1.00  0.00     0.187 HD
HETATM    3  C1  UNL     1      82.529 -20.119  19.396  1.00  0.00     0.104 C 
ENDROOT
BRANCH   1   4
HETATM    4  N2  UNL     1      82.819 -17.911  20.167  1.00  0.00    -0.250 N 
ATOM      5  H2  UNL     1      81.953 -17.831  20.701  1.00  0.00     0.207 HD
BRANCH   4   6
HETATM    6  N1  UNL     1      83.459 -16.837  19.856  1.00  0.00    -0.331 N 
ATOM      7  H12 UNL     1      82.918 -16.041  19.518  1.00  0.00     0.178 HD
ATOM      8  H11 UNL     1      84.473 -16.763  19.938  1.00  0.00     0.178 HD
ENDBRANCH   4   6
ENDBRANCH   1   4
BRANCH   3   9
HETATM    9  C2  UNL     1      83.120 -21.426  19.031  1.00  0.00     0.212 C 
BRANCH   9  10
HETATM   10  N4  UNL     1      83.742 -22.070  20.189  1.00  0.00    -0.182 N 
HETATM   11  N5  UNL     1      83.563 -22.021  21.498  1.00  0.00     0.061 NA
HETATM   12  O1  UNL     1      84.522 -22.878  21.677  1.00  0.00    -0.125 OA
HETATM   13  N6  UNL     1      84.714 -22.941  20.401  1.00  0.00     0.061 NA
ENDBRANCH   9  10
ENDBRANCH   3   9
TORSDOF 4
ENDMDL
MODEL 2
REMARK VINA RESULT: -4.921925951      1.296      1.777
REMARK  4 active torsions:
REMARK  status: ('A' for Active; 'I' for Inactive)
REMARK    1  A    between atoms: N1_1  and  N2_4 
REMARK    2  A    between atoms: N2_4  and  N3_6 
REMARK    3  A    between atoms: C1_8  and  C2_9 
REMARK    4  A    between atoms: C2_9  and  N4_10 
ROOT
HETATM    1  N3  UNL     1      82.101 -19.500  19.819  1.00  0.00    -0.300 N 
ATOM      2  H3  UNL     1      83.040 -19.176  20.052  1.00  0.00     0.187 HD
HETATM    3  C1  UNL     1      82.000 -20.632  19.256  1.00  0.00     0.104 C 
ENDROOT
BRANCH   1   4
HETATM    4  N2  UNL     1      81.045 -18.669  20.144  1.00  0.00    -0.250 N 
ATOM      5  H2  UNL     1      81.147 -18.029  20.932  1.00  0.00     0.207 HD
BRANCH   4   6
HETATM    6  N1  UNL     1      79.937 -18.674  19.487  1.00  0.00    -0.331 N 
ATOM      7  H12 UNL     1      79.067 -18.710  20.019  1.00  0.00     0.178 HD
ATOM      8  H11 UNL     1      79.907 -18.644  18.468  1.00  0.00     0.178 HD
ENDBRANCH   4   6
ENDBRANCH   1   4
BRANCH   3   9
HETATM    9  C2  UNL     1      83.207 -21.435  18.955  1.00  0.00     0.212 C 
BRANCH   9  10
HETATM   10  N4  UNL     1      83.746 -22.057  20.166  1.00  0.00    -0.182 N 
HETATM   11  N5  UNL     1      84.697 -22.938  20.424  1.00  0.00     0.061 NA
HETATM   12  O1  UNL     1      84.446 -22.860  21.695  1.00  0.00    -0.125 OA
HETATM   13  N6  UNL     1      83.513 -21.997  21.466  1.00  0.00     0.061 NA
ENDBRANCH   9  10
ENDBRANCH   3   9
TORSDOF 4
ENDMDL
MODEL 3
REMARK VINA RESULT: -4.903163695      1.695      1.969
REMARK  4 active torsions:
REMARK  status: ('A' for Active; 'I' for Inactive)
REMARK    1  A    between atoms: N1_1  and  N2_4 
REMARK    2  A    between atoms: N2_4  and  N3_6 
REMARK    3  A    between atoms: C1_8  and  C2_9 
REMARK    4  A    between atoms: C2_9  and  N4_10 
ROOT
HETATM    1  N3  UNL     1      83.257 -18.667  20.039  1.00  0.00    -0.300 N 
ATOM      2  H3  UNL     1      83.311 -19.335  19.270  1.00  0.00     0.187 HD
HETATM    3  C1  UNL     1      82.745 -19.073  21.126  1.00  0.00     0.104 C 
ENDROOT
BRANCH   1   4
HETATM    4  N2  UNL     1      83.748 -17.395  19.808  1.00  0.00    -0.250 N 
ATOM      5  H2  UNL     1      84.727 -17.286  19.544  1.00  0.00     0.207 HD
BRANCH   4   6
HETATM    6  N1  UNL     1      83.011 -16.343  19.916  1.00  0.00    -0.331 N 
ATOM      7  H12 UNL     1      82.271 -16.349  20.618  1.00  0.00     0.178 HD
ATOM      8  H11 UNL     1      83.147 -15.520  19.328  1.00  0.00     0.178 HD
ENDBRANCH   4   6
ENDBRANCH   1   4
BRANCH   3   9
HETATM    9  C2  UNL     1      82.252 -20.462  21.255  1.00  0.00     0.212 C 
BRANCH   9  10
HETATM   10  N4  UNL     1      82.781 -21.316  20.189  1.00  0.00    -0.182 N 
HETATM   11  N5  UNL     1      83.951 -21.874  19.930  1.00  0.00     0.061 NA
HETATM   12  O1  UNL     1      83.475 -22.402  18.843  1.00  0.00    -0.125 OA
HETATM   13  N6  UNL     1      82.323 -21.865  19.078  1.00  0.00     0.061 NA
ENDBRANCH   9  10
ENDBRANCH   3   9
TORSDOF 4
ENDMDL
MODEL 4
REMARK VINA RESULT: -4.686995908      2.309      2.670
REMARK  4 active torsions:
REMARK  status: ('A' for Active; 'I' for Inactive)
REMARK    1  A    between atoms: N1_1  and  N2_4 
REMARK    2  A    between atoms: N2_4  and  N3_6 
REMARK    3  A    between atoms: C1_8  and  C2_9 
REMARK    4  A    between atoms: C2_9  and  N4_10 
ROOT
HETATM    1  N3  UNL     1      81.329 -19.779  19.533  1.00  0.00    -0.300 N 
ATOM      2  H3  UNL     1      82.166 -19.633  18.970  1.00  0.00     0.187 HD
HETATM    3  C1  UNL     1      81.468 -20.392  20.634  1.00  0.00     0.104 C 
ENDROOT
BRANCH   1   4
HETATM    4  N2  UNL     1      80.136 -19.290  19.033  1.00  0.00    -0.250 N 
ATOM      5  H2  UNL     1      79.570 -18.677  19.620  1.00  0.00     0.207 HD
BRANCH   4   6
HETATM    6  N1  UNL     1      79.714 -19.581  17.850  1.00  0.00    -0.331 N 
ATOM      7  H12 UNL     1      80.051 -20.444  17.423  1.00  0.00     0.178 HD
ATOM      8  H11 UNL     1      79.064 -18.983  17.340  1.00  0.00     0.178 HD
ENDBRANCH   4   6
ENDBRANCH   1   4
BRANCH   3   9
HETATM    9  C2  UNL     1      82.799 -20.871  21.067  1.00  0.00     0.212 C 
BRANCH   9  10
HETATM   10  N4  UNL     1      83.364 -21.817  20.102  1.00  0.00    -0.182 N 
HETATM   11  N5  UNL     1      84.379 -22.664  20.103  1.00  0.00     0.061 NA
HETATM   12  O1  UNL     1      84.098 -23.025  18.888  1.00  0.00    -0.125 OA
HETATM   13  N6  UNL     1      83.101 -22.204  18.866  1.00  0.00     0.061 NA
ENDBRANCH   9  10
ENDBRANCH   3   9
TORSDOF 4
ENDMDL
MODEL 5
REMARK VINA RESULT: -4.666847347      2.083      2.347
REMARK  4 active torsions:
REMARK  status: ('A' for Active; 'I' for Inactive)
REMARK    1  A    between atoms: N1_1  and  N2_4 
REMARK    2  A    between atoms: N2_4  and  N3_6 
REMARK    3  A    between atoms: C1_8  and  C2_9 
REMARK    4  A    between atoms: C2_9  and  N4_10 
ROOT
HETATM    1  N3  UNL     1      81.448 -19.605  19.795  1.00  0.00    -0.300 N 
ATOM      2  H3  UNL     1      82.300 -19.413  19.270  1.00  0.00     0.187 HD
HETATM    3  C1  UNL     1      81.544 -20.376  20.797  1.00  0.00     0.104 C 
ENDROOT
BRANCH   1   4
HETATM    4  N2  UNL     1      80.283 -19.002  19.356  1.00  0.00    -0.250 N 
ATOM      5  H2  UNL     1      79.707 -19.487  18.668  1.00  0.00     0.207 HD
BRANCH   4   6
HETATM    6  N1  UNL     1      79.900 -17.849  19.786  1.00  0.00    -0.331 N 
ATOM      7  H12 UNL     1      79.416 -17.234  19.133  1.00  0.00     0.178 HD
ATOM      8  H11 UNL     1      80.065 -17.542  20.745  1.00  0.00     0.178 HD
ENDBRANCH   4   6
ENDBRANCH   1   4
BRANCH   3   9
HETATM    9  C2  UNL     1      82.848 -20.966  21.173  1.00  0.00     0.212 C 
BRANCH   9  10
HETATM   10  N4  UNL     1      83.340 -21.874  20.135  1.00  0.00    -0.182 N 
HETATM   11  N5  UNL     1      82.955 -22.197  18.912  1.00  0.00     0.061 NA
HETATM   12  O1  UNL     1      83.949 -23.026  18.802  1.00  0.00    -0.125 OA
HETATM   13  N6  UNL     1      84.342 -22.725  19.995  1.00  0.00     0.061 NA
ENDBRANCH   9  10
ENDBRANCH   3   9
TORSDOF 4
ENDMDL
