MODEL 1
REMARK VINA RESULT: -4.070988215      0.000      0.000
REMARK  3 active torsions:
REMARK  status: ('A' for Active; 'I' for Inactive)
REMARK    1  A    between atoms: O1_1  and  C1_3 
REMARK    2  A    between atoms: C1_3  and  C2_4 
REMARK    3  A    between atoms: C2_4  and  N1_5 
ROOT
HETATM    1  N1  UNL     1      82.694 -18.510  20.513  1.00  0.00    -0.195 N 
HETATM    2  N2  UNL     1      81.599 -17.868  20.498  1.00  0.00    -0.163 N 
ATOM      3  H2  UNL     1      80.689 -18.268  20.728  1.00  0.00     0.220 HD
HETATM    4  O2  UNL     1      81.808 -16.566  20.129  1.00  0.00    -0.123 OA
HETATM    5  N3  UNL     1      83.171 -16.454  19.910  1.00  0.00    -0.165 N 
ATOM      6  H3  UNL     1      83.673 -15.615  19.620  1.00  0.00     0.220 HD
HETATM    7  N4  UNL     1      83.675 -17.597  20.138  1.00  0.00    -0.203 N 
ATOM      8  H4  UNL     1      84.668 -17.816  20.058  1.00  0.00     0.212 HD
ENDROOT
BRANCH   1   9
HETATM    9  C2  UNL     1      82.861 -19.912  20.856  1.00  0.00     0.199 C 
BRANCH   9  10
HETATM   10  C1  UNL     1      83.260 -20.664  19.602  1.00  0.00     0.187 C 
BRANCH  10  11
HETATM   11  O1  UNL     1      82.816 -19.948  18.484  1.00  0.00    -0.399 OA
ATOM     12  H1  UNL     1      81.929 -20.219  18.278  1.00  0.00     0.209 HD
ENDBRANCH  10  11
ENDBRANCH   9  10
ENDBRANCH   1   9
TORSDOF 3
ENDMDL
MODEL 2
REMARK VINA RESULT: -4.009454848      2.255      2.747
REMARK  3 active torsions:
REMARK  status: ('A' for Active; 'I' for Inactive)
REMARK    1  A    between atoms: O1_1  and  C1_3 
REMARK    2  A    between atoms: C1_3  and  C2_4 
REMARK    3  A    between atoms: C2_4  and  N1_5 
ROOT
HETATM    1  N1  UNL     1      82.356 -20.034  19.255  1.00  0.00    -0.195 N 
HETATM    2  N2  UNL     1      81.365 -20.332  18.520  1.00  0.00    -0.163 N 
ATOM      3  H2  UNL     1      81.384 -21.026  17.772  1.00  0.00     0.220 HD
HETATM    4  O2  UNL     1      80.266 -19.592  18.869  1.00  0.00    -0.123 OA
HETATM    5  N3  UNL     1      80.677 -18.785  19.916  1.00  0.00    -0.165 N 
ATOM      6  H3  UNL     1      80.107 -18.105  20.420  1.00  0.00     0.220 HD
HETATM    7  N4  UNL     1      81.899 -19.055  20.131  1.00  0.00    -0.203 N 
ATOM      8  H4  UNL     1      82.470 -18.611  20.850  1.00  0.00     0.212 HD
ENDROOT
BRANCH   1   9
HETATM    9  C2  UNL     1      83.686 -20.614  19.175  1.00  0.00     0.199 C 
BRANCH   9  10
HETATM   10  C1  UNL     1      83.611 -22.044  19.671  1.00  0.00     0.187 C 
BRANCH  10  11
HETATM   11  O1  UNL     1      84.039 -22.900  18.649  1.00  0.00    -0.399 OA
ATOM     12  H1  UNL     1      83.582 -22.674  17.848  1.00  0.00     0.209 HD
ENDBRANCH  10  11
ENDBRANCH   9  10
ENDBRANCH   1   9
TORSDOF 3
ENDMDL
MODEL 3
REMARK VINA RESULT: -3.959059471      1.737      1.974
REMARK  3 active torsions:
REMARK  status: ('A' for Active; 'I' for Inactive)
REMARK    1  A    between atoms: O1_1  and  C1_3 
REMARK    2  A    between atoms: C1_3  and  C2_4 
REMARK    3  A    between atoms: C2_4  and  N1_5 
ROOT
HETATM    1  N1  UNL     1      82.264 -20.006  19.579  1.00  0.00    -0.195 N 
HETATM    2  N2  UNL     1      81.206 -19.364  19.864  1.00  0.00    -0.163 N 
ATOM      3  H2  UNL     1      80.264 -19.754  19.827  1.00  0.00     0.220 HD
HETATM    4  O2  UNL     1      81.505 -18.078  20.228  1.00  0.00    -0.123 OA
HETATM    5  N3  UNL     1      82.883 -17.976  20.140  1.00  0.00    -0.165 N 
ATOM      6  H3  UNL     1      83.446 -17.150  20.341  1.00  0.00     0.220 HD
HETATM    7  N4  UNL     1      83.312 -19.110  19.760  1.00  0.00    -0.203 N 
ATOM      8  H4  UNL     1      84.296 -19.333  19.608  1.00  0.00     0.212 HD
ENDROOT
BRANCH   1   9
HETATM    9  C2  UNL     1      82.335 -21.393  19.153  1.00  0.00     0.199 C 
BRANCH   9  10
HETATM   10  C1  UNL     1      83.702 -21.934  19.523  1.00  0.00     0.187 C 
BRANCH  10  11
HETATM   11  O1  UNL     1      84.053 -22.939  18.613  1.00  0.00    -0.399 OA
ATOM     12  H1  UNL     1      83.532 -23.712  18.793  1.00  0.00     0.209 HD
ENDBRANCH  10  11
ENDBRANCH   9  10
ENDBRANCH   1   9
TORSDOF 3
ENDMDL
MODEL 4
REMARK VINA RESULT: -3.922802746      3.696      4.515
REMARK  3 active torsions:
REMARK  status: ('A' for Active; 'I' for Inactive)
REMARK    1  A    between atoms: O1_1  and  C1_3 
REMARK    2  A    between atoms: C1_3  and  C2_4 
REMARK    3  A    between atoms: C2_4  and  N1_5 
ROOT
HETATM    1  N1  UNL     1      83.105 -21.386  20.025  1.00  0.00    -0.195 N 
HETATM    2  N2  UNL     1      84.060 -21.943  19.401  1.00  0.00    -0.163 N 
ATOM      3  H2  UNL     1      84.362 -21.692  18.459  1.00  0.00     0.220 HD
HETATM    4  O2  UNL     1      84.628 -22.926  20.166  1.00  0.00    -0.123 OA
HETATM    5  N3  UNL     1      83.919 -22.930  21.355  1.00  0.00    -0.165 N 
ATOM      6  H3  UNL     1      84.078 -23.542  22.156  1.00  0.00     0.220 HD
HETATM    7  N4  UNL     1      83.033 -22.025  21.258  1.00  0.00    -0.203 N 
ATOM      8  H4  UNL     1      82.359 -21.797  21.989  1.00  0.00     0.212 HD
ENDROOT
BRANCH   1   9
HETATM    9  C2  UNL     1      82.273 -20.304  19.528  1.00  0.00     0.199 C 
BRANCH   9  10
HETATM   10  C1  UNL     1      81.110 -20.909  18.766  1.00  0.00     0.187 C 
BRANCH  10  11
HETATM   11  O1  UNL     1      81.125 -22.298  18.946  1.00  0.00    -0.399 OA
ATOM     12  H1  UNL     1      80.246 -22.589  19.157  1.00  0.00     0.209 HD
ENDBRANCH  10  11
ENDBRANCH   9  10
ENDBRANCH   1   9
TORSDOF 3
ENDMDL
MODEL 5
REMARK VINA RESULT: -3.921113372      1.844      2.370
REMARK  3 active torsions:
REMARK  status: ('A' for Active; 'I' for Inactive)
REMARK    1  A    between atoms: O1_1  and  C1_3 
REMARK    2  A    between atoms: C1_3  and  C2_4 
REMARK    3  A    between atoms: C2_4  and  N1_5 
ROOT
HETATM    1  N1  UNL     1      82.202 -20.046  19.613  1.00  0.00    -0.195 N 
HETATM    2  N2  UNL     1      83.168 -19.229  19.724  1.00  0.00    -0.163 N 
ATOM      3  H2  UNL     1      84.147 -19.461  19.552  1.00  0.00     0.220 HD
HETATM    4  O2  UNL     1      82.715 -17.995  20.106  1.00  0.00    -0.123 OA
HETATM    5  N3  UNL     1      81.341 -18.122  20.225  1.00  0.00    -0.165 N 
ATOM      6  H3  UNL     1      80.684 -17.390  20.496  1.00  0.00     0.220 HD
HETATM    7  N4  UNL     1      81.056 -19.325  19.934  1.00  0.00    -0.203 N 
ATOM      8  H4  UNL     1      80.112 -19.711  19.935  1.00  0.00     0.212 HD
ENDROOT
BRANCH   1   9
HETATM    9  C2  UNL     1      82.302 -21.443  19.227  1.00  0.00     0.199 C 
BRANCH   9  10
HETATM   10  C1  UNL     1      83.709 -21.919  19.525  1.00  0.00     0.187 C 
BRANCH  10  11
HETATM   11  O1  UNL     1      84.036 -22.952  18.638  1.00  0.00    -0.399 OA
ATOM     12  H1  UNL     1      83.483 -22.882  17.869  1.00  0.00     0.209 HD
ENDBRANCH  10  11
ENDBRANCH   9  10
ENDBRANCH   1   9
TORSDOF 3
ENDMDL
