MODEL 1
REMARK VINA RESULT: -3.845453902      0.000      0.000
REMARK  1 active torsions:
REMARK  status: ('A' for Active; 'I' for Inactive)
REMARK    1  A    between atoms: O1_2  and  N1_3 
ROOT
HETATM    1  N1  UNL     1      83.198 -18.641  20.253  1.00  0.00    -0.140 N 
HETATM    2  C2  UNL     1      83.930 -17.518  20.193  1.00  0.00     0.253 A 
HETATM    3  N2  UNL     1      83.111 -16.453  20.211  1.00  0.00    -0.277 N 
ATOM      4  H2  UNL     1      83.388 -15.473  20.177  1.00  0.00     0.189 HD
HETATM    5  N3  UNL     1      81.886 -16.918  20.280  1.00  0.00    -0.225 N 
ATOM      6  H3  UNL     1      81.036 -16.356  20.309  1.00  0.00     0.210 HD
HETATM    7  N4  UNL     1      81.938 -18.227  20.305  1.00  0.00    -0.201 N 
ATOM      8  H4  UNL     1      81.126 -18.841  20.358  1.00  0.00     0.212 HD
ENDROOT
BRANCH   1   9
HETATM    9  O1  UNL     1      83.629 -19.950  20.259  1.00  0.00    -0.261 OA
HETATM   10  C1  UNL     1      83.375 -20.742  19.135  1.00  0.00     0.240 C 
ENDBRANCH   1   9
TORSDOF 1
ENDMDL
MODEL 2
REMARK VINA RESULT: -3.839323648      0.948      1.324
REMARK  1 active torsions:
REMARK  status: ('A' for Active; 'I' for Inactive)
REMARK    1  A    between atoms: O1_2  and  N1_3 
ROOT
HETATM    1  N1  UNL     1      83.238 -18.426  20.296  1.00  0.00    -0.140 N 
HETATM    2  C2  UNL     1      82.058 -18.024  20.791  1.00  0.00     0.253 A 
HETATM    3  N2  UNL     1      81.938 -16.696  20.630  1.00  0.00    -0.277 N 
ATOM      4  H2  UNL     1      81.147 -16.117  20.911  1.00  0.00     0.189 HD
HETATM    5  N3  UNL     1      83.037 -16.285  20.040  1.00  0.00    -0.225 N 
ATOM      6  H3  UNL     1      83.250 -15.322  19.782  1.00  0.00     0.210 HD
HETATM    7  N4  UNL     1      83.814 -17.320  19.841  1.00  0.00    -0.201 N 
ATOM      8  H4  UNL     1      84.732 -17.283  19.398  1.00  0.00     0.212 HD
ENDROOT
BRANCH   1   9
HETATM    9  O1  UNL     1      83.765 -19.699  20.255  1.00  0.00    -0.261 OA
HETATM   10  C1  UNL     1      83.500 -20.496  19.138  1.00  0.00     0.240 C 
ENDBRANCH   1   9
TORSDOF 1
ENDMDL
MODEL 3
REMARK VINA RESULT: -3.793222186      2.931      3.643
REMARK  1 active torsions:
REMARK  status: ('A' for Active; 'I' for Inactive)
REMARK    1  A    between atoms: O1_2  and  N1_3 
ROOT
HETATM    1  N1  UNL     1      81.339 -16.445  21.317  1.00  0.00    -0.140 N 
HETATM    2  C2  UNL     1      80.083 -16.884  21.488  1.00  0.00     0.253 A 
HETATM    3  N2  UNL     1      79.577 -16.354  22.614  1.00  0.00    -0.277 N 
ATOM      4  H2  UNL     1      78.644 -16.511  22.994  1.00  0.00     0.189 HD
HETATM    5  N3  UNL     1      80.515 -15.595  23.131  1.00  0.00    -0.225 N 
ATOM      6  H3  UNL     1      80.437 -15.055  23.992  1.00  0.00     0.210 HD
HETATM    7  N4  UNL     1      81.569 -15.650  22.355  1.00  0.00    -0.201 N 
ATOM      8  H4  UNL     1      82.443 -15.151  22.524  1.00  0.00     0.212 HD
ENDROOT
BRANCH   1   9
HETATM    9  O1  UNL     1      82.223 -16.737  20.300  1.00  0.00    -0.261 OA
HETATM   10  C1  UNL     1      83.404 -17.413  20.616  1.00  0.00     0.240 C 
ENDBRANCH   1   9
TORSDOF 1
ENDMDL
MODEL 4
REMARK VINA RESULT: -3.766219442      2.996      3.679
REMARK  1 active torsions:
REMARK  status: ('A' for Active; 'I' for Inactive)
REMARK    1  A    between atoms: O1_2  and  N1_3 
ROOT
HETATM    1  N1  UNL     1      81.877 -21.440  19.003  1.00  0.00    -0.140 N 
HETATM    2  C2  UNL     1      83.189 -21.681  19.145  1.00  0.00     0.253 A 
HETATM    3  N2  UNL     1      83.856 -20.516  19.162  1.00  0.00    -0.277 N 
ATOM      4  H2  UNL     1      84.864 -20.393  19.259  1.00  0.00     0.189 HD
HETATM    5  N3  UNL     1      82.960 -19.565  19.031  1.00  0.00    -0.225 N 
ATOM      6  H3  UNL     1      83.153 -18.564  19.007  1.00  0.00     0.210 HD
HETATM    7  N4  UNL     1      81.777 -20.118  18.936  1.00  0.00    -0.201 N 
ATOM      8  H4  UNL     1      80.902 -19.606  18.826  1.00  0.00     0.212 HD
ENDROOT
BRANCH   1   9
HETATM    9  O1  UNL     1      80.838 -22.343  18.937  1.00  0.00    -0.261 OA
HETATM   10  C1  UNL     1      79.631 -21.931  18.363  1.00  0.00     0.240 C 
ENDBRANCH   1   9
TORSDOF 1
ENDMDL
MODEL 5
REMARK VINA RESULT: -3.751287663      2.821      3.445
REMARK  1 active torsions:
REMARK  status: ('A' for Active; 'I' for Inactive)
REMARK    1  A    between atoms: O1_2  and  N1_3 
ROOT
HETATM    1  N1  UNL     1      81.300 -16.461  21.297  1.00  0.00    -0.140 N 
HETATM    2  C2  UNL     1      81.514 -15.682  22.368  1.00  0.00     0.253 A 
HETATM    3  N2  UNL     1      80.403 -15.647  23.121  1.00  0.00    -0.277 N 
ATOM      4  H2  UNL     1      80.275 -15.136  23.994  1.00  0.00     0.189 HD
HETATM    5  N3  UNL     1      79.512 -16.399  22.517  1.00  0.00    -0.225 N 
ATOM      6  H3  UNL     1      78.562 -16.574  22.842  1.00  0.00     0.210 HD
HETATM    7  N4  UNL     1      80.049 -16.886  21.426  1.00  0.00    -0.201 N 
ATOM      8  H4  UNL     1      79.574 -17.504  20.769  1.00  0.00     0.212 HD
ENDROOT
BRANCH   1   9
HETATM    9  O1  UNL     1      82.167 -16.771  20.271  1.00  0.00    -0.261 OA
HETATM   10  C1  UNL     1      83.390 -17.370  20.588  1.00  0.00     0.240 C 
ENDBRANCH   1   9
TORSDOF 1
ENDMDL
