MODEL 1
REMARK VINA RESULT: -7.858725097      0.000      0.000
REMARK  10 active torsions:
REMARK  status: ('A' for Active; 'I' for Inactive)
REMARK    1  A    between atoms: C2_2  and  O1_3 
REMARK    2  A    between atoms: C2_2  and  C3_5 
REMARK    3  A    between atoms: C3_5  and  C4_6 
REMARK    4  A    between atoms: C6_10  and  N2_11 
REMARK    5  A    between atoms: C7_13  and  C8_14 
REMARK    6  A    between atoms: C8_14  and  C9_15 
REMARK    7  A    between atoms: C9_15  and  N3_16 
REMARK    8  A    between atoms: C9_15  and  C10_20 
REMARK    9  A    between atoms: C16_26  and  C17_27 
REMARK   10  A    between atoms: C17_27  and  N6_32 
REMARK       I    between atoms: N6_32  and  C19_34 
ROOT
HETATM    1  C17 UNL     1      -5.718  -1.596  -1.814  1.00  0.00     0.131 C 
HETATM    2  N4  UNL     1      -5.807  -2.006  -3.001  1.00  0.00    -0.278 N 
ATOM      3  H4  UNL     1      -5.455  -1.371  -3.718  1.00  0.00     0.179 HD
HETATM    4  C18 UNL     1      -6.314  -3.196  -3.455  1.00  0.00     0.183 C 
HETATM    5  N5  UNL     1      -6.722  -4.221  -3.865  1.00  0.00    -0.172 NA
ENDROOT
BRANCH   1   6
HETATM    6  C16 UNL     1      -6.161  -2.341  -0.669  1.00  0.00     0.059 A 
HETATM    7  C4  UNL     1      -5.338  -3.182   0.054  1.00  0.00     0.028 A 
HETATM    8  N1  UNL     1      -6.112  -3.654   1.068  1.00  0.00    -0.366 N 
HETATM    9  C5  UNL     1      -7.339  -3.162   1.013  1.00  0.00     0.118 A 
ATOM     10  H1  UNL     1      -5.787  -4.307   1.781  1.00  0.00     0.165 HD
HETATM   11  C6  UNL     1      -7.381  -2.333  -0.076  1.00  0.00     0.063 A 
BRANCH   7  12
HETATM   12  C3  UNL     1      -3.944  -3.584  -0.102  1.00  0.00     0.089 C 
BRANCH  12  13
HETATM   13  C2  UNL     1      -3.165  -3.761   1.160  1.00  0.00     0.119 C 
HETATM   14  C1  UNL     1      -1.683  -3.622   0.783  1.00  0.00     0.039 C 
BRANCH  13  15
HETATM   15  O1  UNL     1      -3.386  -4.920   1.852  1.00  0.00    -0.396 OA
ATOM     16  H1  UNL     1      -3.661  -5.616   1.266  1.00  0.00     0.210 HD
ENDBRANCH  13  15
ENDBRANCH  12  13
ENDBRANCH   7  12
BRANCH  11  17
HETATM   17  N2  UNL     1      -8.567  -1.591  -0.438  1.00  0.00    -0.368 N 
HETATM   18  C7  UNL     1      -9.295  -2.022  -1.383  1.00  0.00     0.063 C 
ATOM     19  H2  UNL     1      -8.816  -0.735   0.058  1.00  0.00     0.165 HD
BRANCH  18  20
HETATM   20  C8  UNL     1     -10.528  -1.231  -1.744  1.00  0.00     0.077 C 
BRANCH  20  21
HETATM   21  C9  UNL     1     -11.346  -0.947  -0.529  1.00  0.00     0.192 C 
BRANCH  21  22
HETATM   22  N3  UNL     1     -12.643  -1.596  -0.601  1.00  0.00    -0.074 N 
ATOM     23  H33 UNL     1     -12.666  -2.307  -1.332  1.00  0.00     0.274 HD
ATOM     24  H32 UNL     1     -12.806  -2.197   0.207  1.00  0.00     0.274 HD
ATOM     25  H31 UNL     1     -13.393  -0.915  -0.718  1.00  0.00     0.274 HD
ENDBRANCH  21  22
BRANCH  21  26
HETATM   26  C10 UNL     1     -11.563   0.534  -0.373  1.00  0.00     0.016 C 
HETATM   27  C11 UNL     1     -10.378   1.272   0.175  1.00  0.00     0.007 C 
HETATM   28  C12 UNL     1     -10.840   2.667   0.560  1.00  0.00     0.000 C 
HETATM   29  C13 UNL     1     -12.117   3.052  -0.122  1.00  0.00     0.000 C 
HETATM   30  C14 UNL     1     -12.177   2.593  -1.549  1.00  0.00     0.000 C 
HETATM   31  C15 UNL     1     -11.896   1.131  -1.729  1.00  0.00     0.007 C 
ENDBRANCH  21  26
ENDBRANCH  20  21
ENDBRANCH  18  20
ENDBRANCH  11  17
ENDBRANCH   1   6
BRANCH   1  32
HETATM   32  N6  UNL     1      -5.125  -0.290  -1.677  1.00  0.00    -0.316 N 
HETATM   33  C19 UNL     1      -4.216   0.239  -2.610  1.00  0.00     0.187 C 
HETATM   34  N7  UNL     1      -3.115  -0.313  -2.945  1.00  0.00    -0.373 N 
HETATM   35  N8  UNL     1      -4.553   1.491  -3.226  1.00  0.00    -0.064 NA
ATOM     36  H72 UNL     1      -2.876  -1.203  -2.508  1.00  0.00     0.158 HD
ATOM     37  H71 UNL     1      -2.455   0.071  -3.622  1.00  0.00     0.158 HD
ATOM     38  H6  UNL     1      -5.376   0.276  -0.867  1.00  0.00     0.170 HD
ENDBRANCH   1  32
TORSDOF 10
ENDMDL
MODEL 2
REMARK VINA RESULT: -7.836697321      1.349      1.896
REMARK  10 active torsions:
REMARK  status: ('A' for Active; 'I' for Inactive)
REMARK    1  A    between atoms: C2_2  and  O1_3 
REMARK    2  A    between atoms: C2_2  and  C3_5 
REMARK    3  A    between atoms: C3_5  and  C4_6 
REMARK    4  A    between atoms: C6_10  and  N2_11 
REMARK    5  A    between atoms: C7_13  and  C8_14 
REMARK    6  A    between atoms: C8_14  and  C9_15 
REMARK    7  A    between atoms: C9_15  and  N3_16 
REMARK    8  A    between atoms: C9_15  and  C10_20 
REMARK    9  A    between atoms: C16_26  and  C17_27 
REMARK   10  A    between atoms: C17_27  and  N6_32 
REMARK       I    between atoms: N6_32  and  C19_34 
ROOT
HETATM    1  C17 UNL     1      -5.680  -1.674  -1.875  1.00  0.00     0.131 C 
HETATM    2  N4  UNL     1      -5.800  -2.057  -3.068  1.00  0.00    -0.278 N 
ATOM      3  H4  UNL     1      -5.474  -1.403  -3.779  1.00  0.00     0.179 HD
HETATM    4  C18 UNL     1      -6.312  -3.240  -3.535  1.00  0.00     0.183 C 
HETATM    5  N5  UNL     1      -6.725  -4.258  -3.957  1.00  0.00    -0.172 NA
ENDROOT
BRANCH   1   6
HETATM    6  C16 UNL     1      -6.083  -2.449  -0.735  1.00  0.00     0.059 A 
HETATM    7  C4  UNL     1      -5.198  -3.155   0.054  1.00  0.00     0.028 A 
HETATM    8  N1  UNL     1      -5.959  -3.708   1.037  1.00  0.00    -0.366 N 
HETATM    9  C5  UNL     1      -7.235  -3.388   0.903  1.00  0.00     0.118 A 
ATOM     10  H1  UNL     1      -5.590  -4.296   1.785  1.00  0.00     0.165 HD
HETATM   11  C6  UNL     1      -7.326  -2.595  -0.210  1.00  0.00     0.063 A 
BRANCH   7  12
HETATM   12  C3  UNL     1      -3.756  -3.367  -0.014  1.00  0.00     0.089 C 
BRANCH  12  13
HETATM   13  C2  UNL     1      -3.074  -3.675   1.279  1.00  0.00     0.119 C 
HETATM   14  C1  UNL     1      -1.567  -3.516   1.027  1.00  0.00     0.039 C 
BRANCH  13  15
HETATM   15  O1  UNL     1      -3.349  -4.894   1.834  1.00  0.00    -0.396 OA
ATOM     16  H1  UNL     1      -4.198  -5.212   1.550  1.00  0.00     0.210 HD
ENDBRANCH  13  15
ENDBRANCH  12  13
ENDBRANCH   7  12
BRANCH  11  17
HETATM   17  N2  UNL     1      -8.578  -2.029  -0.656  1.00  0.00    -0.368 N 
HETATM   18  C7  UNL     1      -8.835  -0.818  -0.382  1.00  0.00     0.063 C 
ATOM     19  H2  UNL     1      -9.245  -2.593  -1.183  1.00  0.00     0.165 HD
BRANCH  18  20
HETATM   20  C8  UNL     1     -10.150  -0.247  -0.857  1.00  0.00     0.077 C 
BRANCH  20  21
HETATM   21  C9  UNL     1     -10.379   1.106  -0.273  1.00  0.00     0.192 C 
BRANCH  21  22
HETATM   22  N3  UNL     1      -9.285   1.497   0.599  1.00  0.00    -0.074 N 
ATOM     23  H33 UNL     1      -8.933   0.705   1.136  1.00  0.00     0.274 HD
ATOM     24  H32 UNL     1      -8.443   1.715   0.068  1.00  0.00     0.274 HD
ATOM     25  H31 UNL     1      -9.554   2.271   1.207  1.00  0.00     0.274 HD
ENDBRANCH  21  22
BRANCH  21  26
HETATM   26  C10 UNL     1     -11.655   1.127   0.524  1.00  0.00     0.016 C 
HETATM   27  C11 UNL     1     -12.527  -0.075   0.317  1.00  0.00     0.007 C 
HETATM   28  C12 UNL     1     -13.884   0.228   0.928  1.00  0.00     0.000 C 
HETATM   29  C13 UNL     1     -13.824   1.344   1.924  1.00  0.00     0.000 C 
HETATM   30  C14 UNL     1     -12.594   1.295   2.781  1.00  0.00     0.000 C 
HETATM   31  C15 UNL     1     -11.315   1.205   2.002  1.00  0.00     0.007 C 
ENDBRANCH  21  26
ENDBRANCH  20  21
ENDBRANCH  18  20
ENDBRANCH  11  17
ENDBRANCH   1   6
BRANCH   1  32
HETATM   32  N6  UNL     1      -5.092  -0.367  -1.724  1.00  0.00    -0.316 N 
HETATM   33  C19 UNL     1      -4.166   0.165  -2.638  1.00  0.00     0.187 C 
HETATM   34  N7  UNL     1      -3.057  -0.385  -2.952  1.00  0.00    -0.373 N 
HETATM   35  N8  UNL     1      -4.493   1.417  -3.259  1.00  0.00    -0.064 NA
ATOM     36  H72 UNL     1      -2.825  -1.274  -2.511  1.00  0.00     0.158 HD
ATOM     37  H71 UNL     1      -2.384   0.002  -3.615  1.00  0.00     0.158 HD
ATOM     38  H6  UNL     1      -5.360   0.197  -0.919  1.00  0.00     0.170 HD
ENDBRANCH   1  32
TORSDOF 10
ENDMDL
MODEL 3
REMARK VINA RESULT: -7.720771722      1.725      2.643
REMARK  10 active torsions:
REMARK  status: ('A' for Active; 'I' for Inactive)
REMARK    1  A    between atoms: C2_2  and  O1_3 
REMARK    2  A    between atoms: C2_2  and  C3_5 
REMARK    3  A    between atoms: C3_5  and  C4_6 
REMARK    4  A    between atoms: C6_10  and  N2_11 
REMARK    5  A    between atoms: C7_13  and  C8_14 
REMARK    6  A    between atoms: C8_14  and  C9_15 
REMARK    7  A    between atoms: C9_15  and  N3_16 
REMARK    8  A    between atoms: C9_15  and  C10_20 
REMARK    9  A    between atoms: C16_26  and  C17_27 
REMARK   10  A    between atoms: C17_27  and  N6_32 
REMARK       I    between atoms: N6_32  and  C19_34 
ROOT
HETATM    1  C17 UNL     1      -5.620  -1.515  -2.141  1.00  0.00     0.131 C 
HETATM    2  N4  UNL     1      -5.746  -0.360  -1.658  1.00  0.00    -0.278 N 
ATOM      3  H4  UNL     1      -5.371   0.401  -2.225  1.00  0.00     0.179 HD
HETATM    4  C18 UNL     1      -6.321   0.008  -0.469  1.00  0.00     0.183 C 
HETATM    5  N5  UNL     1      -6.831   0.350   0.535  1.00  0.00    -0.172 NA
ENDROOT
BRANCH   1   6
HETATM    6  C16 UNL     1      -6.077  -2.713  -1.494  1.00  0.00     0.059 A 
HETATM    7  C4  UNL     1      -5.250  -3.551  -0.774  1.00  0.00     0.028 A 
HETATM    8  N1  UNL     1      -6.063  -4.530  -0.294  1.00  0.00    -0.366 N 
HETATM    9  C5  UNL     1      -7.318  -4.347  -0.668  1.00  0.00     0.118 A 
ATOM     10  H1  UNL     1      -5.743  -5.309   0.283  1.00  0.00     0.165 HD
HETATM   11  C6  UNL     1      -7.340  -3.205  -1.424  1.00  0.00     0.063 A 
BRANCH   7  12
HETATM   12  C3  UNL     1      -3.817  -3.537  -0.498  1.00  0.00     0.089 C 
BRANCH  12  13
HETATM   13  C2  UNL     1      -3.424  -3.414   0.937  1.00  0.00     0.119 C 
HETATM   14  C1  UNL     1      -1.894  -3.274   0.962  1.00  0.00     0.039 C 
BRANCH  13  15
HETATM   15  O1  UNL     1      -3.834  -4.421   1.767  1.00  0.00    -0.396 OA
ATOM     16  H1  UNL     1      -4.443  -4.998   1.322  1.00  0.00     0.210 HD
ENDBRANCH  13  15
ENDBRANCH  12  13
ENDBRANCH   7  12
BRANCH  11  17
HETATM   17  N2  UNL     1      -8.560  -2.674  -1.988  1.00  0.00    -0.368 N 
HETATM   18  C7  UNL     1      -9.381  -2.083  -1.223  1.00  0.00     0.063 C 
ATOM     19  H2  UNL     1      -8.757  -2.773  -2.984  1.00  0.00     0.165 HD
BRANCH  18  20
HETATM   20  C8  UNL     1     -10.649  -1.537  -1.834  1.00  0.00     0.077 C 
BRANCH  20  21
HETATM   21  C9  UNL     1     -10.826  -0.097  -1.481  1.00  0.00     0.192 C 
BRANCH  21  22
HETATM   22  N3  UNL     1      -9.675   0.414  -0.758  1.00  0.00    -0.074 N 
ATOM     23  H33 UNL     1      -8.866  -0.199  -0.859  1.00  0.00     0.274 HD
ATOM     24  H32 UNL     1      -9.295   1.250  -1.203  1.00  0.00     0.274 HD
ATOM     25  H31 UNL     1      -9.897   0.582   0.223  1.00  0.00     0.274 HD
ENDBRANCH  21  22
BRANCH  21  26
HETATM   26  C10 UNL     1     -12.048   0.089  -0.624  1.00  0.00     0.016 C 
HETATM   27  C11 UNL     1     -12.861  -1.157  -0.436  1.00  0.00     0.007 C 
HETATM   28  C12 UNL     1     -14.192  -0.752   0.173  1.00  0.00     0.000 C 
HETATM   29  C13 UNL     1     -14.134   0.593   0.828  1.00  0.00     0.000 C 
HETATM   30  C14 UNL     1     -12.851   0.825   1.570  1.00  0.00     0.000 C 
HETATM   31  C15 UNL     1     -11.621   0.577   0.749  1.00  0.00     0.007 C 
ENDBRANCH  21  26
ENDBRANCH  20  21
ENDBRANCH  18  20
ENDBRANCH  11  17
ENDBRANCH   1   6
BRANCH   1  32
HETATM   32  N6  UNL     1      -4.967  -1.558  -3.424  1.00  0.00    -0.316 N 
HETATM   33  C19 UNL     1      -3.595  -1.824  -3.577  1.00  0.00     0.187 C 
HETATM   34  N7  UNL     1      -2.658  -1.147  -3.035  1.00  0.00    -0.373 N 
HETATM   35  N8  UNL     1      -3.225  -2.938  -4.404  1.00  0.00    -0.064 NA
ATOM     36  H72 UNL     1      -2.921  -0.356  -2.447  1.00  0.00     0.158 HD
ATOM     37  H71 UNL     1      -1.663  -1.340  -3.146  1.00  0.00     0.158 HD
ATOM     38  H6  UNL     1      -5.526  -1.387  -4.260  1.00  0.00     0.170 HD
ENDBRANCH   1  32
TORSDOF 10
ENDMDL
MODEL 4
REMARK VINA RESULT: -7.689717615      1.231      1.318
REMARK  10 active torsions:
REMARK  status: ('A' for Active; 'I' for Inactive)
REMARK    1  A    between atoms: C2_2  and  O1_3 
REMARK    2  A    between atoms: C2_2  and  C3_5 
REMARK    3  A    between atoms: C3_5  and  C4_6 
REMARK    4  A    between atoms: C6_10  and  N2_11 
REMARK    5  A    between atoms: C7_13  and  C8_14 
REMARK    6  A    between atoms: C8_14  and  C9_15 
REMARK    7  A    between atoms: C9_15  and  N3_16 
REMARK    8  A    between atoms: C9_15  and  C10_20 
REMARK    9  A    between atoms: C16_26  and  C17_27 
REMARK   10  A    between atoms: C17_27  and  N6_32 
REMARK       I    between atoms: N6_32  and  C19_34 
ROOT
HETATM    1  C17 UNL     1      -5.678  -1.636  -1.874  1.00  0.00     0.131 C 
HETATM    2  N4  UNL     1      -5.773  -2.035  -3.064  1.00  0.00    -0.278 N 
ATOM      3  H4  UNL     1      -5.413  -1.400  -3.776  1.00  0.00     0.179 HD
HETATM    4  C18 UNL     1      -6.299  -3.214  -3.527  1.00  0.00     0.183 C 
HETATM    5  N5  UNL     1      -6.724  -4.229  -3.946  1.00  0.00    -0.172 NA
ENDROOT
BRANCH   1   6
HETATM    6  C16 UNL     1      -6.130  -2.384  -0.735  1.00  0.00     0.059 A 
HETATM    7  C4  UNL     1      -5.302  -3.185   0.025  1.00  0.00     0.028 A 
HETATM    8  N1  UNL     1      -6.091  -3.674   1.019  1.00  0.00    -0.366 N 
HETATM    9  C5  UNL     1      -7.333  -3.229   0.918  1.00  0.00     0.118 A 
ATOM     10  H1  UNL     1      -5.766  -4.306   1.751  1.00  0.00     0.165 HD
HETATM   11  C6  UNL     1      -7.369  -2.415  -0.182  1.00  0.00     0.063 A 
BRANCH   7  12
HETATM   12  C3  UNL     1      -3.890  -3.537  -0.079  1.00  0.00     0.089 C 
BRANCH  12  13
HETATM   13  C2  UNL     1      -3.156  -3.705   1.211  1.00  0.00     0.119 C 
HETATM   14  C1  UNL     1      -1.672  -3.450   0.907  1.00  0.00     0.039 C 
BRANCH  13  15
HETATM   15  O1  UNL     1      -3.323  -4.901   1.853  1.00  0.00    -0.396 OA
ATOM     16  H1  UNL     1      -4.051  -5.385   1.481  1.00  0.00     0.210 HD
ENDBRANCH  13  15
ENDBRANCH  12  13
ENDBRANCH   7  12
BRANCH  11  17
HETATM   17  N2  UNL     1      -8.569  -1.722  -0.593  1.00  0.00    -0.368 N 
HETATM   18  C7  UNL     1      -8.623  -0.462  -0.463  1.00  0.00     0.063 C 
ATOM     19  H2  UNL     1      -9.360  -2.238  -0.980  1.00  0.00     0.165 HD
BRANCH  18  20
HETATM   20  C8  UNL     1      -9.887   0.241  -0.897  1.00  0.00     0.077 C 
BRANCH  20  21
HETATM   21  C9  UNL     1     -11.059  -0.679  -0.808  1.00  0.00     0.192 C 
BRANCH  21  22
HETATM   22  N3  UNL     1     -11.679  -0.873  -2.106  1.00  0.00    -0.074 N 
ATOM     23  H33 UNL     1     -11.811   0.014  -2.594  1.00  0.00     0.274 HD
ATOM     24  H32 UNL     1     -11.041  -1.321  -2.763  1.00  0.00     0.274 HD
ATOM     25  H31 UNL     1     -12.555  -1.388  -2.026  1.00  0.00     0.274 HD
ENDBRANCH  21  22
BRANCH  21  26
HETATM   26  C10 UNL     1     -12.091  -0.127   0.137  1.00  0.00     0.016 C 
HETATM   27  C11 UNL     1     -11.566   0.915   1.078  1.00  0.00     0.007 C 
HETATM   28  C12 UNL     1     -12.619   1.144   2.148  1.00  0.00     0.000 C 
HETATM   29  C13 UNL     1     -13.977   0.679   1.721  1.00  0.00     0.000 C 
HETATM   30  C14 UNL     1     -14.270   0.983   0.281  1.00  0.00     0.000 C 
HETATM   31  C15 UNL     1     -13.216   0.499  -0.669  1.00  0.00     0.007 C 
ENDBRANCH  21  26
ENDBRANCH  20  21
ENDBRANCH  18  20
ENDBRANCH  11  17
ENDBRANCH   1   6
BRANCH   1  32
HETATM   32  N6  UNL     1      -5.064  -0.341  -1.727  1.00  0.00    -0.316 N 
HETATM   33  C19 UNL     1      -4.134   0.174  -2.647  1.00  0.00     0.187 C 
HETATM   34  N7  UNL     1      -3.038  -0.396  -2.969  1.00  0.00    -0.373 N 
HETATM   35  N8  UNL     1      -4.442   1.432  -3.266  1.00  0.00    -0.064 NA
ATOM     36  H72 UNL     1      -2.820  -1.290  -2.530  1.00  0.00     0.158 HD
ATOM     37  H71 UNL     1      -2.363  -0.022  -3.636  1.00  0.00     0.158 HD
ATOM     38  H6  UNL     1      -5.316   0.228  -0.919  1.00  0.00     0.170 HD
ENDBRANCH   1  32
TORSDOF 10
ENDMDL
MODEL 5
REMARK VINA RESULT: -7.681064205      0.998      1.338
REMARK  10 active torsions:
REMARK  status: ('A' for Active; 'I' for Inactive)
REMARK    1  A    between atoms: C2_2  and  O1_3 
REMARK    2  A    between atoms: C2_2  and  C3_5 
REMARK    3  A    between atoms: C3_5  and  C4_6 
REMARK    4  A    between atoms: C6_10  and  N2_11 
REMARK    5  A    between atoms: C7_13  and  C8_14 
REMARK    6  A    between atoms: C8_14  and  C9_15 
REMARK    7  A    between atoms: C9_15  and  N3_16 
REMARK    8  A    between atoms: C9_15  and  C10_20 
REMARK    9  A    between atoms: C16_26  and  C17_27 
REMARK   10  A    between atoms: C17_27  and  N6_32 
REMARK       I    between atoms: N6_32  and  C19_34 
ROOT
HETATM    1  C17 UNL     1      -5.660  -1.698  -1.878  1.00  0.00     0.131 C 
HETATM    2  N4  UNL     1      -5.792  -2.072  -3.072  1.00  0.00    -0.278 N 
ATOM      3  H4  UNL     1      -5.462  -1.418  -3.782  1.00  0.00     0.179 HD
HETATM    4  C18 UNL     1      -6.322  -3.245  -3.543  1.00  0.00     0.183 C 
HETATM    5  N5  UNL     1      -6.752  -4.256  -3.969  1.00  0.00    -0.172 NA
ENDROOT
BRANCH   1   6
HETATM    6  C16 UNL     1      -6.067  -2.474  -0.740  1.00  0.00     0.059 A 
HETATM    7  C4  UNL     1      -5.187  -3.196   0.041  1.00  0.00     0.028 A 
HETATM    8  N1  UNL     1      -5.949  -3.744   1.025  1.00  0.00    -0.366 N 
HETATM    9  C5  UNL     1      -7.222  -3.407   0.899  1.00  0.00     0.118 A 
ATOM     10  H1  UNL     1      -5.584  -4.341   1.767  1.00  0.00     0.165 HD
HETATM   11  C6  UNL     1      -7.309  -2.607  -0.209  1.00  0.00     0.063 A 
BRANCH   7  12
HETATM   12  C3  UNL     1      -3.748  -3.425  -0.036  1.00  0.00     0.089 C 
BRANCH  12  13
HETATM   13  C2  UNL     1      -3.052  -3.683   1.260  1.00  0.00     0.119 C 
HETATM   14  C1  UNL     1      -1.553  -3.474   1.001  1.00  0.00     0.039 C 
BRANCH  13  15
HETATM   15  O1  UNL     1      -3.281  -4.900   1.840  1.00  0.00    -0.396 OA
ATOM     16  H1  UNL     1      -4.213  -5.055   1.943  1.00  0.00     0.210 HD
ENDBRANCH  13  15
ENDBRANCH  12  13
ENDBRANCH   7  12
BRANCH  11  17
HETATM   17  N2  UNL     1      -8.556  -2.022  -0.646  1.00  0.00    -0.368 N 
HETATM   18  C7  UNL     1      -8.681  -0.761  -0.628  1.00  0.00     0.063 C 
ATOM     19  H2  UNL     1      -9.324  -2.615  -0.962  1.00  0.00     0.165 HD
BRANCH  18  20
HETATM   20  C8  UNL     1      -9.993  -0.172  -1.088  1.00  0.00     0.077 C 
BRANCH  20  21
HETATM   21  C9  UNL     1     -10.389   0.975  -0.219  1.00  0.00     0.192 C 
BRANCH  21  22
HETATM   22  N3  UNL     1     -10.322   0.620   1.187  1.00  0.00    -0.074 N 
ATOM     23  H33 UNL     1      -9.857  -0.277   1.325  1.00  0.00     0.274 HD
ATOM     24  H32 UNL     1      -9.667   1.216   1.693  1.00  0.00     0.274 HD
ATOM     25  H31 UNL     1     -11.247   0.633   1.618  1.00  0.00     0.274 HD
ENDBRANCH  21  22
BRANCH  21  26
HETATM   26  C10 UNL     1     -11.793   1.414  -0.534  1.00  0.00     0.016 C 
HETATM   27  C11 UNL     1     -11.951   2.898  -0.686  1.00  0.00     0.007 C 
HETATM   28  C12 UNL     1     -13.439   3.205  -0.691  1.00  0.00     0.000 C 
HETATM   29  C13 UNL     1     -14.268   2.003  -1.023  1.00  0.00     0.000 C 
HETATM   30  C14 UNL     1     -13.658   1.155  -2.101  1.00  0.00     0.000 C 
HETATM   31  C15 UNL     1     -12.235   0.765  -1.833  1.00  0.00     0.007 C 
ENDBRANCH  21  26
ENDBRANCH  20  21
ENDBRANCH  18  20
ENDBRANCH  11  17
ENDBRANCH   1   6
BRANCH   1  32
HETATM   32  N6  UNL     1      -5.054  -0.400  -1.723  1.00  0.00    -0.316 N 
HETATM   33  C19 UNL     1      -4.121   0.123  -2.636  1.00  0.00     0.187 C 
HETATM   34  N7  UNL     1      -3.020  -0.441  -2.954  1.00  0.00    -0.373 N 
HETATM   35  N8  UNL     1      -4.431   1.382  -3.253  1.00  0.00    -0.064 NA
ATOM     36  H72 UNL     1      -2.800  -1.335  -2.516  1.00  0.00     0.158 HD
ATOM     37  H71 UNL     1      -2.343  -0.062  -3.616  1.00  0.00     0.158 HD
ATOM     38  H6  UNL     1      -5.313   0.165  -0.915  1.00  0.00     0.170 HD
ENDBRANCH   1  32
TORSDOF 10
ENDMDL
