MODEL 1
REMARK VINA RESULT: -7.168742640      0.000      0.000
REMARK  10 active torsions:
REMARK  status: ('A' for Active; 'I' for Inactive)
REMARK    1  A    between atoms: C2_3  and  C3_4 
REMARK    2  A    between atoms: C4_7  and  N3_8 
REMARK    3  A    between atoms: C5_13  and  N5_14 
REMARK    4  A    between atoms: C6_19  and  O1_20 
REMARK    5  A    between atoms: O1_20  and  C7_21 
REMARK    6  A    between atoms: C7_21  and  C8_22 
REMARK    7  A    between atoms: C8_22  and  C9_23 
REMARK    8  A    between atoms: C9_23  and  C10_24 
REMARK    9  A    between atoms: C10_24  and  C11_25 
REMARK   10  A    between atoms: C11_25  and  C12_26 
ROOT
HETATM    1  C1  UNL     1      -8.576  -4.480  -0.538  1.00  0.00     0.176 C 
HETATM    2  N1  UNL     1      -7.652  -4.201  -1.628  1.00  0.00    -0.180 N 
HETATM    3  C2  UNL     1      -6.370  -3.846  -1.579  1.00  0.00     0.147 A 
HETATM    4  C6  UNL     1      -5.909  -3.710  -2.908  1.00  0.00     0.189 A 
HETATM    5  N7  UNL     1      -6.951  -3.996  -3.696  1.00  0.00    -0.168 N 
ATOM      6  H7  UNL     1      -6.932  -3.985  -4.716  1.00  0.00     0.186 HD
HETATM    7  C18 UNL     1      -8.019  -4.297  -2.957  1.00  0.00     0.680 A 
HETATM    8  N8  UNL     1      -9.180  -4.616  -3.388  1.00  0.00    -0.234 N 
ATOM      9  H81 UNL     1      -9.452  -4.687  -4.369  1.00  0.00     0.174 HD
ATOM     10  H82 UNL     1      -9.997  -4.846  -2.822  1.00  0.00     0.174 HD
ENDROOT
BRANCH   3  11
HETATM   11  C3  UNL     1      -5.511  -3.631  -0.432  1.00  0.00     0.168 A 
HETATM   12  N2  UNL     1      -4.527  -4.559  -0.189  1.00  0.00    -0.173 N 
HETATM   13  C4  UNL     1      -3.698  -4.471   0.852  1.00  0.00     0.692 A 
ATOM     14  H2  UNL     1      -4.426  -5.346  -0.831  1.00  0.00     0.186 HD
HETATM   15  N4  UNL     1      -3.771  -3.463   1.737  1.00  0.00    -0.023 N 
HETATM   16  C5  UNL     1      -4.717  -2.545   1.529  1.00  0.00     0.692 A 
ATOM     17  H4  UNL     1      -3.133  -3.402   2.531  1.00  0.00     0.203 HD
HETATM   18  N6  UNL     1      -5.560  -2.646   0.460  1.00  0.00    -0.173 N 
ATOM     19  H6  UNL     1      -6.268  -1.923   0.338  1.00  0.00     0.186 HD
BRANCH  13  20
HETATM   20  N3  UNL     1      -2.794  -5.372   1.029  1.00  0.00    -0.234 N 
ATOM     21  H32 UNL     1      -3.094  -6.343   1.123  1.00  0.00     0.174 HD
ATOM     22  H31 UNL     1      -1.811  -5.103   1.072  1.00  0.00     0.174 HD
ENDBRANCH  13  20
BRANCH  16  23
HETATM   23  N5  UNL     1      -4.812  -1.566   2.360  1.00  0.00    -0.234 N 
ATOM     24  H52 UNL     1      -4.049  -1.341   2.998  1.00  0.00     0.174 HD
ATOM     25  H51 UNL     1      -5.672  -1.018   2.367  1.00  0.00     0.174 HD
ENDBRANCH  16  23
ENDBRANCH   3  11
BRANCH   4  26
HETATM   26  O1  UNL     1      -4.626  -3.350  -3.230  1.00  0.00    -0.334 OA
BRANCH  26  27
HETATM   27  C7  UNL     1      -4.186  -2.096  -3.564  1.00  0.00     0.177 C 
BRANCH  27  28
HETATM   28  C8  UNL     1      -3.840  -1.163  -2.451  1.00  0.00     0.027 C 
BRANCH  28  29
HETATM   29  C9  UNL     1      -4.685   0.112  -2.583  1.00  0.00     0.002 C 
BRANCH  29  30
HETATM   30  C10 UNL     1      -6.130  -0.179  -2.247  1.00  0.00     0.000 C 
BRANCH  30  31
HETATM   31  C11 UNL     1      -6.513   0.256  -0.880  1.00  0.00     0.004 C 
BRANCH  31  32
HETATM   32  C12 UNL     1      -7.885  -0.190  -0.442  1.00  0.00    -0.014 C 
HETATM   33  C13 UNL     1      -8.542  -0.813  -1.651  1.00  0.00     0.004 C 
HETATM   34  C14 UNL     1      -9.996  -1.086  -1.480  1.00  0.00     0.000 C 
HETATM   35  C15 UNL     1     -10.669   0.265  -1.200  1.00  0.00     0.000 C 
HETATM   36  C16 UNL     1     -10.163   0.692   0.147  1.00  0.00     0.000 C 
HETATM   37  C17 UNL     1      -8.686   0.908   0.172  1.00  0.00     0.004 C 
ENDBRANCH  31  32
ENDBRANCH  30  31
ENDBRANCH  29  30
ENDBRANCH  28  29
ENDBRANCH  27  28
ENDBRANCH  26  27
ENDBRANCH   4  26
TORSDOF 10
ENDMDL
MODEL 2
REMARK VINA RESULT: -7.142134504      0.520      1.607
REMARK  10 active torsions:
REMARK  status: ('A' for Active; 'I' for Inactive)
REMARK    1  A    between atoms: C2_3  and  C3_4 
REMARK    2  A    between atoms: C4_7  and  N3_8 
REMARK    3  A    between atoms: C5_13  and  N5_14 
REMARK    4  A    between atoms: C6_19  and  O1_20 
REMARK    5  A    between atoms: O1_20  and  C7_21 
REMARK    6  A    between atoms: C7_21  and  C8_22 
REMARK    7  A    between atoms: C8_22  and  C9_23 
REMARK    8  A    between atoms: C9_23  and  C10_24 
REMARK    9  A    between atoms: C10_24  and  C11_25 
REMARK   10  A    between atoms: C11_25  and  C12_26 
ROOT
HETATM    1  C1  UNL     1      -8.464  -4.268  -0.364  1.00  0.00     0.176 C 
HETATM    2  N1  UNL     1      -7.523  -4.025  -1.449  1.00  0.00    -0.180 N 
HETATM    3  C2  UNL     1      -6.215  -3.782  -1.395  1.00  0.00     0.147 A 
HETATM    4  C6  UNL     1      -5.749  -3.634  -2.721  1.00  0.00     0.189 A 
HETATM    5  N7  UNL     1      -6.815  -3.799  -3.513  1.00  0.00    -0.168 N 
ATOM      6  H7  UNL     1      -6.798  -3.749  -4.531  1.00  0.00     0.186 HD
HETATM    7  C18 UNL     1      -7.902  -4.037  -2.778  1.00  0.00     0.680 A 
HETATM    8  N8  UNL     1      -9.087  -4.240  -3.214  1.00  0.00    -0.234 N 
ATOM      9  H81 UNL     1      -9.367  -4.249  -4.194  1.00  0.00     0.174 HD
ATOM     10  H82 UNL     1      -9.918  -4.423  -2.651  1.00  0.00     0.174 HD
ENDROOT
BRANCH   3  11
HETATM   11  C3  UNL     1      -5.338  -3.686  -0.246  1.00  0.00     0.168 A 
HETATM   12  N2  UNL     1      -5.431  -2.559   0.535  1.00  0.00    -0.173 N 
HETATM   13  C4  UNL     1      -4.654  -2.359   1.601  1.00  0.00     0.692 A 
ATOM     14  H2  UNL     1      -6.120  -1.848   0.291  1.00  0.00     0.186 HD
HETATM   15  N4  UNL     1      -3.725  -3.252   1.984  1.00  0.00    -0.023 N 
HETATM   16  C5  UNL     1      -3.611  -4.358   1.245  1.00  0.00     0.692 A 
ATOM     17  H4  UNL     1      -3.135  -3.091   2.801  1.00  0.00     0.203 HD
HETATM   18  N6  UNL     1      -4.411  -4.551   0.156  1.00  0.00    -0.173 N 
ATOM     19  H6  UNL     1      -4.291  -5.410  -0.380  1.00  0.00     0.186 HD
BRANCH  13  20
HETATM   20  N3  UNL     1      -4.785  -1.282   2.296  1.00  0.00    -0.234 N 
ATOM     21  H32 UNL     1      -5.414  -0.558   1.948  1.00  0.00     0.174 HD
ATOM     22  H31 UNL     1      -4.267  -1.174   3.169  1.00  0.00     0.174 HD
ENDBRANCH  13  20
BRANCH  16  23
HETATM   23  N5  UNL     1      -2.730  -5.232   1.587  1.00  0.00    -0.234 N 
ATOM     24  H52 UNL     1      -1.807  -4.949   1.915  1.00  0.00     0.174 HD
ATOM     25  H51 UNL     1      -2.977  -6.220   1.521  1.00  0.00     0.174 HD
ENDBRANCH  16  23
ENDBRANCH   3  11
BRANCH   4  26
HETATM   26  O1  UNL     1      -4.442  -3.371  -3.037  1.00  0.00    -0.334 OA
BRANCH  26  27
HETATM   27  C7  UNL     1      -3.934  -2.187  -3.506  1.00  0.00     0.177 C 
BRANCH  27  28
HETATM   28  C8  UNL     1      -3.636  -1.116  -2.508  1.00  0.00     0.027 C 
BRANCH  28  29
HETATM   29  C9  UNL     1      -4.647   0.026  -2.682  1.00  0.00     0.002 C 
BRANCH  29  30
HETATM   30  C10 UNL     1      -5.669  -0.005  -1.568  1.00  0.00     0.000 C 
BRANCH  30  31
HETATM   31  C11 UNL     1      -7.053  -0.245  -2.050  1.00  0.00     0.004 C 
BRANCH  31  32
HETATM   32  C12 UNL     1      -8.067  -0.467  -0.956  1.00  0.00    -0.014 C 
HETATM   33  C13 UNL     1      -9.371  -0.805  -1.641  1.00  0.00     0.004 C 
HETATM   34  C14 UNL     1     -10.551  -0.812  -0.732  1.00  0.00     0.000 C 
HETATM   35  C15 UNL     1     -10.661   0.601  -0.142  1.00  0.00     0.000 C 
HETATM   36  C16 UNL     1      -9.457   0.762   0.739  1.00  0.00     0.000 C 
HETATM   37  C17 UNL     1      -8.171   0.685  -0.014  1.00  0.00     0.004 C 
ENDBRANCH  31  32
ENDBRANCH  30  31
ENDBRANCH  29  30
ENDBRANCH  28  29
ENDBRANCH  27  28
ENDBRANCH  26  27
ENDBRANCH   4  26
TORSDOF 10
ENDMDL
MODEL 3
REMARK VINA RESULT: -6.989334178      2.388      5.922
REMARK  10 active torsions:
REMARK  status: ('A' for Active; 'I' for Inactive)
REMARK    1  A    between atoms: C2_3  and  C3_4 
REMARK    2  A    between atoms: C4_7  and  N3_8 
REMARK    3  A    between atoms: C5_13  and  N5_14 
REMARK    4  A    between atoms: C6_19  and  O1_20 
REMARK    5  A    between atoms: O1_20  and  C7_21 
REMARK    6  A    between atoms: C7_21  and  C8_22 
REMARK    7  A    between atoms: C8_22  and  C9_23 
REMARK    8  A    between atoms: C9_23  and  C10_24 
REMARK    9  A    between atoms: C10_24  and  C11_25 
REMARK   10  A    between atoms: C11_25  and  C12_26 
ROOT
HETATM    1  C1  UNL     1      -3.544  -2.343  -3.215  1.00  0.00     0.176 C 
HETATM    2  N1  UNL     1      -4.614  -1.384  -2.977  1.00  0.00    -0.180 N 
HETATM    3  C2  UNL     1      -5.915  -1.598  -2.792  1.00  0.00     0.147 A 
HETATM    4  C6  UNL     1      -6.532  -0.343  -2.583  1.00  0.00     0.189 A 
HETATM    5  N7  UNL     1      -5.557   0.570  -2.655  1.00  0.00    -0.168 N 
ATOM      6  H7  UNL     1      -5.690   1.575  -2.545  1.00  0.00     0.186 HD
HETATM    7  C18 UNL     1      -4.387  -0.024  -2.891  1.00  0.00     0.680 A 
HETATM    8  N8  UNL     1      -3.252   0.552  -3.019  1.00  0.00    -0.234 N 
ATOM      9  H81 UNL     1      -3.083   1.556  -2.955  1.00  0.00     0.174 HD
ATOM     10  H82 UNL     1      -2.357   0.097  -3.199  1.00  0.00     0.174 HD
ENDROOT
BRANCH   3  11
HETATM   11  C3  UNL     1      -6.655  -2.843  -2.769  1.00  0.00     0.168 A 
HETATM   12  N2  UNL     1      -7.249  -3.210  -1.585  1.00  0.00    -0.173 N 
HETATM   13  C4  UNL     1      -7.933  -4.347  -1.448  1.00  0.00     0.692 A 
ATOM     14  H2  UNL     1      -7.164  -2.589  -0.781  1.00  0.00     0.186 HD
HETATM   15  N4  UNL     1      -8.088  -5.213  -2.465  1.00  0.00    -0.023 N 
HETATM   16  C5  UNL     1      -7.523  -4.884  -3.628  1.00  0.00     0.692 A 
ATOM     17  H4  UNL     1      -8.613  -6.080  -2.352  1.00  0.00     0.203 HD
HETATM   18  N6  UNL     1      -6.825  -3.718  -3.756  1.00  0.00    -0.173 N 
ATOM     19  H6  UNL     1      -6.409  -3.505  -4.663  1.00  0.00     0.186 HD
BRANCH  13  20
HETATM   20  N3  UNL     1      -8.468  -4.640  -0.313  1.00  0.00    -0.234 N 
ATOM     21  H32 UNL     1      -7.851  -4.894   0.458  1.00  0.00     0.174 HD
ATOM     22  H31 UNL     1      -9.483  -4.612  -0.208  1.00  0.00     0.174 HD
ENDBRANCH  13  20
BRANCH  16  23
HETATM   23  N5  UNL     1      -7.653  -5.693  -4.621  1.00  0.00    -0.234 N 
ATOM     24  H52 UNL     1      -8.575  -5.940  -4.981  1.00  0.00     0.174 HD
ATOM     25  H51 UNL     1      -6.811  -6.084  -5.042  1.00  0.00     0.174 HD
ENDBRANCH  16  23
ENDBRANCH   3  11
BRANCH   4  26
HETATM   26  O1  UNL     1      -7.875  -0.191  -2.361  1.00  0.00    -0.334 OA
BRANCH  26  27
HETATM   27  C7  UNL     1      -8.501  -0.110  -1.144  1.00  0.00     0.177 C 
BRANCH  27  28
HETATM   28  C8  UNL     1      -7.656   0.175   0.054  1.00  0.00     0.027 C 
BRANCH  28  29
HETATM   29  C9  UNL     1      -7.394  -1.136   0.808  1.00  0.00     0.002 C 
BRANCH  29  30
HETATM   30  C10 UNL     1      -5.937  -1.233   1.202  1.00  0.00     0.000 C 
BRANCH  30  31
HETATM   31  C11 UNL     1      -5.424  -2.626   1.214  1.00  0.00     0.004 C 
BRANCH  31  32
HETATM   32  C12 UNL     1      -3.938  -2.748   0.991  1.00  0.00    -0.014 C 
HETATM   33  C13 UNL     1      -3.678  -4.184   0.599  1.00  0.00     0.004 C 
HETATM   34  C14 UNL     1      -2.237  -4.559   0.582  1.00  0.00     0.000 C 
HETATM   35  C15 UNL     1      -1.707  -4.337   2.006  1.00  0.00     0.000 C 
HETATM   36  C16 UNL     1      -1.750  -2.853   2.223  1.00  0.00     0.000 C 
HETATM   37  C17 UNL     1      -3.134  -2.296   2.163  1.00  0.00     0.004 C 
ENDBRANCH  31  32
ENDBRANCH  30  31
ENDBRANCH  29  30
ENDBRANCH  28  29
ENDBRANCH  27  28
ENDBRANCH  26  27
ENDBRANCH   4  26
TORSDOF 10
ENDMDL
MODEL 4
REMARK VINA RESULT: -6.799010289      2.071      5.011
REMARK  10 active torsions:
REMARK  status: ('A' for Active; 'I' for Inactive)
REMARK    1  A    between atoms: C2_3  and  C3_4 
REMARK    2  A    between atoms: C4_7  and  N3_8 
REMARK    3  A    between atoms: C5_13  and  N5_14 
REMARK    4  A    between atoms: C6_19  and  O1_20 
REMARK    5  A    between atoms: O1_20  and  C7_21 
REMARK    6  A    between atoms: C7_21  and  C8_22 
REMARK    7  A    between atoms: C8_22  and  C9_23 
REMARK    8  A    between atoms: C9_23  and  C10_24 
REMARK    9  A    between atoms: C10_24  and  C11_25 
REMARK   10  A    between atoms: C11_25  and  C12_26 
ROOT
HETATM    1  C1  UNL     1      -1.632  -3.920   1.067  1.00  0.00     0.176 C 
HETATM    2  N1  UNL     1      -2.637  -3.038   1.645  1.00  0.00    -0.180 N 
HETATM    3  C2  UNL     1      -3.869  -2.768   1.219  1.00  0.00     0.147 A 
HETATM    4  C6  UNL     1      -4.452  -1.864   2.136  1.00  0.00     0.189 A 
HETATM    5  N7  UNL     1      -3.528  -1.636   3.077  1.00  0.00    -0.168 N 
ATOM      6  H7  UNL     1      -3.653  -1.021   3.880  1.00  0.00     0.186 HD
HETATM    7  C18 UNL     1      -2.421  -2.329   2.811  1.00  0.00     0.680 A 
HETATM    8  N8  UNL     1      -1.345  -2.343   3.503  1.00  0.00    -0.234 N 
ATOM      9  H81 UNL     1      -1.186  -1.820   4.364  1.00  0.00     0.174 HD
ATOM     10  H82 UNL     1      -0.498  -2.873   3.300  1.00  0.00     0.174 HD
ENDROOT
BRANCH   3  11
HETATM   11  C3  UNL     1      -4.579  -3.268   0.060  1.00  0.00     0.168 A 
HETATM   12  N2  UNL     1      -4.168  -2.831  -1.177  1.00  0.00    -0.173 N 
HETATM   13  C4  UNL     1      -4.767  -3.210  -2.307  1.00  0.00     0.692 A 
ATOM     14  H2  UNL     1      -3.374  -2.193  -1.233  1.00  0.00     0.186 HD
HETATM   15  N4  UNL     1      -5.817  -4.049  -2.311  1.00  0.00    -0.023 N 
HETATM   16  C5  UNL     1      -6.240  -4.491  -1.124  1.00  0.00     0.692 A 
ATOM     17  H4  UNL     1      -6.270  -4.334  -3.179  1.00  0.00     0.203 HD
HETATM   18  N6  UNL     1      -5.619  -4.096   0.026  1.00  0.00    -0.173 N 
ATOM     19  H6  UNL     1      -5.974  -4.457   0.910  1.00  0.00     0.186 HD
BRANCH  13  20
HETATM   20  N3  UNL     1      -4.338  -2.768  -3.439  1.00  0.00    -0.234 N 
ATOM     21  H32 UNL     1      -4.371  -1.762  -3.606  1.00  0.00     0.174 HD
ATOM     22  H31 UNL     1      -3.979  -3.421  -4.136  1.00  0.00     0.174 HD
ENDBRANCH  13  20
BRANCH  16  23
HETATM   23  N5  UNL     1      -7.244  -5.295  -1.094  1.00  0.00    -0.234 N 
ATOM     24  H52 UNL     1      -7.991  -5.232  -1.786  1.00  0.00     0.174 HD
ATOM     25  H51 UNL     1      -7.278  -6.002  -0.360  1.00  0.00     0.174 HD
ENDBRANCH  16  23
ENDBRANCH   3  11
BRANCH   4  26
HETATM   26  O1  UNL     1      -5.723  -1.369   2.003  1.00  0.00    -0.334 OA
BRANCH  26  27
HETATM   27  C7  UNL     1      -6.264  -0.786   0.887  1.00  0.00     0.177 C 
BRANCH  27  28
HETATM   28  C8  UNL     1      -7.648  -1.185   0.497  1.00  0.00     0.027 C 
BRANCH  28  29
HETATM   29  C9  UNL     1      -7.796  -1.062  -1.027  1.00  0.00     0.002 C 
BRANCH  29  30
HETATM   30  C10 UNL     1      -8.975  -0.180  -1.369  1.00  0.00     0.000 C 
BRANCH  30  31
HETATM   31  C11 UNL     1     -10.282  -0.774  -0.989  1.00  0.00     0.004 C 
BRANCH  31  32
HETATM   32  C12 UNL     1     -11.242   0.189  -0.339  1.00  0.00    -0.014 C 
HETATM   33  C13 UNL     1     -11.446   1.322  -1.318  1.00  0.00     0.004 C 
HETATM   34  C14 UNL     1     -12.168   2.494  -0.750  1.00  0.00     0.000 C 
HETATM   35  C15 UNL     1     -11.321   3.008   0.422  1.00  0.00     0.000 C 
HETATM   36  C16 UNL     1     -11.386   1.932   1.466  1.00  0.00     0.000 C 
HETATM   37  C17 UNL     1     -10.791   0.642   1.009  1.00  0.00     0.004 C 
ENDBRANCH  31  32
ENDBRANCH  30  31
ENDBRANCH  29  30
ENDBRANCH  28  29
ENDBRANCH  27  28
ENDBRANCH  26  27
ENDBRANCH   4  26
TORSDOF 10
ENDMDL
MODEL 5
REMARK VINA RESULT: -6.692330337      2.426      4.722
REMARK  10 active torsions:
REMARK  status: ('A' for Active; 'I' for Inactive)
REMARK    1  A    between atoms: C2_3  and  C3_4 
REMARK    2  A    between atoms: C4_7  and  N3_8 
REMARK    3  A    between atoms: C5_13  and  N5_14 
REMARK    4  A    between atoms: C6_19  and  O1_20 
REMARK    5  A    between atoms: O1_20  and  C7_21 
REMARK    6  A    between atoms: C7_21  and  C8_22 
REMARK    7  A    between atoms: C8_22  and  C9_23 
REMARK    8  A    between atoms: C9_23  and  C10_24 
REMARK    9  A    between atoms: C10_24  and  C11_25 
REMARK   10  A    between atoms: C11_25  and  C12_26 
ROOT
HETATM    1  C1  UNL     1      -3.035  -1.179  -2.742  1.00  0.00     0.176 C 
HETATM    2  N1  UNL     1      -4.301  -0.458  -2.729  1.00  0.00    -0.180 N 
HETATM    3  C2  UNL     1      -5.506  -0.874  -2.344  1.00  0.00     0.147 A 
HETATM    4  C6  UNL     1      -6.405   0.205  -2.507  1.00  0.00     0.189 A 
HETATM    5  N7  UNL     1      -5.684   1.225  -2.986  1.00  0.00    -0.168 N 
ATOM      6  H7  UNL     1      -6.055   2.148  -3.208  1.00  0.00     0.186 HD
HETATM    7  C18 UNL     1      -4.410   0.859  -3.132  1.00  0.00     0.680 A 
HETATM    8  N8  UNL     1      -3.453   1.587  -3.567  1.00  0.00    -0.234 N 
ATOM      9  H81 UNL     1      -3.533   2.560  -3.864  1.00  0.00     0.174 HD
ATOM     10  H82 UNL     1      -2.478   1.308  -3.678  1.00  0.00     0.174 HD
ENDROOT
BRANCH   3  11
HETATM   11  C3  UNL     1      -5.919  -2.161  -1.824  1.00  0.00     0.168 A 
HETATM   12  N2  UNL     1      -5.499  -2.502  -0.560  1.00  0.00    -0.173 N 
HETATM   13  C4  UNL     1      -5.802  -3.672   0.004  1.00  0.00     0.692 A 
ATOM     14  H2  UNL     1      -4.934  -1.836  -0.035  1.00  0.00     0.186 HD
HETATM   15  N4  UNL     1      -6.544  -4.598  -0.627  1.00  0.00    -0.023 N 
HETATM   16  C5  UNL     1      -6.967  -4.296  -1.856  1.00  0.00     0.692 A 
ATOM     17  H4  UNL     1      -6.772  -5.490  -0.188  1.00  0.00     0.203 HD
HETATM   18  N6  UNL     1      -6.650  -3.095  -2.424  1.00  0.00    -0.173 N 
ATOM     19  H6  UNL     1      -6.995  -2.904  -3.365  1.00  0.00     0.186 HD
BRANCH  13  20
HETATM   20  N3  UNL     1      -5.379  -3.938   1.193  1.00  0.00    -0.234 N 
ATOM     21  H32 UNL     1      -5.117  -3.159   1.796  1.00  0.00     0.174 HD
ATOM     22  H31 UNL     1      -5.316  -4.908   1.503  1.00  0.00     0.174 HD
ENDBRANCH  13  20
BRANCH  16  23
HETATM   23  N5  UNL     1      -7.680  -5.162  -2.487  1.00  0.00    -0.234 N 
ATOM     24  H52 UNL     1      -7.377  -5.539  -3.385  1.00  0.00     0.174 HD
ATOM     25  H51 UNL     1      -8.559  -5.464  -2.069  1.00  0.00     0.174 HD
ENDBRANCH  16  23
ENDBRANCH   3  11
BRANCH   4  26
HETATM   26  O1  UNL     1      -7.740   0.126  -2.207  1.00  0.00    -0.334 OA
BRANCH  26  27
HETATM   27  C7  UNL     1      -8.315   0.306  -0.976  1.00  0.00     0.177 C 
BRANCH  27  28
HETATM   28  C8  UNL     1      -8.920  -0.886  -0.312  1.00  0.00     0.027 C 
BRANCH  28  29
HETATM   29  C9  UNL     1      -9.710  -1.694  -1.352  1.00  0.00     0.002 C 
BRANCH  29  30
HETATM   30  C10 UNL     1     -10.986  -0.971  -1.719  1.00  0.00     0.000 C 
BRANCH  30  31
HETATM   31  C11 UNL     1     -11.976  -0.932  -0.614  1.00  0.00     0.004 C 
BRANCH  31  32
HETATM   32  C12 UNL     1     -12.293   0.452  -0.105  1.00  0.00    -0.014 C 
HETATM   33  C13 UNL     1     -11.877   1.416  -1.191  1.00  0.00     0.004 C 
HETATM   34  C14 UNL     1     -11.882   2.845  -0.771  1.00  0.00     0.000 C 
HETATM   35  C15 UNL     1     -10.889   2.964   0.394  1.00  0.00     0.000 C 
HETATM   36  C16 UNL     1     -11.505   2.194   1.526  1.00  0.00     0.000 C 
HETATM   37  C17 UNL     1     -11.670   0.742   1.219  1.00  0.00     0.004 C 
ENDBRANCH  31  32
ENDBRANCH  30  31
ENDBRANCH  29  30
ENDBRANCH  28  29
ENDBRANCH  27  28
ENDBRANCH  26  27
ENDBRANCH   4  26
TORSDOF 10
ENDMDL
