MODEL 1
REMARK VINA RESULT: -6.899235788      0.000      0.000
REMARK  11 active torsions:
REMARK  status: ('A' for Active; 'I' for Inactive)
REMARK    1  A    between atoms: C2_2  and  C3_3 
REMARK    2  A    between atoms: C3_3  and  O1_4 
REMARK    3  A    between atoms: O1_4  and  C4_5 
REMARK    4  A    between atoms: C7_8  and  C8_9 
REMARK    5  A    between atoms: C9_14  and  O2_15 
REMARK    6  A    between atoms: O2_15  and  C10_16 
REMARK    7  A    between atoms: C10_16  and  C11_17 
REMARK    8  A    between atoms: C11_17  and  O3_18 
REMARK    9  A    between atoms: C11_17  and  N3_20 
REMARK   10  A    between atoms: N3_20  and  C12_22 
REMARK   11  A    between atoms: C19_29  and  N4_30 
ROOT
HETATM    1  C10 UNL     1      -7.879   0.628  -0.237  1.00  0.00     0.229 C 
ENDROOT
BRANCH   1   2
HETATM    2  O2  UNL     1      -6.670   0.206  -0.531  1.00  0.00    -0.346 OA
BRANCH   2   3
HETATM    3  C9  UNL     1      -5.814  -0.745  -0.734  1.00  0.00     0.085 A 
HETATM    4  C7  UNL     1      -5.059  -0.732  -1.941  1.00  0.00     0.038 A 
HETATM    5  C6  UNL     1      -4.136  -1.698  -2.240  1.00  0.00     0.020 A 
HETATM    6  C5  UNL     1      -3.907  -2.725  -1.372  1.00  0.00     0.038 A 
HETATM    7  C4  UNL     1      -4.601  -2.795  -0.191  1.00  0.00     0.071 A 
HETATM    8  C20 UNL     1      -5.530  -1.821   0.104  1.00  0.00     0.074 A 
BRANCH   4   9
HETATM    9  C8  UNL     1      -5.290   0.365  -2.881  1.00  0.00     0.123 C 
HETATM   10  N1  UNL     1      -4.259   1.101  -3.187  1.00  0.00    -0.387 N 
ATOM     11  H12 UNL     1      -3.343   0.905  -2.783  1.00  0.00     0.157 HD
ATOM     12  H11 UNL     1      -4.420   1.866  -3.842  1.00  0.00     0.157 HD
HETATM   13  N2  UNL     1      -6.566   0.637  -3.442  1.00  0.00    -0.082 NA
ENDBRANCH   4   9
BRANCH   7  14
HETATM   14  O1  UNL     1      -4.368  -3.833   0.684  1.00  0.00    -0.347 OA
BRANCH  14  15
HETATM   15  C3  UNL     1      -3.176  -4.565   0.603  1.00  0.00     0.202 C 
BRANCH  15  16
HETATM   16  C2  UNL     1      -2.185  -4.099   1.589  1.00  0.00    -0.011 C 
HETATM   17  C1  UNL     1      -1.290  -3.198   1.249  1.00  0.00     0.009 C 
ENDBRANCH  15  16
ENDBRANCH  14  15
ENDBRANCH   7  14
ENDBRANCH   2   3
ENDBRANCH   1   2
BRANCH   1  18
HETATM   18  C11 UNL     1      -9.082   0.047  -0.996  1.00  0.00     0.238 C 
BRANCH  18  19
HETATM   19  O3  UNL     1     -10.264   0.686  -0.733  1.00  0.00    -0.375 OA
ATOM     20  H3  UNL     1     -10.831   0.213  -0.136  1.00  0.00     0.212 HD
ENDBRANCH  18  19
BRANCH  18  21
HETATM   21  N3  UNL     1      -9.182  -1.351  -0.797  1.00  0.00    -0.389 N 
ATOM     22  H3  UNL     1      -9.203  -1.723   0.152  1.00  0.00     0.156 HD
BRANCH  21  23
HETATM   23  C12 UNL     1      -9.253  -2.233  -1.885  1.00  0.00     0.110 C 
HETATM   24  C13 UNL     1      -8.051  -3.041  -2.205  1.00  0.00     0.031 C 
HETATM   25  C14 UNL     1      -8.318  -4.501  -2.504  1.00  0.00    -0.016 C 
HETATM   26  C15 UNL     1      -8.194  -5.333  -1.219  1.00  0.00     0.010 C 
HETATM   27  C16 UNL     1      -9.582  -4.780  -3.231  1.00  0.00     0.010 C 
HETATM   28  C17 UNL     1     -10.678  -3.811  -3.015  1.00  0.00     0.014 C 
HETATM   29  C18 UNL     1     -12.063  -4.414  -3.035  1.00  0.00     0.012 C 
HETATM   30  C19 UNL     1     -10.502  -3.108  -1.687  1.00  0.00     0.209 C 
BRANCH  30  31
HETATM   31  N4  UNL     1     -11.589  -2.221  -1.398  1.00  0.00    -0.073 N 
ATOM     32  H43 UNL     1     -11.677  -1.460  -2.073  1.00  0.00     0.274 HD
ATOM     33  H42 UNL     1     -12.504  -2.641  -1.557  1.00  0.00     0.274 HD
ATOM     34  H41 UNL     1     -11.457  -1.894  -0.441  1.00  0.00     0.274 HD
ENDBRANCH  30  31
ENDBRANCH  21  23
ENDBRANCH  18  21
ENDBRANCH   1  18
TORSDOF 11
ENDMDL
MODEL 2
REMARK VINA RESULT: -6.812472783      3.094      5.309
REMARK  11 active torsions:
REMARK  status: ('A' for Active; 'I' for Inactive)
REMARK    1  A    between atoms: C2_2  and  C3_3 
REMARK    2  A    between atoms: C3_3  and  O1_4 
REMARK    3  A    between atoms: O1_4  and  C4_5 
REMARK    4  A    between atoms: C7_8  and  C8_9 
REMARK    5  A    between atoms: C9_14  and  O2_15 
REMARK    6  A    between atoms: O2_15  and  C10_16 
REMARK    7  A    between atoms: C10_16  and  C11_17 
REMARK    8  A    between atoms: C11_17  and  O3_18 
REMARK    9  A    between atoms: C11_17  and  N3_20 
REMARK   10  A    between atoms: N3_20  and  C12_22 
REMARK   11  A    between atoms: C19_29  and  N4_30 
ROOT
HETATM    1  C10 UNL     1      -7.732  -1.044   0.580  1.00  0.00     0.229 C 
ENDROOT
BRANCH   1   2
HETATM    2  O2  UNL     1      -6.635  -1.447  -0.020  1.00  0.00    -0.346 OA
BRANCH   2   3
HETATM    3  C9  UNL     1      -5.684  -1.282  -0.884  1.00  0.00     0.085 A 
HETATM    4  C7  UNL     1      -4.728  -2.324  -1.049  1.00  0.00     0.038 A 
HETATM    5  C6  UNL     1      -3.689  -2.234  -1.935  1.00  0.00     0.020 A 
HETATM    6  C5  UNL     1      -3.534  -1.118  -2.705  1.00  0.00     0.038 A 
HETATM    7  C4  UNL     1      -4.421  -0.079  -2.594  1.00  0.00     0.071 A 
HETATM    8  C20 UNL     1      -5.465  -0.174  -1.699  1.00  0.00     0.074 A 
BRANCH   4   9
HETATM    9  C8  UNL     1      -4.883  -3.529  -0.234  1.00  0.00     0.123 C 
HETATM   10  N1  UNL     1      -5.686  -4.447  -0.693  1.00  0.00    -0.387 N 
ATOM     11  H12 UNL     1      -6.172  -4.316  -1.580  1.00  0.00     0.157 HD
ATOM     12  H11 UNL     1      -5.794  -5.288  -0.124  1.00  0.00     0.157 HD
HETATM   13  N2  UNL     1      -4.206  -3.711   1.001  1.00  0.00    -0.082 NA
ENDBRANCH   4   9
BRANCH   7  14
HETATM   14  O1  UNL     1      -4.262   1.047  -3.372  1.00  0.00    -0.347 OA
BRANCH  14  15
HETATM   15  C3  UNL     1      -3.178   1.906  -3.152  1.00  0.00     0.202 C 
BRANCH  15  16
HETATM   16  C2  UNL     1      -3.371   3.207  -3.816  1.00  0.00    -0.011 C 
HETATM   17  C1  UNL     1      -4.579   3.605  -4.149  1.00  0.00     0.009 C 
ENDBRANCH  15  16
ENDBRANCH  14  15
ENDBRANCH   7  14
ENDBRANCH   2   3
ENDBRANCH   1   2
BRANCH   1  18
HETATM   18  C11 UNL     1      -8.428   0.236   0.093  1.00  0.00     0.238 C 
BRANCH  18  19
HETATM   19  O3  UNL     1      -7.908   1.386   0.625  1.00  0.00    -0.375 OA
ATOM     20  H3  UNL     1      -8.399   2.168   0.403  1.00  0.00     0.212 HD
ENDBRANCH  18  19
BRANCH  18  21
HETATM   21  N3  UNL     1      -9.829   0.156   0.278  1.00  0.00    -0.389 N 
ATOM     22  H3  UNL     1     -10.199  -0.248   1.137  1.00  0.00     0.156 HD
BRANCH  21  23
HETATM   23  C12 UNL     1     -10.715   0.623  -0.703  1.00  0.00     0.110 C 
HETATM   24  C13 UNL     1     -11.418  -0.379  -1.541  1.00  0.00     0.031 C 
HETATM   25  C14 UNL     1     -12.896  -0.124  -1.747  1.00  0.00    -0.016 C 
HETATM   26  C15 UNL     1     -13.711  -0.859  -0.673  1.00  0.00     0.010 C 
HETATM   27  C16 UNL     1     -13.284   1.303  -1.864  1.00  0.00     0.010 C 
HETATM   28  C17 UNL     1     -12.413   2.269  -1.160  1.00  0.00     0.014 C 
HETATM   29  C18 UNL     1     -13.133   3.474  -0.599  1.00  0.00     0.012 C 
HETATM   30  C19 UNL     1     -11.695   1.590  -0.015  1.00  0.00     0.209 C 
BRANCH  30  31
HETATM   31  N4  UNL     1     -10.904   2.508   0.748  1.00  0.00    -0.073 N 
ATOM     32  H43 UNL     1     -10.342   3.133   0.169  1.00  0.00     0.274 HD
ATOM     33  H42 UNL     1     -11.459   3.227   1.212  1.00  0.00     0.274 HD
ATOM     34  H41 UNL     1     -10.346   1.952   1.395  1.00  0.00     0.274 HD
ENDBRANCH  30  31
ENDBRANCH  21  23
ENDBRANCH  18  21
ENDBRANCH   1  18
TORSDOF 11
ENDMDL
MODEL 3
REMARK VINA RESULT: -6.775538138      3.145      5.262
REMARK  11 active torsions:
REMARK  status: ('A' for Active; 'I' for Inactive)
REMARK    1  A    between atoms: C2_2  and  C3_3 
REMARK    2  A    between atoms: C3_3  and  O1_4 
REMARK    3  A    between atoms: O1_4  and  C4_5 
REMARK    4  A    between atoms: C7_8  and  C8_9 
REMARK    5  A    between atoms: C9_14  and  O2_15 
REMARK    6  A    between atoms: O2_15  and  C10_16 
REMARK    7  A    between atoms: C10_16  and  C11_17 
REMARK    8  A    between atoms: C11_17  and  O3_18 
REMARK    9  A    between atoms: C11_17  and  N3_20 
REMARK   10  A    between atoms: N3_20  and  C12_22 
REMARK   11  A    between atoms: C19_29  and  N4_30 
ROOT
HETATM    1  C10 UNL     1      -7.980  -1.022   0.680  1.00  0.00     0.229 C 
ENDROOT
BRANCH   1   2
HETATM    2  O2  UNL     1      -6.949  -1.450  -0.012  1.00  0.00    -0.346 OA
BRANCH   2   3
HETATM    3  C9  UNL     1      -5.975  -1.254  -0.844  1.00  0.00     0.085 A 
HETATM    4  C7  UNL     1      -4.993  -2.273  -0.992  1.00  0.00     0.038 A 
HETATM    5  C6  UNL     1      -3.929  -2.149  -1.845  1.00  0.00     0.020 A 
HETATM    6  C5  UNL     1      -3.774  -1.020  -2.594  1.00  0.00     0.038 A 
HETATM    7  C4  UNL     1      -4.687  -0.001  -2.498  1.00  0.00     0.071 A 
HETATM    8  C20 UNL     1      -5.755  -0.130  -1.637  1.00  0.00     0.074 A 
BRANCH   4   9
HETATM    9  C8  UNL     1      -5.147  -3.492  -0.198  1.00  0.00     0.123 C 
HETATM   10  N1  UNL     1      -5.833  -4.460  -0.738  1.00  0.00    -0.387 N 
ATOM     11  H12 UNL     1      -6.233  -4.356  -1.671  1.00  0.00     0.157 HD
ATOM     12  H11 UNL     1      -5.940  -5.310  -0.184  1.00  0.00     0.157 HD
HETATM   13  N2  UNL     1      -4.590  -3.636   1.100  1.00  0.00    -0.082 NA
ENDBRANCH   4   9
BRANCH   7  14
HETATM   14  O1  UNL     1      -4.528   1.138  -3.256  1.00  0.00    -0.347 OA
BRANCH  14  15
HETATM   15  C3  UNL     1      -3.342   1.878  -3.172  1.00  0.00     0.202 C 
BRANCH  15  16
HETATM   16  C2  UNL     1      -3.437   3.145  -3.918  1.00  0.00    -0.011 C 
HETATM   17  C1  UNL     1      -4.612   3.683  -4.158  1.00  0.00     0.009 C 
ENDBRANCH  15  16
ENDBRANCH  14  15
ENDBRANCH   7  14
ENDBRANCH   2   3
ENDBRANCH   1   2
BRANCH   1  18
HETATM   18  C11 UNL     1      -8.686   0.274   0.253  1.00  0.00     0.238 C 
BRANCH  18  19
HETATM   19  O3  UNL     1      -7.957   1.407   0.497  1.00  0.00    -0.375 OA
ATOM     20  H3  UNL     1      -8.290   1.930   1.216  1.00  0.00     0.212 HD
ENDBRANCH  18  19
BRANCH  18  21
HETATM   21  N3  UNL     1      -9.985   0.352   0.807  1.00  0.00    -0.389 N 
ATOM     22  H3  UNL     1     -10.161  -0.041   1.731  1.00  0.00     0.156 HD
BRANCH  21  23
HETATM   23  C12 UNL     1     -11.035   0.963   0.106  1.00  0.00     0.110 C 
HETATM   24  C13 UNL     1     -11.099   0.764  -1.363  1.00  0.00     0.031 C 
HETATM   25  C14 UNL     1     -12.474   0.444  -1.910  1.00  0.00    -0.016 C 
HETATM   26  C15 UNL     1     -12.673  -1.077  -1.975  1.00  0.00     0.010 C 
HETATM   27  C16 UNL     1     -13.603   1.127  -1.231  1.00  0.00     0.010 C 
HETATM   28  C17 UNL     1     -13.386   1.475   0.190  1.00  0.00     0.014 C 
HETATM   29  C18 UNL     1     -14.626   1.402   1.051  1.00  0.00     0.012 C 
HETATM   30  C19 UNL     1     -12.348   0.561   0.801  1.00  0.00     0.209 C 
BRANCH  30  31
HETATM   31  N4  UNL     1     -12.168   0.808   2.201  1.00  0.00    -0.073 N 
ATOM     32  H43 UNL     1     -11.250   0.523   2.544  1.00  0.00     0.274 HD
ATOM     33  H42 UNL     1     -12.088   1.799   2.427  1.00  0.00     0.274 HD
ATOM     34  H41 UNL     1     -12.938   0.346   2.683  1.00  0.00     0.274 HD
ENDBRANCH  30  31
ENDBRANCH  21  23
ENDBRANCH  18  21
ENDBRANCH   1  18
TORSDOF 11
ENDMDL
MODEL 4
REMARK VINA RESULT: -6.742808163      2.949      5.291
REMARK  11 active torsions:
REMARK  status: ('A' for Active; 'I' for Inactive)
REMARK    1  A    between atoms: C2_2  and  C3_3 
REMARK    2  A    between atoms: C3_3  and  O1_4 
REMARK    3  A    between atoms: O1_4  and  C4_5 
REMARK    4  A    between atoms: C7_8  and  C8_9 
REMARK    5  A    between atoms: C9_14  and  O2_15 
REMARK    6  A    between atoms: O2_15  and  C10_16 
REMARK    7  A    between atoms: C10_16  and  C11_17 
REMARK    8  A    between atoms: C11_17  and  O3_18 
REMARK    9  A    between atoms: C11_17  and  N3_20 
REMARK   10  A    between atoms: N3_20  and  C12_22 
REMARK   11  A    between atoms: C19_29  and  N4_30 
ROOT
HETATM    1  C10 UNL     1      -7.790  -2.134   0.190  1.00  0.00     0.229 C 
ENDROOT
BRANCH   1   2
HETATM    2  O2  UNL     1      -6.535  -1.926  -0.140  1.00  0.00    -0.346 OA
BRANCH   2   3
HETATM    3  C9  UNL     1      -5.628  -1.551  -0.985  1.00  0.00     0.085 A 
HETATM    4  C7  UNL     1      -4.575  -2.456  -1.298  1.00  0.00     0.038 A 
HETATM    5  C6  UNL     1      -3.573  -2.143  -2.176  1.00  0.00     0.020 A 
HETATM    6  C5  UNL     1      -3.552  -0.925  -2.792  1.00  0.00     0.038 A 
HETATM    7  C4  UNL     1      -4.538  -0.008  -2.534  1.00  0.00     0.071 A 
HETATM    8  C20 UNL     1      -5.543  -0.329  -1.648  1.00  0.00     0.074 A 
BRANCH   4   9
HETATM    9  C8  UNL     1      -4.585  -3.767  -0.649  1.00  0.00     0.123 C 
HETATM   10  N1  UNL     1      -5.531  -4.591  -1.007  1.00  0.00    -0.387 N 
ATOM     11  H12 UNL     1      -6.219  -4.317  -1.709  1.00  0.00     0.157 HD
ATOM     12  H11 UNL     1      -5.538  -5.505  -0.555  1.00  0.00     0.157 HD
HETATM   13  N2  UNL     1      -3.627  -4.147   0.327  1.00  0.00    -0.082 NA
ENDBRANCH   4   9
BRANCH   7  14
HETATM   14  O1  UNL     1      -4.514   1.221  -3.157  1.00  0.00    -0.347 OA
BRANCH  14  15
HETATM   15  C3  UNL     1      -3.316   1.940  -3.245  1.00  0.00     0.202 C 
BRANCH  15  16
HETATM   16  C2  UNL     1      -3.506   3.230  -3.932  1.00  0.00    -0.011 C 
HETATM   17  C1  UNL     1      -4.717   3.698  -4.134  1.00  0.00     0.009 C 
ENDBRANCH  15  16
ENDBRANCH  14  15
ENDBRANCH   7  14
ENDBRANCH   2   3
ENDBRANCH   1   2
BRANCH   1  18
HETATM   18  C11 UNL     1      -8.871  -2.092  -0.900  1.00  0.00     0.238 C 
BRANCH  18  19
HETATM   19  O3  UNL     1      -8.454  -2.575  -2.112  1.00  0.00    -0.375 OA
ATOM     20  H3  UNL     1      -8.405  -1.914  -2.792  1.00  0.00     0.212 HD
ENDBRANCH  18  19
BRANCH  18  21
HETATM   21  N3  UNL     1      -9.429  -0.796  -1.012  1.00  0.00    -0.389 N 
ATOM     22  H3  UNL     1      -9.071  -0.155  -1.719  1.00  0.00     0.156 HD
BRANCH  21  23
HETATM   23  C12 UNL     1     -10.468  -0.381  -0.166  1.00  0.00     0.110 C 
HETATM   24  C13 UNL     1     -10.115   0.439   1.018  1.00  0.00     0.031 C 
HETATM   25  C14 UNL     1     -11.010   1.636   1.261  1.00  0.00    -0.016 C 
HETATM   26  C15 UNL     1     -10.425   2.878   0.573  1.00  0.00     0.010 C 
HETATM   27  C16 UNL     1     -12.443   1.437   0.931  1.00  0.00     0.010 C 
HETATM   28  C17 UNL     1     -12.728   0.448  -0.131  1.00  0.00     0.014 C 
HETATM   29  C18 UNL     1     -13.926   0.777  -0.992  1.00  0.00     0.012 C 
HETATM   30  C19 UNL     1     -11.533   0.299  -1.045  1.00  0.00     0.209 C 
BRANCH  30  31
HETATM   31  N4  UNL     1     -11.795  -0.588  -2.139  1.00  0.00    -0.073 N 
ATOM     32  H43 UNL     1     -11.542  -0.194  -3.045  1.00  0.00     0.274 HD
ATOM     33  H42 UNL     1     -11.165  -1.389  -2.166  1.00  0.00     0.274 HD
ATOM     34  H41 UNL     1     -12.779  -0.851  -2.076  1.00  0.00     0.274 HD
ENDBRANCH  30  31
ENDBRANCH  21  23
ENDBRANCH  18  21
ENDBRANCH   1  18
TORSDOF 11
ENDMDL
MODEL 5
REMARK VINA RESULT: -6.681886172      2.968      5.313
REMARK  11 active torsions:
REMARK  status: ('A' for Active; 'I' for Inactive)
REMARK    1  A    between atoms: C2_2  and  C3_3 
REMARK    2  A    between atoms: C3_3  and  O1_4 
REMARK    3  A    between atoms: O1_4  and  C4_5 
REMARK    4  A    between atoms: C7_8  and  C8_9 
REMARK    5  A    between atoms: C9_14  and  O2_15 
REMARK    6  A    between atoms: O2_15  and  C10_16 
REMARK    7  A    between atoms: C10_16  and  C11_17 
REMARK    8  A    between atoms: C11_17  and  O3_18 
REMARK    9  A    between atoms: C11_17  and  N3_20 
REMARK   10  A    between atoms: N3_20  and  C12_22 
REMARK   11  A    between atoms: C19_29  and  N4_30 
ROOT
HETATM    1  C10 UNL     1      -7.923  -1.743   0.218  1.00  0.00     0.229 C 
ENDROOT
BRANCH   1   2
HETATM    2  O2  UNL     1      -6.695  -1.863  -0.234  1.00  0.00    -0.346 OA
BRANCH   2   3
HETATM    3  C9  UNL     1      -5.735  -1.509  -1.029  1.00  0.00     0.085 A 
HETATM    4  C7  UNL     1      -4.665  -2.421  -1.249  1.00  0.00     0.038 A 
HETATM    5  C6  UNL     1      -3.608  -2.130  -2.069  1.00  0.00     0.020 A 
HETATM    6  C5  UNL     1      -3.547  -0.930  -2.714  1.00  0.00     0.038 A 
HETATM    7  C4  UNL     1      -4.547  -0.007  -2.545  1.00  0.00     0.071 A 
HETATM    8  C20 UNL     1      -5.608  -0.305  -1.717  1.00  0.00     0.074 A 
BRANCH   4   9
HETATM    9  C8  UNL     1      -4.718  -3.715  -0.567  1.00  0.00     0.123 C 
HETATM   10  N1  UNL     1      -5.675  -4.525  -0.922  1.00  0.00    -0.387 N 
ATOM     11  H12 UNL     1      -6.343  -4.255  -1.644  1.00  0.00     0.157 HD
ATOM     12  H11 UNL     1      -5.712  -5.427  -0.447  1.00  0.00     0.157 HD
HETATM   13  N2  UNL     1      -3.787  -4.090   0.437  1.00  0.00    -0.082 NA
ENDBRANCH   4   9
BRANCH   7  14
HETATM   14  O1  UNL     1      -4.483   1.205  -3.197  1.00  0.00    -0.347 OA
BRANCH  14  15
HETATM   15  C3  UNL     1      -3.284   1.929  -3.217  1.00  0.00     0.202 C 
BRANCH  15  16
HETATM   16  C2  UNL     1      -3.453   3.242  -3.864  1.00  0.00    -0.011 C 
HETATM   17  C1  UNL     1      -4.654   3.674  -4.177  1.00  0.00     0.009 C 
ENDBRANCH  15  16
ENDBRANCH  14  15
ENDBRANCH   7  14
ENDBRANCH   2   3
ENDBRANCH   1   2
BRANCH   1  18
HETATM   18  C11 UNL     1      -9.069  -1.503  -0.776  1.00  0.00     0.238 C 
BRANCH  18  19
HETATM   19  O3  UNL     1      -9.041  -2.332  -1.865  1.00  0.00    -0.375 OA
ATOM     20  H3  UNL     1      -8.164  -2.559  -2.151  1.00  0.00     0.212 HD
ENDBRANCH  18  19
BRANCH  18  21
HETATM   21  N3  UNL     1      -9.140  -0.140  -1.151  1.00  0.00    -0.389 N 
ATOM     22  H3  UNL     1      -8.293   0.342  -1.452  1.00  0.00     0.156 HD
BRANCH  21  23
HETATM   23  C12 UNL     1     -10.356   0.558  -1.116  1.00  0.00     0.110 C 
HETATM   24  C13 UNL     1     -11.532  -0.059  -1.776  1.00  0.00     0.031 C 
HETATM   25  C14 UNL     1     -12.819  -0.004  -0.982  1.00  0.00    -0.016 C 
HETATM   26  C15 UNL     1     -12.972  -1.279  -0.140  1.00  0.00     0.010 C 
HETATM   27  C16 UNL     1     -13.016   1.225  -0.175  1.00  0.00     0.010 C 
HETATM   28  C17 UNL     1     -11.783   1.901   0.283  1.00  0.00     0.014 C 
HETATM   29  C18 UNL     1     -11.896   2.569   1.634  1.00  0.00     0.012 C 
HETATM   30  C19 UNL     1     -10.639   0.914   0.354  1.00  0.00     0.209 C 
BRANCH  30  31
HETATM   31  N4  UNL     1      -9.444   1.508   0.875  1.00  0.00    -0.073 N 
ATOM     32  H43 UNL     1      -9.007   2.165   0.228  1.00  0.00     0.274 HD
ATOM     33  H42 UNL     1      -9.621   2.169   1.631  1.00  0.00     0.274 HD
ATOM     34  H41 UNL     1      -8.828   0.742   1.146  1.00  0.00     0.274 HD
ENDBRANCH  30  31
ENDBRANCH  21  23
ENDBRANCH  18  21
ENDBRANCH   1  18
TORSDOF 11
ENDMDL
