MODEL 1
REMARK VINA RESULT: -6.943962281      0.000      0.000
REMARK  13 active torsions:
REMARK  status: ('A' for Active; 'I' for Inactive)
REMARK    1  A    between atoms: C2_4  and  C3_5 
REMARK    2  A    between atoms: C3_5  and  C4_6 
REMARK    3  A    between atoms: C4_6  and  N2_7 
REMARK    4  A    between atoms: C4_6  and  C17_32 
REMARK    5  A    between atoms: N2_7  and  C5_9 
REMARK    6  A    between atoms: C5_9  and  O1_10 
REMARK    7  A    between atoms: C5_9  and  N3_12 
REMARK    8  A    between atoms: N3_12  and  C6_14 
REMARK    9  A    between atoms: C10_20  and  N5_21 
REMARK   10  A    between atoms: N5_21  and  C11_23 
REMARK   11  A    between atoms: C11_23  and  O2_24 
REMARK   12  A    between atoms: C11_23  and  C12_26 
REMARK   13  A    between atoms: C12_26  and  C13_28 
ROOT
HETATM    1  C6  UNL     1      -7.662  -3.193  -0.185  1.00  0.00     0.061 A 
HETATM    2  C7  UNL     1      -7.541  -4.298  -0.986  1.00  0.00     0.048 A 
HETATM    3  C8  UNL     1      -8.300  -4.345  -2.143  1.00  0.00     0.090 A 
HETATM    4  N4  UNL     1      -9.131  -3.352  -2.487  1.00  0.00    -0.373 N 
ATOM      5  H4  UNL     1      -9.676  -3.418  -3.347  1.00  0.00     0.164 HD
HETATM    6  C9  UNL     1      -9.249  -2.251  -1.686  1.00  0.00     0.119 A 
HETATM    7  C10 UNL     1      -8.527  -2.137  -0.523  1.00  0.00     0.076 A 
ENDROOT
BRANCH   1   8
HETATM    8  N3  UNL     1      -7.012  -3.050   0.901  1.00  0.00    -0.346 N 
ATOM      9  H3  UNL     1      -7.382  -3.468   1.755  1.00  0.00     0.164 HD
BRANCH   8  10
HETATM   10  C5  UNL     1      -5.777  -2.320   0.967  1.00  0.00     0.322 C 
BRANCH  10  11
HETATM   11  N2  UNL     1      -4.644  -3.183   1.113  1.00  0.00    -0.376 N 
ATOM     12  H2  UNL     1      -4.602  -3.907   1.830  1.00  0.00     0.157 HD
BRANCH  11  13
HETATM   13  C4  UNL     1      -3.573  -2.965   0.189  1.00  0.00     0.088 C 
BRANCH  13  14
HETATM   14  C3  UNL     1      -3.999  -2.999  -1.249  1.00  0.00     0.069 C 
BRANCH  14  15
HETATM   15  C2  UNL     1      -3.454  -1.945  -2.100  1.00  0.00     0.057 C 
HETATM   16  N1  UNL     1      -4.239  -1.197  -2.766  1.00  0.00    -0.406 N 
HETATM   17  C1  UNL     1      -5.638  -1.380  -2.685  1.00  0.00     0.145 C 
ATOM     18  H1  UNL     1      -3.857  -0.461  -3.361  1.00  0.00     0.158 HD
ENDBRANCH  14  15
ENDBRANCH  13  14
BRANCH  13  19
HETATM   19  C17 UNL     1      -2.387  -3.806   0.522  1.00  0.00     0.000 C 
HETATM   20  C18 UNL     1      -1.290  -3.093   1.263  1.00  0.00     0.011 C 
HETATM   21  C19 UNL     1      -2.780  -5.084   1.262  1.00  0.00     0.011 C 
ENDBRANCH  13  19
ENDBRANCH  11  13
ENDBRANCH  10  11
BRANCH  10  22
HETATM   22  O1  UNL     1      -5.802  -1.253   1.872  1.00  0.00    -0.360 OA
ATOM     23  H1  UNL     1      -6.514  -0.640   1.729  1.00  0.00     0.214 HD
ENDBRANCH  10  22
ENDBRANCH   8  10
ENDBRANCH   1   8
BRANCH   7  24
HETATM   24  N5  UNL     1      -8.630  -1.018   0.336  1.00  0.00    -0.331 N 
ATOM     25  H5  UNL     1      -8.930  -1.195   1.294  1.00  0.00     0.168 HD
BRANCH  24  26
HETATM   26  C11 UNL     1      -8.353   0.334  -0.014  1.00  0.00     0.188 C 
BRANCH  26  27
HETATM   27  O2  UNL     1      -7.056   0.752   0.117  1.00  0.00    -0.343 OA
ATOM     28  H2  UNL     1      -6.679   0.713   0.988  1.00  0.00     0.219 HD
ENDBRANCH  26  27
BRANCH  26  29
HETATM   29  C12 UNL     1      -9.330   1.337   0.455  1.00  0.00     0.207 C 
HETATM   30  O3  UNL     1      -8.831   2.191   1.210  1.00  0.00    -0.288 OA
BRANCH  29  31
HETATM   31  C13 UNL     1     -10.751   1.437   0.152  1.00  0.00     0.018 C 
HETATM   32  C14 UNL     1     -11.612   0.729   1.213  1.00  0.00     0.023 C 
HETATM   33  C15 UNL     1     -11.179   1.020  -1.216  1.00  0.00     0.023 C 
HETATM   34  C16 UNL     1     -11.175   2.916   0.271  1.00  0.00     0.023 C 
ENDBRANCH  29  31
ENDBRANCH  26  29
ENDBRANCH  24  26
ENDBRANCH   7  24
TORSDOF 13
ENDMDL
MODEL 2
REMARK VINA RESULT: -6.657922541      1.122      2.449
REMARK  13 active torsions:
REMARK  status: ('A' for Active; 'I' for Inactive)
REMARK    1  A    between atoms: C2_4  and  C3_5 
REMARK    2  A    between atoms: C3_5  and  C4_6 
REMARK    3  A    between atoms: C4_6  and  N2_7 
REMARK    4  A    between atoms: C4_6  and  C17_32 
REMARK    5  A    between atoms: N2_7  and  C5_9 
REMARK    6  A    between atoms: C5_9  and  O1_10 
REMARK    7  A    between atoms: C5_9  and  N3_12 
REMARK    8  A    between atoms: N3_12  and  C6_14 
REMARK    9  A    between atoms: C10_20  and  N5_21 
REMARK   10  A    between atoms: N5_21  and  C11_23 
REMARK   11  A    between atoms: C11_23  and  O2_24 
REMARK   12  A    between atoms: C11_23  and  C12_26 
REMARK   13  A    between atoms: C12_26  and  C13_28 
ROOT
HETATM    1  C6  UNL     1      -8.076  -2.944  -0.115  1.00  0.00     0.061 A 
HETATM    2  C7  UNL     1      -8.111  -4.012  -0.973  1.00  0.00     0.048 A 
HETATM    3  C8  UNL     1      -8.952  -3.935  -2.070  1.00  0.00     0.090 A 
HETATM    4  N4  UNL     1      -9.715  -2.859  -2.305  1.00  0.00    -0.373 N 
ATOM      5  H4  UNL     1     -10.324  -2.834  -3.122  1.00  0.00     0.164 HD
HETATM    6  C9  UNL     1      -9.678  -1.795  -1.448  1.00  0.00     0.119 A 
HETATM    7  C10 UNL     1      -8.867  -1.802  -0.339  1.00  0.00     0.076 A 
ENDROOT
BRANCH   1   8
HETATM    8  N3  UNL     1      -7.340  -2.912   0.924  1.00  0.00    -0.346 N 
ATOM      9  H3  UNL     1      -7.718  -3.258   1.805  1.00  0.00     0.164 HD
BRANCH   8  10
HETATM   10  C5  UNL     1      -5.996  -2.405   0.898  1.00  0.00     0.322 C 
BRANCH  10  11
HETATM   11  N2  UNL     1      -5.023  -3.439   1.080  1.00  0.00    -0.376 N 
ATOM     12  H2  UNL     1      -4.941  -3.960   1.954  1.00  0.00     0.157 HD
BRANCH  11  13
HETATM   13  C4  UNL     1      -4.172  -3.697  -0.041  1.00  0.00     0.088 C 
BRANCH  13  14
HETATM   14  C3  UNL     1      -2.716  -3.782   0.313  1.00  0.00     0.069 C 
BRANCH  14  15
HETATM   15  C2  UNL     1      -2.396  -4.547   1.516  1.00  0.00     0.057 C 
HETATM   16  N1  UNL     1      -1.727  -4.006   2.453  1.00  0.00    -0.406 N 
HETATM   17  C1  UNL     1      -1.292  -2.667   2.336  1.00  0.00     0.145 C 
ATOM     18  H1  UNL     1      -1.504  -4.541   3.292  1.00  0.00     0.158 HD
ENDBRANCH  14  15
ENDBRANCH  13  14
BRANCH  13  19
HETATM   19  C17 UNL     1      -4.497  -2.803  -1.189  1.00  0.00     0.000 C 
HETATM   20  C18 UNL     1      -3.369  -1.920  -1.646  1.00  0.00     0.011 C 
HETATM   21  C19 UNL     1      -5.075  -3.577  -2.373  1.00  0.00     0.011 C 
ENDBRANCH  13  19
ENDBRANCH  11  13
ENDBRANCH  10  11
BRANCH  10  22
HETATM   22  O1  UNL     1      -5.801  -1.288   1.717  1.00  0.00    -0.360 OA
ATOM     23  H1  UNL     1      -4.888  -1.062   1.853  1.00  0.00     0.214 HD
ENDBRANCH  10  22
ENDBRANCH   8  10
ENDBRANCH   1   8
BRANCH   7  24
HETATM   24  N5  UNL     1      -8.810  -0.725   0.576  1.00  0.00    -0.331 N 
ATOM     25  H5  UNL     1      -8.989  -0.939   1.557  1.00  0.00     0.168 HD
BRANCH  24  26
HETATM   26  C11 UNL     1      -8.525   0.633   0.253  1.00  0.00     0.188 C 
BRANCH  26  27
HETATM   27  O2  UNL     1      -7.224   1.038   0.383  1.00  0.00    -0.343 OA
ATOM     28  H2  UNL     1      -7.076   1.965   0.529  1.00  0.00     0.219 HD
ENDBRANCH  26  27
BRANCH  26  29
HETATM   29  C12 UNL     1      -9.491   1.633   0.751  1.00  0.00     0.207 C 
HETATM   30  O3  UNL     1      -8.983   2.455   1.534  1.00  0.00    -0.288 OA
BRANCH  29  31
HETATM   31  C13 UNL     1     -10.909   1.760   0.447  1.00  0.00     0.018 C 
HETATM   32  C14 UNL     1     -11.780   0.971   1.441  1.00  0.00     0.023 C 
HETATM   33  C15 UNL     1     -11.328   1.457  -0.953  1.00  0.00     0.023 C 
HETATM   34  C16 UNL     1     -11.331   3.227   0.682  1.00  0.00     0.023 C 
ENDBRANCH  29  31
ENDBRANCH  26  29
ENDBRANCH  24  26
ENDBRANCH   7  24
TORSDOF 13
ENDMDL
MODEL 3
REMARK VINA RESULT: -6.534517444      1.754      3.227
REMARK  13 active torsions:
REMARK  status: ('A' for Active; 'I' for Inactive)
REMARK    1  A    between atoms: C2_4  and  C3_5 
REMARK    2  A    between atoms: C3_5  and  C4_6 
REMARK    3  A    between atoms: C4_6  and  N2_7 
REMARK    4  A    between atoms: C4_6  and  C17_32 
REMARK    5  A    between atoms: N2_7  and  C5_9 
REMARK    6  A    between atoms: C5_9  and  O1_10 
REMARK    7  A    between atoms: C5_9  and  N3_12 
REMARK    8  A    between atoms: N3_12  and  C6_14 
REMARK    9  A    between atoms: C10_20  and  N5_21 
REMARK   10  A    between atoms: N5_21  and  C11_23 
REMARK   11  A    between atoms: C11_23  and  O2_24 
REMARK   12  A    between atoms: C11_23  and  C12_26 
REMARK   13  A    between atoms: C12_26  and  C13_28 
ROOT
HETATM    1  C6  UNL     1      -8.958  -1.269  -0.266  1.00  0.00     0.061 A 
HETATM    2  C7  UNL     1      -9.131  -2.110  -1.333  1.00  0.00     0.048 A 
HETATM    3  C8  UNL     1     -10.329  -2.042  -2.024  1.00  0.00     0.090 A 
HETATM    4  N4  UNL     1     -11.301  -1.188  -1.676  1.00  0.00    -0.373 N 
ATOM      5  H4  UNL     1     -12.172  -1.162  -2.206  1.00  0.00     0.164 HD
HETATM    6  C9  UNL     1     -11.125  -0.349  -0.611  1.00  0.00     0.119 A 
HETATM    7  C10 UNL     1      -9.961  -0.363   0.120  1.00  0.00     0.076 A 
ENDROOT
BRANCH   1   8
HETATM    8  N3  UNL     1      -7.896  -1.251   0.438  1.00  0.00    -0.346 N 
ATOM      9  H3  UNL     1      -7.893  -1.733   1.337  1.00  0.00     0.164 HD
BRANCH   8  10
HETATM   10  C5  UNL     1      -6.702  -0.578   0.010  1.00  0.00     0.322 C 
BRANCH  10  11
HETATM   11  N2  UNL     1      -5.525  -1.359   0.243  1.00  0.00    -0.376 N 
ATOM     12  H2  UNL     1      -4.882  -1.156   1.008  1.00  0.00     0.157 HD
BRANCH  11  13
HETATM   13  C4  UNL     1      -5.307  -2.443  -0.666  1.00  0.00     0.088 C 
BRANCH  13  14
HETATM   14  C3  UNL     1      -4.336  -3.469  -0.161  1.00  0.00     0.069 C 
BRANCH  14  15
HETATM   15  C2  UNL     1      -4.155  -3.516   1.288  1.00  0.00     0.057 C 
HETATM   16  N1  UNL     1      -2.990  -3.406   1.787  1.00  0.00    -0.406 N 
HETATM   17  C1  UNL     1      -1.868  -3.239   0.945  1.00  0.00     0.145 C 
ATOM     18  H1  UNL     1      -2.866  -3.440   2.799  1.00  0.00     0.158 HD
ENDBRANCH  14  15
ENDBRANCH  13  14
BRANCH  13  19
HETATM   19  C17 UNL     1      -5.050  -1.950  -2.050  1.00  0.00     0.000 C 
HETATM   20  C18 UNL     1      -3.601  -1.748  -2.393  1.00  0.00     0.011 C 
HETATM   21  C19 UNL     1      -5.725  -2.825  -3.105  1.00  0.00     0.011 C 
ENDBRANCH  13  19
ENDBRANCH  11  13
ENDBRANCH  10  11
BRANCH  10  22
HETATM   22  O1  UNL     1      -6.609   0.743   0.462  1.00  0.00    -0.360 OA
ATOM     23  H1  UNL     1      -7.185   1.349   0.010  1.00  0.00     0.214 HD
ENDBRANCH  10  22
ENDBRANCH   8  10
ENDBRANCH   1   8
BRANCH   7  24
HETATM   24  N5  UNL     1      -9.747   0.482   1.234  1.00  0.00    -0.331 N 
ATOM     25  H5  UNL     1      -9.364   0.052   2.076  1.00  0.00     0.168 HD
BRANCH  24  26
HETATM   26  C11 UNL     1     -10.016   1.879   1.289  1.00  0.00     0.188 C 
BRANCH  26  27
HETATM   27  O2  UNL     1      -8.936   2.712   1.414  1.00  0.00    -0.343 OA
ATOM     28  H2  UNL     1      -8.779   3.319   0.701  1.00  0.00     0.219 HD
ENDBRANCH  26  27
BRANCH  26  29
HETATM   29  C12 UNL     1     -11.156   2.286   2.135  1.00  0.00     0.207 C 
HETATM   30  O3  UNL     1     -10.823   2.573   3.300  1.00  0.00    -0.288 OA
BRANCH  29  31
HETATM   31  C13 UNL     1     -12.565   2.382   1.782  1.00  0.00     0.018 C 
HETATM   32  C14 UNL     1     -13.314   1.066   2.053  1.00  0.00     0.023 C 
HETATM   33  C15 UNL     1     -12.883   2.878   0.410  1.00  0.00     0.023 C 
HETATM   34  C16 UNL     1     -13.243   3.388   2.737  1.00  0.00     0.023 C 
ENDBRANCH  29  31
ENDBRANCH  26  29
ENDBRANCH  24  26
ENDBRANCH   7  24
TORSDOF 13
ENDMDL
MODEL 4
REMARK VINA RESULT: -6.366513918      1.739      2.523
REMARK  13 active torsions:
REMARK  status: ('A' for Active; 'I' for Inactive)
REMARK    1  A    between atoms: C2_4  and  C3_5 
REMARK    2  A    between atoms: C3_5  and  C4_6 
REMARK    3  A    between atoms: C4_6  and  N2_7 
REMARK    4  A    between atoms: C4_6  and  C17_32 
REMARK    5  A    between atoms: N2_7  and  C5_9 
REMARK    6  A    between atoms: C5_9  and  O1_10 
REMARK    7  A    between atoms: C5_9  and  N3_12 
REMARK    8  A    between atoms: N3_12  and  C6_14 
REMARK    9  A    between atoms: C10_20  and  N5_21 
REMARK   10  A    between atoms: N5_21  and  C11_23 
REMARK   11  A    between atoms: C11_23  and  O2_24 
REMARK   12  A    between atoms: C11_23  and  C12_26 
REMARK   13  A    between atoms: C12_26  and  C13_28 
ROOT
HETATM    1  C6  UNL     1      -8.850  -1.343  -0.261  1.00  0.00     0.061 A 
HETATM    2  C7  UNL     1      -8.948  -2.185  -1.337  1.00  0.00     0.048 A 
HETATM    3  C8  UNL     1     -10.103  -2.133  -2.098  1.00  0.00     0.090 A 
HETATM    4  N4  UNL     1     -11.105  -1.292  -1.809  1.00  0.00    -0.373 N 
ATOM      5  H4  UNL     1     -11.943  -1.278  -2.390  1.00  0.00     0.164 HD
HETATM    6  C9  UNL     1     -11.006  -0.453  -0.735  1.00  0.00     0.119 A 
HETATM    7  C10 UNL     1      -9.888  -0.451   0.065  1.00  0.00     0.076 A 
ENDROOT
BRANCH   1   8
HETATM    8  N3  UNL     1      -7.833  -1.311   0.506  1.00  0.00    -0.346 N 
ATOM      9  H3  UNL     1      -7.889  -1.766   1.417  1.00  0.00     0.164 HD
BRANCH   8  10
HETATM   10  C5  UNL     1      -6.610  -0.657   0.132  1.00  0.00     0.322 C 
BRANCH  10  11
HETATM   11  N2  UNL     1      -5.454  -1.381   0.565  1.00  0.00    -0.376 N 
ATOM     12  H2  UNL     1      -5.229  -1.505   1.552  1.00  0.00     0.157 HD
BRANCH  11  13
HETATM   13  C4  UNL     1      -4.632  -1.920  -0.475  1.00  0.00     0.088 C 
BRANCH  13  14
HETATM   14  C3  UNL     1      -5.001  -1.438  -1.847  1.00  0.00     0.069 C 
BRANCH  14  15
HETATM   15  C2  UNL     1      -3.914  -1.396  -2.822  1.00  0.00     0.057 C 
HETATM   16  N1  UNL     1      -3.450  -0.276  -3.208  1.00  0.00    -0.406 N 
HETATM   17  C1  UNL     1      -3.982   0.930  -2.697  1.00  0.00     0.145 C 
ATOM     18  H1  UNL     1      -2.691  -0.247  -3.889  1.00  0.00     0.158 HD
ENDBRANCH  14  15
ENDBRANCH  13  14
BRANCH  13  19
HETATM   19  C17 UNL     1      -4.480  -3.398  -0.339  1.00  0.00     0.000 C 
HETATM   20  C18 UNL     1      -4.035  -3.868   1.018  1.00  0.00     0.011 C 
HETATM   21  C19 UNL     1      -5.741  -4.146  -0.769  1.00  0.00     0.011 C 
ENDBRANCH  13  19
ENDBRANCH  11  13
ENDBRANCH  10  11
BRANCH  10  22
HETATM   22  O1  UNL     1      -6.582   0.706   0.450  1.00  0.00    -0.360 OA
ATOM     23  H1  UNL     1      -6.070   0.912   1.223  1.00  0.00     0.214 HD
ENDBRANCH  10  22
ENDBRANCH   8  10
ENDBRANCH   1   8
BRANCH   7  24
HETATM   24  N5  UNL     1      -9.753   0.396   1.190  1.00  0.00    -0.331 N 
ATOM     25  H5  UNL     1      -9.431  -0.034   2.057  1.00  0.00     0.168 HD
BRANCH  24  26
HETATM   26  C11 UNL     1     -10.026   1.793   1.224  1.00  0.00     0.188 C 
BRANCH  26  27
HETATM   27  O2  UNL     1      -8.946   2.630   1.317  1.00  0.00    -0.343 OA
ATOM     28  H2  UNL     1      -8.882   3.320   0.666  1.00  0.00     0.219 HD
ENDBRANCH  26  27
BRANCH  26  29
HETATM   29  C12 UNL     1     -11.153   2.211   2.081  1.00  0.00     0.207 C 
HETATM   30  O3  UNL     1     -10.797   2.560   3.222  1.00  0.00    -0.288 OA
BRANCH  29  31
HETATM   31  C13 UNL     1     -12.573   2.258   1.762  1.00  0.00     0.018 C 
HETATM   32  C14 UNL     1     -13.305   3.342   2.572  1.00  0.00     0.023 C 
HETATM   33  C15 UNL     1     -13.322   0.969   1.836  1.00  0.00     0.023 C 
HETATM   34  C16 UNL     1     -12.731   2.729   0.301  1.00  0.00     0.023 C 
ENDBRANCH  29  31
ENDBRANCH  26  29
ENDBRANCH  24  26
ENDBRANCH   7  24
TORSDOF 13
ENDMDL
MODEL 5
REMARK VINA RESULT: -6.310813954      2.283      3.579
REMARK  13 active torsions:
REMARK  status: ('A' for Active; 'I' for Inactive)
REMARK    1  A    between atoms: C2_4  and  C3_5 
REMARK    2  A    between atoms: C3_5  and  C4_6 
REMARK    3  A    between atoms: C4_6  and  N2_7 
REMARK    4  A    between atoms: C4_6  and  C17_32 
REMARK    5  A    between atoms: N2_7  and  C5_9 
REMARK    6  A    between atoms: C5_9  and  O1_10 
REMARK    7  A    between atoms: C5_9  and  N3_12 
REMARK    8  A    between atoms: N3_12  and  C6_14 
REMARK    9  A    between atoms: C10_20  and  N5_21 
REMARK   10  A    between atoms: N5_21  and  C11_23 
REMARK   11  A    between atoms: C11_23  and  O2_24 
REMARK   12  A    between atoms: C11_23  and  C12_26 
REMARK   13  A    between atoms: C12_26  and  C13_28 
ROOT
HETATM    1  C6  UNL     1      -9.461  -1.064  -0.461  1.00  0.00     0.061 A 
HETATM    2  C7  UNL     1      -9.775  -1.832  -1.552  1.00  0.00     0.048 A 
HETATM    3  C8  UNL     1     -11.050  -1.715  -2.081  1.00  0.00     0.090 A 
HETATM    4  N4  UNL     1     -11.961  -0.883  -1.558  1.00  0.00    -0.373 N 
ATOM      5  H4  UNL     1     -12.891  -0.820  -1.972  1.00  0.00     0.164 HD
HETATM    6  C9  UNL     1     -11.644  -0.118  -0.471  1.00  0.00     0.119 A 
HETATM    7  C10 UNL     1     -10.398  -0.183   0.106  1.00  0.00     0.076 A 
ENDROOT
BRANCH   1   8
HETATM    8  N3  UNL     1      -8.319  -1.095   0.103  1.00  0.00    -0.346 N 
ATOM      9  H3  UNL     1      -8.193  -1.686   0.925  1.00  0.00     0.164 HD
BRANCH   8  10
HETATM   10  C5  UNL     1      -7.204  -0.329  -0.377  1.00  0.00     0.322 C 
BRANCH  10  11
HETATM   11  N2  UNL     1      -6.021  -1.123  -0.520  1.00  0.00    -0.376 N 
ATOM     12  H2  UNL     1      -5.429  -1.363   0.275  1.00  0.00     0.157 HD
BRANCH  11  13
HETATM   13  C4  UNL     1      -5.723  -1.561  -1.850  1.00  0.00     0.088 C 
BRANCH  13  14
HETATM   14  C3  UNL     1      -6.084  -2.994  -2.109  1.00  0.00     0.069 C 
BRANCH  14  15
HETATM   15  C2  UNL     1      -5.705  -3.945  -1.067  1.00  0.00     0.057 C 
HETATM   16  N1  UNL     1      -6.539  -4.821  -0.672  1.00  0.00    -0.406 N 
HETATM   17  C1  UNL     1      -7.832  -4.879  -1.239  1.00  0.00     0.145 C 
ATOM     18  H1  UNL     1      -6.273  -5.484   0.056  1.00  0.00     0.158 HD
ENDBRANCH  14  15
ENDBRANCH  13  14
BRANCH  13  19
HETATM   19  C17 UNL     1      -4.343  -1.168  -2.257  1.00  0.00     0.000 C 
HETATM   20  C18 UNL     1      -3.727  -2.027  -3.325  1.00  0.00     0.011 C 
HETATM   21  C19 UNL     1      -4.259   0.306  -2.651  1.00  0.00     0.011 C 
ENDBRANCH  13  19
ENDBRANCH  11  13
ENDBRANCH  10  11
BRANCH  10  22
HETATM   22  O1  UNL     1      -7.004   0.869   0.318  1.00  0.00    -0.360 OA
ATOM     23  H1  UNL     1      -6.972   0.768   1.263  1.00  0.00     0.214 HD
ENDBRANCH  10  22
ENDBRANCH   8  10
ENDBRANCH   1   8
BRANCH   7  24
HETATM   24  N5  UNL     1     -10.038   0.585   1.238  1.00  0.00    -0.331 N 
ATOM     25  H5  UNL     1      -9.635   0.084   2.029  1.00  0.00     0.168 HD
BRANCH  24  26
HETATM   26  C11 UNL     1     -10.186   1.995   1.375  1.00  0.00     0.188 C 
BRANCH  26  27
HETATM   27  O2  UNL     1      -9.034   2.731   1.456  1.00  0.00    -0.343 OA
ATOM     28  H2  UNL     1      -8.449   2.695   0.708  1.00  0.00     0.219 HD
ENDBRANCH  26  27
BRANCH  26  29
HETATM   29  C12 UNL     1     -11.226   2.448   2.320  1.00  0.00     0.207 C 
HETATM   30  O3  UNL     1     -10.819   2.527   3.493  1.00  0.00    -0.288 OA
BRANCH  29  31
HETATM   31  C13 UNL     1     -12.614   2.795   2.051  1.00  0.00     0.018 C 
HETATM   32  C14 UNL     1     -13.078   3.993   2.898  1.00  0.00     0.023 C 
HETATM   33  C15 UNL     1     -13.613   1.690   2.137  1.00  0.00     0.023 C 
HETATM   34  C16 UNL     1     -12.716   3.316   0.601  1.00  0.00     0.023 C 
ENDBRANCH  29  31
ENDBRANCH  26  29
ENDBRANCH  24  26
ENDBRANCH   7  24
TORSDOF 13
ENDMDL
