MODEL 1
REMARK VINA RESULT: -7.798973478      0.000      0.000
REMARK  9 active torsions:
REMARK  status: ('A' for Active; 'I' for Inactive)
REMARK    1  A    between atoms: C2_2  and  C4_4 
REMARK    2  A    between atoms: C4_4  and  C5_5 
REMARK    3  A    between atoms: C5_5  and  O1_6 
REMARK    4  A    between atoms: O1_6  and  C6_7 
REMARK    5  A    between atoms: C8_9  and  O2_10 
REMARK    6  A    between atoms: O2_10  and  C9_11 
REMARK    7  A    between atoms: C11_17  and  N3_18 
REMARK       I    between atoms: N3_18  and  C12_20 
REMARK    8  A    between atoms: C13_25  and  O3_26 
REMARK    9  A    between atoms: O3_26  and  C14_27 
ROOT
HETATM    1  C6  UNL     1      -4.539  -1.791  -1.945  1.00  0.00     0.107 A 
HETATM    2  C7  UNL     1      -3.801  -0.756  -2.478  1.00  0.00     0.077 A 
HETATM    3  C8  UNL     1      -4.345   0.493  -2.768  1.00  0.00     0.084 A 
HETATM    4  C10 UNL     1      -5.675   0.634  -2.487  1.00  0.00     0.070 A 
HETATM    5  C11 UNL     1      -6.453  -0.404  -1.942  1.00  0.00     0.073 A 
HETATM    6  C13 UNL     1      -5.899  -1.624  -1.667  1.00  0.00     0.129 A 
ENDROOT
BRANCH   6   7
HETATM    7  O3  UNL     1      -6.659  -2.647  -1.135  1.00  0.00    -0.341 OA
BRANCH   7   8
HETATM    8  C14 UNL     1      -7.145  -3.772  -1.789  1.00  0.00     0.132 C 
HETATM    9  C15 UNL     1      -8.672  -3.783  -1.652  1.00  0.00     0.060 C 
HETATM   10  C16 UNL     1      -9.219  -5.154  -1.996  1.00  0.00     0.235 C 
HETATM   11  N6  UNL     1      -8.488  -5.696  -3.129  1.00  0.00    -0.075 N 
HETATM   12  C17 UNL     1      -7.962  -4.652  -3.984  1.00  0.00     0.235 C 
ATOM     13  H62 UNL     1      -7.751  -6.331  -2.823  1.00  0.00     0.277 HD
ATOM     14  H61 UNL     1      -9.060  -6.355  -3.658  1.00  0.00     0.277 HD
HETATM   15  C18 UNL     1      -6.897  -3.824  -3.286  1.00  0.00     0.060 C 
ENDBRANCH   7   8
ENDBRANCH   6   7
BRANCH   1  16
HETATM   16  O1  UNL     1      -3.905  -2.993  -1.693  1.00  0.00    -0.348 OA
BRANCH  16  17
HETATM   17  C5  UNL     1      -3.624  -3.421  -0.394  1.00  0.00     0.176 C 
BRANCH  17  18
HETATM   18  C4  UNL     1      -2.293  -2.869   0.064  1.00  0.00     0.030 C 
BRANCH  18  19
HETATM   19  C2  UNL     1      -1.663  -3.782   1.109  1.00  0.00    -0.021 C 
HETATM   20  C1  UNL     1      -1.343  -2.880   2.305  1.00  0.00     0.009 C 
HETATM   21  C3  UNL     1      -2.601  -4.864   1.534  1.00  0.00     0.009 C 
ENDBRANCH  18  19
ENDBRANCH  17  18
ENDBRANCH  16  17
ENDBRANCH   1  16
BRANCH   5  22
HETATM   22  N3  UNL     1      -7.802  -0.121  -1.641  1.00  0.00    -0.328 N 
HETATM   23  C12 UNL     1      -8.174   0.139  -0.292  1.00  0.00     0.186 C 
HETATM   24  N4  UNL     1      -8.654  -0.829   0.413  1.00  0.00    -0.373 N 
HETATM   25  N5  UNL     1      -8.047   1.408   0.329  1.00  0.00    -0.064 NA
ATOM     26  H42 UNL     1      -8.745  -1.742  -0.034  1.00  0.00     0.158 HD
ATOM     27  H41 UNL     1      -8.921  -0.643   1.379  1.00  0.00     0.158 HD
ATOM     28  H3  UNL     1      -8.503  -0.103  -2.381  1.00  0.00     0.168 HD
ENDBRANCH   5  22
BRANCH   3  29
HETATM   29  O2  UNL     1      -3.554   1.480  -3.300  1.00  0.00    -0.282 OA
BRANCH  29  30
HETATM   30  C9  UNL     1      -3.981   2.750  -3.589  1.00  0.00     0.230 C 
HETATM   31  N1  UNL     1      -3.139   3.688  -3.212  1.00  0.00    -0.368 N 
ATOM     32  H12 UNL     1      -2.264   3.441  -2.751  1.00  0.00     0.159 HD
ATOM     33  H11 UNL     1      -3.457   4.633  -3.427  1.00  0.00     0.159 HD
HETATM   34  N2  UNL     1      -5.200   3.095  -4.233  1.00  0.00    -0.056 NA
ENDBRANCH  29  30
ENDBRANCH   3  29
TORSDOF 9
ENDMDL
MODEL 2
REMARK VINA RESULT: -7.651678801      0.566      1.094
REMARK  9 active torsions:
REMARK  status: ('A' for Active; 'I' for Inactive)
REMARK    1  A    between atoms: C2_2  and  C4_4 
REMARK    2  A    between atoms: C4_4  and  C5_5 
REMARK    3  A    between atoms: C5_5  and  O1_6 
REMARK    4  A    between atoms: O1_6  and  C6_7 
REMARK    5  A    between atoms: C8_9  and  O2_10 
REMARK    6  A    between atoms: O2_10  and  C9_11 
REMARK    7  A    between atoms: C11_17  and  N3_18 
REMARK       I    between atoms: N3_18  and  C12_20 
REMARK    8  A    between atoms: C13_25  and  O3_26 
REMARK    9  A    between atoms: O3_26  and  C14_27 
ROOT
HETATM    1  C6  UNL     1      -4.805  -1.797  -2.239  1.00  0.00     0.107 A 
HETATM    2  C7  UNL     1      -3.997  -0.771  -2.678  1.00  0.00     0.077 A 
HETATM    3  C8  UNL     1      -4.449   0.538  -2.831  1.00  0.00     0.084 A 
HETATM    4  C10 UNL     1      -5.762   0.746  -2.514  1.00  0.00     0.070 A 
HETATM    5  C11 UNL     1      -6.610  -0.281  -2.062  1.00  0.00     0.073 A 
HETATM    6  C13 UNL     1      -6.145  -1.560  -1.920  1.00  0.00     0.129 A 
ENDROOT
BRANCH   6   7
HETATM    7  O3  UNL     1      -6.974  -2.573  -1.480  1.00  0.00    -0.341 OA
BRANCH   7   8
HETATM    8  C14 UNL     1      -7.954  -3.243  -2.202  1.00  0.00     0.132 C 
HETATM    9  C15 UNL     1      -7.260  -4.212  -3.167  1.00  0.00     0.060 C 
HETATM   10  C16 UNL     1      -8.233  -4.676  -4.233  1.00  0.00     0.235 C 
HETATM   11  N6  UNL     1      -9.537  -4.901  -3.632  1.00  0.00    -0.075 N 
HETATM   12  C17 UNL     1      -9.434  -5.260  -2.232  1.00  0.00     0.235 C 
ATOM     13  H62 UNL     1     -10.149  -4.096  -3.764  1.00  0.00     0.277 HD
ATOM     14  H61 UNL     1     -10.070  -5.597  -4.154  1.00  0.00     0.277 HD
HETATM   15  C18 UNL     1      -8.889  -4.120  -1.389  1.00  0.00     0.060 C 
ENDBRANCH   7   8
ENDBRANCH   6   7
BRANCH   1  16
HETATM   16  O1  UNL     1      -4.259  -3.062  -2.120  1.00  0.00    -0.348 OA
BRANCH  16  17
HETATM   17  C5  UNL     1      -4.293  -3.771  -0.918  1.00  0.00     0.176 C 
BRANCH  17  18
HETATM   18  C4  UNL     1      -3.438  -3.081   0.122  1.00  0.00     0.030 C 
BRANCH  18  19
HETATM   19  C2  UNL     1      -2.303  -3.992   0.575  1.00  0.00    -0.021 C 
HETATM   20  C1  UNL     1      -1.292  -3.074   1.269  1.00  0.00     0.009 C 
HETATM   21  C3  UNL     1      -2.780  -5.030   1.538  1.00  0.00     0.009 C 
ENDBRANCH  18  19
ENDBRANCH  17  18
ENDBRANCH  16  17
ENDBRANCH   1  16
BRANCH   5  22
HETATM   22  N3  UNL     1      -7.930   0.068  -1.709  1.00  0.00    -0.328 N 
HETATM   23  C12 UNL     1      -8.258   0.253  -0.337  1.00  0.00     0.186 C 
HETATM   24  N4  UNL     1      -8.789  -0.730   0.309  1.00  0.00    -0.373 N 
HETATM   25  N5  UNL     1      -8.034   1.462   0.370  1.00  0.00    -0.064 NA
ATOM     26  H42 UNL     1      -8.951  -1.599  -0.200  1.00  0.00     0.158 HD
ATOM     27  H41 UNL     1      -9.025  -0.597   1.292  1.00  0.00     0.158 HD
ATOM     28  H3  UNL     1      -8.643   0.186  -2.429  1.00  0.00     0.168 HD
ENDBRANCH   5  22
BRANCH   3  29
HETATM   29  O2  UNL     1      -3.592   1.513  -3.276  1.00  0.00    -0.282 OA
BRANCH  29  30
HETATM   30  C9  UNL     1      -3.978   2.764  -3.681  1.00  0.00     0.230 C 
HETATM   31  N1  UNL     1      -3.154   3.718  -3.304  1.00  0.00    -0.368 N 
ATOM     32  H12 UNL     1      -2.321   3.495  -2.761  1.00  0.00     0.159 HD
ATOM     33  H11 UNL     1      -3.442   4.649  -3.606  1.00  0.00     0.159 HD
HETATM   34  N2  UNL     1      -5.140   3.075  -4.439  1.00  0.00    -0.056 NA
ENDBRANCH  29  30
ENDBRANCH   3  29
TORSDOF 9
ENDMDL
MODEL 3
REMARK VINA RESULT: -7.649041927      2.414      5.912
REMARK  9 active torsions:
REMARK  status: ('A' for Active; 'I' for Inactive)
REMARK    1  A    between atoms: C2_2  and  C4_4 
REMARK    2  A    between atoms: C4_4  and  C5_5 
REMARK    3  A    between atoms: C5_5  and  O1_6 
REMARK    4  A    between atoms: O1_6  and  C6_7 
REMARK    5  A    between atoms: C8_9  and  O2_10 
REMARK    6  A    between atoms: O2_10  and  C9_11 
REMARK    7  A    between atoms: C11_17  and  N3_18 
REMARK       I    between atoms: N3_18  and  C12_20 
REMARK    8  A    between atoms: C13_25  and  O3_26 
REMARK    9  A    between atoms: O3_26  and  C14_27 
ROOT
HETATM    1  C6  UNL     1      -8.497  -2.047  -0.621  1.00  0.00     0.107 A 
HETATM    2  C7  UNL     1      -9.463  -1.086  -0.419  1.00  0.00     0.077 A 
HETATM    3  C8  UNL     1      -9.189   0.279  -0.428  1.00  0.00     0.084 A 
HETATM    4  C10 UNL     1      -7.884   0.614  -0.653  1.00  0.00     0.070 A 
HETATM    5  C11 UNL     1      -6.876  -0.345  -0.864  1.00  0.00     0.073 A 
HETATM    6  C13 UNL     1      -7.167  -1.681  -0.849  1.00  0.00     0.129 A 
ENDROOT
BRANCH   6   7
HETATM    7  O3  UNL     1      -6.181  -2.626  -1.053  1.00  0.00    -0.341 OA
BRANCH   7   8
HETATM    8  C14 UNL     1      -5.418  -3.276  -0.092  1.00  0.00     0.132 C 
HETATM    9  C15 UNL     1      -3.981  -3.389  -0.617  1.00  0.00     0.060 C 
HETATM   10  C16 UNL     1      -3.206  -4.410   0.192  1.00  0.00     0.235 C 
HETATM   11  N6  UNL     1      -3.564  -4.288   1.595  1.00  0.00    -0.075 N 
HETATM   12  C17 UNL     1      -3.984  -2.943   1.932  1.00  0.00     0.235 C 
ATOM     13  H62 UNL     1      -4.273  -4.974   1.857  1.00  0.00     0.277 HD
ATOM     14  H61 UNL     1      -2.804  -4.601   2.200  1.00  0.00     0.277 HD
HETATM   15  C18 UNL     1      -5.280  -2.559   1.239  1.00  0.00     0.060 C 
ENDBRANCH   7   8
ENDBRANCH   6   7
BRANCH   1  16
HETATM   16  O1  UNL     1      -8.873  -3.377  -0.593  1.00  0.00    -0.348 OA
BRANCH  16  17
HETATM   17  C5  UNL     1      -9.433  -4.010  -1.705  1.00  0.00     0.176 C 
BRANCH  17  18
HETATM   18  C4  UNL     1      -8.626  -5.234  -2.074  1.00  0.00     0.030 C 
BRANCH  18  19
HETATM   19  C2  UNL     1      -8.344  -5.261  -3.571  1.00  0.00    -0.021 C 
HETATM   20  C1  UNL     1      -9.684  -4.958  -4.248  1.00  0.00     0.009 C 
HETATM   21  C3  UNL     1      -7.340  -4.226  -3.962  1.00  0.00     0.009 C 
ENDBRANCH  18  19
ENDBRANCH  17  18
ENDBRANCH  16  17
ENDBRANCH   1  16
BRANCH   5  22
HETATM   22  N3  UNL     1      -5.576   0.124  -1.146  1.00  0.00    -0.328 N 
HETATM   23  C12 UNL     1      -5.166   0.270  -2.501  1.00  0.00     0.186 C 
HETATM   24  N4  UNL     1      -4.489  -0.684  -3.046  1.00  0.00    -0.373 N 
HETATM   25  N5  UNL     1      -5.459   1.408  -3.294  1.00  0.00    -0.064 NA
ATOM     26  H42 UNL     1      -4.278  -1.503  -2.475  1.00  0.00     0.158 HD
ATOM     27  H41 UNL     1      -4.196  -0.580  -4.017  1.00  0.00     0.158 HD
ATOM     28  H3  UNL     1      -4.935   0.356  -0.386  1.00  0.00     0.168 HD
ENDBRANCH   5  22
BRANCH   3  29
HETATM   29  O2  UNL     1     -10.199   1.184  -0.217  1.00  0.00    -0.282 OA
BRANCH  29  30
HETATM   30  C9  UNL     1     -10.088   2.309   0.558  1.00  0.00     0.230 C 
HETATM   31  N1  UNL     1     -10.927   3.266   0.222  1.00  0.00    -0.368 N 
ATOM     32  H12 UNL     1     -11.577   3.133  -0.552  1.00  0.00     0.159 HD
ATOM     33  H11 UNL     1     -10.844   4.103   0.799  1.00  0.00     0.159 HD
HETATM   34  N2  UNL     1      -9.182   2.494   1.637  1.00  0.00    -0.056 NA
ENDBRANCH  29  30
ENDBRANCH   3  29
TORSDOF 9
ENDMDL
MODEL 4
REMARK VINA RESULT: -7.614855333      2.660      6.234
REMARK  9 active torsions:
REMARK  status: ('A' for Active; 'I' for Inactive)
REMARK    1  A    between atoms: C2_2  and  C4_4 
REMARK    2  A    between atoms: C4_4  and  C5_5 
REMARK    3  A    between atoms: C5_5  and  O1_6 
REMARK    4  A    between atoms: O1_6  and  C6_7 
REMARK    5  A    between atoms: C8_9  and  O2_10 
REMARK    6  A    between atoms: O2_10  and  C9_11 
REMARK    7  A    between atoms: C11_17  and  N3_18 
REMARK       I    between atoms: N3_18  and  C12_20 
REMARK    8  A    between atoms: C13_25  and  O3_26 
REMARK    9  A    between atoms: O3_26  and  C14_27 
ROOT
HETATM    1  C6  UNL     1      -7.155  -3.486  -0.953  1.00  0.00     0.107 A 
HETATM    2  C7  UNL     1      -6.050  -4.241  -0.621  1.00  0.00     0.077 A 
HETATM    3  C8  UNL     1      -4.768  -3.707  -0.523  1.00  0.00     0.084 A 
HETATM    4  C10 UNL     1      -4.669  -2.368  -0.779  1.00  0.00     0.070 A 
HETATM    5  C11 UNL     1      -5.778  -1.572  -1.118  1.00  0.00     0.073 A 
HETATM    6  C13 UNL     1      -7.029  -2.118  -1.210  1.00  0.00     0.129 A 
ENDROOT
BRANCH   6   7
HETATM    7  O3  UNL     1      -8.121  -1.342  -1.546  1.00  0.00    -0.341 OA
BRANCH   7   8
HETATM    8  C14 UNL     1      -9.155  -0.928  -0.717  1.00  0.00     0.132 C 
HETATM    9  C15 UNL     1      -8.862   0.507  -0.265  1.00  0.00     0.060 C 
HETATM   10  C16 UNL     1      -9.729   0.870   0.924  1.00  0.00     0.235 C 
HETATM   11  N6  UNL     1     -11.061   0.320   0.737  1.00  0.00    -0.075 N 
HETATM   12  C17 UNL     1     -11.398   0.181  -0.665  1.00  0.00     0.235 C 
ATOM     13  H62 UNL     1     -11.168  -0.566   1.233  1.00  0.00     0.277 HD
ATOM     14  H61 UNL     1     -11.762   0.870   1.234  1.00  0.00     0.277 HD
HETATM   15  C18 UNL     1     -10.528  -0.850  -1.362  1.00  0.00     0.060 C 
ENDBRANCH   7   8
ENDBRANCH   6   7
BRANCH   1  16
HETATM   16  O1  UNL     1      -8.385  -4.112  -1.023  1.00  0.00    -0.348 OA
BRANCH  16  17
HETATM   17  C5  UNL     1      -8.507  -5.471  -1.323  1.00  0.00     0.176 C 
BRANCH  17  18
HETATM   18  C4  UNL     1      -9.560  -5.681  -2.386  1.00  0.00     0.030 C 
BRANCH  18  19
HETATM   19  C2  UNL     1      -9.273  -4.815  -3.607  1.00  0.00    -0.021 C 
HETATM   20  C1  UNL     1      -8.079  -5.473  -4.306  1.00  0.00     0.009 C 
HETATM   21  C3  UNL     1     -10.439  -4.772  -4.541  1.00  0.00     0.009 C 
ENDBRANCH  18  19
ENDBRANCH  17  18
ENDBRANCH  16  17
ENDBRANCH   1  16
BRANCH   5  22
HETATM   22  N3  UNL     1      -5.561  -0.190  -1.301  1.00  0.00    -0.328 N 
HETATM   23  C12 UNL     1      -5.364   0.315  -2.617  1.00  0.00     0.186 C 
HETATM   24  N4  UNL     1      -4.157   0.494  -3.035  1.00  0.00    -0.373 N 
HETATM   25  N5  UNL     1      -6.424   0.636  -3.503  1.00  0.00    -0.064 NA
ATOM     26  H42 UNL     1      -3.395   0.263  -2.397  1.00  0.00     0.158 HD
ATOM     27  H41 UNL     1      -4.016   0.857  -3.977  1.00  0.00     0.158 HD
ATOM     28  H3  UNL     1      -5.544   0.440  -0.499  1.00  0.00     0.168 HD
ENDBRANCH   5  22
BRANCH   3  29
HETATM   29  O2  UNL     1      -3.710  -4.516  -0.191  1.00  0.00    -0.282 OA
BRANCH  29  30
HETATM   30  C9  UNL     1      -2.910  -4.340   0.908  1.00  0.00     0.230 C 
HETATM   31  N1  UNL     1      -3.258  -5.081   1.938  1.00  0.00    -0.368 N 
ATOM     32  H12 UNL     1      -4.058  -5.710   1.874  1.00  0.00     0.159 HD
ATOM     33  H11 UNL     1      -2.662  -4.950   2.756  1.00  0.00     0.159 HD
HETATM   34  N2  UNL     1      -1.794  -3.463   0.997  1.00  0.00    -0.056 NA
ENDBRANCH  29  30
ENDBRANCH   3  29
TORSDOF 9
ENDMDL
MODEL 5
REMARK VINA RESULT: -7.314330088      2.806      6.839
REMARK  9 active torsions:
REMARK  status: ('A' for Active; 'I' for Inactive)
REMARK    1  A    between atoms: C2_2  and  C4_4 
REMARK    2  A    between atoms: C4_4  and  C5_5 
REMARK    3  A    between atoms: C5_5  and  O1_6 
REMARK    4  A    between atoms: O1_6  and  C6_7 
REMARK    5  A    between atoms: C8_9  and  O2_10 
REMARK    6  A    between atoms: O2_10  and  C9_11 
REMARK    7  A    between atoms: C11_17  and  N3_18 
REMARK       I    between atoms: N3_18  and  C12_20 
REMARK    8  A    between atoms: C13_25  and  O3_26 
REMARK    9  A    between atoms: O3_26  and  C14_27 
ROOT
HETATM    1  C6  UNL     1      -8.823  -3.119  -1.502  1.00  0.00     0.107 A 
HETATM    2  C7  UNL     1     -10.070  -2.533  -1.488  1.00  0.00     0.077 A 
HETATM    3  C8  UNL     1     -10.261  -1.155  -1.433  1.00  0.00     0.084 A 
HETATM    4  C10 UNL     1      -9.118  -0.405  -1.395  1.00  0.00     0.070 A 
HETATM    5  C11 UNL     1      -7.832  -0.975  -1.410  1.00  0.00     0.073 A 
HETATM    6  C13 UNL     1      -7.668  -2.332  -1.462  1.00  0.00     0.129 A 
ENDROOT
BRANCH   6   7
HETATM    7  O3  UNL     1      -6.408  -2.897  -1.473  1.00  0.00    -0.341 OA
BRANCH   7   8
HETATM    8  C14 UNL     1      -5.682  -3.374  -0.390  1.00  0.00     0.132 C 
HETATM    9  C15 UNL     1      -4.194  -3.352  -0.762  1.00  0.00     0.060 C 
HETATM   10  C16 UNL     1      -3.399  -4.207   0.205  1.00  0.00     0.235 C 
HETATM   11  N6  UNL     1      -3.915  -4.022   1.550  1.00  0.00    -0.075 N 
HETATM   12  C17 UNL     1      -4.518  -2.716   1.726  1.00  0.00     0.235 C 
ATOM     13  H62 UNL     1      -4.566  -4.767   1.802  1.00  0.00     0.277 HD
ATOM     14  H61 UNL     1      -3.194  -4.194   2.251  1.00  0.00     0.277 HD
HETATM   15  C18 UNL     1      -5.767  -2.545   0.880  1.00  0.00     0.060 C 
ENDBRANCH   7   8
ENDBRANCH   6   7
BRANCH   1  16
HETATM   16  O1  UNL     1      -8.742  -4.498  -1.557  1.00  0.00    -0.348 OA
BRANCH  16  17
HETATM   17  C5  UNL     1      -9.723  -5.271  -2.182  1.00  0.00     0.176 C 
BRANCH  17  18
HETATM   18  C4  UNL     1      -9.539  -5.239  -3.682  1.00  0.00     0.030 C 
BRANCH  18  19
HETATM   19  C2  UNL     1     -10.874  -5.434  -4.392  1.00  0.00    -0.021 C 
HETATM   20  C1  UNL     1     -11.903  -5.657  -3.279  1.00  0.00     0.009 C 
HETATM   21  C3  UNL     1     -11.254  -4.231  -5.192  1.00  0.00     0.009 C 
ENDBRANCH  18  19
ENDBRANCH  17  18
ENDBRANCH  16  17
ENDBRANCH   1  16
BRANCH   5  22
HETATM   22  N3  UNL     1      -6.728  -0.097  -1.427  1.00  0.00    -0.328 N 
HETATM   23  C12 UNL     1      -6.042   0.135  -2.652  1.00  0.00     0.186 C 
HETATM   24  N4  UNL     1      -4.974  -0.545  -2.899  1.00  0.00    -0.373 N 
HETATM   25  N5  UNL     1      -6.465   1.076  -3.625  1.00  0.00    -0.064 NA
ATOM     26  H42 UNL     1      -4.670  -1.222  -2.198  1.00  0.00     0.158 HD
ATOM     27  H41 UNL     1      -4.482  -0.379  -3.776  1.00  0.00     0.158 HD
ATOM     28  H3  UNL     1      -6.424   0.366  -0.570  1.00  0.00     0.168 HD
ENDBRANCH   5  22
BRANCH   3  29
HETATM   29  O2  UNL     1     -11.532  -0.637  -1.419  1.00  0.00    -0.282 OA
BRANCH  29  30
HETATM   30  C9  UNL     1     -12.353  -0.618  -0.323  1.00  0.00     0.230 C 
HETATM   31  N1  UNL     1     -12.162   0.421   0.462  1.00  0.00    -0.368 N 
ATOM     32  H12 UNL     1     -11.454   1.118   0.231  1.00  0.00     0.159 HD
ATOM     33  H11 UNL     1     -12.773   0.435   1.278  1.00  0.00     0.159 HD
HETATM   34  N2  UNL     1     -13.340  -1.589  -0.002  1.00  0.00    -0.056 NA
ENDBRANCH  29  30
ENDBRANCH   3  29
TORSDOF 9
ENDMDL
