MODEL 1
REMARK VINA RESULT: -3.469486965      0.000      0.000
REMARK  2 active torsions:
REMARK  status: ('A' for Active; 'I' for Inactive)
REMARK    1  A    between atoms: C2_2  and  O1_3 
REMARK    2  A    between atoms: N1_7  and  O2_8 
ROOT
HETATM    1  C1  UNL     1      -3.121  12.335   6.071  1.00  0.00     0.068 C 
HETATM    2  C2  UNL     1      -2.157  11.618   5.160  1.00  0.00     0.153 C 
HETATM    3  C3  UNL     1      -2.016  10.125   5.475  1.00  0.00     0.151 C 
HETATM    4  S1  UNL     1      -3.420   9.753   4.363  1.00  0.00    -0.047 SA
HETATM    5  N1  UNL     1      -2.655  11.238   3.875  1.00  0.00    -0.102 NA
ENDROOT
BRANCH   2   6
HETATM    6  O1  UNL     1      -0.920  12.265   5.020  1.00  0.00    -0.372 OA
ATOM      7  H1  UNL     1      -0.745  12.572   4.138  1.00  0.00     0.212 HD
ENDBRANCH   2   6
BRANCH   5   8
HETATM    8  O2  UNL     1      -3.374  12.116   3.200  1.00  0.00    -0.299 OA
ATOM      9  H2  UNL     1      -2.978  12.954   2.990  1.00  0.00     0.238 HD
ENDBRANCH   5   8
TORSDOF 2
ENDMDL
MODEL 2
REMARK VINA RESULT: -3.401236931      1.799      2.185
REMARK  2 active torsions:
REMARK  status: ('A' for Active; 'I' for Inactive)
REMARK    1  A    between atoms: C2_2  and  O1_3 
REMARK    2  A    between atoms: N1_7  and  O2_8 
ROOT
HETATM    1  C1  UNL     1      -4.240  11.109   5.273  1.00  0.00     0.068 C 
HETATM    2  C2  UNL     1      -3.103  11.374   4.319  1.00  0.00     0.153 C 
HETATM    3  C3  UNL     1      -1.823  11.849   5.013  1.00  0.00     0.151 C 
HETATM    4  S1  UNL     1      -1.295  10.113   5.239  1.00  0.00    -0.047 SA
HETATM    5  N1  UNL     1      -2.366  10.233   3.872  1.00  0.00    -0.102 NA
ENDROOT
BRANCH   2   6
HETATM    6  O1  UNL     1      -3.457  12.172   3.221  1.00  0.00    -0.372 OA
ATOM      7  H1  UNL     1      -3.166  13.074   3.291  1.00  0.00     0.212 HD
ENDBRANCH   2   6
BRANCH   5   8
HETATM    8  O2  UNL     1      -3.040   9.156   3.513  1.00  0.00    -0.299 OA
ATOM      9  H2  UNL     1      -3.250   8.514   4.181  1.00  0.00     0.238 HD
ENDBRANCH   5   8
TORSDOF 2
ENDMDL
MODEL 3
REMARK VINA RESULT: -3.372789654      3.061      3.533
REMARK  2 active torsions:
REMARK  status: ('A' for Active; 'I' for Inactive)
REMARK    1  A    between atoms: C2_2  and  O1_3 
REMARK    2  A    between atoms: N1_7  and  O2_8 
ROOT
HETATM    1  C1  UNL     1      -0.249   9.241   6.986  1.00  0.00     0.068 C 
HETATM    2  C2  UNL     1      -0.140   9.842   5.608  1.00  0.00     0.153 C 
HETATM    3  C3  UNL     1      -1.497  10.085   4.940  1.00  0.00     0.151 C 
HETATM    4  S1  UNL     1      -1.585  11.741   5.709  1.00  0.00    -0.047 SA
HETATM    5  N1  UNL     1       0.077  11.254   5.542  1.00  0.00    -0.102 NA
ENDROOT
BRANCH   2   6
HETATM    6  O1  UNL     1       0.770   9.180   4.771  1.00  0.00    -0.372 OA
ATOM      7  H1  UNL     1       0.369   8.775   4.010  1.00  0.00     0.212 HD
ENDBRANCH   2   6
BRANCH   5   8
HETATM    8  O2  UNL     1       0.967  11.787   6.359  1.00  0.00    -0.299 OA
ATOM      9  H2  UNL     1       1.596  12.401   5.998  1.00  0.00     0.238 HD
ENDBRANCH   5   8
TORSDOF 2
ENDMDL
MODEL 4
REMARK VINA RESULT: -3.320141793      2.983      3.311
REMARK  2 active torsions:
REMARK  status: ('A' for Active; 'I' for Inactive)
REMARK    1  A    between atoms: C2_2  and  O1_3 
REMARK    2  A    between atoms: N1_7  and  O2_8 
ROOT
HETATM    1  C1  UNL     1      -3.747  13.487   6.904  1.00  0.00     0.068 C 
HETATM    2  C2  UNL     1      -4.546  13.054   5.700  1.00  0.00     0.153 C 
HETATM    3  C3  UNL     1      -3.708  12.329   4.641  1.00  0.00     0.151 C 
HETATM    4  S1  UNL     1      -4.016  10.734   5.481  1.00  0.00    -0.047 SA
HETATM    5  N1  UNL     1      -5.304  11.849   5.837  1.00  0.00    -0.102 NA
ENDROOT
BRANCH   2   6
HETATM    6  O1  UNL     1      -5.353  14.066   5.160  1.00  0.00    -0.372 OA
ATOM      7  H1  UNL     1      -4.956  14.929   5.188  1.00  0.00     0.212 HD
ENDBRANCH   2   6
BRANCH   5   8
HETATM    8  O2  UNL     1      -5.994  11.669   6.948  1.00  0.00    -0.299 OA
ATOM      9  H2  UNL     1      -5.565  11.848   7.777  1.00  0.00     0.238 HD
ENDBRANCH   5   8
TORSDOF 2
ENDMDL
MODEL 5
REMARK VINA RESULT: -3.278732524      2.505      2.676
REMARK  2 active torsions:
REMARK  status: ('A' for Active; 'I' for Inactive)
REMARK    1  A    between atoms: C2_2  and  O1_3 
REMARK    2  A    between atoms: N1_7  and  O2_8 
ROOT
HETATM    1  C1  UNL     1      -0.261  11.094   7.695  1.00  0.00     0.068 C 
HETATM    2  C2  UNL     1       0.203  11.073   6.261  1.00  0.00     0.153 C 
HETATM    3  C3  UNL     1       0.148   9.682   5.622  1.00  0.00     0.151 C 
HETATM    4  S1  UNL     1      -1.582   9.978   5.111  1.00  0.00    -0.047 SA
HETATM    5  N1  UNL     1      -0.747  11.495   5.277  1.00  0.00    -0.102 NA
ENDROOT
BRANCH   2   6
HETATM    6  O1  UNL     1       1.427  11.724   6.051  1.00  0.00    -0.372 OA
ATOM      7  H1  UNL     1       1.692  12.286   6.769  1.00  0.00     0.212 HD
ENDBRANCH   2   6
BRANCH   5   8
HETATM    8  O2  UNL     1      -1.462  12.577   5.525  1.00  0.00    -0.299 OA
ATOM      9  H2  UNL     1      -1.136  13.413   5.212  1.00  0.00     0.238 HD
ENDBRANCH   5   8
TORSDOF 2
ENDMDL
