MODEL 1
REMARK VINA RESULT: -4.127180131      0.000      0.000
REMARK  3 active torsions:
REMARK  status: ('A' for Active; 'I' for Inactive)
REMARK    1  A    between atoms: C2_2  and  N2_6 
REMARK    2  A    between atoms: N2_6  and  O1_7 
REMARK    3  A    between atoms: N3_9  and  O2_11 
ROOT
HETATM    1  C1  UNL     1      -3.357  12.229   4.075  1.00  0.00     0.059 C 
HETATM    2  C2  UNL     1      -2.730  11.253   5.067  1.00  0.00     0.159 C 
HETATM    3  C3  UNL     1      -3.762  10.996   6.162  1.00  0.00     0.059 C 
HETATM    4  C4  UNL     1      -2.472  10.021   4.318  1.00  0.00     0.094 C 
HETATM    5  N1  UNL     1      -2.268   9.038   3.737  1.00  0.00    -0.194 NA
ENDROOT
BRANCH   2   6
HETATM    6  N2  UNL     1      -1.514  11.777   5.624  1.00  0.00    -0.158 N 
HETATM    7  N3  UNL     1      -0.399  11.243   5.382  1.00  0.00    -0.187 N 
ATOM      8  H3  UNL     1      -0.398  10.424   4.775  1.00  0.00     0.218 HD
BRANCH   6   9
HETATM    9  O1  UNL     1      -1.552  12.879   6.436  1.00  0.00    -0.269 OA
ATOM     10  H1  UNL     1      -0.780  13.425   6.533  1.00  0.00     0.246 HD
ENDBRANCH   6   9
BRANCH   7  11
HETATM   11  O2  UNL     1       0.793  11.660   5.857  1.00  0.00    -0.273 OA
ATOM     12  H2  UNL     1       1.643  11.360   5.559  1.00  0.00     0.246 HD
ENDBRANCH   7  11
ENDBRANCH   2   6
TORSDOF 3
ENDMDL
MODEL 2
REMARK VINA RESULT: -4.008190047      1.585      2.736
REMARK  3 active torsions:
REMARK  status: ('A' for Active; 'I' for Inactive)
REMARK    1  A    between atoms: C2_2  and  N2_6 
REMARK    2  A    between atoms: N2_6  and  O1_7 
REMARK    3  A    between atoms: N3_9  and  O2_11 
ROOT
HETATM    1  C1  UNL     1      -3.578  10.754   5.983  1.00  0.00     0.059 C 
HETATM    2  C2  UNL     1      -3.055  12.119   5.543  1.00  0.00     0.159 C 
HETATM    3  C3  UNL     1      -3.145  12.168   4.020  1.00  0.00     0.059 C 
HETATM    4  C4  UNL     1      -3.958  13.110   6.134  1.00  0.00     0.094 C 
HETATM    5  N1  UNL     1      -4.669  13.904   6.591  1.00  0.00    -0.194 NA
ENDROOT
BRANCH   2   6
HETATM    6  N2  UNL     1      -1.704  12.332   5.982  1.00  0.00    -0.158 N 
HETATM    7  N3  UNL     1      -0.733  11.772   5.407  1.00  0.00    -0.187 N 
ATOM      8  H3  UNL     1      -0.947  11.164   4.617  1.00  0.00     0.218 HD
BRANCH   6   9
HETATM    9  O1  UNL     1      -1.451  13.156   7.046  1.00  0.00    -0.269 OA
ATOM     10  H1  UNL     1      -1.629  14.086   6.980  1.00  0.00     0.246 HD
ENDBRANCH   6   9
BRANCH   7  11
HETATM   11  O2  UNL     1       0.566  11.908   5.745  1.00  0.00    -0.273 OA
ATOM     12  H2  UNL     1       1.307  11.633   5.218  1.00  0.00     0.246 HD
ENDBRANCH   7  11
ENDBRANCH   2   6
TORSDOF 3
ENDMDL
MODEL 3
REMARK VINA RESULT: -4.001353440      1.342      1.504
REMARK  3 active torsions:
REMARK  status: ('A' for Active; 'I' for Inactive)
REMARK    1  A    between atoms: C2_2  and  N2_6 
REMARK    2  A    between atoms: N2_6  and  O1_7 
REMARK    3  A    between atoms: N3_9  and  O2_11 
ROOT
HETATM    1  C1  UNL     1      -3.281  12.998   6.486  1.00  0.00     0.059 C 
HETATM    2  C2  UNL     1      -2.440  11.747   6.239  1.00  0.00     0.159 C 
HETATM    3  C3  UNL     1      -2.991  10.646   7.141  1.00  0.00     0.059 C 
HETATM    4  C4  UNL     1      -2.642  11.394   4.831  1.00  0.00     0.094 C 
HETATM    5  N1  UNL     1      -2.797  11.101   3.720  1.00  0.00    -0.194 NA
ENDROOT
BRANCH   2   6
HETATM    6  N2  UNL     1      -1.050  11.984   6.513  1.00  0.00    -0.158 N 
HETATM    7  N3  UNL     1      -0.152  11.616   5.709  1.00  0.00    -0.187 N 
ATOM      8  H3  UNL     1      -0.455  11.143   4.858  1.00  0.00     0.218 HD
BRANCH   6   9
HETATM    9  O1  UNL     1      -0.678  12.622   7.666  1.00  0.00    -0.269 OA
ATOM     10  H1  UNL     1       0.053  13.228   7.660  1.00  0.00     0.246 HD
ENDBRANCH   6   9
BRANCH   7  11
HETATM   11  O2  UNL     1       1.175  11.792   5.878  1.00  0.00    -0.273 OA
ATOM     12  H2  UNL     1       1.693  11.444   6.594  1.00  0.00     0.246 HD
ENDBRANCH   7  11
ENDBRANCH   2   6
TORSDOF 3
ENDMDL
MODEL 4
REMARK VINA RESULT: -3.934937129      1.770      2.735
REMARK  3 active torsions:
REMARK  status: ('A' for Active; 'I' for Inactive)
REMARK    1  A    between atoms: C2_2  and  N2_6 
REMARK    2  A    between atoms: N2_6  and  O1_7 
REMARK    3  A    between atoms: N3_9  and  O2_11 
ROOT
HETATM    1  C1  UNL     1      -2.252   9.385   6.431  1.00  0.00     0.059 C 
HETATM    2  C2  UNL     1      -1.553   9.528   5.080  1.00  0.00     0.159 C 
HETATM    3  C3  UNL     1      -1.542   8.148   4.428  1.00  0.00     0.059 C 
HETATM    4  C4  UNL     1      -2.375  10.451   4.294  1.00  0.00     0.094 C 
HETATM    5  N1  UNL     1      -3.019  11.177   3.659  1.00  0.00    -0.194 NA
ENDROOT
BRANCH   2   6
HETATM    6  N2  UNL     1      -0.216  10.033   5.230  1.00  0.00    -0.158 N 
HETATM    7  N3  UNL     1       0.001  11.178   5.709  1.00  0.00    -0.187 N 
ATOM      8  H3  UNL     1      -0.812  11.728   5.985  1.00  0.00     0.218 HD
BRANCH   6   9
HETATM    9  O1  UNL     1       0.852   9.266   4.850  1.00  0.00    -0.269 OA
ATOM     10  H1  UNL     1       1.711   9.661   4.757  1.00  0.00     0.246 HD
ENDBRANCH   6   9
BRANCH   7  11
HETATM   11  O2  UNL     1       1.215  11.738   5.888  1.00  0.00    -0.273 OA
ATOM     12  H2  UNL     1       1.410  12.462   6.470  1.00  0.00     0.246 HD
ENDBRANCH   7  11
ENDBRANCH   2   6
TORSDOF 3
ENDMDL
MODEL 5
REMARK VINA RESULT: -3.910848401      1.691      2.862
REMARK  3 active torsions:
REMARK  status: ('A' for Active; 'I' for Inactive)
REMARK    1  A    between atoms: C2_2  and  N2_6 
REMARK    2  A    between atoms: N2_6  and  O1_7 
REMARK    3  A    between atoms: N3_9  and  O2_11 
ROOT
HETATM    1  C1  UNL     1      -3.303  10.592   6.232  1.00  0.00     0.059 C 
HETATM    2  C2  UNL     1      -2.459  11.735   5.671  1.00  0.00     0.159 C 
HETATM    3  C3  UNL     1      -3.094  12.160   4.350  1.00  0.00     0.059 C 
HETATM    4  C4  UNL     1      -2.549  12.823   6.648  1.00  0.00     0.094 C 
HETATM    5  N1  UNL     1      -2.617  13.695   7.410  1.00  0.00    -0.194 NA
ENDROOT
BRANCH   2   6
HETATM    6  N2  UNL     1      -1.093  11.334   5.476  1.00  0.00    -0.158 N 
HETATM    7  N3  UNL     1      -0.142  11.977   5.995  1.00  0.00    -0.187 N 
ATOM      8  H3  UNL     1      -0.383  12.792   6.558  1.00  0.00     0.218 HD
BRANCH   6   9
HETATM    9  O1  UNL     1      -0.805  10.234   4.715  1.00  0.00    -0.269 OA
ATOM     10  H1  UNL     1       0.066   9.855   4.738  1.00  0.00     0.246 HD
ENDBRANCH   6   9
BRANCH   7  11
HETATM   11  O2  UNL     1       1.168  11.680   5.869  1.00  0.00    -0.273 OA
ATOM     12  H2  UNL     1       1.522  10.890   5.479  1.00  0.00     0.246 HD
ENDBRANCH   7  11
ENDBRANCH   2   6
TORSDOF 3
ENDMDL
