MODEL 1
REMARK VINA RESULT: -4.249645140      0.000      0.000
REMARK  2 active torsions:
REMARK  status: ('A' for Active; 'I' for Inactive)
REMARK       I    between atoms: C2_2  and  N1_4 
REMARK       I    between atoms: N1_4  and  C3_6 
REMARK       I    between atoms: C3_6  and  N2_7 
REMARK    1  A    between atoms: N2_7  and  O2_9 
REMARK    2  A    between atoms: N3_11  and  O3_13 
ROOT
HETATM    1  C1  UNL     1      -4.945  12.745   5.154  1.00  0.00     0.118 C 
HETATM    2  C2  UNL     1      -3.491  12.445   5.164  1.00  0.00     0.232 C 
HETATM    3  O1  UNL     1      -2.864  12.151   4.119  1.00  0.00    -0.273 OA
HETATM    4  N1  UNL     1      -2.782  12.489   6.389  1.00  0.00    -0.157 N 
ATOM      5  H1  UNL     1      -3.284  12.726   7.244  1.00  0.00     0.187 HD
HETATM    6  C3  UNL     1      -1.391  12.210   6.459  1.00  0.00     0.724 C 
HETATM    7  N2  UNL     1      -0.695  11.880   5.268  1.00  0.00    -0.097 N 
ATOM      8  H2  UNL     1      -0.384  12.600   4.615  1.00  0.00     0.213 HD
HETATM    9  N3  UNL     1      -0.738  12.246   7.558  1.00  0.00    -0.097 N 
ATOM     10  H3  UNL     1      -1.214  12.481   8.429  1.00  0.00     0.213 HD
ENDROOT
BRANCH   7  11
HETATM   11  O2  UNL     1      -0.478  10.671   5.056  1.00  0.00    -0.276 OA
ATOM     12  H2  UNL     1       0.261  10.456   4.498  1.00  0.00     0.245 HD
ENDBRANCH   7  11
BRANCH   9  13
HETATM   13  O3  UNL     1       0.586  11.971   7.560  1.00  0.00    -0.276 OA
ATOM     14  H3  UNL     1       1.176  12.502   8.081  1.00  0.00     0.245 HD
ENDBRANCH   9  13
TORSDOF 2
ENDMDL
MODEL 2
REMARK VINA RESULT: -4.208232517      2.153      2.684
REMARK  2 active torsions:
REMARK  status: ('A' for Active; 'I' for Inactive)
REMARK       I    between atoms: C2_2  and  N1_4 
REMARK       I    between atoms: N1_4  and  C3_6 
REMARK       I    between atoms: C3_6  and  N2_7 
REMARK    1  A    between atoms: N2_7  and  O2_9 
REMARK    2  A    between atoms: N3_11  and  O3_13 
ROOT
HETATM    1  C1  UNL     1      -3.378  12.015   3.986  1.00  0.00     0.118 C 
HETATM    2  C2  UNL     1      -2.166  11.684   4.777  1.00  0.00     0.232 C 
HETATM    3  O1  UNL     1      -1.645  12.501   5.572  1.00  0.00    -0.273 OA
HETATM    4  N1  UNL     1      -1.573  10.406   4.636  1.00  0.00    -0.157 N 
ATOM      5  H1  UNL     1      -1.989   9.734   3.992  1.00  0.00     0.187 HD
HETATM    6  C3  UNL     1      -0.413  10.034   5.367  1.00  0.00     0.724 C 
HETATM    7  N2  UNL     1       0.165  10.969   6.263  1.00  0.00    -0.097 N 
ATOM      8  H2  UNL     1      -0.217  11.119   7.198  1.00  0.00     0.213 HD
HETATM    9  N3  UNL     1       0.133   8.884   5.250  1.00  0.00    -0.097 N 
ATOM     10  H3  UNL     1      -0.262   8.192   4.613  1.00  0.00     0.213 HD
ENDROOT
BRANCH   7  11
HETATM   11  O2  UNL     1       1.161  11.601   5.858  1.00  0.00    -0.276 OA
ATOM     12  H2  UNL     1       1.228  12.513   6.116  1.00  0.00     0.245 HD
ENDBRANCH   7  11
BRANCH   9  13
HETATM   13  O3  UNL     1       1.237   8.589   5.974  1.00  0.00    -0.276 OA
ATOM     14  H3  UNL     1       1.169   8.489   6.916  1.00  0.00     0.245 HD
ENDBRANCH   9  13
TORSDOF 2
ENDMDL
MODEL 3
REMARK VINA RESULT: -4.205894904      1.553      2.030
REMARK  2 active torsions:
REMARK  status: ('A' for Active; 'I' for Inactive)
REMARK       I    between atoms: C2_2  and  N1_4 
REMARK       I    between atoms: N1_4  and  C3_6 
REMARK       I    between atoms: C3_6  and  N2_7 
REMARK    1  A    between atoms: N2_7  and  O2_9 
REMARK    2  A    between atoms: N3_11  and  O3_13 
ROOT
HETATM    1  C1  UNL     1      -4.124  11.918   3.976  1.00  0.00     0.118 C 
HETATM    2  C2  UNL     1      -3.207  12.083   5.132  1.00  0.00     0.232 C 
HETATM    3  O1  UNL     1      -3.608  12.488   6.248  1.00  0.00    -0.273 OA
HETATM    4  N1  UNL     1      -1.834  11.775   4.978  1.00  0.00    -0.157 N 
ATOM      5  H1  UNL     1      -1.498  11.444   4.073  1.00  0.00     0.187 HD
HETATM    6  C3  UNL     1      -0.911  11.913   6.048  1.00  0.00     0.724 C 
HETATM    7  N2  UNL     1      -1.379  12.372   7.306  1.00  0.00    -0.097 N 
ATOM      8  H2  UNL     1      -1.846  11.746   7.962  1.00  0.00     0.213 HD
HETATM    9  N3  UNL     1       0.332  11.638   5.923  1.00  0.00    -0.097 N 
ATOM     10  H3  UNL     1       0.695  11.306   5.030  1.00  0.00     0.213 HD
ENDROOT
BRANCH   7  11
HETATM   11  O2  UNL     1      -1.195  13.576   7.573  1.00  0.00    -0.276 OA
ATOM     12  H2  UNL     1      -1.943  14.067   7.890  1.00  0.00     0.245 HD
ENDBRANCH   7  11
BRANCH   9  13
HETATM   13  O3  UNL     1       1.162  11.791   6.980  1.00  0.00    -0.276 OA
ATOM     14  H3  UNL     1       1.873  12.417   6.934  1.00  0.00     0.245 HD
ENDBRANCH   9  13
TORSDOF 2
ENDMDL
MODEL 4
REMARK VINA RESULT: -4.191005608      2.486      3.554
REMARK  2 active torsions:
REMARK  status: ('A' for Active; 'I' for Inactive)
REMARK       I    between atoms: C2_2  and  N1_4 
REMARK       I    between atoms: N1_4  and  C3_6 
REMARK       I    between atoms: C3_6  and  N2_7 
REMARK    1  A    between atoms: N2_7  and  O2_9 
REMARK    2  A    between atoms: N3_11  and  O3_13 
ROOT
HETATM    1  C1  UNL     1      -0.716   7.654   4.758  1.00  0.00     0.118 C 
HETATM    2  C2  UNL     1      -0.341   9.043   5.123  1.00  0.00     0.232 C 
HETATM    3  O1  UNL     1       0.802   9.506   4.902  1.00  0.00    -0.273 OA
HETATM    4  N1  UNL     1      -1.301   9.881   5.741  1.00  0.00    -0.157 N 
ATOM      5  H1  UNL     1      -2.235   9.514   5.926  1.00  0.00     0.187 HD
HETATM    6  C3  UNL     1      -0.999  11.219   6.112  1.00  0.00     0.724 C 
HETATM    7  N2  UNL     1       0.299  11.728   5.854  1.00  0.00    -0.097 N 
ATOM      8  H2  UNL     1       0.566  12.063   4.928  1.00  0.00     0.213 HD
HETATM    9  N3  UNL     1      -1.856  11.986   6.671  1.00  0.00    -0.097 N 
ATOM     10  H3  UNL     1      -2.797  11.646   6.868  1.00  0.00     0.213 HD
ENDROOT
BRANCH   7  11
HETATM   11  O2  UNL     1       1.099  11.749   6.811  1.00  0.00    -0.276 OA
ATOM     12  H2  UNL     1       1.996  11.495   6.628  1.00  0.00     0.245 HD
ENDBRANCH   7  11
BRANCH   9  13
HETATM   13  O3  UNL     1      -1.508  13.251   7.000  1.00  0.00    -0.276 OA
ATOM     14  H3  UNL     1      -2.084  13.972   6.776  1.00  0.00     0.245 HD
ENDBRANCH   9  13
TORSDOF 2
ENDMDL
MODEL 5
REMARK VINA RESULT: -4.178748939      2.562      4.195
REMARK  2 active torsions:
REMARK  status: ('A' for Active; 'I' for Inactive)
REMARK       I    between atoms: C2_2  and  N1_4 
REMARK       I    between atoms: N1_4  and  C3_6 
REMARK       I    between atoms: C3_6  and  N2_7 
REMARK    1  A    between atoms: N2_7  and  O2_9 
REMARK    2  A    between atoms: N3_11  and  O3_13 
ROOT
HETATM    1  C1  UNL     1       0.412   7.813   5.184  1.00  0.00     0.118 C 
HETATM    2  C2  UNL     1       0.011   9.243   5.189  1.00  0.00     0.232 C 
HETATM    3  O1  UNL     1       0.797  10.154   5.541  1.00  0.00    -0.273 OA
HETATM    4  N1  UNL     1      -1.298   9.598   4.784  1.00  0.00    -0.157 N 
ATOM      5  H1  UNL     1      -1.944   8.863   4.495  1.00  0.00     0.187 HD
HETATM    6  C3  UNL     1      -1.736  10.949   4.768  1.00  0.00     0.724 C 
HETATM    7  N2  UNL     1      -0.836  11.969   5.168  1.00  0.00    -0.097 N 
ATOM      8  H2  UNL     1      -0.123  12.330   4.534  1.00  0.00     0.213 HD
HETATM    9  N3  UNL     1      -2.916  11.284   4.404  1.00  0.00    -0.097 N 
ATOM     10  H3  UNL     1      -3.583  10.570   4.111  1.00  0.00     0.213 HD
ENDROOT
BRANCH   7  11
HETATM   11  O2  UNL     1      -0.956  12.405   6.330  1.00  0.00    -0.276 OA
ATOM     12  H2  UNL     1      -0.241  12.931   6.669  1.00  0.00     0.245 HD
ENDBRANCH   7  11
BRANCH   9  13
HETATM   13  O3  UNL     1      -3.274  12.588   4.411  1.00  0.00    -0.276 OA
ATOM     14  H3  UNL     1      -4.183  12.826   4.544  1.00  0.00     0.245 HD
ENDBRANCH   9  13
TORSDOF 2
ENDMDL
