MODEL 1
REMARK VINA RESULT: -3.426526600      0.000      0.000
REMARK  2 active torsions:
REMARK  status: ('A' for Active; 'I' for Inactive)
REMARK    1  A    between atoms: O1_1  and  C1_3 
REMARK    2  A    between atoms: C4_7  and  O2_8 
ROOT
HETATM    1  C1  UNL     1      -3.089  12.115   3.995  1.00  0.00     0.157 C 
HETATM    2  C2  UNL     1      -3.951  12.658   5.133  1.00  0.00     0.045 C 
HETATM    3  C3  UNL     1      -4.526  11.400   5.799  1.00  0.00     0.079 C 
HETATM    4  S1  UNL     1      -2.974  10.416   5.917  1.00  0.00    -0.135 SA
HETATM    5  C4  UNL     1      -1.953  11.458   4.797  1.00  0.00     0.208 C 
ENDROOT
BRANCH   1   6
HETATM    6  O1  UNL     1      -3.743  11.188   3.229  1.00  0.00    -0.392 OA
ATOM      7  H1  UNL     1      -3.172  10.491   2.927  1.00  0.00     0.210 HD
ENDBRANCH   1   6
BRANCH   5   8
HETATM    8  O2  UNL     1      -1.338  12.466   5.502  1.00  0.00    -0.383 OA
ATOM      9  H2  UNL     1      -0.431  12.204   5.613  1.00  0.00     0.211 HD
ENDBRANCH   5   8
TORSDOF 2
ENDMDL
MODEL 2
REMARK VINA RESULT: -3.352910470      1.753      2.451
REMARK  2 active torsions:
REMARK  status: ('A' for Active; 'I' for Inactive)
REMARK    1  A    between atoms: O1_1  and  C1_3 
REMARK    2  A    between atoms: C4_7  and  O2_8 
ROOT
HETATM    1  C1  UNL     1      -4.188  11.520   4.033  1.00  0.00     0.157 C 
HETATM    2  C2  UNL     1      -3.937  10.301   4.919  1.00  0.00     0.045 C 
HETATM    3  C3  UNL     1      -2.604  10.613   5.615  1.00  0.00     0.079 C 
HETATM    4  S1  UNL     1      -2.961  12.344   6.134  1.00  0.00    -0.135 SA
HETATM    5  C4  UNL     1      -4.465  12.589   5.103  1.00  0.00     0.208 C 
ENDROOT
BRANCH   1   6
HETATM    6  O1  UNL     1      -3.098  11.860   3.277  1.00  0.00    -0.392 OA
ATOM      7  H1  UNL     1      -3.013  11.328   2.494  1.00  0.00     0.210 HD
ENDBRANCH   1   6
BRANCH   5   8
HETATM    8  O2  UNL     1      -5.589  12.179   5.782  1.00  0.00    -0.383 OA
ATOM      9  H2  UNL     1      -5.410  11.300   6.095  1.00  0.00     0.211 HD
ENDBRANCH   5   8
TORSDOF 2
ENDMDL
MODEL 3
REMARK VINA RESULT: -3.289360804      1.610      2.152
REMARK  2 active torsions:
REMARK  status: ('A' for Active; 'I' for Inactive)
REMARK    1  A    between atoms: O1_1  and  C1_3 
REMARK    2  A    between atoms: C4_7  and  O2_8 
ROOT
HETATM    1  C1  UNL     1      -4.470  12.426   4.984  1.00  0.00     0.157 C 
HETATM    2  C2  UNL     1      -3.171  12.476   5.787  1.00  0.00     0.045 C 
HETATM    3  C3  UNL     1      -3.199  11.188   6.622  1.00  0.00     0.079 C 
HETATM    4  S1  UNL     1      -3.668  10.005   5.291  1.00  0.00    -0.135 SA
HETATM    5  C4  UNL     1      -4.165  11.254   4.036  1.00  0.00     0.208 C 
ENDROOT
BRANCH   1   6
HETATM    6  O1  UNL     1      -5.564  12.150   5.760  1.00  0.00    -0.392 OA
ATOM      7  H1  UNL     1      -5.333  11.891   6.644  1.00  0.00     0.210 HD
ENDBRANCH   1   6
BRANCH   5   8
HETATM    8  O2  UNL     1      -3.081  11.636   3.279  1.00  0.00    -0.383 OA
ATOM      9  H2  UNL     1      -3.357  12.392   2.774  1.00  0.00     0.211 HD
ENDBRANCH   5   8
TORSDOF 2
ENDMDL
MODEL 4
REMARK VINA RESULT: -3.218095684      1.241      2.517
REMARK  2 active torsions:
REMARK  status: ('A' for Active; 'I' for Inactive)
REMARK    1  A    between atoms: O1_1  and  C1_3 
REMARK    2  A    between atoms: C4_7  and  O2_8 
ROOT
HETATM    1  C1  UNL     1      -2.004  11.528   4.812  1.00  0.00     0.157 C 
HETATM    2  C2  UNL     1      -2.817  10.553   5.662  1.00  0.00     0.045 C 
HETATM    3  C3  UNL     1      -3.628  11.460   6.598  1.00  0.00     0.079 C 
HETATM    4  S1  UNL     1      -4.242  12.668   5.351  1.00  0.00    -0.135 SA
HETATM    5  C4  UNL     1      -3.125  12.169   3.977  1.00  0.00     0.208 C 
ENDROOT
BRANCH   1   6
HETATM    6  O1  UNL     1      -1.355  12.473   5.561  1.00  0.00    -0.392 OA
ATOM      7  H1  UNL     1      -1.903  13.222   5.764  1.00  0.00     0.210 HD
ENDBRANCH   1   6
BRANCH   5   8
HETATM    8  O2  UNL     1      -3.691  11.155   3.238  1.00  0.00    -0.383 OA
ATOM      9  H2  UNL     1      -4.213  11.573   2.563  1.00  0.00     0.211 HD
ENDBRANCH   5   8
TORSDOF 2
ENDMDL
MODEL 5
REMARK VINA RESULT: -3.164295377      1.303      1.510
REMARK  2 active torsions:
REMARK  status: ('A' for Active; 'I' for Inactive)
REMARK    1  A    between atoms: O1_1  and  C1_3 
REMARK    2  A    between atoms: C4_7  and  O2_8 
ROOT
HETATM    1  C1  UNL     1      -2.585  10.886   4.477  1.00  0.00     0.157 C 
HETATM    2  C2  UNL     1      -3.239  12.148   3.917  1.00  0.00     0.045 C 
HETATM    3  C3  UNL     1      -4.269  12.540   4.986  1.00  0.00     0.079 C 
HETATM    4  S1  UNL     1      -3.199  12.378   6.475  1.00  0.00    -0.135 SA
HETATM    5  C4  UNL     1      -1.813  11.478   5.667  1.00  0.00     0.208 C 
ENDROOT
BRANCH   1   6
HETATM    6  O1  UNL     1      -3.499   9.959   4.903  1.00  0.00    -0.392 OA
ATOM      7  H1  UNL     1      -3.568   9.918   5.849  1.00  0.00     0.210 HD
ENDBRANCH   1   6
BRANCH   5   8
HETATM    8  O2  UNL     1      -0.902  12.365   5.140  1.00  0.00    -0.383 OA
ATOM      9  H2  UNL     1      -0.106  12.269   5.650  1.00  0.00     0.211 HD
ENDBRANCH   5   8
TORSDOF 2
ENDMDL
