MODEL 1
REMARK VINA RESULT: -3.819843856      0.000      0.000
REMARK  2 active torsions:
REMARK  status: ('A' for Active; 'I' for Inactive)
REMARK    1  A    between atoms: C2_2  and  O1_3 
REMARK    2  A    between atoms: C5_8  and  O2_9 
ROOT
HETATM    1  C1  UNL     1       0.505  10.758   7.945  1.00  0.00     0.061 C 
HETATM    2  C2  UNL     1       0.117  10.981   6.517  1.00  0.00     0.128 C 
HETATM    3  S1  UNL     1      -1.411  11.949   6.357  1.00  0.00    -0.129 SA
HETATM    4  C3  UNL     1      -1.897  11.153   4.769  1.00  0.00     0.079 C 
HETATM    5  C4  UNL     1      -1.394   9.782   5.007  1.00  0.00     0.046 C 
HETATM    6  C5  UNL     1      -0.132   9.767   5.728  1.00  0.00     0.163 C 
ENDROOT
BRANCH   2   7
HETATM    7  O1  UNL     1       1.119  11.734   5.866  1.00  0.00    -0.377 OA
ATOM      8  H1  UNL     1       1.903  11.206   5.770  1.00  0.00     0.211 HD
ENDBRANCH   2   7
BRANCH   6   9
HETATM    9  O2  UNL     1       0.920   9.526   4.836  1.00  0.00    -0.392 OA
ATOM     10  H2  UNL     1       0.975   8.603   4.618  1.00  0.00     0.210 HD
ENDBRANCH   6   9
TORSDOF 2
ENDMDL
MODEL 2
REMARK VINA RESULT: -3.673181731      3.648      4.716
REMARK  2 active torsions:
REMARK  status: ('A' for Active; 'I' for Inactive)
REMARK    1  A    between atoms: C2_2  and  O1_3 
REMARK    2  A    between atoms: C5_8  and  O2_9 
ROOT
HETATM    1  C1  UNL     1      -3.994   9.984   3.838  1.00  0.00     0.061 C 
HETATM    2  C2  UNL     1      -3.580  11.321   4.368  1.00  0.00     0.128 C 
HETATM    3  S1  UNL     1      -1.910  11.295   5.080  1.00  0.00    -0.129 SA
HETATM    4  C3  UNL     1      -2.272  12.632   6.294  1.00  0.00     0.079 C 
HETATM    5  C4  UNL     1      -3.685  12.320   6.601  1.00  0.00     0.046 C 
HETATM    6  C5  UNL     1      -4.426  11.874   5.433  1.00  0.00     0.163 C 
ENDROOT
BRANCH   2   7
HETATM    7  O1  UNL     1      -3.532  12.256   3.310  1.00  0.00    -0.377 OA
ATOM      8  H1  UNL     1      -3.894  13.085   3.601  1.00  0.00     0.211 HD
ENDBRANCH   2   7
BRANCH   6   9
HETATM    9  O2  UNL     1      -5.220  12.920   4.948  1.00  0.00    -0.392 OA
ATOM     10  H2  UNL     1      -5.615  13.406   5.663  1.00  0.00     0.210 HD
ENDBRANCH   6   9
TORSDOF 2
ENDMDL
MODEL 3
REMARK VINA RESULT: -3.660090815      4.821      5.063
REMARK  2 active torsions:
REMARK  status: ('A' for Active; 'I' for Inactive)
REMARK    1  A    between atoms: C2_2  and  O1_3 
REMARK    2  A    between atoms: C5_8  and  O2_9 
ROOT
HETATM    1  C1  UNL     1      -4.023  12.274   7.796  1.00  0.00     0.061 C 
HETATM    2  C2  UNL     1      -4.554  11.882   6.453  1.00  0.00     0.128 C 
HETATM    3  S1  UNL     1      -3.872  10.303   5.872  1.00  0.00    -0.129 SA
HETATM    4  C3  UNL     1      -4.000  10.759   4.093  1.00  0.00     0.079 C 
HETATM    5  C4  UNL     1      -3.705  12.206   4.179  1.00  0.00     0.046 C 
HETATM    6  C5  UNL     1      -4.283  12.825   5.360  1.00  0.00     0.163 C 
ENDROOT
BRANCH   2   7
HETATM    7  O1  UNL     1      -5.952  11.689   6.534  1.00  0.00    -0.377 OA
ATOM      8  H1  UNL     1      -6.138  10.932   7.077  1.00  0.00     0.211 HD
ENDBRANCH   2   7
BRANCH   6   9
HETATM    9  O2  UNL     1      -5.440  13.529   5.008  1.00  0.00    -0.392 OA
ATOM     10  H2  UNL     1      -5.222  14.337   4.559  1.00  0.00     0.210 HD
ENDBRANCH   6   9
TORSDOF 2
ENDMDL
MODEL 4
REMARK VINA RESULT: -3.605954606      3.660      4.470
REMARK  2 active torsions:
REMARK  status: ('A' for Active; 'I' for Inactive)
REMARK    1  A    between atoms: C2_2  and  O1_3 
REMARK    2  A    between atoms: C5_8  and  O2_9 
ROOT
HETATM    1  C1  UNL     1      -4.446  13.892   6.258  1.00  0.00     0.061 C 
HETATM    2  C2  UNL     1      -4.099  12.511   5.796  1.00  0.00     0.128 C 
HETATM    3  S1  UNL     1      -3.079  11.614   7.001  1.00  0.00    -0.129 SA
HETATM    4  C3  UNL     1      -2.226  10.607   5.717  1.00  0.00     0.079 C 
HETATM    5  C4  UNL     1      -2.152  11.599   4.623  1.00  0.00     0.046 C 
HETATM    6  C5  UNL     1      -3.342  12.430   4.540  1.00  0.00     0.163 C 
ENDROOT
BRANCH   2   7
HETATM    7  O1  UNL     1      -5.280  11.749   5.651  1.00  0.00    -0.377 OA
ATOM      8  H1  UNL     1      -5.094  10.835   5.832  1.00  0.00     0.211 HD
ENDBRANCH   2   7
BRANCH   6   9
HETATM    9  O2  UNL     1      -4.158  11.987   3.493  1.00  0.00    -0.392 OA
ATOM     10  H2  UNL     1      -4.514  12.722   3.007  1.00  0.00     0.210 HD
ENDBRANCH   6   9
TORSDOF 2
ENDMDL
MODEL 5
REMARK VINA RESULT: -3.596234039      1.729      2.664
REMARK  2 active torsions:
REMARK  status: ('A' for Active; 'I' for Inactive)
REMARK    1  A    between atoms: C2_2  and  O1_3 
REMARK    2  A    between atoms: C5_8  and  O2_9 
ROOT
HETATM    1  C1  UNL     1       0.352   9.477   5.712  1.00  0.00     0.061 C 
HETATM    2  C2  UNL     1       0.225  10.837   6.324  1.00  0.00     0.128 C 
HETATM    3  S1  UNL     1       0.351  10.796   8.134  1.00  0.00    -0.129 SA
HETATM    4  C3  UNL     1      -0.734  12.265   8.369  1.00  0.00     0.079 C 
HETATM    5  C4  UNL     1      -1.683  12.060   7.252  1.00  0.00     0.046 C 
HETATM    6  C5  UNL     1      -1.038  11.539   6.059  1.00  0.00     0.163 C 
ENDROOT
BRANCH   2   7
HETATM    7  O1  UNL     1       1.288  11.657   5.883  1.00  0.00    -0.377 OA
ATOM      8  H1  UNL     1       1.067  12.040   5.042  1.00  0.00     0.211 HD
ENDBRANCH   2   7
BRANCH   6   9
HETATM    9  O2  UNL     1      -0.851  12.571   5.132  1.00  0.00    -0.392 OA
ATOM     10  H2  UNL     1      -1.663  13.037   4.974  1.00  0.00     0.210 HD
ENDBRANCH   6   9
TORSDOF 2
ENDMDL
