MODEL 1
REMARK VINA RESULT: -8.425937144      0.000      0.000
REMARK  4 active torsions:
REMARK  status: ('A' for Active; 'I' for Inactive)
REMARK    1  A    between atoms: O1_1  and  C1_3 
REMARK    2  A    between atoms: C6_8  and  N1_9 
REMARK    3  A    between atoms: C14_17  and  O2_18 
REMARK    4  A    between atoms: O2_18  and  C15_19 
ROOT
HETATM    1  N1  UNL     1      -1.379   2.300  83.772  1.00  0.00     0.096 N 
HETATM    2  C7  UNL     1      -2.087   3.019  82.753  1.00  0.00     0.273 C 
HETATM    3  C8  UNL     1      -2.331   2.241  81.505  1.00  0.00     0.037 C 
HETATM    4  C9  UNL     1      -1.108   1.803  80.775  1.00  0.00     0.017 C 
HETATM    5  C10 UNL     1      -1.382   0.377  80.268  1.00  0.00     0.008 C 
HETATM    6  C11 UNL     1      -1.123  -0.457  81.478  1.00  0.00     0.009 C 
HETATM    7  C12 UNL     1      -0.422   0.421  82.513  1.00  0.00     0.044 C 
HETATM    8  C13 UNL     1      -1.371   0.871  83.569  1.00  0.00     0.280 C 
HETATM    9  C14 UNL     1       0.082   1.541  81.638  1.00  0.00     0.140 C 
ENDROOT
BRANCH   9  10
HETATM   10  O2  UNL     1       0.600   2.625  82.314  1.00  0.00    -0.328 OA
BRANCH  10  11
HETATM   11  C15 UNL     1       1.439   3.553  81.703  1.00  0.00     0.158 A 
HETATM   12  C16 UNL     1       0.968   4.702  81.128  1.00  0.00     0.143 A 
HETATM   13  N2  UNL     1       1.793   5.590  80.541  1.00  0.00    -0.370 N 
HETATM   14  C17 UNL     1       3.119   5.363  80.505  1.00  0.00     0.104 A 
ATOM     15  H2  UNL     1       1.412   6.438  80.122  1.00  0.00     0.164 HD
HETATM   16  C18 UNL     1       3.612   4.203  81.082  1.00  0.00     0.107 A 
HETATM   17  N3  UNL     1       2.759   3.340  81.659  1.00  0.00    -0.344 N 
ATOM     18  H3  UNL     1       3.132   2.490  82.081  1.00  0.00     0.167 HD
ENDBRANCH  10  11
ENDBRANCH   9  10
BRANCH   1  19
HETATM   19  C6  UNL     1      -1.889   2.582  85.116  1.00  0.00     0.251 C 
HETATM   20  C1  UNL     1      -2.336   1.347  85.830  1.00  0.00     0.151 C 
HETATM   21  C2  UNL     1      -3.651   1.491  86.552  1.00  0.00     0.034 C 
HETATM   22  C3  UNL     1      -3.696   2.848  87.211  1.00  0.00     0.003 C 
HETATM   23  C4  UNL     1      -3.727   3.934  86.170  1.00  0.00     0.002 C 
HETATM   24  C5  UNL     1      -2.996   3.590  84.921  1.00  0.00     0.038 C 
BRANCH  20  25
HETATM   25  O1  UNL     1      -1.383   0.973  86.810  1.00  0.00    -0.393 OA
ATOM     26  H1  UNL     1      -1.258   0.036  86.715  1.00  0.00     0.210 HD
ENDBRANCH  20  25
ENDBRANCH   1  19
TORSDOF 4
ENDMDL
MODEL 2
REMARK VINA RESULT: -8.243265162      2.427      6.251
REMARK  4 active torsions:
REMARK  status: ('A' for Active; 'I' for Inactive)
REMARK    1  A    between atoms: O1_1  and  C1_3 
REMARK    2  A    between atoms: C6_8  and  N1_9 
REMARK    3  A    between atoms: C14_17  and  O2_18 
REMARK    4  A    between atoms: O2_18  and  C15_19 
ROOT
HETATM    1  N1  UNL     1      -1.087   3.613  82.443  1.00  0.00     0.096 N 
HETATM    2  C7  UNL     1      -1.806   4.731  81.903  1.00  0.00     0.273 C 
HETATM    3  C8  UNL     1      -1.341   6.059  82.397  1.00  0.00     0.037 C 
HETATM    4  C9  UNL     1      -1.484   6.282  83.864  1.00  0.00     0.017 C 
HETATM    5  C10 UNL     1      -0.222   7.032  84.322  1.00  0.00     0.008 C 
HETATM    6  C11 UNL     1       0.783   5.937  84.450  1.00  0.00     0.009 C 
HETATM    7  C12 UNL     1       0.037   4.604  84.387  1.00  0.00     0.044 C 
HETATM    8  C13 UNL     1       0.173   3.974  83.044  1.00  0.00     0.280 C 
HETATM    9  C14 UNL     1      -1.367   5.052  84.703  1.00  0.00     0.140 C 
ENDROOT
BRANCH   9  10
HETATM   10  O2  UNL     1      -2.342   4.094  84.526  1.00  0.00    -0.328 OA
BRANCH  10  11
HETATM   11  C15 UNL     1      -2.565   3.078  85.451  1.00  0.00     0.158 A 
HETATM   12  C16 UNL     1      -1.839   1.918  85.460  1.00  0.00     0.143 A 
HETATM   13  N2  UNL     1      -2.067   0.945  86.362  1.00  0.00    -0.370 N 
HETATM   14  C17 UNL     1      -3.030   1.093  87.290  1.00  0.00     0.104 A 
ATOM     15  H2  UNL     1      -1.508   0.093  86.343  1.00  0.00     0.164 HD
HETATM   16  C18 UNL     1      -3.776   2.262  87.295  1.00  0.00     0.107 A 
HETATM   17  N3  UNL     1      -3.520   3.211  86.379  1.00  0.00    -0.344 N 
ATOM     18  H3  UNL     1      -4.074   4.067  86.392  1.00  0.00     0.167 HD
ENDBRANCH  10  11
ENDBRANCH   9  10
BRANCH   1  19
HETATM   19  C6  UNL     1      -0.850   2.566  81.446  1.00  0.00     0.251 C 
HETATM   20  C1  UNL     1      -1.749   1.386  81.629  1.00  0.00     0.151 C 
HETATM   21  C2  UNL     1      -1.055   0.054  81.506  1.00  0.00     0.034 C 
HETATM   22  C3  UNL     1      -0.064   0.127  80.369  1.00  0.00     0.003 C 
HETATM   23  C4  UNL     1       1.043   1.089  80.701  1.00  0.00     0.002 C 
HETATM   24  C5  UNL     1       0.615   2.222  81.565  1.00  0.00     0.038 C 
BRANCH  20  25
HETATM   25  O1  UNL     1      -2.775   1.392  80.653  1.00  0.00    -0.393 OA
ATOM     26  H1  UNL     1      -3.487   1.904  81.017  1.00  0.00     0.210 HD
ENDBRANCH  20  25
ENDBRANCH   1  19
TORSDOF 4
ENDMDL
MODEL 3
REMARK VINA RESULT: -7.886291488      2.190      5.371
REMARK  4 active torsions:
REMARK  status: ('A' for Active; 'I' for Inactive)
REMARK    1  A    between atoms: O1_1  and  C1_3 
REMARK    2  A    between atoms: C6_8  and  N1_9 
REMARK    3  A    between atoms: C14_17  and  O2_18 
REMARK    4  A    between atoms: O2_18  and  C15_19 
ROOT
HETATM    1  N1  UNL     1      -0.534   3.637  81.899  1.00  0.00     0.096 N 
HETATM    2  C7  UNL     1       0.799   3.163  81.660  1.00  0.00     0.273 C 
HETATM    3  C8  UNL     1       0.870   1.876  80.911  1.00  0.00     0.037 C 
HETATM    4  C9  UNL     1       0.246   0.705  81.590  1.00  0.00     0.017 C 
HETATM    5  C10 UNL     1      -0.474  -0.106  80.499  1.00  0.00     0.008 C 
HETATM    6  C11 UNL     1      -1.752   0.644  80.322  1.00  0.00     0.009 C 
HETATM    7  C12 UNL     1      -1.884   1.629  81.483  1.00  0.00     0.044 C 
HETATM    8  C13 UNL     1      -1.527   3.012  81.059  1.00  0.00     0.280 C 
HETATM    9  C14 UNL     1      -0.915   1.032  82.471  1.00  0.00     0.140 C 
ENDROOT
BRANCH   9  10
HETATM   10  O2  UNL     1      -0.646   1.814  83.574  1.00  0.00    -0.328 OA
BRANCH  10  11
HETATM   11  C15 UNL     1      -1.466   1.822  84.699  1.00  0.00     0.158 A 
HETATM   12  C16 UNL     1      -1.476   0.800  85.609  1.00  0.00     0.143 A 
HETATM   13  N2  UNL     1      -2.275   0.823  86.693  1.00  0.00    -0.370 N 
HETATM   14  C17 UNL     1      -3.095   1.868  86.909  1.00  0.00     0.104 A 
ATOM     15  H2  UNL     1      -2.259   0.046  87.353  1.00  0.00     0.164 HD
HETATM   16  C18 UNL     1      -3.097   2.912  85.996  1.00  0.00     0.107 A 
HETATM   17  N3  UNL     1      -2.286   2.854  84.926  1.00  0.00    -0.344 N 
ATOM     18  H3  UNL     1      -2.296   3.627  84.262  1.00  0.00     0.167 HD
ENDBRANCH  10  11
ENDBRANCH   9  10
BRANCH   1  19
HETATM   19  C6  UNL     1      -0.646   5.091  81.756  1.00  0.00     0.251 C 
HETATM   20  C1  UNL     1      -1.435   5.716  82.861  1.00  0.00     0.151 C 
HETATM   21  C2  UNL     1      -2.430   6.752  82.402  1.00  0.00     0.034 C 
HETATM   22  C3  UNL     1      -1.795   7.582  81.312  1.00  0.00     0.003 C 
HETATM   23  C4  UNL     1      -1.550   6.741  80.089  1.00  0.00     0.002 C 
HETATM   24  C5  UNL     1      -1.251   5.316  80.391  1.00  0.00     0.038 C 
BRANCH  20  25
HETATM   25  O1  UNL     1      -0.572   6.370  83.774  1.00  0.00    -0.393 OA
ATOM     26  H1  UNL     1       0.174   6.670  83.268  1.00  0.00     0.210 HD
ENDBRANCH  20  25
ENDBRANCH   1  19
TORSDOF 4
ENDMDL
MODEL 4
REMARK VINA RESULT: -7.850087971      2.206      5.575
REMARK  4 active torsions:
REMARK  status: ('A' for Active; 'I' for Inactive)
REMARK    1  A    between atoms: O1_1  and  C1_3 
REMARK    2  A    between atoms: C6_8  and  N1_9 
REMARK    3  A    between atoms: C14_17  and  O2_18 
REMARK    4  A    between atoms: O2_18  and  C15_19 
ROOT
HETATM    1  N1  UNL     1      -0.960   3.675  82.045  1.00  0.00     0.096 N 
HETATM    2  C7  UNL     1       0.417   3.456  81.704  1.00  0.00     0.273 C 
HETATM    3  C8  UNL     1       0.664   2.223  80.903  1.00  0.00     0.037 C 
HETATM    4  C9  UNL     1       0.309   0.941  81.576  1.00  0.00     0.017 C 
HETATM    5  C10 UNL     1      -0.329   0.042  80.504  1.00  0.00     0.008 C 
HETATM    6  C11 UNL     1      -1.729   0.552  80.437  1.00  0.00     0.009 C 
HETATM    7  C12 UNL     1      -1.954   1.467  81.641  1.00  0.00     0.044 C 
HETATM    8  C13 UNL     1      -1.881   2.902  81.248  1.00  0.00     0.280 C 
HETATM    9  C14 UNL     1      -0.826   1.029  82.541  1.00  0.00     0.140 C 
ENDROOT
BRANCH   9  10
HETATM   10  O2  UNL     1      -0.626   1.818  83.654  1.00  0.00    -0.328 OA
BRANCH  10  11
HETATM   11  C15 UNL     1      -1.466   1.770  84.763  1.00  0.00     0.158 A 
HETATM   12  C16 UNL     1      -1.473   0.716  85.635  1.00  0.00     0.143 A 
HETATM   13  N2  UNL     1      -2.292   0.685  86.704  1.00  0.00    -0.370 N 
HETATM   14  C17 UNL     1      -3.135   1.706  86.942  1.00  0.00     0.104 A 
ATOM     15  H2  UNL     1      -2.273  -0.116  87.335  1.00  0.00     0.164 HD
HETATM   16  C18 UNL     1      -3.141   2.783  86.068  1.00  0.00     0.107 A 
HETATM   17  N3  UNL     1      -2.309   2.779  85.012  1.00  0.00    -0.344 N 
ATOM     18  H3  UNL     1      -2.321   3.575  84.376  1.00  0.00     0.167 HD
ENDBRANCH  10  11
ENDBRANCH   9  10
BRANCH   1  19
HETATM   19  C6  UNL     1      -1.339   5.087  81.965  1.00  0.00     0.251 C 
HETATM   20  C1  UNL     1      -1.260   5.624  80.573  1.00  0.00     0.151 C 
HETATM   21  C2  UNL     1      -0.615   6.983  80.468  1.00  0.00     0.034 C 
HETATM   22  C3  UNL     1      -1.091   7.834  81.621  1.00  0.00     0.003 C 
HETATM   23  C4  UNL     1      -0.579   7.283  82.924  1.00  0.00     0.002 C 
HETATM   24  C5  UNL     1      -0.427   5.804  82.932  1.00  0.00     0.038 C 
BRANCH  20  25
HETATM   25  O1  UNL     1      -2.559   5.757  80.022  1.00  0.00    -0.393 OA
ATOM     26  H1  UNL     1      -2.506   6.457  79.382  1.00  0.00     0.210 HD
ENDBRANCH  20  25
ENDBRANCH   1  19
TORSDOF 4
ENDMDL
MODEL 5
REMARK VINA RESULT: -7.671956588      3.831      6.121
REMARK  4 active torsions:
REMARK  status: ('A' for Active; 'I' for Inactive)
REMARK    1  A    between atoms: O1_1  and  C1_3 
REMARK    2  A    between atoms: C6_8  and  N1_9 
REMARK    3  A    between atoms: C14_17  and  O2_18 
REMARK    4  A    between atoms: O2_18  and  C15_19 
ROOT
HETATM    1  N1  UNL     1      -0.779   4.431  81.622  1.00  0.00     0.096 N 
HETATM    2  C7  UNL     1       0.489   5.078  81.449  1.00  0.00     0.273 C 
HETATM    3  C8  UNL     1       0.889   5.963  82.581  1.00  0.00     0.037 C 
HETATM    4  C9  UNL     1      -0.014   7.121  82.837  1.00  0.00     0.017 C 
HETATM    5  C10 UNL     1      -0.126   7.264  84.364  1.00  0.00     0.008 C 
HETATM    6  C11 UNL     1      -1.137   6.224  84.718  1.00  0.00     0.009 C 
HETATM    7  C12 UNL     1      -1.798   5.752  83.423  1.00  0.00     0.044 C 
HETATM    8  C13 UNL     1      -1.249   4.438  82.987  1.00  0.00     0.280 C 
HETATM    9  C14 UNL     1      -1.449   6.890  82.497  1.00  0.00     0.140 C 
ENDROOT
BRANCH   9  10
HETATM   10  O2  UNL     1      -1.737   6.671  81.167  1.00  0.00    -0.328 OA
BRANCH  10  11
HETATM   11  C15 UNL     1      -2.872   7.196  80.554  1.00  0.00     0.158 A 
HETATM   12  C16 UNL     1      -3.759   8.001  81.216  1.00  0.00     0.143 A 
HETATM   13  N2  UNL     1      -4.852   8.500  80.608  1.00  0.00    -0.370 N 
HETATM   14  C17 UNL     1      -5.101   8.214  79.317  1.00  0.00     0.104 A 
ATOM     15  H2  UNL     1      -5.494   9.098  81.128  1.00  0.00     0.164 HD
HETATM   16  C18 UNL     1      -4.212   7.399  78.632  1.00  0.00     0.107 A 
HETATM   17  N3  UNL     1      -3.132   6.919  79.271  1.00  0.00    -0.344 N 
ATOM     18  H3  UNL     1      -2.485   6.321  78.758  1.00  0.00     0.167 HD
ENDBRANCH  10  11
ENDBRANCH   9  10
BRANCH   1  19
HETATM   19  C6  UNL     1      -0.775   3.049  81.134  1.00  0.00     0.251 C 
HETATM   20  C1  UNL     1      -1.806   2.201  81.805  1.00  0.00     0.151 C 
HETATM   21  C2  UNL     1      -1.312   0.838  82.220  1.00  0.00     0.034 C 
HETATM   22  C3  UNL     1      -0.424   0.292  81.127  1.00  0.00     0.003 C 
HETATM   23  C4  UNL     1       0.829   1.117  81.011  1.00  0.00     0.002 C 
HETATM   24  C5  UNL     1       0.635   2.553  81.348  1.00  0.00     0.038 C 
BRANCH  20  25
HETATM   25  O1  UNL     1      -2.903   1.979  80.937  1.00  0.00    -0.393 OA
ATOM     26  H1  UNL     1      -2.790   2.577  80.207  1.00  0.00     0.210 HD
ENDBRANCH  20  25
ENDBRANCH   1  19
TORSDOF 4
ENDMDL
