MODEL 1
REMARK VINA RESULT: -6.932028370      0.000      0.000
REMARK  5 active torsions:
REMARK  status: ('A' for Active; 'I' for Inactive)
REMARK    1  A    between atoms: C6_7  and  O1_8 
REMARK    2  A    between atoms: N2_10  and  C7_11 
REMARK    3  A    between atoms: C7_11  and  C8_12 
REMARK    4  A    between atoms: C8_12  and  N3_13 
REMARK    5  A    between atoms: C16_22  and  O3_23 
ROOT
HETATM    1  C1  UNL     1       2.789   5.344  79.941  1.00  0.00     0.154 C 
HETATM    2  N1  UNL     1       1.882   4.259  79.825  1.00  0.00    -0.373 N 
HETATM    3  C2  UNL     1       2.347   2.980  80.121  1.00  0.00     0.067 C 
HETATM    4  C3  UNL     1       1.489   2.089  80.926  1.00  0.00     0.088 C 
HETATM    5  C4  UNL     1       0.295   2.715  81.506  1.00  0.00     0.013 A 
HETATM    6  C5  UNL     1      -0.196   3.900  81.030  1.00  0.00     0.041 A 
HETATM    7  C6  UNL     1      -1.297   4.222  81.761  1.00  0.00     0.156 A 
HETATM    8  N2  UNL     1      -1.503   3.255  82.687  1.00  0.00    -0.306 N 
HETATM    9  C16 UNL     1      -0.531   2.336  82.530  1.00  0.00     0.152 A 
HETATM   10  C17 UNL     1       0.514   4.548  79.903  1.00  0.00     0.106 C 
ENDROOT
BRANCH   8  11
HETATM   11  C7  UNL     1      -2.578   3.228  83.662  1.00  0.00     0.153 C 
BRANCH  11  12
HETATM   12  C8  UNL     1      -2.208   3.910  84.952  1.00  0.00     0.146 C 
BRANCH  12  13
HETATM   13  N3  UNL     1      -2.629   3.079  86.038  1.00  0.00    -0.345 N 
HETATM   14  C9  UNL     1      -1.808   2.039  86.595  1.00  0.00     0.224 C 
HETATM   15  O2  UNL     1      -0.634   1.835  86.270  1.00  0.00    -0.273 OA
HETATM   16  C10 UNL     1      -2.540   1.217  87.626  1.00  0.00     0.078 C 
HETATM   17  C11 UNL     1      -3.001   2.166  88.732  1.00  0.00     0.016 C 
HETATM   18  C15 UNL     1      -3.791   0.713  86.939  1.00  0.00     0.016 C 
HETATM   19  C12 UNL     1      -3.628   3.417  88.165  1.00  0.00     0.026 C 
HETATM   20  C13 UNL     1      -3.936   3.202  86.692  1.00  0.00     0.087 C 
HETATM   21  C14 UNL     1      -4.695   1.877  86.613  1.00  0.00     0.026 C 
ENDBRANCH  12  13
ENDBRANCH  11  12
ENDBRANCH   8  11
BRANCH   7  22
HETATM   22  O1  UNL     1      -2.051   5.375  81.545  1.00  0.00    -0.345 OA
ATOM     23  H1  UNL     1      -2.931   5.495  81.883  1.00  0.00     0.219 HD
ENDBRANCH   7  22
BRANCH   9  24
HETATM   24  O3  UNL     1      -0.455   1.194  83.340  1.00  0.00    -0.345 OA
ATOM     25  H3  UNL     1      -1.133   0.801  83.876  1.00  0.00     0.219 HD
ENDBRANCH   9  24
TORSDOF 5
ENDMDL
MODEL 2
REMARK VINA RESULT: -6.884577821      1.955      2.950
REMARK  5 active torsions:
REMARK  status: ('A' for Active; 'I' for Inactive)
REMARK    1  A    between atoms: C6_7  and  O1_8 
REMARK    2  A    between atoms: N2_10  and  C7_11 
REMARK    3  A    between atoms: C7_11  and  C8_12 
REMARK    4  A    between atoms: C8_12  and  N3_13 
REMARK    5  A    between atoms: C16_22  and  O3_23 
ROOT
HETATM    1  C1  UNL     1       4.017   5.928  77.400  1.00  0.00     0.154 C 
HETATM    2  N1  UNL     1       3.711   4.774  78.166  1.00  0.00    -0.373 N 
HETATM    3  C2  UNL     1       4.529   4.470  79.252  1.00  0.00     0.067 C 
HETATM    4  C3  UNL     1       3.893   4.045  80.514  1.00  0.00     0.088 C 
HETATM    5  C4  UNL     1       2.431   4.171  80.559  1.00  0.00     0.013 A 
HETATM    6  C5  UNL     1       1.686   4.292  79.418  1.00  0.00     0.041 A 
HETATM    7  C6  UNL     1       0.379   4.389  79.778  1.00  0.00     0.156 A 
HETATM    8  N2  UNL     1       0.293   4.329  81.129  1.00  0.00    -0.306 N 
HETATM    9  C16 UNL     1       1.546   4.196  81.604  1.00  0.00     0.152 A 
HETATM   10  C17 UNL     1       2.396   4.294  78.117  1.00  0.00     0.106 C 
ENDROOT
BRANCH   8  11
HETATM   11  C7  UNL     1      -0.930   4.398  81.907  1.00  0.00     0.153 C 
BRANCH  11  12
HETATM   12  C8  UNL     1      -1.589   3.054  82.072  1.00  0.00     0.146 C 
BRANCH  12  13
HETATM   13  N3  UNL     1      -1.601   2.727  83.465  1.00  0.00    -0.345 N 
HETATM   14  C9  UNL     1      -1.591   1.376  83.955  1.00  0.00     0.224 C 
HETATM   15  O2  UNL     1      -1.461   0.380  83.236  1.00  0.00    -0.273 OA
HETATM   16  C10 UNL     1      -1.757   1.304  85.452  1.00  0.00     0.078 C 
HETATM   17  C11 UNL     1      -0.613   2.096  86.083  1.00  0.00     0.016 C 
HETATM   18  C15 UNL     1      -3.031   2.062  85.762  1.00  0.00     0.016 C 
HETATM   19  C12 UNL     1      -0.415   3.427  85.398  1.00  0.00     0.026 C 
HETATM   20  C13 UNL     1      -1.626   3.734  84.532  1.00  0.00     0.087 C 
HETATM   21  C14 UNL     1      -2.845   3.523  85.431  1.00  0.00     0.026 C 
ENDBRANCH  12  13
ENDBRANCH  11  12
ENDBRANCH   8  11
BRANCH   7  22
HETATM   22  O1  UNL     1      -0.662   4.525  78.861  1.00  0.00    -0.345 OA
ATOM     23  H1  UNL     1      -1.490   4.946  79.067  1.00  0.00     0.219 HD
ENDBRANCH   7  22
BRANCH   9  24
HETATM   24  O3  UNL     1       1.811   4.105  82.978  1.00  0.00    -0.345 OA
ATOM     25  H3  UNL     1       1.213   3.891  83.684  1.00  0.00     0.219 HD
ENDBRANCH   9  24
TORSDOF 5
ENDMDL
MODEL 3
REMARK VINA RESULT: -6.850888100      3.405      7.380
REMARK  5 active torsions:
REMARK  status: ('A' for Active; 'I' for Inactive)
REMARK    1  A    between atoms: C6_7  and  O1_8 
REMARK    2  A    between atoms: N2_10  and  C7_11 
REMARK    3  A    between atoms: C7_11  and  C8_12 
REMARK    4  A    between atoms: C8_12  and  N3_13 
REMARK    5  A    between atoms: C16_22  and  O3_23 
ROOT
HETATM    1  C1  UNL     1      -4.535   1.502  86.739  1.00  0.00     0.154 C 
HETATM    2  N1  UNL     1      -3.373   2.316  86.779  1.00  0.00    -0.373 N 
HETATM    3  C2  UNL     1      -2.130   1.688  86.782  1.00  0.00     0.067 C 
HETATM    4  C3  UNL     1      -1.064   2.238  85.924  1.00  0.00     0.088 C 
HETATM    5  C4  UNL     1      -1.480   3.295  84.994  1.00  0.00     0.013 A 
HETATM    6  C5  UNL     1      -2.648   3.985  85.171  1.00  0.00     0.041 A 
HETATM    7  C6  UNL     1      -2.759   4.888  84.160  1.00  0.00     0.156 A 
HETATM    8  N2  UNL     1      -1.678   4.774  83.352  1.00  0.00    -0.306 N 
HETATM    9  C16 UNL     1      -0.898   3.801  83.863  1.00  0.00     0.152 A 
HETATM   10  C17 UNL     1      -3.495   3.639  86.337  1.00  0.00     0.106 C 
ENDROOT
BRANCH   8  11
HETATM   11  C7  UNL     1      -1.420   5.561  82.161  1.00  0.00     0.153 C 
BRANCH  11  12
HETATM   12  C8  UNL     1      -1.210   7.021  82.463  1.00  0.00     0.146 C 
BRANCH  12  13
HETATM   13  N3  UNL     1      -1.959   7.788  81.517  1.00  0.00    -0.345 N 
HETATM   14  C9  UNL     1      -1.505   9.046  80.989  1.00  0.00     0.224 C 
HETATM   15  O2  UNL     1      -0.390   9.528  81.213  1.00  0.00    -0.273 OA
HETATM   16  C10 UNL     1      -2.544   9.719  80.128  1.00  0.00     0.078 C 
HETATM   17  C11 UNL     1      -2.884   8.766  78.983  1.00  0.00     0.016 C 
HETATM   18  C15 UNL     1      -3.786   9.824  80.987  1.00  0.00     0.016 C 
HETATM   19  C12 UNL     1      -3.098   7.356  79.479  1.00  0.00     0.026 C 
HETATM   20  C13 UNL     1      -3.264   7.373  80.990  1.00  0.00     0.087 C 
HETATM   21  C14 UNL     1      -4.318   8.442  81.281  1.00  0.00     0.026 C 
ENDBRANCH  12  13
ENDBRANCH  11  12
ENDBRANCH   8  11
BRANCH   7  22
HETATM   22  O1  UNL     1      -3.836   5.765  84.028  1.00  0.00    -0.345 OA
ATOM     23  H1  UNL     1      -3.885   6.436  83.357  1.00  0.00     0.219 HD
ENDBRANCH   7  22
BRANCH   9  24
HETATM   24  O3  UNL     1       0.311   3.429  83.258  1.00  0.00    -0.345 OA
ATOM     25  H3  UNL     1       0.615   3.612  82.377  1.00  0.00     0.219 HD
ENDBRANCH   9  24
TORSDOF 5
ENDMDL
MODEL 4
REMARK VINA RESULT: -6.666013774      1.915      2.957
REMARK  5 active torsions:
REMARK  status: ('A' for Active; 'I' for Inactive)
REMARK    1  A    between atoms: C6_7  and  O1_8 
REMARK    2  A    between atoms: N2_10  and  C7_11 
REMARK    3  A    between atoms: C7_11  and  C8_12 
REMARK    4  A    between atoms: C8_12  and  N3_13 
REMARK    5  A    between atoms: C16_22  and  O3_23 
ROOT
HETATM    1  C1  UNL     1       2.304   7.655  81.996  1.00  0.00     0.154 C 
HETATM    2  N1  UNL     1       2.472   6.565  81.103  1.00  0.00    -0.373 N 
HETATM    3  C2  UNL     1       3.515   5.674  81.343  1.00  0.00     0.067 C 
HETATM    4  C3  UNL     1       3.249   4.229  81.207  1.00  0.00     0.088 C 
HETATM    5  C4  UNL     1       1.842   3.858  81.016  1.00  0.00     0.013 A 
HETATM    6  C5  UNL     1       0.910   4.772  80.606  1.00  0.00     0.041 A 
HETATM    7  C6  UNL     1      -0.290   4.138  80.522  1.00  0.00     0.156 A 
HETATM    8  N2  UNL     1      -0.124   2.840  80.872  1.00  0.00    -0.306 N 
HETATM    9  C16 UNL     1       1.178   2.671  81.173  1.00  0.00     0.152 A 
HETATM   10  C17 UNL     1       1.357   6.163  80.356  1.00  0.00     0.106 C 
ENDROOT
BRANCH   8  11
HETATM   11  C7  UNL     1      -1.165   1.830  80.911  1.00  0.00     0.153 C 
BRANCH  11  12
HETATM   12  C8  UNL     1      -2.371   2.269  81.697  1.00  0.00     0.146 C 
BRANCH  12  13
HETATM   13  N3  UNL     1      -1.975   2.459  83.059  1.00  0.00    -0.345 N 
HETATM   14  C9  UNL     1      -1.547   1.383  83.910  1.00  0.00     0.224 C 
HETATM   15  O2  UNL     1      -1.375   0.222  83.525  1.00  0.00    -0.273 OA
HETATM   16  C10 UNL     1      -1.329   1.827  85.334  1.00  0.00     0.078 C 
HETATM   17  C11 UNL     1      -0.273   2.931  85.319  1.00  0.00     0.016 C 
HETATM   18  C15 UNL     1      -2.627   2.475  85.768  1.00  0.00     0.016 C 
HETATM   19  C12 UNL     1      -0.546   3.946  84.235  1.00  0.00     0.026 C 
HETATM   20  C13 UNL     1      -1.967   3.767  83.724  1.00  0.00     0.087 C 
HETATM   21  C14 UNL     1      -2.856   3.735  84.967  1.00  0.00     0.026 C 
ENDBRANCH  12  13
ENDBRANCH  11  12
ENDBRANCH   8  11
BRANCH   7  22
HETATM   22  O1  UNL     1      -1.468   4.774  80.131  1.00  0.00    -0.345 OA
ATOM     23  H1  UNL     1      -1.740   4.862  79.225  1.00  0.00     0.219 HD
ENDBRANCH   7  22
BRANCH   9  24
HETATM   24  O3  UNL     1       1.688   1.430  81.578  1.00  0.00    -0.345 OA
ATOM     25  H3  UNL     1       1.497   0.567  81.230  1.00  0.00     0.219 HD
ENDBRANCH   9  24
TORSDOF 5
ENDMDL
MODEL 5
REMARK VINA RESULT: -6.646935393      3.319      5.191
REMARK  5 active torsions:
REMARK  status: ('A' for Active; 'I' for Inactive)
REMARK    1  A    between atoms: C6_7  and  O1_8 
REMARK    2  A    between atoms: N2_10  and  C7_11 
REMARK    3  A    between atoms: C7_11  and  C8_12 
REMARK    4  A    between atoms: C8_12  and  N3_13 
REMARK    5  A    between atoms: C16_22  and  O3_23 
ROOT
HETATM    1  C1  UNL     1       1.883   9.882  84.670  1.00  0.00     0.154 C 
HETATM    2  N1  UNL     1       1.484   9.017  83.618  1.00  0.00    -0.373 N 
HETATM    3  C2  UNL     1       2.469   8.509  82.775  1.00  0.00     0.067 C 
HETATM    4  C3  UNL     1       2.406   7.082  82.402  1.00  0.00     0.088 C 
HETATM    5  C4  UNL     1       1.405   6.283  83.118  1.00  0.00     0.013 A 
HETATM    6  C5  UNL     1       0.361   6.869  83.781  1.00  0.00     0.041 A 
HETATM    7  C6  UNL     1      -0.388   5.882  84.341  1.00  0.00     0.156 A 
HETATM    8  N2  UNL     1       0.171   4.685  84.038  1.00  0.00    -0.306 N 
HETATM    9  C16 UNL     1       1.265   4.932  83.292  1.00  0.00     0.152 A 
HETATM   10  C17 UNL     1       0.262   8.347  83.760  1.00  0.00     0.106 C 
ENDROOT
BRANCH   8  11
HETATM   11  C7  UNL     1      -0.328   3.386  84.448  1.00  0.00     0.153 C 
BRANCH  11  12
HETATM   12  C8  UNL     1      -1.621   3.020  83.771  1.00  0.00     0.146 C 
BRANCH  12  13
HETATM   13  N3  UNL     1      -1.349   2.012  82.794  1.00  0.00    -0.345 N 
HETATM   14  C9  UNL     1      -1.341   0.606  83.096  1.00  0.00     0.224 C 
HETATM   15  O2  UNL     1      -1.672   0.131  84.187  1.00  0.00    -0.273 OA
HETATM   16  C10 UNL     1      -0.882  -0.231  81.930  1.00  0.00     0.078 C 
HETATM   17  C11 UNL     1      -1.827   0.045  80.761  1.00  0.00     0.016 C 
HETATM   18  C15 UNL     1       0.471   0.320  81.533  1.00  0.00     0.016 C 
HETATM   19  C12 UNL     1      -2.079   1.524  80.588  1.00  0.00     0.026 C 
HETATM   20  C13 UNL     1      -1.050   2.307  81.389  1.00  0.00     0.087 C 
HETATM   21  C14 UNL     1       0.310   1.725  81.002  1.00  0.00     0.026 C 
ENDBRANCH  12  13
ENDBRANCH  11  12
ENDBRANCH   8  11
BRANCH   7  22
HETATM   22  O1  UNL     1      -1.536   6.122  85.094  1.00  0.00    -0.345 OA
ATOM     23  H1  UNL     1      -1.572   6.025  86.039  1.00  0.00     0.219 HD
ENDBRANCH   7  22
BRANCH   9  24
HETATM   24  O3  UNL     1       2.079   3.898  82.809  1.00  0.00    -0.345 OA
ATOM     25  H3  UNL     1       2.121   2.993  83.094  1.00  0.00     0.219 HD
ENDBRANCH   9  24
TORSDOF 5
ENDMDL
