MODEL 1
REMARK VINA RESULT: -7.444909491      0.000      0.000
REMARK  6 active torsions:
REMARK  status: ('A' for Active; 'I' for Inactive)
REMARK    1  A    between atoms: N2_7  and  C6_8 
REMARK    2  A    between atoms: C8_10  and  O1_11 
REMARK    3  A    between atoms: C9_13  and  O2_14 
REMARK    4  A    between atoms: C10_16  and  C11_17 
REMARK    5  A    between atoms: C11_17  and  C12_18 
REMARK    6  A    between atoms: C12_18  and  C13_19 
ROOT
HETATM    1  N1  UNL     1      -2.331   6.177  83.845  1.00  0.00    -0.195 NA
HETATM    2  C1  UNL     1      -2.042   6.107  82.743  1.00  0.00     0.084 C 
HETATM    3  C2  UNL     1      -1.711   6.023  81.320  1.00  0.00     0.191 C 
HETATM    4  C3  UNL     1      -0.691   7.050  80.887  1.00  0.00     0.045 C 
HETATM    5  C4  UNL     1      -0.299   6.442  79.525  1.00  0.00     0.047 C 
HETATM    6  C5  UNL     1      -0.585   4.949  79.665  1.00  0.00     0.060 C 
HETATM    7  N2  UNL     1      -1.190   4.811  80.902  1.00  0.00    -0.371 N 
ENDROOT
BRANCH   7   8
HETATM    8  C6  UNL     1      -0.963   3.731  81.753  1.00  0.00     0.088 C 
HETATM    9  C7  UNL     1       0.476   3.330  81.733  1.00  0.00     0.059 C 
HETATM   10  C8  UNL     1       0.685   2.103  80.873  1.00  0.00     0.150 C 
HETATM   11  C9  UNL     1      -0.141   0.932  81.249  1.00  0.00     0.161 C 
HETATM   12  C10 UNL     1      -1.337   1.276  82.077  1.00  0.00     0.085 C 
HETATM   13  C18 UNL     1      -1.956   2.598  81.653  1.00  0.00     0.044 C 
BRANCH  10  14
HETATM   14  O1  UNL     1       2.057   1.853  80.843  1.00  0.00    -0.393 OA
ATOM     15  H1  UNL     1       2.296   1.719  79.934  1.00  0.00     0.210 HD
ENDBRANCH  10  14
BRANCH  11  16
HETATM   16  O2  UNL     1      -0.444   0.184  80.108  1.00  0.00    -0.392 OA
ATOM     17  H2  UNL     1      -1.051  -0.511  80.333  1.00  0.00     0.210 HD
ENDBRANCH  11  16
BRANCH  12  18
HETATM   18  C11 UNL     1      -1.336   0.933  83.427  1.00  0.00    -0.173 C 
BRANCH  18  19
HETATM   19  C12 UNL     1      -1.336   0.628  84.673  1.00  0.00     0.112 C 
BRANCH  19  20
HETATM   20  C13 UNL     1      -1.527   1.500  85.855  1.00  0.00     0.131 C 
HETATM   21  C14 UNL     1      -2.353   2.713  85.576  1.00  0.00     0.033 C 
HETATM   22  C15 UNL     1      -3.452   3.007  86.526  1.00  0.00     0.004 C 
HETATM   23  C16 UNL     1      -3.585   2.131  87.711  1.00  0.00     0.026 C 
HETATM   24  C17 UNL     1      -3.211   0.727  87.284  1.00  0.00     0.168 C 
HETATM   25  O3  UNL     1      -1.884   0.745  86.952  1.00  0.00    -0.385 OA
ENDBRANCH  19  20
ENDBRANCH  18  19
ENDBRANCH  12  18
ENDBRANCH   7   8
TORSDOF 6
ENDMDL
MODEL 2
REMARK VINA RESULT: -7.174996512      1.932      2.373
REMARK  6 active torsions:
REMARK  status: ('A' for Active; 'I' for Inactive)
REMARK    1  A    between atoms: N2_7  and  C6_8 
REMARK    2  A    between atoms: C8_10  and  O1_11 
REMARK    3  A    between atoms: C9_13  and  O2_14 
REMARK    4  A    between atoms: C10_16  and  C11_17 
REMARK    5  A    between atoms: C11_17  and  C12_18 
REMARK    6  A    between atoms: C12_18  and  C13_19 
ROOT
HETATM    1  N1  UNL     1       1.628   5.612  83.626  1.00  0.00    -0.195 NA
HETATM    2  C1  UNL     1       1.738   5.349  82.520  1.00  0.00     0.084 C 
HETATM    3  C2  UNL     1       1.856   5.043  81.094  1.00  0.00     0.191 C 
HETATM    4  C3  UNL     1       3.287   5.007  80.612  1.00  0.00     0.045 C 
HETATM    5  C4  UNL     1       3.069   4.298  79.261  1.00  0.00     0.047 C 
HETATM    6  C5  UNL     1       1.795   3.478  79.449  1.00  0.00     0.060 C 
HETATM    7  N2  UNL     1       1.321   3.829  80.701  1.00  0.00    -0.371 N 
ENDROOT
BRANCH   7   8
HETATM    8  C6  UNL     1       0.725   2.925  81.578  1.00  0.00     0.088 C 
HETATM    9  C7  UNL     1       0.881   1.522  81.087  1.00  0.00     0.059 C 
HETATM   10  C8  UNL     1      -0.394   1.029  80.440  1.00  0.00     0.150 C 
HETATM   11  C9  UNL     1      -1.599   1.112  81.299  1.00  0.00     0.161 C 
HETATM   12  C10 UNL     1      -1.463   2.064  82.443  1.00  0.00     0.085 C 
HETATM   13  C18 UNL     1      -0.658   3.296  82.059  1.00  0.00     0.044 C 
BRANCH  10  14
HETATM   14  O1  UNL     1      -0.132  -0.247  79.940  1.00  0.00    -0.393 OA
ATOM     15  H1  UNL     1      -0.799  -0.434  79.290  1.00  0.00     0.210 HD
ENDBRANCH  10  14
BRANCH  11  16
HETATM   16  O2  UNL     1      -2.726   1.345  80.505  1.00  0.00    -0.392 OA
ATOM     17  H2  UNL     1      -3.511   1.258  81.032  1.00  0.00     0.210 HD
ENDBRANCH  11  16
BRANCH  12  18
HETATM   18  C11 UNL     1      -1.336   1.548  83.729  1.00  0.00    -0.173 C 
BRANCH  18  19
HETATM   19  C12 UNL     1      -1.225   1.082  84.919  1.00  0.00     0.112 C 
BRANCH  19  20
HETATM   20  C13 UNL     1      -1.547   1.723  86.215  1.00  0.00     0.131 C 
HETATM   21  C14 UNL     1      -2.320   2.994  86.078  1.00  0.00     0.033 C 
HETATM   22  C15 UNL     1      -3.521   3.142  86.933  1.00  0.00     0.004 C 
HETATM   23  C16 UNL     1      -3.805   2.065  87.908  1.00  0.00     0.026 C 
HETATM   24  C17 UNL     1      -3.398   0.754  87.268  1.00  0.00     0.168 C 
HETATM   25  O3  UNL     1      -2.041   0.789  87.101  1.00  0.00    -0.385 OA
ENDBRANCH  19  20
ENDBRANCH  18  19
ENDBRANCH  12  18
ENDBRANCH   7   8
TORSDOF 6
ENDMDL
MODEL 3
REMARK VINA RESULT: -6.999626018      2.674      5.797
REMARK  6 active torsions:
REMARK  status: ('A' for Active; 'I' for Inactive)
REMARK    1  A    between atoms: N2_7  and  C6_8 
REMARK    2  A    between atoms: C8_10  and  O1_11 
REMARK    3  A    between atoms: C9_13  and  O2_14 
REMARK    4  A    between atoms: C10_16  and  C11_17 
REMARK    5  A    between atoms: C11_17  and  C12_18 
REMARK    6  A    between atoms: C12_18  and  C13_19 
ROOT
HETATM    1  N1  UNL     1      -0.992   3.723  80.040  1.00  0.00    -0.195 NA
HETATM    2  C1  UNL     1      -1.148   2.673  80.461  1.00  0.00     0.084 C 
HETATM    3  C2  UNL     1      -1.382   1.326  80.983  1.00  0.00     0.191 C 
HETATM    4  C3  UNL     1      -0.281   0.354  80.630  1.00  0.00     0.045 C 
HETATM    5  C4  UNL     1      -0.629  -0.775  81.621  1.00  0.00     0.047 C 
HETATM    6  C5  UNL     1      -1.360  -0.080  82.767  1.00  0.00     0.060 C 
HETATM    7  N2  UNL     1      -1.506   1.234  82.358  1.00  0.00    -0.371 N 
ENDROOT
BRANCH   7   8
HETATM    8  C6  UNL     1      -1.398   2.324  83.219  1.00  0.00     0.088 C 
HETATM    9  C7  UNL     1      -0.800   1.915  84.526  1.00  0.00     0.059 C 
HETATM   10  C8  UNL     1      -1.866   1.767  85.588  1.00  0.00     0.150 C 
HETATM   11  C9  UNL     1      -2.708   2.969  85.795  1.00  0.00     0.161 C 
HETATM   12  C10 UNL     1      -2.684   3.929  84.649  1.00  0.00     0.085 C 
HETATM   13  C18 UNL     1      -2.618   3.209  83.311  1.00  0.00     0.044 C 
BRANCH  10  14
HETATM   14  O1  UNL     1      -1.233   1.304  86.742  1.00  0.00    -0.393 OA
ATOM     15  H1  UNL     1      -0.358   1.674  86.748  1.00  0.00     0.210 HD
ENDBRANCH  10  14
BRANCH  11  16
HETATM   16  O2  UNL     1      -3.995   2.581  86.176  1.00  0.00    -0.392 OA
ATOM     17  H2  UNL     1      -4.241   1.791  85.711  1.00  0.00     0.210 HD
ENDBRANCH  11  16
BRANCH  12  18
HETATM   18  C11 UNL     1      -2.005   5.135  84.802  1.00  0.00    -0.173 C 
BRANCH  18  19
HETATM   19  C12 UNL     1      -1.374   6.244  84.932  1.00  0.00     0.112 C 
BRANCH  19  20
HETATM   20  C13 UNL     1      -0.175   6.734  84.215  1.00  0.00     0.131 C 
HETATM   21  C14 UNL     1       0.882   5.694  84.037  1.00  0.00     0.033 C 
HETATM   22  C15 UNL     1       1.455   5.548  82.678  1.00  0.00     0.004 C 
HETATM   23  C16 UNL     1       0.999   6.496  81.637  1.00  0.00     0.026 C 
HETATM   24  C17 UNL     1      -0.465   6.783  81.894  1.00  0.00     0.168 C 
HETATM   25  O3  UNL     1      -0.546   7.441  83.091  1.00  0.00    -0.385 OA
ENDBRANCH  19  20
ENDBRANCH  18  19
ENDBRANCH  12  18
ENDBRANCH   7   8
TORSDOF 6
ENDMDL
MODEL 4
REMARK VINA RESULT: -6.896112117      2.581      4.198
REMARK  6 active torsions:
REMARK  status: ('A' for Active; 'I' for Inactive)
REMARK    1  A    between atoms: N2_7  and  C6_8 
REMARK    2  A    between atoms: C8_10  and  O1_11 
REMARK    3  A    between atoms: C9_13  and  O2_14 
REMARK    4  A    between atoms: C10_16  and  C11_17 
REMARK    5  A    between atoms: C11_17  and  C12_18 
REMARK    6  A    between atoms: C12_18  and  C13_19 
ROOT
HETATM    1  N1  UNL     1      -0.523   0.505  81.588  1.00  0.00    -0.195 NA
HETATM    2  C1  UNL     1       0.284   1.301  81.449  1.00  0.00     0.084 C 
HETATM    3  C2  UNL     1       1.342   2.299  81.294  1.00  0.00     0.191 C 
HETATM    4  C3  UNL     1       1.682   2.583  79.850  1.00  0.00     0.045 C 
HETATM    5  C4  UNL     1       2.482   3.888  80.042  1.00  0.00     0.047 C 
HETATM    6  C5  UNL     1       1.947   4.488  81.339  1.00  0.00     0.060 C 
HETATM    7  N2  UNL     1       1.074   3.541  81.843  1.00  0.00    -0.371 N 
ENDROOT
BRANCH   7   8
HETATM    8  C6  UNL     1      -0.120   3.860  82.487  1.00  0.00     0.088 C 
HETATM    9  C7  UNL     1      -1.209   4.117  81.495  1.00  0.00     0.059 C 
HETATM   10  C8  UNL     1      -1.442   5.601  81.319  1.00  0.00     0.150 C 
HETATM   11  C9  UNL     1      -1.741   6.337  82.570  1.00  0.00     0.161 C 
HETATM   12  C10 UNL     1      -1.317   5.618  83.811  1.00  0.00     0.085 C 
HETATM   13  C18 UNL     1      -0.010   4.866  83.608  1.00  0.00     0.044 C 
BRANCH  10  14
HETATM   14  O1  UNL     1      -2.406   5.749  80.322  1.00  0.00    -0.393 OA
ATOM     15  H1  UNL     1      -2.000   6.226  79.609  1.00  0.00     0.210 HD
ENDBRANCH  10  14
BRANCH  11  16
HETATM   16  O2  UNL     1      -1.246   7.640  82.479  1.00  0.00    -0.392 OA
ATOM     17  H2  UNL     1      -1.883   8.194  82.045  1.00  0.00     0.210 HD
ENDBRANCH  11  16
BRANCH  12  18
HETATM   18  C11 UNL     1      -2.297   5.063  84.629  1.00  0.00    -0.173 C 
BRANCH  18  19
HETATM   19  C12 UNL     1      -3.198   4.541  85.378  1.00  0.00     0.112 C 
BRANCH  19  20
HETATM   20  C13 UNL     1      -3.521   3.114  85.606  1.00  0.00     0.131 C 
HETATM   21  C14 UNL     1      -2.392   2.187  85.293  1.00  0.00     0.033 C 
HETATM   22  C15 UNL     1      -2.066   1.162  86.312  1.00  0.00     0.004 C 
HETATM   23  C16 UNL     1      -2.934   1.085  87.508  1.00  0.00     0.026 C 
HETATM   24  C17 UNL     1      -3.354   2.497  87.856  1.00  0.00     0.168 C 
HETATM   25  O3  UNL     1      -4.135   2.953  86.830  1.00  0.00    -0.385 OA
ENDBRANCH  19  20
ENDBRANCH  18  19
ENDBRANCH  12  18
ENDBRANCH   7   8
TORSDOF 6
ENDMDL
MODEL 5
REMARK VINA RESULT: -6.864001538      1.497      1.635
REMARK  6 active torsions:
REMARK  status: ('A' for Active; 'I' for Inactive)
REMARK    1  A    between atoms: N2_7  and  C6_8 
REMARK    2  A    between atoms: C8_10  and  O1_11 
REMARK    3  A    between atoms: C9_13  and  O2_14 
REMARK    4  A    between atoms: C10_16  and  C11_17 
REMARK    5  A    between atoms: C11_17  and  C12_18 
REMARK    6  A    between atoms: C12_18  and  C13_19 
ROOT
HETATM    1  N1  UNL     1       0.949   6.799  84.215  1.00  0.00    -0.195 NA
HETATM    2  C1  UNL     1       0.880   6.768  83.076  1.00  0.00     0.084 C 
HETATM    3  C2  UNL     1       0.761   6.753  81.618  1.00  0.00     0.191 C 
HETATM    4  C3  UNL     1       2.051   7.104  80.915  1.00  0.00     0.045 C 
HETATM    5  C4  UNL     1       1.693   6.619  79.496  1.00  0.00     0.047 C 
HETATM    6  C5  UNL     1       0.642   5.532  79.707  1.00  0.00     0.060 C 
HETATM    7  N2  UNL     1       0.375   5.545  81.064  1.00  0.00    -0.371 N 
ENDROOT
BRANCH   7   8
HETATM    8  C6  UNL     1       0.130   4.395  81.811  1.00  0.00     0.088 C 
HETATM    9  C7  UNL     1       0.993   3.265  81.350  1.00  0.00     0.059 C 
HETATM   10  C8  UNL     1       0.212   2.309  80.477  1.00  0.00     0.150 C 
HETATM   11  C9  UNL     1      -1.016   1.760  81.099  1.00  0.00     0.161 C 
HETATM   12  C10 UNL     1      -1.520   2.563  82.254  1.00  0.00     0.085 C 
HETATM   13  C18 UNL     1      -1.325   4.056  82.031  1.00  0.00     0.044 C 
BRANCH  10  14
HETATM   14  O1  UNL     1       1.109   1.340  80.026  1.00  0.00    -0.393 OA
ATOM     15  H1  UNL     1       0.701   0.903  79.289  1.00  0.00     0.210 HD
ENDBRANCH  10  14
BRANCH  11  16
HETATM   16  O2  UNL     1      -1.979   1.527  80.113  1.00  0.00    -0.392 OA
ATOM     17  H2  UNL     1      -2.255   2.354  79.736  1.00  0.00     0.210 HD
ENDBRANCH  11  16
BRANCH  12  18
HETATM   18  C11 UNL     1      -1.379   2.048  83.539  1.00  0.00    -0.173 C 
BRANCH  18  19
HETATM   19  C12 UNL     1      -1.244   1.562  84.719  1.00  0.00     0.112 C 
BRANCH  19  20
HETATM   20  C13 UNL     1      -1.599   2.157  86.028  1.00  0.00     0.131 C 
HETATM   21  C14 UNL     1      -2.676   3.189  85.943  1.00  0.00     0.033 C 
HETATM   22  C15 UNL     1      -3.794   3.070  86.908  1.00  0.00     0.004 C 
HETATM   23  C16 UNL     1      -3.710   1.998  87.925  1.00  0.00     0.026 C 
HETATM   24  C17 UNL     1      -3.045   0.804  87.273  1.00  0.00     0.168 C 
HETATM   25  O3  UNL     1      -1.761   1.168  86.974  1.00  0.00    -0.385 OA
ENDBRANCH  19  20
ENDBRANCH  18  19
ENDBRANCH  12  18
ENDBRANCH   7   8
TORSDOF 6
ENDMDL
