MODEL 1
REMARK VINA RESULT: -6.981257431      0.000      0.000
REMARK  5 active torsions:
REMARK  status: ('A' for Active; 'I' for Inactive)
REMARK    1  A    between atoms: C2_2  and  C3_3 
REMARK    2  A    between atoms: C3_3  and  C4_4 
REMARK    3  A    between atoms: C7_8  and  N2_9 
REMARK    4  A    between atoms: C11_18  and  C12_19 
REMARK    5  A    between atoms: C12_19  and  O1_21 
ROOT
HETATM    1  C4  UNL     1      -0.629   5.786  82.847  1.00  0.00     0.065 C 
HETATM    2  C5  UNL     1       0.351   6.872  82.483  1.00  0.00     0.159 C 
HETATM    3  N1  UNL     1       1.574   6.303  82.951  1.00  0.00    -0.369 N 
HETATM    4  C6  UNL     1       2.599   6.082  82.061  1.00  0.00     0.095 C 
HETATM    5  C7  UNL     1       2.573   4.921  81.153  1.00  0.00     0.223 C 
HETATM    6  C8  UNL     1       1.325   4.683  80.388  1.00  0.00     0.058 C 
HETATM    7  C9  UNL     1       0.278   3.886  81.123  1.00  0.00     0.127 C 
HETATM    8  N3  UNL     1      -0.300   4.512  82.251  1.00  0.00    -0.362 N 
HETATM    9  C10 UNL     1      -0.784   3.578  83.261  1.00  0.00     0.080 A 
HETATM   10  S1  UNL     1      -1.415   2.025  83.590  1.00  0.00    -0.074 SA
HETATM   11  C11 UNL     1      -1.601   2.142  85.276  1.00  0.00     0.013 A 
HETATM   12  C14 UNL     1      -1.161   3.406  85.549  1.00  0.00     0.028 A 
HETATM   13  C15 UNL     1      -0.735   4.154  84.496  1.00  0.00    -0.012 A 
HETATM   14  C16 UNL     1      -0.165   5.524  84.263  1.00  0.00     0.090 C 
HETATM   15  C17 UNL     1       1.339   5.431  84.025  1.00  0.00     0.075 C 
ENDROOT
BRANCH   5  16
HETATM   16  N2  UNL     1       2.947   3.657  81.791  1.00  0.00    -0.070 N 
ATOM     17  H23 UNL     1       3.648   3.815  82.515  1.00  0.00     0.275 HD
ATOM     18  H22 UNL     1       2.181   3.306  82.368  1.00  0.00     0.275 HD
ATOM     19  H21 UNL     1       3.261   2.939  81.139  1.00  0.00     0.275 HD
ENDBRANCH   5  16
BRANCH   1  20
HETATM   20  C3  UNL     1      -2.049   6.179  82.737  1.00  0.00     0.060 C 
BRANCH  20  21
HETATM   21  C2  UNL     1      -2.218   7.223  81.715  1.00  0.00    -0.034 C 
HETATM   22  C1  UNL     1      -3.413   7.726  81.496  1.00  0.00     0.007 C 
ENDBRANCH  20  21
ENDBRANCH   1  20
BRANCH  11  23
HETATM   23  C12 UNL     1      -2.122   1.122  86.264  1.00  0.00     0.154 C 
HETATM   24  C13 UNL     1      -3.537   1.450  86.643  1.00  0.00     0.045 C 
BRANCH  23  25
HETATM   25  O1  UNL     1      -2.043  -0.137  85.702  1.00  0.00    -0.391 OA
ATOM     26  H1  UNL     1      -2.569  -0.742  86.212  1.00  0.00     0.210 HD
ENDBRANCH  23  25
ENDBRANCH  11  23
TORSDOF 5
ENDMDL
MODEL 2
REMARK VINA RESULT: -6.696607867      1.710      3.289
REMARK  5 active torsions:
REMARK  status: ('A' for Active; 'I' for Inactive)
REMARK    1  A    between atoms: C2_2  and  C3_3 
REMARK    2  A    between atoms: C3_3  and  C4_4 
REMARK    3  A    between atoms: C7_8  and  N2_9 
REMARK    4  A    between atoms: C11_18  and  C12_19 
REMARK    5  A    between atoms: C12_19  and  O1_21 
ROOT
HETATM    1  C4  UNL     1      -0.721   4.096  82.156  1.00  0.00     0.065 C 
HETATM    2  C5  UNL     1      -0.708   5.282  81.226  1.00  0.00     0.159 C 
HETATM    3  N1  UNL     1      -1.199   6.308  82.089  1.00  0.00    -0.369 N 
HETATM    4  C6  UNL     1      -0.416   7.413  82.336  1.00  0.00     0.095 C 
HETATM    5  C7  UNL     1       0.705   7.344  83.291  1.00  0.00     0.223 C 
HETATM    6  C8  UNL     1       1.650   6.211  83.151  1.00  0.00     0.058 C 
HETATM    7  C9  UNL     1       1.227   4.946  83.855  1.00  0.00     0.127 C 
HETATM    8  N3  UNL     1       0.076   4.306  83.342  1.00  0.00    -0.362 N 
HETATM    9  C10 UNL     1      -0.656   3.525  84.333  1.00  0.00     0.080 A 
HETATM   10  S1  UNL     1      -0.582   2.609  85.774  1.00  0.00    -0.074 SA
HETATM   11  C11 UNL     1      -2.221   2.181  85.925  1.00  0.00     0.013 A 
HETATM   12  C14 UNL     1      -2.797   2.770  84.835  1.00  0.00     0.028 A 
HETATM   13  C15 UNL     1      -1.978   3.471  84.006  1.00  0.00    -0.012 A 
HETATM   14  C16 UNL     1      -2.100   4.282  82.748  1.00  0.00     0.090 C 
HETATM   15  C17 UNL     1      -2.036   5.771  83.078  1.00  0.00     0.075 C 
ENDROOT
BRANCH   5  16
HETATM   16  N2  UNL     1       0.295   7.404  84.697  1.00  0.00    -0.070 N 
ATOM     17  H23 UNL     1       1.091   7.233  85.310  1.00  0.00     0.275 HD
ATOM     18  H22 UNL     1       0.075   8.364  84.965  1.00  0.00     0.275 HD
ATOM     19  H21 UNL     1      -0.478   6.782  84.930  1.00  0.00     0.275 HD
ENDBRANCH   5  16
BRANCH   1  20
HETATM   20  C3  UNL     1      -0.518   2.793  81.491  1.00  0.00     0.060 C 
BRANCH  20  21
HETATM   21  C2  UNL     1       0.853   2.688  80.968  1.00  0.00    -0.034 C 
HETATM   22  C1  UNL     1       1.484   1.536  81.034  1.00  0.00     0.007 C 
ENDBRANCH  20  21
ENDBRANCH   1  20
BRANCH  11  23
HETATM   23  C12 UNL     1      -2.908   1.355  86.989  1.00  0.00     0.154 C 
HETATM   24  C13 UNL     1      -4.383   1.638  86.985  1.00  0.00     0.045 C 
BRANCH  23  25
HETATM   25  O1  UNL     1      -2.663   0.016  86.755  1.00  0.00    -0.391 OA
ATOM     26  H1  UNL     1      -2.984  -0.495  87.490  1.00  0.00     0.210 HD
ENDBRANCH  23  25
ENDBRANCH  11  23
TORSDOF 5
ENDMDL
MODEL 3
REMARK VINA RESULT: -6.693735442      1.641      2.512
REMARK  5 active torsions:
REMARK  status: ('A' for Active; 'I' for Inactive)
REMARK    1  A    between atoms: C2_2  and  C3_3 
REMARK    2  A    between atoms: C3_3  and  C4_4 
REMARK    3  A    between atoms: C7_8  and  N2_9 
REMARK    4  A    between atoms: C11_18  and  C12_19 
REMARK    5  A    between atoms: C12_19  and  O1_21 
ROOT
HETATM    1  C4  UNL     1       0.285   6.318  83.601  1.00  0.00     0.065 C 
HETATM    2  C5  UNL     1       1.333   6.836  82.649  1.00  0.00     0.159 C 
HETATM    3  N1  UNL     1       1.561   5.681  81.842  1.00  0.00    -0.369 N 
HETATM    4  C6  UNL     1       1.335   5.751  80.486  1.00  0.00     0.095 C 
HETATM    5  C7  UNL     1      -0.034   5.682  79.945  1.00  0.00     0.223 C 
HETATM    6  C8  UNL     1      -1.055   6.561  80.563  1.00  0.00     0.058 C 
HETATM    7  C9  UNL     1      -1.720   5.991  81.790  1.00  0.00     0.127 C 
HETATM    8  N3  UNL     1      -0.892   5.825  82.924  1.00  0.00    -0.362 N 
HETATM    9  C10 UNL     1      -1.323   4.756  83.818  1.00  0.00     0.080 A 
HETATM   10  S1  UNL     1      -2.630   3.840  84.429  1.00  0.00    -0.074 SA
HETATM   11  C11 UNL     1      -1.790   2.825  85.505  1.00  0.00     0.013 A 
HETATM   12  C14 UNL     1      -0.492   3.228  85.361  1.00  0.00     0.028 A 
HETATM   13  C15 UNL     1      -0.251   4.236  84.480  1.00  0.00    -0.012 A 
HETATM   14  C16 UNL     1       0.934   5.000  83.962  1.00  0.00     0.090 C 
HETATM   15  C17 UNL     1       1.302   4.507  82.565  1.00  0.00     0.075 C 
ENDROOT
BRANCH   5  16
HETATM   16  N2  UNL     1      -0.590   4.327  79.899  1.00  0.00    -0.070 N 
ATOM     17  H23 UNL     1       0.155   3.633  79.967  1.00  0.00     0.275 HD
ATOM     18  H22 UNL     1      -1.099   4.119  80.758  1.00  0.00     0.275 HD
ATOM     19  H21 UNL     1      -1.174   4.146  79.083  1.00  0.00     0.275 HD
ENDBRANCH   5  16
BRANCH   1  20
HETATM   20  C3  UNL     1       0.017   7.198  84.757  1.00  0.00     0.060 C 
BRANCH  20  21
HETATM   21  C2  UNL     1       0.771   8.455  84.633  1.00  0.00    -0.034 C 
HETATM   22  C1  UNL     1       1.253   9.028  85.715  1.00  0.00     0.007 C 
ENDBRANCH  20  21
ENDBRANCH   1  20
BRANCH  11  23
HETATM   23  C12 UNL     1      -2.314   1.735  86.412  1.00  0.00     0.154 C 
HETATM   24  C13 UNL     1      -3.714   2.059  86.847  1.00  0.00     0.045 C 
BRANCH  23  25
HETATM   25  O1  UNL     1      -2.273   0.527  85.743  1.00  0.00    -0.391 OA
ATOM     26  H1  UNL     1      -2.654  -0.148  86.293  1.00  0.00     0.210 HD
ENDBRANCH  23  25
ENDBRANCH  11  23
TORSDOF 5
ENDMDL
MODEL 4
REMARK VINA RESULT: -6.635643157      2.475      3.847
REMARK  5 active torsions:
REMARK  status: ('A' for Active; 'I' for Inactive)
REMARK    1  A    between atoms: C2_2  and  C3_3 
REMARK    2  A    between atoms: C3_3  and  C4_4 
REMARK    3  A    between atoms: C7_8  and  N2_9 
REMARK    4  A    between atoms: C11_18  and  C12_19 
REMARK    5  A    between atoms: C12_19  and  O1_21 
ROOT
HETATM    1  C4  UNL     1      -1.877   4.915  83.994  1.00  0.00     0.065 C 
HETATM    2  C5  UNL     1      -1.500   6.092  84.857  1.00  0.00     0.159 C 
HETATM    3  N1  UNL     1      -0.132   6.270  84.487  1.00  0.00    -0.369 N 
HETATM    4  C6  UNL     1       0.268   7.468  83.941  1.00  0.00     0.095 C 
HETATM    5  C7  UNL     1      -0.006   7.781  82.526  1.00  0.00     0.223 C 
HETATM    6  C8  UNL     1      -1.388   7.563  82.037  1.00  0.00     0.058 C 
HETATM    7  C9  UNL     1      -1.681   6.156  81.581  1.00  0.00     0.127 C 
HETATM    8  N3  UNL     1      -1.670   5.163  82.586  1.00  0.00    -0.362 N 
HETATM    9  C10 UNL     1      -1.326   3.832  82.098  1.00  0.00     0.080 A 
HETATM   10  S1  UNL     1      -1.343   2.740  80.785  1.00  0.00    -0.074 SA
HETATM   11  C11 UNL     1      -0.606   1.395  81.520  1.00  0.00     0.013 A 
HETATM   12  C14 UNL     1      -0.360   1.834  82.790  1.00  0.00     0.028 A 
HETATM   13  C15 UNL     1      -0.736   3.106  83.089  1.00  0.00    -0.012 A 
HETATM   14  C16 UNL     1      -0.680   4.033  84.270  1.00  0.00     0.090 C 
HETATM   15  C17 UNL     1       0.437   5.055  84.078  1.00  0.00     0.075 C 
ENDROOT
BRANCH   5  16
HETATM   16  N2  UNL     1       0.905   7.125  81.584  1.00  0.00    -0.070 N 
ATOM     17  H23 UNL     1       1.845   7.509  81.671  1.00  0.00     0.275 HD
ATOM     18  H22 UNL     1       1.084   6.163  81.871  1.00  0.00     0.275 HD
ATOM     19  H21 UNL     1       0.592   7.158  80.615  1.00  0.00     0.275 HD
ENDBRANCH   5  16
BRANCH   1  20
HETATM   20  C3  UNL     1      -3.175   4.297  84.334  1.00  0.00     0.060 C 
BRANCH  20  21
HETATM   21  C2  UNL     1      -3.278   4.077  85.785  1.00  0.00    -0.034 C 
HETATM   22  C1  UNL     1      -3.662   2.902  86.236  1.00  0.00     0.007 C 
ENDBRANCH  20  21
ENDBRANCH   1  20
BRANCH  11  23
HETATM   23  C12 UNL     1      -0.286   0.034  80.944  1.00  0.00     0.154 C 
HETATM   24  C13 UNL     1      -1.074  -1.025  81.660  1.00  0.00     0.045 C 
BRANCH  23  25
HETATM   25  O1  UNL     1      -0.573   0.032  79.593  1.00  0.00    -0.391 OA
ATOM     26  H1  UNL     1      -0.910  -0.821  79.345  1.00  0.00     0.210 HD
ENDBRANCH  23  25
ENDBRANCH  11  23
TORSDOF 5
ENDMDL
MODEL 5
REMARK VINA RESULT: -6.424334142      1.183      1.375
REMARK  5 active torsions:
REMARK  status: ('A' for Active; 'I' for Inactive)
REMARK    1  A    between atoms: C2_2  and  C3_3 
REMARK    2  A    between atoms: C3_3  and  C4_4 
REMARK    3  A    between atoms: C7_8  and  N2_9 
REMARK    4  A    between atoms: C11_18  and  C12_19 
REMARK    5  A    between atoms: C12_19  and  O1_21 
ROOT
HETATM    1  C4  UNL     1      -0.013   6.275  82.264  1.00  0.00     0.065 C 
HETATM    2  C5  UNL     1       1.032   6.984  81.441  1.00  0.00     0.159 C 
HETATM    3  N1  UNL     1       2.043   5.978  81.363  1.00  0.00    -0.369 N 
HETATM    4  C6  UNL     1       2.434   5.509  80.130  1.00  0.00     0.095 C 
HETATM    5  C7  UNL     1       1.607   4.531  79.399  1.00  0.00     0.223 C 
HETATM    6  C8  UNL     1       0.159   4.823  79.273  1.00  0.00     0.058 C 
HETATM    7  C9  UNL     1      -0.680   4.369  80.440  1.00  0.00     0.127 C 
HETATM    8  N3  UNL     1      -0.452   5.036  81.665  1.00  0.00    -0.362 N 
HETATM    9  C10 UNL     1      -0.755   4.229  82.841  1.00  0.00     0.080 A 
HETATM   10  S1  UNL     1      -1.694   2.967  83.510  1.00  0.00    -0.074 SA
HETATM   11  C11 UNL     1      -1.083   2.965  85.097  1.00  0.00     0.013 A 
HETATM   12  C14 UNL     1      -0.149   3.961  85.070  1.00  0.00     0.028 A 
HETATM   13  C15 UNL     1       0.021   4.619  83.892  1.00  0.00    -0.012 A 
HETATM   14  C16 UNL     1       0.884   5.722  83.348  1.00  0.00     0.090 C 
HETATM   15  C17 UNL     1       1.997   5.136  82.483  1.00  0.00     0.075 C 
ENDROOT
BRANCH   5  16
HETATM   16  N2  UNL     1       1.738   3.156  79.888  1.00  0.00    -0.070 N 
ATOM     17  H23 UNL     1       2.427   2.645  79.337  1.00  0.00     0.275 HD
ATOM     18  H22 UNL     1       2.200   3.142  80.798  1.00  0.00     0.275 HD
ATOM     19  H21 UNL     1       0.857   2.644  79.927  1.00  0.00     0.275 HD
ENDBRANCH   5  16
BRANCH   1  20
HETATM   20  C3  UNL     1      -1.097   7.146  82.760  1.00  0.00     0.060 C 
BRANCH  20  21
HETATM   21  C2  UNL     1      -1.843   7.734  81.636  1.00  0.00    -0.034 C 
HETATM   22  C1  UNL     1      -3.144   7.557  81.561  1.00  0.00     0.007 C 
ENDBRANCH  20  21
ENDBRANCH   1  20
BRANCH  11  23
HETATM   23  C12 UNL     1      -1.457   2.093  86.274  1.00  0.00     0.154 C 
HETATM   24  C13 UNL     1      -2.924   1.774  86.231  1.00  0.00     0.045 C 
BRANCH  23  25
HETATM   25  O1  UNL     1      -0.701   0.937  86.243  1.00  0.00    -0.391 OA
ATOM     26  H1  UNL     1      -1.278   0.187  86.151  1.00  0.00     0.210 HD
ENDBRANCH  23  25
ENDBRANCH  11  23
TORSDOF 5
ENDMDL
