MODEL 1
REMARK VINA RESULT: -4.649021374      0.000      0.000
REMARK  1 active torsions:
REMARK  status: ('A' for Active; 'I' for Inactive)
REMARK    1  A    between atoms: C5_6  and  N1_7 
ROOT
HETATM    1  C1  UNL     1      -7.115   1.190  17.364  1.00  0.00     0.040 C 
HETATM    2  C2  UNL     1      -5.964   2.100  17.017  1.00  0.00     0.123 C 
HETATM    3  O1  UNL     1      -6.351   3.416  16.922  1.00  0.00    -0.379 OA
HETATM    4  C3  UNL     1      -5.479   4.090  16.114  1.00  0.00     0.148 C 
HETATM    5  C4  UNL     1      -6.221   4.750  14.944  1.00  0.00     0.042 C 
HETATM    6  C5  UNL     1      -4.548   3.081  15.480  1.00  0.00     0.218 C 
HETATM    7  C6  UNL     1      -5.416   1.824  15.641  1.00  0.00     0.043 C 
HETATM    8  C7  UNL     1      -4.586   0.604  15.538  1.00  0.00     0.015 C 
ENDROOT
BRANCH   6   9
HETATM    9  N1  UNL     1      -3.359   2.975  16.295  1.00  0.00    -0.072 N 
ATOM     10  H13 UNL     1      -2.541   2.692  15.757  1.00  0.00     0.274 HD
ATOM     11  H12 UNL     1      -3.015   3.884  16.605  1.00  0.00     0.274 HD
ATOM     12  H11 UNL     1      -3.552   2.344  17.073  1.00  0.00     0.274 HD
ENDBRANCH   6   9
TORSDOF 1
ENDMDL
MODEL 2
REMARK VINA RESULT: -4.605960964      1.544      3.215
REMARK  1 active torsions:
REMARK  status: ('A' for Active; 'I' for Inactive)
REMARK    1  A    between atoms: C5_6  and  N1_7 
ROOT
HETATM    1  C1  UNL     1      -4.788   2.377  13.778  1.00  0.00     0.040 C 
HETATM    2  C2  UNL     1      -5.065   2.768  15.207  1.00  0.00     0.123 C 
HETATM    3  O1  UNL     1      -5.326   1.679  16.005  1.00  0.00    -0.379 OA
HETATM    4  C3  UNL     1      -6.073   2.070  17.080  1.00  0.00     0.148 C 
HETATM    5  C4  UNL     1      -7.383   1.274  17.152  1.00  0.00     0.042 C 
HETATM    6  C5  UNL     1      -6.489   3.508  16.866  1.00  0.00     0.218 C 
HETATM    7  C6  UNL     1      -6.329   3.577  15.340  1.00  0.00     0.043 C 
HETATM    8  C7  UNL     1      -6.215   4.982  14.894  1.00  0.00     0.015 C 
ENDROOT
BRANCH   6   9
HETATM    9  N1  UNL     1      -5.523   4.369  17.510  1.00  0.00    -0.072 N 
ATOM     10  H13 UNL     1      -5.577   4.324  18.527  1.00  0.00     0.274 HD
ATOM     11  H12 UNL     1      -4.566   4.029  17.406  1.00  0.00     0.274 HD
ATOM     12  H11 UNL     1      -5.642   5.317  17.153  1.00  0.00     0.274 HD
ENDBRANCH   6   9
TORSDOF 1
ENDMDL
MODEL 3
REMARK VINA RESULT: -4.490642259      1.913      2.467
REMARK  1 active torsions:
REMARK  status: ('A' for Active; 'I' for Inactive)
REMARK    1  A    between atoms: C5_6  and  N1_7 
ROOT
HETATM    1  C1  UNL     1      -6.784   3.864  17.020  1.00  0.00     0.040 C 
HETATM    2  C2  UNL     1      -5.280   3.948  16.961  1.00  0.00     0.123 C 
HETATM    3  O1  UNL     1      -4.792   5.037  17.643  1.00  0.00    -0.379 OA
HETATM    4  C3  UNL     1      -3.570   5.381  17.138  1.00  0.00     0.148 C 
HETATM    5  C4  UNL     1      -3.567   6.840  16.663  1.00  0.00     0.042 C 
HETATM    6  C5  UNL     1      -3.324   4.554  15.895  1.00  0.00     0.218 C 
HETATM    7  C6  UNL     1      -4.779   4.192  15.561  1.00  0.00     0.043 C 
HETATM    8  C7  UNL     1      -4.827   3.011  14.672  1.00  0.00     0.015 C 
ENDROOT
BRANCH   6   9
HETATM    9  N1  UNL     1      -2.586   3.369  16.268  1.00  0.00    -0.072 N 
ATOM     10  H13 UNL     1      -1.981   3.523  17.074  1.00  0.00     0.274 HD
ATOM     11  H12 UNL     1      -3.182   2.649  16.676  1.00  0.00     0.274 HD
ATOM     12  H11 UNL     1      -2.072   3.036  15.452  1.00  0.00     0.274 HD
ENDBRANCH   6   9
TORSDOF 1
ENDMDL
MODEL 4
REMARK VINA RESULT: -4.347990017      1.794      3.532
REMARK  1 active torsions:
REMARK  status: ('A' for Active; 'I' for Inactive)
REMARK    1  A    between atoms: C5_6  and  N1_7 
ROOT
HETATM    1  C1  UNL     1      -2.835   4.357  15.684  1.00  0.00     0.040 C 
HETATM    2  C2  UNL     1      -3.887   3.449  16.268  1.00  0.00     0.123 C 
HETATM    3  O1  UNL     1      -3.485   2.135  16.297  1.00  0.00    -0.379 OA
HETATM    4  C3  UNL     1      -4.583   1.322  16.302  1.00  0.00     0.148 C 
HETATM    5  C4  UNL     1      -4.543   0.344  15.119  1.00  0.00     0.042 C 
HETATM    6  C5  UNL     1      -5.806   2.181  16.072  1.00  0.00     0.218 C 
HETATM    7  C6  UNL     1      -5.126   3.389  15.412  1.00  0.00     0.043 C 
HETATM    8  C7  UNL     1      -5.995   4.583  15.497  1.00  0.00     0.015 C 
ENDROOT
BRANCH   6   9
HETATM    9  N1  UNL     1      -6.355   2.554  17.355  1.00  0.00    -0.072 N 
ATOM     10  H13 UNL     1      -6.363   1.779  18.017  1.00  0.00     0.274 HD
ATOM     11  H12 UNL     1      -5.741   3.179  17.877  1.00  0.00     0.274 HD
ATOM     12  H11 UNL     1      -7.284   2.952  17.209  1.00  0.00     0.274 HD
ENDBRANCH   6   9
TORSDOF 1
ENDMDL
MODEL 5
REMARK VINA RESULT: -4.346871327      1.438      2.049
REMARK  1 active torsions:
REMARK  status: ('A' for Active; 'I' for Inactive)
REMARK    1  A    between atoms: C5_6  and  N1_7 
ROOT
HETATM    1  C1  UNL     1      -6.406   3.996  18.057  1.00  0.00     0.040 C 
HETATM    2  C2  UNL     1      -5.543   3.106  17.200  1.00  0.00     0.123 C 
HETATM    3  O1  UNL     1      -4.849   3.814  16.247  1.00  0.00    -0.379 OA
HETATM    4  C3  UNL     1      -4.538   2.990  15.202  1.00  0.00     0.148 C 
HETATM    5  C4  UNL     1      -5.092   3.550  13.884  1.00  0.00     0.042 C 
HETATM    6  C5  UNL     1      -5.254   1.675  15.411  1.00  0.00     0.218 C 
HETATM    7  C6  UNL     1      -6.360   2.155  16.363  1.00  0.00     0.043 C 
HETATM    8  C7  UNL     1      -6.934   1.014  17.108  1.00  0.00     0.015 C 
ENDROOT
BRANCH   6   9
HETATM    9  N1  UNL     1      -4.362   0.768  16.097  1.00  0.00    -0.072 N 
ATOM     10  H13 UNL     1      -3.482   1.211  16.359  1.00  0.00     0.274 HD
ATOM     11  H12 UNL     1      -4.686   0.536  17.036  1.00  0.00     0.274 HD
ATOM     12  H11 UNL     1      -4.226  -0.058  15.515  1.00  0.00     0.274 HD
ENDBRANCH   6   9
TORSDOF 1
ENDMDL
