MODEL 1
REMARK VINA RESULT: -5.445288998      0.000      0.000
REMARK  0 active torsions:
REMARK  status: ('A' for Active; 'I' for Inactive)
ROOT
HETATM    1  C1  UNL     1      -6.311   4.084  16.278  1.00  0.00     0.035 C 
HETATM    2  C2  UNL     1      -6.155   2.627  16.200  1.00  0.00     0.117 C 
HETATM    3  N1  UNL     1      -4.761   2.311  15.901  1.00  0.00    -0.330 N 
ATOM      4  H1  UNL     1      -4.048   2.934  15.523  1.00  0.00     0.165 HD
HETATM    5  C3  UNL     1      -4.621   0.936  16.257  1.00  0.00     0.361 C 
HETATM    6  O1  UNL     1      -3.784   0.115  15.746  1.00  0.00    -0.238 OA
HETATM    7  O2  UNL     1      -5.555   0.693  17.239  1.00  0.00    -0.291 OA
HETATM    8  C4  UNL     1      -6.471   1.792  17.342  1.00  0.00     0.085 C 
HETATM    9  C5  UNL     1      -6.353   2.348  18.702  1.00  0.00     0.048 C 
HETATM   10  C6  UNL     1      -7.872   1.194  17.162  1.00  0.00     0.048 C 
ENDROOT
TORSDOF 0
ENDMDL
MODEL 2
REMARK VINA RESULT: -5.177208611      1.639      2.866
REMARK  0 active torsions:
REMARK  status: ('A' for Active; 'I' for Inactive)
ROOT
HETATM    1  C1  UNL     1      -6.880   3.788  17.202  1.00  0.00     0.035 C 
HETATM    2  C2  UNL     1      -5.574   3.215  16.854  1.00  0.00     0.117 C 
HETATM    3  N1  UNL     1      -5.717   1.773  16.675  1.00  0.00    -0.330 N 
ATOM      4  H1  UNL     1      -6.480   1.177  16.997  1.00  0.00     0.165 HD
HETATM    5  C3  UNL     1      -4.551   1.384  15.950  1.00  0.00     0.361 C 
HETATM    6  O1  UNL     1      -4.001   0.230  15.987  1.00  0.00    -0.238 OA
HETATM    7  O2  UNL     1      -4.159   2.488  15.226  1.00  0.00    -0.291 OA
HETATM    8  C4  UNL     1      -4.875   3.652  15.662  1.00  0.00     0.085 C 
HETATM    9  C5  UNL     1      -5.645   4.160  14.513  1.00  0.00     0.048 C 
HETATM   10  C6  UNL     1      -3.807   4.684  16.049  1.00  0.00     0.048 C 
ENDROOT
TORSDOF 0
ENDMDL
MODEL 3
REMARK VINA RESULT: -5.145236948      1.706      2.200
REMARK  0 active torsions:
REMARK  status: ('A' for Active; 'I' for Inactive)
ROOT
HETATM    1  C1  UNL     1      -3.297   4.234  16.427  1.00  0.00     0.035 C 
HETATM    2  C2  UNL     1      -4.203   3.275  15.784  1.00  0.00     0.117 C 
HETATM    3  N1  UNL     1      -3.790   1.918  16.134  1.00  0.00    -0.330 N 
ATOM      4  H1  UNL     1      -2.890   1.617  16.507  1.00  0.00     0.165 HD
HETATM    5  C3  UNL     1      -4.928   1.110  15.837  1.00  0.00     0.361 C 
HETATM    6  O1  UNL     1      -4.899  -0.128  15.517  1.00  0.00    -0.238 OA
HETATM    7  O2  UNL     1      -6.028   1.927  15.964  1.00  0.00    -0.291 OA
HETATM    8  C4  UNL     1      -5.623   3.298  16.074  1.00  0.00     0.085 C 
HETATM    9  C5  UNL     1      -6.089   3.800  17.378  1.00  0.00     0.048 C 
HETATM   10  C6  UNL     1      -6.357   4.047  14.954  1.00  0.00     0.048 C 
ENDROOT
TORSDOF 0
ENDMDL
MODEL 4
REMARK VINA RESULT: -5.052000407      1.855      2.406
REMARK  0 active torsions:
REMARK  status: ('A' for Active; 'I' for Inactive)
ROOT
HETATM    1  C1  UNL     1      -4.883   4.070  13.815  1.00  0.00     0.035 C 
HETATM    2  C2  UNL     1      -5.181   3.021  14.796  1.00  0.00     0.117 C 
HETATM    3  N1  UNL     1      -4.680   1.743  14.297  1.00  0.00    -0.330 N 
ATOM      4  H1  UNL     1      -4.424   1.504  13.339  1.00  0.00     0.165 HD
HETATM    5  C3  UNL     1      -4.629   0.903  15.450  1.00  0.00     0.361 C 
HETATM    6  O1  UNL     1      -4.730  -0.372  15.448  1.00  0.00    -0.238 OA
HETATM    7  O2  UNL     1      -4.453   1.738  16.530  1.00  0.00    -0.291 OA
HETATM    8  C4  UNL     1      -4.655   3.104  16.144  1.00  0.00     0.085 C 
HETATM    9  C5  UNL     1      -3.396   3.829  16.389  1.00  0.00     0.048 C 
HETATM   10  C6  UNL     1      -5.741   3.652  17.080  1.00  0.00     0.048 C 
ENDROOT
TORSDOF 0
ENDMDL
MODEL 5
REMARK VINA RESULT: -4.994381353      1.639      2.692
REMARK  0 active torsions:
REMARK  status: ('A' for Active; 'I' for Inactive)
ROOT
HETATM    1  C1  UNL     1      -6.819   4.322  17.306  1.00  0.00     0.035 C 
HETATM    2  C2  UNL     1      -5.931   3.154  17.256  1.00  0.00     0.117 C 
HETATM    3  N1  UNL     1      -6.705   1.953  17.556  1.00  0.00    -0.330 N 
ATOM      4  H1  UNL     1      -7.618   1.895  18.006  1.00  0.00     0.165 HD
HETATM    5  C3  UNL     1      -5.896   0.877  17.081  1.00  0.00     0.361 C 
HETATM    6  O1  UNL     1      -5.903  -0.318  17.535  1.00  0.00    -0.238 OA
HETATM    7  O2  UNL     1      -5.129   1.392  16.060  1.00  0.00    -0.291 OA
HETATM    8  C4  UNL     1      -5.222   2.823  16.036  1.00  0.00     0.085 C 
HETATM    9  C5  UNL     1      -5.794   3.213  14.736  1.00  0.00     0.048 C 
HETATM   10  C6  UNL     1      -3.781   3.342  16.129  1.00  0.00     0.048 C 
ENDROOT
TORSDOF 0
ENDMDL
