MODEL 1
REMARK VINA RESULT: -5.588989533      0.000      0.000
REMARK  0 active torsions:
REMARK  status: ('A' for Active; 'I' for Inactive)
ROOT
HETATM    1  C1  UNL     1      -3.434   3.929  15.964  1.00  0.00     0.071 C 
HETATM    2  C2  UNL     1      -4.818   3.571  16.417  1.00  0.00     0.044 A 
HETATM    3  N1  UNL     1      -5.789   4.370  16.847  1.00  0.00    -0.303 N 
ATOM      4  H1  UNL     1      -5.711   5.383  16.929  1.00  0.00     0.186 HD
HETATM    5  N2  UNL     1      -6.874   3.671  17.158  1.00  0.00    -0.303 N 
ATOM      6  H2  UNL     1      -7.747   4.064  17.510  1.00  0.00     0.186 HD
HETATM    7  C3  UNL     1      -6.642   2.357  16.934  1.00  0.00     0.044 A 
HETATM    8  C4  UNL     1      -7.597   1.216  17.150  1.00  0.00     0.071 C 
HETATM    9  C5  UNL     1      -5.340   2.288  16.464  1.00  0.00     0.091 A 
HETATM   10  C6  UNL     1      -4.692   1.059  16.103  1.00  0.00     0.103 C 
HETATM   11  N3  UNL     1      -4.172   0.074  15.793  1.00  0.00    -0.191 NA
ENDROOT
TORSDOF 0
ENDMDL
MODEL 2
REMARK VINA RESULT: -5.566346205      0.116      2.705
REMARK  0 active torsions:
REMARK  status: ('A' for Active; 'I' for Inactive)
ROOT
HETATM    1  C1  UNL     1      -7.534   1.225  17.247  1.00  0.00     0.071 C 
HETATM    2  C2  UNL     1      -6.641   2.397  16.964  1.00  0.00     0.044 A 
HETATM    3  N1  UNL     1      -6.883   3.691  17.139  1.00  0.00    -0.303 N 
ATOM      4  H1  UNL     1      -7.753   4.073  17.509  1.00  0.00     0.186 HD
HETATM    5  N2  UNL     1      -5.838   4.421  16.767  1.00  0.00    -0.303 N 
ATOM      6  H2  UNL     1      -5.786   5.439  16.809  1.00  0.00     0.186 HD
HETATM    7  C3  UNL     1      -4.853   3.606  16.326  1.00  0.00     0.044 A 
HETATM    8  C4  UNL     1      -3.500   4.012  15.812  1.00  0.00     0.071 C 
HETATM    9  C5  UNL     1      -5.357   2.321  16.448  1.00  0.00     0.091 A 
HETATM   10  C6  UNL     1      -4.623   1.143  16.083  1.00  0.00     0.103 C 
HETATM   11  N3  UNL     1      -4.028   0.190  15.808  1.00  0.00    -0.191 NA
ENDROOT
TORSDOF 0
ENDMDL
MODEL 3
REMARK VINA RESULT: -5.139091077      1.319      2.501
REMARK  0 active torsions:
REMARK  status: ('A' for Active; 'I' for Inactive)
ROOT
HETATM    1  C1  UNL     1      -6.526   1.971  18.352  1.00  0.00     0.071 C 
HETATM    2  C2  UNL     1      -6.299   2.712  17.068  1.00  0.00     0.044 A 
HETATM    3  N1  UNL     1      -6.761   3.901  16.697  1.00  0.00    -0.303 N 
ATOM      4  H1  UNL     1      -7.362   4.493  17.271  1.00  0.00     0.186 HD
HETATM    5  N2  UNL     1      -6.337   4.215  15.479  1.00  0.00    -0.303 N 
ATOM      6  H2  UNL     1      -6.560   5.077  14.982  1.00  0.00     0.186 HD
HETATM    7  C3  UNL     1      -5.562   3.215  15.001  1.00  0.00     0.044 A 
HETATM    8  C4  UNL     1      -4.877   3.156  13.664  1.00  0.00     0.071 C 
HETATM    9  C5  UNL     1      -5.535   2.259  16.004  1.00  0.00     0.091 A 
HETATM   10  C6  UNL     1      -4.815   1.021  15.900  1.00  0.00     0.103 C 
HETATM   11  N3  UNL     1      -4.222   0.031  15.829  1.00  0.00    -0.191 NA
ENDROOT
TORSDOF 0
ENDMDL
MODEL 4
REMARK VINA RESULT: -5.118394920      1.159      1.170
REMARK  0 active torsions:
REMARK  status: ('A' for Active; 'I' for Inactive)
ROOT
HETATM    1  C1  UNL     1      -4.471   3.443  13.863  1.00  0.00     0.071 C 
HETATM    2  C2  UNL     1      -5.332   3.388  15.090  1.00  0.00     0.044 A 
HETATM    3  N1  UNL     1      -6.143   4.319  15.582  1.00  0.00    -0.303 N 
ATOM      4  H1  UNL     1      -6.292   5.237  15.164  1.00  0.00     0.186 HD
HETATM    5  N2  UNL     1      -6.735   3.891  16.691  1.00  0.00    -0.303 N 
ATOM      6  H2  UNL     1      -7.401   4.427  17.248  1.00  0.00     0.186 HD
HETATM    7  C3  UNL     1      -6.319   2.634  16.967  1.00  0.00     0.044 A 
HETATM    8  C4  UNL     1      -6.735   1.773  18.128  1.00  0.00     0.071 C 
HETATM    9  C5  UNL     1      -5.429   2.311  15.956  1.00  0.00     0.091 A 
HETATM   10  C6  UNL     1      -4.748   1.049  15.871  1.00  0.00     0.103 C 
HETATM   11  N3  UNL     1      -4.212   0.028  15.789  1.00  0.00    -0.191 NA
ENDROOT
TORSDOF 0
ENDMDL
MODEL 5
REMARK VINA RESULT: -4.911046796      3.701      4.869
REMARK  0 active torsions:
REMARK  status: ('A' for Active; 'I' for Inactive)
ROOT
HETATM    1  C1  UNL     1      -4.248  -0.716  12.144  1.00  0.00     0.071 C 
HETATM    2  C2  UNL     1      -4.407   0.458  13.064  1.00  0.00     0.044 A 
HETATM    3  N1  UNL     1      -4.466   0.475  14.391  1.00  0.00    -0.303 N 
ATOM      4  H1  UNL     1      -4.408  -0.352  14.984  1.00  0.00     0.186 HD
HETATM    5  N2  UNL     1      -4.612   1.716  14.841  1.00  0.00    -0.303 N 
ATOM      6  H2  UNL     1      -4.682   1.982  15.823  1.00  0.00     0.186 HD
HETATM    7  C3  UNL     1      -4.653   2.572  13.795  1.00  0.00     0.044 A 
HETATM    8  C4  UNL     1      -4.807   4.067  13.850  1.00  0.00     0.071 C 
HETATM    9  C5  UNL     1      -4.524   1.780  12.666  1.00  0.00     0.091 A 
HETATM   10  C6  UNL     1      -4.518   2.301  11.328  1.00  0.00     0.103 C 
HETATM   11  N3  UNL     1      -4.495   2.717  10.250  1.00  0.00    -0.191 NA
ENDROOT
TORSDOF 0
ENDMDL
