MODEL 1
REMARK VINA RESULT: -5.299047491      0.000      0.000
REMARK  1 active torsions:
REMARK  status: ('A' for Active; 'I' for Inactive)
REMARK    1  A    between atoms: N1_2  and  C2_4 
ROOT
HETATM    1  C2  UNL     1      -4.238   2.493  16.040  1.00  0.00     0.173 A 
HETATM    2  O1  UNL     1      -3.938   1.227  16.187  1.00  0.00    -0.219 OA
HETATM    3  N2  UNL     1      -4.983   0.562  16.621  1.00  0.00    -0.263 N 
ATOM      4  H2  UNL     1      -5.004  -0.440  16.814  1.00  0.00     0.194 HD
HETATM    5  C3  UNL     1      -6.029   1.410  16.773  1.00  0.00     0.039 A 
HETATM    6  C4  UNL     1      -7.409   1.100  17.240  1.00  0.00     0.071 C 
HETATM    7  C5  UNL     1      -5.564   2.652  16.403  1.00  0.00     0.015 A 
HETATM    8  C6  UNL     1      -6.335   3.917  16.396  1.00  0.00     0.055 C 
ENDROOT
BRANCH   1   9
HETATM    9  N1  UNL     1      -3.505   3.478  15.639  1.00  0.00    -0.373 N 
HETATM   10  C1  UNL     1      -2.634   4.210  16.536  1.00  0.00     0.148 C 
ATOM     11  H1  UNL     1      -3.540   3.750  14.657  1.00  0.00     0.161 HD
ENDBRANCH   1   9
TORSDOF 1
ENDMDL
MODEL 2
REMARK VINA RESULT: -5.041389546      1.028      3.318
REMARK  1 active torsions:
REMARK  status: ('A' for Active; 'I' for Inactive)
REMARK    1  A    between atoms: N1_2  and  C2_4 
ROOT
HETATM    1  C2  UNL     1      -4.696   2.093  16.311  1.00  0.00     0.173 A 
HETATM    2  O1  UNL     1      -3.399   1.917  16.344  1.00  0.00    -0.219 OA
HETATM    3  N2  UNL     1      -2.784   3.076  16.321  1.00  0.00    -0.263 N 
ATOM      4  H2  UNL     1      -1.772   3.205  16.339  1.00  0.00     0.194 HD
HETATM    5  C3  UNL     1      -3.700   4.074  16.270  1.00  0.00     0.039 A 
HETATM    6  C4  UNL     1      -3.463   5.544  16.230  1.00  0.00     0.071 C 
HETATM    7  C5  UNL     1      -4.930   3.457  16.264  1.00  0.00     0.015 A 
HETATM    8  C6  UNL     1      -6.252   4.124  16.214  1.00  0.00     0.055 C 
ENDROOT
BRANCH   1   9
HETATM    9  N1  UNL     1      -5.652   1.224  16.317  1.00  0.00    -0.373 N 
HETATM   10  C1  UNL     1      -6.139   0.617  17.537  1.00  0.00     0.148 C 
ATOM     11  H1  UNL     1      -6.078   0.956  15.430  1.00  0.00     0.161 HD
ENDBRANCH   1   9
TORSDOF 1
ENDMDL
MODEL 3
REMARK VINA RESULT: -4.833831040      1.865      2.284
REMARK  1 active torsions:
REMARK  status: ('A' for Active; 'I' for Inactive)
REMARK    1  A    between atoms: N1_2  and  C2_4 
ROOT
HETATM    1  C2  UNL     1      -4.827   1.262  14.981  1.00  0.00     0.173 A 
HETATM    2  O1  UNL     1      -4.775   0.111  15.603  1.00  0.00    -0.219 OA
HETATM    3  N2  UNL     1      -5.404   0.188  16.752  1.00  0.00    -0.263 N 
ATOM      4  H2  UNL     1      -5.505  -0.576  17.420  1.00  0.00     0.194 HD
HETATM    5  C3  UNL     1      -5.901   1.440  16.913  1.00  0.00     0.039 A 
HETATM    6  C4  UNL     1      -6.681   1.983  18.059  1.00  0.00     0.071 C 
HETATM    7  C5  UNL     1      -5.538   2.138  15.784  1.00  0.00     0.015 A 
HETATM    8  C6  UNL     1      -5.846   3.555  15.485  1.00  0.00     0.055 C 
ENDROOT
BRANCH   1   9
HETATM    9  N1  UNL     1      -4.339   1.609  13.836  1.00  0.00    -0.373 N 
HETATM   10  C1  UNL     1      -4.412   0.752  12.671  1.00  0.00     0.148 C 
ATOM     11  H1  UNL     1      -3.887   2.519  13.750  1.00  0.00     0.161 HD
ENDBRANCH   1   9
TORSDOF 1
ENDMDL
MODEL 4
REMARK VINA RESULT: -4.685754006      1.485      2.864
REMARK  1 active torsions:
REMARK  status: ('A' for Active; 'I' for Inactive)
REMARK    1  A    between atoms: N1_2  and  C2_4 
ROOT
HETATM    1  C2  UNL     1      -4.611   1.522  15.964  1.00  0.00     0.173 A 
HETATM    2  O1  UNL     1      -3.930   2.622  15.765  1.00  0.00    -0.219 OA
HETATM    3  N2  UNL     1      -4.511   3.630  16.372  1.00  0.00    -0.263 N 
ATOM      4  H2  UNL     1      -4.174   4.593  16.367  1.00  0.00     0.194 HD
HETATM    5  C3  UNL     1      -5.628   3.194  17.006  1.00  0.00     0.039 A 
HETATM    6  C4  UNL     1      -6.596   3.983  17.817  1.00  0.00     0.071 C 
HETATM    7  C5  UNL     1      -5.702   1.844  16.752  1.00  0.00     0.015 A 
HETATM    8  C6  UNL     1      -6.750   0.912  17.230  1.00  0.00     0.055 C 
ENDROOT
BRANCH   1   9
HETATM    9  N1  UNL     1      -4.386   0.320  15.546  1.00  0.00    -0.373 N 
HETATM   10  C1  UNL     1      -4.391  -0.025  14.140  1.00  0.00     0.148 C 
ATOM     11  H1  UNL     1      -4.198  -0.412  16.231  1.00  0.00     0.161 HD
ENDBRANCH   1   9
TORSDOF 1
ENDMDL
MODEL 5
REMARK VINA RESULT: -4.621488595      1.500      1.809
REMARK  1 active torsions:
REMARK  status: ('A' for Active; 'I' for Inactive)
REMARK    1  A    between atoms: N1_2  and  C2_4 
ROOT
HETATM    1  C2  UNL     1      -3.218   3.442  16.250  1.00  0.00     0.173 A 
HETATM    2  O1  UNL     1      -3.461   2.155  16.240  1.00  0.00    -0.219 OA
HETATM    3  N2  UNL     1      -4.731   1.932  16.483  1.00  0.00    -0.263 N 
ATOM      4  H2  UNL     1      -5.169   1.012  16.528  1.00  0.00     0.194 HD
HETATM    5  C3  UNL     1      -5.372   3.114  16.664  1.00  0.00     0.039 A 
HETATM    6  C4  UNL     1      -6.812   3.347  16.962  1.00  0.00     0.071 C 
HETATM    7  C5  UNL     1      -4.412   4.089  16.517  1.00  0.00     0.015 A 
HETATM    8  C6  UNL     1      -4.616   5.552  16.624  1.00  0.00     0.055 C 
ENDROOT
BRANCH   1   9
HETATM    9  N1  UNL     1      -2.110   4.078  16.059  1.00  0.00    -0.373 N 
HETATM   10  C1  UNL     1      -1.767   4.669  14.782  1.00  0.00     0.148 C 
ATOM     11  H1  UNL     1      -1.454   4.166  16.834  1.00  0.00     0.161 HD
ENDBRANCH   1   9
TORSDOF 1
ENDMDL
