MODEL 1
REMARK VINA RESULT: -4.913185414      0.000      0.000
REMARK  2 active torsions:
REMARK  status: ('A' for Active; 'I' for Inactive)
REMARK    1  A    between atoms: C2_2  and  N1_3 
REMARK    2  A    between atoms: N1_3  and  N3_7 
ROOT
HETATM    1  N1  UNL     1      -2.379   4.380  15.816  1.00  0.00    -0.238 N 
HETATM    2  N2  UNL     1      -2.501   3.388  16.585  1.00  0.00    -0.328 N 
ATOM      3  H21 UNL     1      -1.873   2.596  16.454  1.00  0.00     0.178 HD
ATOM      4  H22 UNL     1      -3.224   3.424  17.303  1.00  0.00     0.178 HD
ENDROOT
BRANCH   1   5
HETATM    5  C2  UNL     1      -3.267   5.500  16.001  1.00  0.00     0.066 C 
HETATM    6  C1  UNL     1      -4.493   5.242  15.157  1.00  0.00     0.042 C 
HETATM    7  C3  UNL     1      -2.637   6.763  15.524  1.00  0.00     0.034 C 
HETATM    8  C4  UNL     1      -1.951   7.374  16.727  1.00  0.00     0.003 C 
HETATM    9  C5  UNL     1      -2.727   6.889  17.916  1.00  0.00     0.003 C 
HETATM   10  C6  UNL     1      -3.601   5.753  17.446  1.00  0.00     0.034 C 
ENDBRANCH   1   5
BRANCH   1  11
HETATM   11  N3  UNL     1      -1.393   4.331  14.836  1.00  0.00    -0.328 N 
ATOM     12  H32 UNL     1      -1.082   5.211  14.424  1.00  0.00     0.178 HD
ATOM     13  H31 UNL     1      -0.965   3.466  14.508  1.00  0.00     0.178 HD
ENDBRANCH   1  11
TORSDOF 2
ENDMDL
MODEL 2
REMARK VINA RESULT: -4.818583918      0.454      1.164
REMARK  2 active torsions:
REMARK  status: ('A' for Active; 'I' for Inactive)
REMARK    1  A    between atoms: C2_2  and  N1_3 
REMARK    2  A    between atoms: N1_3  and  N3_7 
ROOT
HETATM    1  N1  UNL     1      -2.341   4.401  15.654  1.00  0.00    -0.238 N 
HETATM    2  N2  UNL     1      -1.374   4.328  14.848  1.00  0.00    -0.328 N 
ATOM      3  H21 UNL     1      -0.805   3.482  14.851  1.00  0.00     0.178 HD
ATOM      4  H22 UNL     1      -1.204   5.121  14.230  1.00  0.00     0.178 HD
ENDROOT
BRANCH   1   5
HETATM    5  C2  UNL     1      -3.144   5.597  15.650  1.00  0.00     0.066 C 
HETATM    6  C1  UNL     1      -4.026   5.539  14.425  1.00  0.00     0.042 C 
HETATM    7  C3  UNL     1      -2.289   6.813  15.546  1.00  0.00     0.034 C 
HETATM    8  C4  UNL     1      -2.008   7.255  16.966  1.00  0.00     0.003 C 
HETATM    9  C5  UNL     1      -3.179   6.776  17.771  1.00  0.00     0.003 C 
HETATM   10  C6  UNL     1      -3.930   5.782  16.920  1.00  0.00     0.034 C 
ENDBRANCH   1   5
BRANCH   1  11
HETATM   11  N3  UNL     1      -2.573   3.319  16.497  1.00  0.00    -0.328 N 
ATOM     12  H32 UNL     1      -1.940   3.181  17.286  1.00  0.00     0.178 HD
ATOM     13  H31 UNL     1      -3.339   2.658  16.371  1.00  0.00     0.178 HD
ENDBRANCH   1  11
TORSDOF 2
ENDMDL
MODEL 3
REMARK VINA RESULT: -4.762514542      3.737      4.645
REMARK  2 active torsions:
REMARK  status: ('A' for Active; 'I' for Inactive)
REMARK    1  A    between atoms: C2_2  and  N1_3 
REMARK    2  A    between atoms: N1_3  and  N3_7 
ROOT
HETATM    1  N1  UNL     1      -4.459   3.659  16.511  1.00  0.00    -0.238 N 
HETATM    2  N2  UNL     1      -3.357   3.134  16.197  1.00  0.00    -0.328 N 
ATOM      3  H21 UNL     1      -2.499   3.615  16.466  1.00  0.00     0.178 HD
ATOM      4  H22 UNL     1      -3.374   2.251  15.688  1.00  0.00     0.178 HD
ENDROOT
BRANCH   1   5
HETATM    5  C2  UNL     1      -5.672   2.980  16.131  1.00  0.00     0.066 C 
HETATM    6  C1  UNL     1      -6.111   3.559  14.806  1.00  0.00     0.042 C 
HETATM    7  C3  UNL     1      -6.754   3.227  17.124  1.00  0.00     0.034 C 
HETATM    8  C4  UNL     1      -6.678   2.093  18.123  1.00  0.00     0.003 C 
HETATM    9  C5  UNL     1      -6.094   0.936  17.368  1.00  0.00     0.003 C 
HETATM   10  C6  UNL     1      -5.518   1.484  16.086  1.00  0.00     0.034 C 
ENDBRANCH   1   5
BRANCH   1  11
HETATM   11  N3  UNL     1      -4.436   4.864  17.206  1.00  0.00    -0.328 N 
ATOM     12  H32 UNL     1      -4.055   5.684  16.733  1.00  0.00     0.178 HD
ATOM     13  H31 UNL     1      -4.778   4.972  18.161  1.00  0.00     0.178 HD
ENDBRANCH   1  11
TORSDOF 2
ENDMDL
MODEL 4
REMARK VINA RESULT: -4.754282535      3.715      4.600
REMARK  2 active torsions:
REMARK  status: ('A' for Active; 'I' for Inactive)
REMARK    1  A    between atoms: C2_2  and  N1_3 
REMARK    2  A    between atoms: N1_3  and  N3_7 
ROOT
HETATM    1  N1  UNL     1      -4.447   3.658  16.493  1.00  0.00    -0.238 N 
HETATM    2  N2  UNL     1      -4.528   4.782  17.059  1.00  0.00    -0.328 N 
ATOM      3  H21 UNL     1      -3.663   5.255  17.320  1.00  0.00     0.178 HD
ATOM      4  H22 UNL     1      -5.456   5.167  17.232  1.00  0.00     0.178 HD
ENDROOT
BRANCH   1   5
HETATM    5  C2  UNL     1      -5.669   2.990  16.125  1.00  0.00     0.066 C 
HETATM    6  C1  UNL     1      -6.129   3.587  14.816  1.00  0.00     0.042 C 
HETATM    7  C3  UNL     1      -6.733   3.230  17.140  1.00  0.00     0.034 C 
HETATM    8  C4  UNL     1      -6.646   2.083  18.124  1.00  0.00     0.003 C 
HETATM    9  C5  UNL     1      -6.081   0.933  17.345  1.00  0.00     0.003 C 
HETATM   10  C6  UNL     1      -5.524   1.494  16.060  1.00  0.00     0.034 C 
ENDBRANCH   1   5
BRANCH   1  11
HETATM   11  N3  UNL     1      -3.180   3.133  16.258  1.00  0.00    -0.328 N 
ATOM     12  H32 UNL     1      -3.105   2.138  16.046  1.00  0.00     0.178 HD
ATOM     13  H31 UNL     1      -2.325   3.688  16.286  1.00  0.00     0.178 HD
ENDBRANCH   1  11
TORSDOF 2
ENDMDL
MODEL 5
REMARK VINA RESULT: -4.739286657      1.072      1.615
REMARK  2 active torsions:
REMARK  status: ('A' for Active; 'I' for Inactive)
REMARK    1  A    between atoms: C2_2  and  N1_3 
REMARK    2  A    between atoms: N1_3  and  N3_7 
ROOT
HETATM    1  N1  UNL     1      -1.869   4.944  16.285  1.00  0.00    -0.238 N 
HETATM    2  N2  UNL     1      -1.404   4.649  17.418  1.00  0.00    -0.328 N 
ATOM      3  H21 UNL     1      -0.751   3.869  17.485  1.00  0.00     0.178 HD
ATOM      4  H22 UNL     1      -1.702   5.205  18.219  1.00  0.00     0.178 HD
ENDROOT
BRANCH   1   5
HETATM    5  C2  UNL     1      -2.791   6.047  16.191  1.00  0.00     0.066 C 
HETATM    6  C1  UNL     1      -4.139   5.543  16.652  1.00  0.00     0.042 C 
HETATM    7  C3  UNL     1      -2.929   6.508  14.781  1.00  0.00     0.034 C 
HETATM    8  C4  UNL     1      -1.912   7.613  14.597  1.00  0.00     0.003 C 
HETATM    9  C5  UNL     1      -1.726   8.215  15.958  1.00  0.00     0.003 C 
HETATM   10  C6  UNL     1      -2.336   7.261  16.955  1.00  0.00     0.034 C 
ENDBRANCH   1   5
BRANCH   1  11
HETATM   11  N3  UNL     1      -1.461   4.185  15.192  1.00  0.00    -0.328 N 
ATOM     12  H32 UNL     1      -1.970   3.325  14.988  1.00  0.00     0.178 HD
ATOM     13  H31 UNL     1      -0.682   4.441  14.586  1.00  0.00     0.178 HD
ENDBRANCH   1  11
TORSDOF 2
ENDMDL
