MODEL 1
REMARK VINA RESULT: -4.949743713      0.000      0.000
REMARK  0 active torsions:
REMARK  status: ('A' for Active; 'I' for Inactive)
ROOT
HETATM    1  C1  UNL     1      -6.001   5.089  15.370  1.00  0.00     0.002 C 
HETATM    2  C2  UNL     1      -5.805   4.629  16.782  1.00  0.00     0.002 C 
HETATM    3  C3  UNL     1      -6.882   3.601  17.107  1.00  0.00     0.027 C 
HETATM    4  C4  UNL     1      -6.290   2.319  17.643  1.00  0.00     0.232 C 
HETATM    5  N1  UNL     1      -6.259   1.261  16.661  1.00  0.00    -0.074 N 
ATOM      6  H11 UNL     1      -6.959   1.419  15.936  1.00  0.00     0.277 HD
ATOM      7  H12 UNL     1      -6.617   0.390  17.054  1.00  0.00     0.277 HD
HETATM    8  C5  UNL     1      -4.957   1.061  16.078  1.00  0.00     0.259 C 
HETATM    9  C6  UNL     1      -4.840   1.702  14.698  1.00  0.00     0.259 C 
HETATM   10  N2  UNL     1      -4.130   2.947  14.820  1.00  0.00    -0.074 N 
ATOM     11  H21 UNL     1      -3.123   2.787  14.808  1.00  0.00     0.277 HD
ATOM     12  H22 UNL     1      -4.234   3.327  15.760  1.00  0.00     0.277 HD
HETATM   13  C7  UNL     1      -4.496   3.926  13.838  1.00  0.00     0.232 C 
HETATM   14  C8  UNL     1      -4.725   5.239  14.598  1.00  0.00     0.027 C 
ENDROOT
TORSDOF 0
ENDMDL
MODEL 2
REMARK VINA RESULT: -4.848593315      0.799      3.281
REMARK  0 active torsions:
REMARK  status: ('A' for Active; 'I' for Inactive)
ROOT
HETATM    1  C1  UNL     1      -6.255   3.624  17.926  1.00  0.00     0.002 C 
HETATM    2  C2  UNL     1      -6.593   4.230  16.598  1.00  0.00     0.002 C 
HETATM    3  C3  UNL     1      -5.306   4.744  15.963  1.00  0.00     0.027 C 
HETATM    4  C4  UNL     1      -5.117   4.203  14.565  1.00  0.00     0.232 C 
HETATM    5  N1  UNL     1      -4.149   3.133  14.504  1.00  0.00    -0.074 N 
ATOM      6  H11 UNL     1      -3.503   3.183  15.292  1.00  0.00     0.277 HD
ATOM      7  H12 UNL     1      -3.493   3.282  13.737  1.00  0.00     0.277 HD
HETATM    8  C5  UNL     1      -4.748   1.826  14.417  1.00  0.00     0.259 C 
HETATM    9  C6  UNL     1      -4.755   1.106  15.763  1.00  0.00     0.259 C 
HETATM   10  N2  UNL     1      -6.068   1.207  16.340  1.00  0.00    -0.074 N 
ATOM     11  H21 UNL     1      -6.679   0.478  15.971  1.00  0.00     0.277 HD
ATOM     12  H22 UNL     1      -6.552   2.032  15.987  1.00  0.00     0.277 HD
HETATM   13  C7  UNL     1      -6.078   1.193  17.775  1.00  0.00     0.232 C 
HETATM   14  C8  UNL     1      -6.988   2.348  18.214  1.00  0.00     0.027 C 
ENDROOT
TORSDOF 0
ENDMDL
MODEL 3
REMARK VINA RESULT: -4.638286754      0.982      3.283
REMARK  0 active torsions:
REMARK  status: ('A' for Active; 'I' for Inactive)
ROOT
HETATM    1  C1  UNL     1      -5.241   4.612  17.349  1.00  0.00     0.002 C 
HETATM    2  C2  UNL     1      -5.394   5.346  16.052  1.00  0.00     0.002 C 
HETATM    3  C3  UNL     1      -4.050   5.338  15.335  1.00  0.00     0.027 C 
HETATM    4  C4  UNL     1      -4.171   4.814  13.923  1.00  0.00     0.232 C 
HETATM    5  N1  UNL     1      -3.705   3.454  13.788  1.00  0.00    -0.074 N 
ATOM      6  H11 UNL     1      -3.045   3.222  14.530  1.00  0.00     0.277 HD
ATOM      7  H12 UNL     1      -3.090   3.361  12.979  1.00  0.00     0.277 HD
HETATM    8  C5  UNL     1      -4.771   2.488  13.732  1.00  0.00     0.259 C 
HETATM    9  C6  UNL     1      -4.978   1.782  15.070  1.00  0.00     0.259 C 
HETATM   10  N2  UNL     1      -6.110   2.368  15.736  1.00  0.00    -0.074 N 
ATOM     11  H21 UNL     1      -6.979   1.948  15.404  1.00  0.00     0.277 HD
ATOM     12  H22 UNL     1      -6.253   3.328  15.423  1.00  0.00     0.277 HD
HETATM   13  C7  UNL     1      -6.039   2.311  17.168  1.00  0.00     0.232 C 
HETATM   14  C8  UNL     1      -6.396   3.714  17.677  1.00  0.00     0.027 C 
ENDROOT
TORSDOF 0
ENDMDL
MODEL 4
REMARK VINA RESULT: -4.633180122      3.164      4.102
REMARK  0 active torsions:
REMARK  status: ('A' for Active; 'I' for Inactive)
ROOT
HETATM    1  C1  UNL     1      -2.220   7.997  15.648  1.00  0.00     0.002 C 
HETATM    2  C2  UNL     1      -1.745   7.153  16.791  1.00  0.00     0.002 C 
HETATM    3  C3  UNL     1      -2.863   7.069  17.823  1.00  0.00     0.027 C 
HETATM    4  C4  UNL     1      -3.187   5.637  18.182  1.00  0.00     0.232 C 
HETATM    5  N1  UNL     1      -4.393   5.159  17.548  1.00  0.00    -0.074 N 
ATOM      6  H11 UNL     1      -5.003   5.937  17.297  1.00  0.00     0.277 HD
ATOM      7  H12 UNL     1      -4.994   4.685  18.223  1.00  0.00     0.277 HD
HETATM    8  C5  UNL     1      -4.143   4.317  16.407  1.00  0.00     0.259 C 
HETATM    9  C6  UNL     1      -4.313   5.068  15.089  1.00  0.00     0.259 C 
HETATM   10  N2  UNL     1      -3.014   5.423  14.583  1.00  0.00    -0.074 N 
ATOM     11  H21 UNL     1      -2.608   4.645  14.063  1.00  0.00     0.277 HD
ATOM     12  H22 UNL     1      -2.340   5.492  15.345  1.00  0.00     0.277 HD
HETATM   13  C7  UNL     1      -3.003   6.619  13.790  1.00  0.00     0.232 C 
HETATM   14  C8  UNL     1      -1.831   7.467  14.300  1.00  0.00     0.027 C 
ENDROOT
TORSDOF 0
ENDMDL
MODEL 5
REMARK VINA RESULT: -4.620066802      2.998      4.720
REMARK  0 active torsions:
REMARK  status: ('A' for Active; 'I' for Inactive)
ROOT
HETATM    1  C1  UNL     1      -1.820   7.200  16.651  1.00  0.00     0.002 C 
HETATM    2  C2  UNL     1      -2.587   7.410  15.381  1.00  0.00     0.002 C 
HETATM    3  C3  UNL     1      -1.953   6.555  14.290  1.00  0.00     0.027 C 
HETATM    4  C4  UNL     1      -2.971   5.673  13.606  1.00  0.00     0.232 C 
HETATM    5  N1  UNL     1      -2.908   4.299  14.046  1.00  0.00    -0.074 N 
ATOM      6  H11 UNL     1      -1.986   4.082  14.425  1.00  0.00     0.277 HD
ATOM      7  H12 UNL     1      -2.916   3.663  13.248  1.00  0.00     0.277 HD
HETATM    8  C5  UNL     1      -3.942   3.953  14.987  1.00  0.00     0.259 C 
HETATM    9  C6  UNL     1      -3.430   3.940  16.425  1.00  0.00     0.259 C 
HETATM   10  N2  UNL     1      -3.832   5.159  17.074  1.00  0.00    -0.074 N 
ATOM     11  H21 UNL     1      -4.783   5.076  17.434  1.00  0.00     0.277 HD
ATOM     12  H22 UNL     1      -3.970   5.901  16.388  1.00  0.00     0.277 HD
HETATM   13  C7  UNL     1      -2.938   5.591  18.109  1.00  0.00     0.232 C 
HETATM   14  C8  UNL     1      -2.686   7.085  17.870  1.00  0.00     0.027 C 
ENDROOT
TORSDOF 0
ENDMDL
