MODEL 1
REMARK VINA RESULT: -7.648505656      0.000      0.000
REMARK  5 active torsions:
REMARK  status: ('A' for Active; 'I' for Inactive)
REMARK    1  A    between atoms: C1_2  and  C2_3 
REMARK       I    between atoms: C1_2  and  N4_21 
REMARK    2  A    between atoms: C2_3  and  S1_4 
REMARK    3  A    between atoms: S1_4  and  C3_5 
REMARK       I    between atoms: N3_11  and  C5_13 
REMARK    4  A    between atoms: C5_13  and  C6_15 
REMARK    5  A    between atoms: N4_21  and  C11_23 
ROOT
HETATM    1  C3  UNL     1      28.101  75.330  50.150  1.00  0.00     0.205 A 
HETATM    2  N1  UNL     1      27.746  75.843  51.332  1.00  0.00    -0.271 N 
ATOM      3  H1  UNL     1      27.511  76.817  51.523  1.00  0.00     0.189 HD
HETATM    4  N2  UNL     1      27.757  74.841  52.216  1.00  0.00    -0.262 N 
ATOM      5  H2  UNL     1      27.530  74.920  53.207  1.00  0.00     0.190 HD
HETATM    6  C4  UNL     1      28.117  73.709  51.582  1.00  0.00     0.248 A 
HETATM    7  N3  UNL     1      28.251  72.507  52.075  1.00  0.00    -0.291 N 
ATOM      8  H3  UNL     1      28.534  71.753  51.449  1.00  0.00     0.172 HD
HETATM    9  C5  UNL     1      28.025  72.211  53.414  1.00  0.00     0.229 C 
HETATM   10  O2  UNL     1      26.882  72.312  53.913  1.00  0.00    -0.273 OA
HETATM   11  O3  UNL     1      28.317  74.050  50.332  1.00  0.00    -0.253 OA
ENDROOT
BRANCH   1  12
HETATM   12  S1  UNL     1      28.274  76.160  48.567  1.00  0.00    -0.075 SA
BRANCH  12  13
HETATM   13  C2  UNL     1      26.653  76.767  48.068  1.00  0.00     0.185 C 
BRANCH  13  14
HETATM   14  C1  UNL     1      26.643  78.245  48.186  1.00  0.00     0.227 C 
HETATM   15  O1  UNL     1      27.738  78.902  48.246  1.00  0.00    -0.273 OA
HETATM   16  N4  UNL     1      25.397  78.912  48.233  1.00  0.00    -0.356 N 
ATOM     17  H4  UNL     1      24.526  78.384  48.185  1.00  0.00     0.162 HD
BRANCH  16  18
HETATM   18  C11 UNL     1      25.375  80.358  48.348  1.00  0.00     0.084 C 
HETATM   19  C12 UNL     1      24.300  80.809  49.315  1.00  0.00     0.025 C 
HETATM   20  C13 UNL     1      24.552  82.300  49.557  1.00  0.00     0.002 C 
HETATM   21  C14 UNL     1      24.614  83.053  48.260  1.00  0.00     0.000 C 
HETATM   22  C15 UNL     1      24.240  82.201  47.073  1.00  0.00     0.002 C 
HETATM   23  C16 UNL     1      25.044  80.926  46.992  1.00  0.00     0.025 C 
ENDBRANCH  16  18
ENDBRANCH  13  14
ENDBRANCH  12  13
ENDBRANCH   1  12
BRANCH   9  24
HETATM   24  C6  UNL     1      29.136  71.765  54.283  1.00  0.00     0.078 C 
HETATM   25  C7  UNL     1      28.926  72.141  55.724  1.00  0.00     0.014 C 
HETATM   26  C8  UNL     1      29.482  73.531  55.901  1.00  0.00     0.001 C 
HETATM   27  C9  UNL     1      30.332  73.780  54.681  1.00  0.00     0.001 C 
HETATM   28  C10 UNL     1      30.414  72.490  53.929  1.00  0.00     0.014 C 
ENDBRANCH   9  24
TORSDOF 5
ENDMDL
MODEL 2
REMARK VINA RESULT: -7.505735114      1.527      1.997
REMARK  5 active torsions:
REMARK  status: ('A' for Active; 'I' for Inactive)
REMARK    1  A    between atoms: C1_2  and  C2_3 
REMARK       I    between atoms: C1_2  and  N4_21 
REMARK    2  A    between atoms: C2_3  and  S1_4 
REMARK    3  A    between atoms: S1_4  and  C3_5 
REMARK       I    between atoms: N3_11  and  C5_13 
REMARK    4  A    between atoms: C5_13  and  C6_15 
REMARK    5  A    between atoms: N4_21  and  C11_23 
ROOT
HETATM    1  C3  UNL     1      28.052  75.412  50.140  1.00  0.00     0.205 A 
HETATM    2  N1  UNL     1      27.747  75.920  51.337  1.00  0.00    -0.271 N 
ATOM      3  H1  UNL     1      27.555  76.900  51.547  1.00  0.00     0.189 HD
HETATM    4  N2  UNL     1      27.740  74.905  52.207  1.00  0.00    -0.262 N 
ATOM      5  H2  UNL     1      27.540  74.978  53.204  1.00  0.00     0.190 HD
HETATM    6  C4  UNL     1      28.040  73.770  51.548  1.00  0.00     0.248 A 
HETATM    7  N3  UNL     1      28.139  72.557  52.020  1.00  0.00    -0.291 N 
ATOM      8  H3  UNL     1      28.377  71.802  51.377  1.00  0.00     0.172 HD
HETATM    9  C5  UNL     1      27.933  72.249  53.361  1.00  0.00     0.229 C 
HETATM   10  O2  UNL     1      26.808  72.387  53.889  1.00  0.00    -0.273 OA
HETATM   11  O3  UNL     1      28.222  74.121  50.298  1.00  0.00    -0.253 OA
ENDROOT
BRANCH   1  12
HETATM   12  S1  UNL     1      28.219  76.258  48.564  1.00  0.00    -0.075 SA
BRANCH  12  13
HETATM   13  C2  UNL     1      26.601  76.893  48.091  1.00  0.00     0.185 C 
BRANCH  13  14
HETATM   14  C1  UNL     1      26.774  78.249  47.516  1.00  0.00     0.227 C 
HETATM   15  O1  UNL     1      27.365  79.168  48.178  1.00  0.00    -0.273 OA
HETATM   16  N4  UNL     1      26.270  78.503  46.219  1.00  0.00    -0.356 N 
ATOM     17  H4  UNL     1      25.798  77.767  45.694  1.00  0.00     0.162 HD
BRANCH  16  18
HETATM   18  C11 UNL     1      26.433  79.827  45.646  1.00  0.00     0.084 C 
HETATM   19  C12 UNL     1      25.210  80.682  45.902  1.00  0.00     0.025 C 
HETATM   20  C13 UNL     1      25.604  82.108  45.500  1.00  0.00     0.002 C 
HETATM   21  C14 UNL     1      26.139  82.142  44.098  1.00  0.00     0.000 C 
HETATM   22  C15 UNL     1      25.988  80.823  43.383  1.00  0.00     0.002 C 
HETATM   23  C16 UNL     1      26.583  79.669  44.155  1.00  0.00     0.025 C 
ENDBRANCH  16  18
ENDBRANCH  13  14
ENDBRANCH  12  13
ENDBRANCH   1  12
BRANCH   9  24
HETATM   24  C6  UNL     1      29.047  71.748  54.195  1.00  0.00     0.078 C 
HETATM   25  C7  UNL     1      28.857  72.058  55.654  1.00  0.00     0.014 C 
HETATM   26  C8  UNL     1      29.435  73.430  55.891  1.00  0.00     0.001 C 
HETATM   27  C9  UNL     1      30.276  73.725  54.674  1.00  0.00     0.001 C 
HETATM   28  C10 UNL     1      30.332  72.471  53.862  1.00  0.00     0.014 C 
ENDBRANCH   9  24
TORSDOF 5
ENDMDL
MODEL 3
REMARK VINA RESULT: -7.473507331      4.914      6.396
REMARK  5 active torsions:
REMARK  status: ('A' for Active; 'I' for Inactive)
REMARK    1  A    between atoms: C1_2  and  C2_3 
REMARK       I    between atoms: C1_2  and  N4_21 
REMARK    2  A    between atoms: C2_3  and  S1_4 
REMARK    3  A    between atoms: S1_4  and  C3_5 
REMARK       I    between atoms: N3_11  and  C5_13 
REMARK    4  A    between atoms: C5_13  and  C6_15 
REMARK    5  A    between atoms: N4_21  and  C11_23 
ROOT
HETATM    1  C3  UNL     1      29.343  76.628  48.549  1.00  0.00     0.205 A 
HETATM    2  N1  UNL     1      30.022  77.778  48.506  1.00  0.00    -0.271 N 
ATOM      3  H1  UNL     1      29.637  78.713  48.640  1.00  0.00     0.189 HD
HETATM    4  N2  UNL     1      31.299  77.474  48.252  1.00  0.00    -0.262 N 
ATOM      5  H2  UNL     1      32.062  78.143  48.159  1.00  0.00     0.190 HD
HETATM    6  C4  UNL     1      31.410  76.137  48.140  1.00  0.00     0.248 A 
HETATM    7  N3  UNL     1      32.478  75.426  47.896  1.00  0.00    -0.291 N 
ATOM      8  H3  UNL     1      32.386  74.412  47.843  1.00  0.00     0.172 HD
HETATM    9  C5  UNL     1      33.734  75.992  47.706  1.00  0.00     0.229 C 
HETATM   10  O2  UNL     1      34.318  76.593  48.635  1.00  0.00    -0.273 OA
HETATM   11  O3  UNL     1      30.202  75.662  48.326  1.00  0.00    -0.253 OA
ENDROOT
BRANCH   1  12
HETATM   12  S1  UNL     1      27.592  76.362  48.850  1.00  0.00    -0.075 SA
BRANCH  12  13
HETATM   13  C2  UNL     1      26.704  76.660  47.312  1.00  0.00     0.185 C 
BRANCH  13  14
HETATM   14  C1  UNL     1      26.780  78.107  46.994  1.00  0.00     0.227 C 
HETATM   15  O1  UNL     1      27.106  78.957  47.891  1.00  0.00    -0.273 OA
HETATM   16  N4  UNL     1      26.484  78.526  45.676  1.00  0.00    -0.356 N 
ATOM     17  H4  UNL     1      26.224  77.845  44.963  1.00  0.00     0.162 HD
BRANCH  16  18
HETATM   18  C11 UNL     1      26.555  79.939  45.353  1.00  0.00     0.084 C 
HETATM   19  C12 UNL     1      25.271  80.647  45.731  1.00  0.00     0.025 C 
HETATM   20  C13 UNL     1      25.563  82.146  45.600  1.00  0.00     0.002 C 
HETATM   21  C14 UNL     1      26.106  82.470  44.238  1.00  0.00     0.000 C 
HETATM   22  C15 UNL     1      26.058  81.293  43.296  1.00  0.00     0.002 C 
HETATM   23  C16 UNL     1      26.729  80.064  43.861  1.00  0.00     0.025 C 
ENDBRANCH  16  18
ENDBRANCH  13  14
ENDBRANCH  12  13
ENDBRANCH   1  12
BRANCH   9  24
HETATM   24  C6  UNL     1      34.411  75.894  46.395  1.00  0.00     0.078 C 
HETATM   25  C7  UNL     1      34.022  74.653  45.638  1.00  0.00     0.014 C 
HETATM   26  C8  UNL     1      34.955  73.556  46.084  1.00  0.00     0.001 C 
HETATM   27  C9  UNL     1      36.088  74.257  46.790  1.00  0.00     0.001 C 
HETATM   28  C10 UNL     1      35.902  75.725  46.575  1.00  0.00     0.014 C 
ENDBRANCH   9  24
TORSDOF 5
ENDMDL
MODEL 4
REMARK VINA RESULT: -7.453020828      1.510      9.341
REMARK  5 active torsions:
REMARK  status: ('A' for Active; 'I' for Inactive)
REMARK    1  A    between atoms: C1_2  and  C2_3 
REMARK       I    between atoms: C1_2  and  N4_21 
REMARK    2  A    between atoms: C2_3  and  S1_4 
REMARK    3  A    between atoms: S1_4  and  C3_5 
REMARK       I    between atoms: N3_11  and  C5_13 
REMARK    4  A    between atoms: C5_13  and  C6_15 
REMARK    5  A    between atoms: N4_21  and  C11_23 
ROOT
HETATM    1  C3  UNL     1      28.097  77.385  48.622  1.00  0.00     0.205 A 
HETATM    2  N1  UNL     1      28.639  78.606  48.598  1.00  0.00    -0.271 N 
ATOM      3  H1  UNL     1      29.603  78.845  48.832  1.00  0.00     0.189 HD
HETATM    4  N2  UNL     1      27.682  79.456  48.212  1.00  0.00    -0.262 N 
ATOM      5  H2  UNL     1      27.792  80.463  48.099  1.00  0.00     0.190 HD
HETATM    6  C4  UNL     1      26.550  78.761  47.995  1.00  0.00     0.248 A 
HETATM    7  N3  UNL     1      25.384  79.205  47.608  1.00  0.00    -0.291 N 
ATOM      8  H3  UNL     1      24.623  78.536  47.491  1.00  0.00     0.172 HD
HETATM    9  C5  UNL     1      25.135  80.548  47.348  1.00  0.00     0.229 C 
HETATM   10  O2  UNL     1      25.700  81.136  46.400  1.00  0.00    -0.273 OA
HETATM   11  O3  UNL     1      26.844  77.510  48.255  1.00  0.00    -0.253 OA
ENDROOT
BRANCH   1  12
HETATM   12  S1  UNL     1      28.862  75.820  49.057  1.00  0.00    -0.075 SA
BRANCH  12  13
HETATM   13  C2  UNL     1      27.622  74.790  49.861  1.00  0.00     0.185 C 
BRANCH  13  14
HETATM   14  C1  UNL     1      27.900  74.764  51.318  1.00  0.00     0.227 C 
HETATM   15  O1  UNL     1      28.008  75.851  51.981  1.00  0.00    -0.273 OA
HETATM   16  N4  UNL     1      28.044  73.511  51.956  1.00  0.00    -0.356 N 
ATOM     17  H4  UNL     1      27.958  72.646  51.423  1.00  0.00     0.162 HD
BRANCH  16  18
HETATM   18  C11 UNL     1      28.317  73.473  53.381  1.00  0.00     0.084 C 
HETATM   19  C12 UNL     1      29.794  73.275  53.646  1.00  0.00     0.025 C 
HETATM   20  C13 UNL     1      29.989  73.522  55.145  1.00  0.00     0.002 C 
HETATM   21  C14 UNL     1      29.064  72.662  55.957  1.00  0.00     0.000 C 
HETATM   22  C15 UNL     1      28.316  71.656  55.117  1.00  0.00     0.002 C 
HETATM   23  C16 UNL     1      27.582  72.292  53.961  1.00  0.00     0.025 C 
ENDBRANCH  16  18
ENDBRANCH  13  14
ENDBRANCH  12  13
ENDBRANCH   1  12
BRANCH   9  24
HETATM   24  C6  UNL     1      24.193  81.314  48.192  1.00  0.00     0.078 C 
HETATM   25  C7  UNL     1      24.594  82.755  48.341  1.00  0.00     0.014 C 
HETATM   26  C8  UNL     1      25.540  82.829  49.513  1.00  0.00     0.001 C 
HETATM   27  C9  UNL     1      25.372  81.521  50.244  1.00  0.00     0.001 C 
HETATM   28  C10 UNL     1      24.218  80.808  49.616  1.00  0.00     0.014 C 
ENDBRANCH   9  24
TORSDOF 5
ENDMDL
MODEL 5
REMARK VINA RESULT: -7.438066704      1.402      2.107
REMARK  5 active torsions:
REMARK  status: ('A' for Active; 'I' for Inactive)
REMARK    1  A    between atoms: C1_2  and  C2_3 
REMARK       I    between atoms: C1_2  and  N4_21 
REMARK    2  A    between atoms: C2_3  and  S1_4 
REMARK    3  A    between atoms: S1_4  and  C3_5 
REMARK       I    between atoms: N3_11  and  C5_13 
REMARK    4  A    between atoms: C5_13  and  C6_15 
REMARK    5  A    between atoms: N4_21  and  C11_23 
ROOT
HETATM    1  C3  UNL     1      28.219  75.089  49.188  1.00  0.00     0.205 A 
HETATM    2  N1  UNL     1      28.992  74.004  49.281  1.00  0.00    -0.271 N 
ATOM      3  H1  UNL     1      29.522  73.571  48.524  1.00  0.00     0.189 HD
HETATM    4  N2  UNL     1      28.939  73.590  50.551  1.00  0.00    -0.262 N 
ATOM      5  H2  UNL     1      29.427  72.780  50.933  1.00  0.00     0.190 HD
HETATM    6  C4  UNL     1      28.136  74.419  51.242  1.00  0.00     0.248 A 
HETATM    7  N3  UNL     1      27.813  74.373  52.507  1.00  0.00    -0.291 N 
ATOM      8  H3  UNL     1      27.185  75.087  52.876  1.00  0.00     0.172 HD
HETATM    9  C5  UNL     1      28.289  73.395  53.373  1.00  0.00     0.229 C 
HETATM   10  O2  UNL     1      29.505  73.321  53.657  1.00  0.00    -0.273 OA
HETATM   11  O3  UNL     1      27.719  75.313  50.379  1.00  0.00    -0.253 OA
ENDROOT
BRANCH   1  12
HETATM   12  S1  UNL     1      27.874  76.108  47.749  1.00  0.00    -0.075 SA
BRANCH  12  13
HETATM   13  C2  UNL     1      26.234  76.825  47.945  1.00  0.00     0.185 C 
BRANCH  13  14
HETATM   14  C1  UNL     1      26.374  78.295  48.089  1.00  0.00     0.227 C 
HETATM   15  O1  UNL     1      27.516  78.856  47.973  1.00  0.00    -0.273 OA
HETATM   16  N4  UNL     1      25.216  79.061  48.357  1.00  0.00    -0.356 N 
ATOM     17  H4  UNL     1      24.307  78.609  48.450  1.00  0.00     0.162 HD
BRANCH  16  18
HETATM   18  C11 UNL     1      25.340  80.500  48.500  1.00  0.00     0.084 C 
HETATM   19  C12 UNL     1      24.435  81.016  49.598  1.00  0.00     0.025 C 
HETATM   20  C13 UNL     1      24.849  82.473  49.834  1.00  0.00     0.002 C 
HETATM   21  C14 UNL     1      24.824  83.253  48.552  1.00  0.00     0.000 C 
HETATM   22  C15 UNL     1      24.233  82.472  47.405  1.00  0.00     0.002 C 
HETATM   23  C16 UNL     1      24.901  81.133  47.205  1.00  0.00     0.025 C 
ENDBRANCH  16  18
ENDBRANCH  13  14
ENDBRANCH  12  13
ENDBRANCH   1  12
BRANCH   9  24
HETATM   24  C6  UNL     1      27.363  72.416  53.981  1.00  0.00     0.078 C 
HETATM   25  C7  UNL     1      28.037  71.111  54.307  1.00  0.00     0.014 C 
HETATM   26  C8  UNL     1      27.962  70.256  53.068  1.00  0.00     0.001 C 
HETATM   27  C9  UNL     1      26.931  70.917  52.189  1.00  0.00     0.001 C 
HETATM   28  C10 UNL     1      26.295  72.005  52.993  1.00  0.00     0.014 C 
ENDBRANCH   9  24
TORSDOF 5
ENDMDL
