MODEL 1
REMARK VINA RESULT: -7.460529196      0.000      0.000
REMARK  7 active torsions:
REMARK  status: ('A' for Active; 'I' for Inactive)
REMARK    1  A    between atoms: C7_7  and  C8_8 
REMARK    2  A    between atoms: C8_8  and  O1_9 
REMARK    3  A    between atoms: C8_8  and  C9_11 
REMARK    4  A    between atoms: C9_11  and  C10_12 
REMARK    5  A    between atoms: C14_19  and  O5_20 
REMARK    6  A    between atoms: O5_20  and  C15_21 
REMARK    7  A    between atoms: C15_21  and  C16_23 
ROOT
HETATM    1  C1  UNL     1      30.614  74.146  48.154  1.00  0.00     0.016 C 
HETATM    2  C2  UNL     1      29.269  74.560  47.676  1.00  0.00    -0.032 C 
HETATM    3  C3  UNL     1      29.023  73.817  46.349  1.00  0.00     0.010 C 
HETATM    4  C4  UNL     1      28.856  72.601  47.299  1.00  0.00     0.006 C 
HETATM    5  C5  UNL     1      28.132  73.630  48.128  1.00  0.00    -0.005 C 
HETATM    6  C6  UNL     1      27.985  73.564  49.559  1.00  0.00     0.015 C 
HETATM    7  C7  UNL     1      28.172  74.882  50.249  1.00  0.00     0.047 C 
HETATM    8  C11 UNL     1      27.560  76.076  49.672  1.00  0.00     0.158 C 
HETATM    9  O4  UNL     1      28.510  77.138  49.761  1.00  0.00    -0.382 OA
HETATM   10  C12 UNL     1      29.477  76.815  48.767  1.00  0.00     0.176 C 
HETATM   11  C13 UNL     1      28.820  75.938  47.761  1.00  0.00     0.050 C 
HETATM   12  C14 UNL     1      27.390  76.173  48.194  1.00  0.00     0.168 C 
ENDROOT
BRANCH  12  13
HETATM   13  O5  UNL     1      27.177  77.577  47.929  1.00  0.00    -0.313 OA
BRANCH  13  14
HETATM   14  C15 UNL     1      26.719  78.003  46.702  1.00  0.00     0.263 C 
HETATM   15  O6  UNL     1      26.389  77.172  45.839  1.00  0.00    -0.265 OA
BRANCH  14  16
HETATM   16  C16 UNL     1      26.623  79.438  46.417  1.00  0.00     0.085 C 
HETATM   17  C17 UNL     1      26.355  79.596  44.914  1.00  0.00     0.014 C 
HETATM   18  C18 UNL     1      25.631  80.899  44.791  1.00  0.00     0.001 C 
HETATM   19  C19 UNL     1      25.222  81.312  46.175  1.00  0.00     0.001 C 
HETATM   20  C20 UNL     1      25.348  80.046  46.983  1.00  0.00     0.014 C 
ENDBRANCH  14  16
ENDBRANCH  13  14
ENDBRANCH  12  13
BRANCH   7  21
HETATM   21  C8  UNL     1      27.767  74.815  51.726  1.00  0.00     0.134 C 
BRANCH  21  22
HETATM   22  O1  UNL     1      27.682  76.093  52.270  1.00  0.00    -0.395 OA
ATOM     23  H1  UNL     1      27.014  76.601  51.826  1.00  0.00     0.210 HD
ENDBRANCH  21  22
BRANCH  21  24
HETATM   24  C9  UNL     1      28.662  73.968  52.558  1.00  0.00     0.145 C 
BRANCH  24  25
HETATM   25  C10 UNL     1      27.773  72.956  53.234  1.00  0.00     0.175 C 
HETATM   26  O2  UNL     1      28.044  72.671  54.430  1.00  0.00    -0.648 OA
HETATM   27  O3  UNL     1      26.716  72.349  52.620  1.00  0.00    -0.648 OA
ENDBRANCH  24  25
ENDBRANCH  21  24
ENDBRANCH   7  21
TORSDOF 7
ENDMDL
MODEL 2
REMARK VINA RESULT: -7.181840723      0.795      1.036
REMARK  7 active torsions:
REMARK  status: ('A' for Active; 'I' for Inactive)
REMARK    1  A    between atoms: C7_7  and  C8_8 
REMARK    2  A    between atoms: C8_8  and  O1_9 
REMARK    3  A    between atoms: C8_8  and  C9_11 
REMARK    4  A    between atoms: C9_11  and  C10_12 
REMARK    5  A    between atoms: C14_19  and  O5_20 
REMARK    6  A    between atoms: O5_20  and  C15_21 
REMARK    7  A    between atoms: C15_21  and  C16_23 
ROOT
HETATM    1  C1  UNL     1      30.356  73.907  47.609  1.00  0.00     0.016 C 
HETATM    2  C2  UNL     1      28.992  74.424  47.329  1.00  0.00    -0.032 C 
HETATM    3  C3  UNL     1      28.604  73.912  45.929  1.00  0.00     0.010 C 
HETATM    4  C4  UNL     1      28.473  72.563  46.685  1.00  0.00     0.006 C 
HETATM    5  C5  UNL     1      27.864  73.461  47.730  1.00  0.00    -0.005 C 
HETATM    6  C6  UNL     1      27.839  73.167  49.139  1.00  0.00     0.015 C 
HETATM    7  C7  UNL     1      28.136  74.352  50.011  1.00  0.00     0.047 C 
HETATM    8  C11 UNL     1      27.522  75.637  49.689  1.00  0.00     0.158 C 
HETATM    9  O4  UNL     1      28.516  76.648  49.858  1.00  0.00    -0.382 OA
HETATM   10  C12 UNL     1      29.380  76.468  48.741  1.00  0.00     0.176 C 
HETATM   11  C13 UNL     1      28.605  75.781  47.673  1.00  0.00     0.050 C 
HETATM   12  C14 UNL     1      27.228  75.976  48.267  1.00  0.00     0.168 C 
ENDROOT
BRANCH  12  13
HETATM   13  O5  UNL     1      27.046  77.409  48.250  1.00  0.00    -0.313 OA
BRANCH  13  14
HETATM   14  C15 UNL     1      26.622  78.054  47.109  1.00  0.00     0.263 C 
HETATM   15  O6  UNL     1      26.431  77.408  46.065  1.00  0.00    -0.265 OA
BRANCH  14  16
HETATM   16  C16 UNL     1      26.399  79.502  47.129  1.00  0.00     0.085 C 
HETATM   17  C17 UNL     1      25.915  79.918  45.733  1.00  0.00     0.014 C 
HETATM   18  C18 UNL     1      25.102  81.151  45.963  1.00  0.00     0.001 C 
HETATM   19  C19 UNL     1      24.865  81.258  47.442  1.00  0.00     0.001 C 
HETATM   20  C20 UNL     1      25.180  79.878  47.959  1.00  0.00     0.014 C 
ENDBRANCH  14  16
ENDBRANCH  13  14
ENDBRANCH  12  13
BRANCH   7  21
HETATM   21  C8  UNL     1      27.859  74.056  51.489  1.00  0.00     0.134 C 
BRANCH  21  22
HETATM   22  O1  UNL     1      27.827  75.235  52.227  1.00  0.00    -0.395 OA
ATOM     23  H1  UNL     1      28.236  75.109  53.076  1.00  0.00     0.210 HD
ENDBRANCH  21  22
BRANCH  21  24
HETATM   24  C9  UNL     1      28.818  73.099  52.102  1.00  0.00     0.145 C 
BRANCH  24  25
HETATM   25  C10 UNL     1      28.760  73.341  53.588  1.00  0.00     0.175 C 
HETATM   26  O2  UNL     1      27.802  72.813  54.212  1.00  0.00    -0.648 OA
HETATM   27  O3  UNL     1      29.676  74.090  54.269  1.00  0.00    -0.648 OA
ENDBRANCH  24  25
ENDBRANCH  21  24
ENDBRANCH   7  21
TORSDOF 7
ENDMDL
MODEL 3
REMARK VINA RESULT: -6.756228346      7.251     11.571
REMARK  7 active torsions:
REMARK  status: ('A' for Active; 'I' for Inactive)
REMARK    1  A    between atoms: C7_7  and  C8_8 
REMARK    2  A    between atoms: C8_8  and  O1_9 
REMARK    3  A    between atoms: C8_8  and  C9_11 
REMARK    4  A    between atoms: C9_11  and  C10_12 
REMARK    5  A    between atoms: C14_19  and  O5_20 
REMARK    6  A    between atoms: O5_20  and  C15_21 
REMARK    7  A    between atoms: C15_21  and  C16_23 
ROOT
HETATM    1  C1  UNL     1      22.868  78.952  38.920  1.00  0.00     0.016 C 
HETATM    2  C2  UNL     1      23.798  78.922  40.079  1.00  0.00    -0.032 C 
HETATM    3  C3  UNL     1      23.616  77.551  40.756  1.00  0.00     0.010 C 
HETATM    4  C4  UNL     1      24.381  77.058  39.499  1.00  0.00     0.006 C 
HETATM    5  C5  UNL     1      25.172  78.313  39.763  1.00  0.00    -0.005 C 
HETATM    6  C6  UNL     1      25.900  79.042  38.755  1.00  0.00     0.015 C 
HETATM    7  C7  UNL     1      25.765  80.532  38.869  1.00  0.00     0.047 C 
HETATM    8  C11 UNL     1      25.853  81.150  40.189  1.00  0.00     0.158 C 
HETATM    9  O4  UNL     1      24.840  82.154  40.267  1.00  0.00    -0.382 OA
HETATM   10  C12 UNL     1      23.632  81.411  40.389  1.00  0.00     0.176 C 
HETATM   11  C13 UNL     1      23.974  80.075  40.945  1.00  0.00     0.050 C 
HETATM   12  C14 UNL     1      25.384  80.396  41.387  1.00  0.00     0.168 C 
ENDROOT
BRANCH  12  13
HETATM   13  O5  UNL     1      25.202  81.394  42.415  1.00  0.00    -0.313 OA
BRANCH  13  14
HETATM   14  C15 UNL     1      25.791  81.250  43.652  1.00  0.00     0.263 C 
HETATM   15  O6  UNL     1      27.014  81.054  43.739  1.00  0.00    -0.265 OA
BRANCH  14  16
HETATM   16  C16 UNL     1      24.970  81.326  44.865  1.00  0.00     0.085 C 
HETATM   17  C17 UNL     1      25.538  80.319  45.875  1.00  0.00     0.014 C 
HETATM   18  C18 UNL     1      25.162  80.870  47.213  1.00  0.00     0.001 C 
HETATM   19  C19 UNL     1      24.685  82.276  46.997  1.00  0.00     0.001 C 
HETATM   20  C20 UNL     1      25.197  82.625  45.623  1.00  0.00     0.014 C 
ENDBRANCH  14  16
ENDBRANCH  13  14
ENDBRANCH  12  13
BRANCH   7  21
HETATM   21  C8  UNL     1      26.742  81.264  37.942  1.00  0.00     0.134 C 
BRANCH  21  22
HETATM   22  O1  UNL     1      27.488  82.198  38.655  1.00  0.00    -0.395 OA
ATOM     23  H1  UNL     1      27.644  82.973  38.128  1.00  0.00     0.210 HD
ENDBRANCH  21  22
BRANCH  21  24
HETATM   24  C9  UNL     1      26.091  81.918  36.777  1.00  0.00     0.145 C 
BRANCH  24  25
HETATM   25  C10 UNL     1      26.287  83.401  36.963  1.00  0.00     0.175 C 
HETATM   26  O2  UNL     1      27.268  83.922  36.370  1.00  0.00    -0.648 OA
HETATM   27  O3  UNL     1      25.470  84.181  37.728  1.00  0.00    -0.648 OA
ENDBRANCH  24  25
ENDBRANCH  21  24
ENDBRANCH   7  21
TORSDOF 7
ENDMDL
MODEL 4
REMARK VINA RESULT: -6.701078370      7.390     10.855
REMARK  7 active torsions:
REMARK  status: ('A' for Active; 'I' for Inactive)
REMARK    1  A    between atoms: C7_7  and  C8_8 
REMARK    2  A    between atoms: C8_8  and  O1_9 
REMARK    3  A    between atoms: C8_8  and  C9_11 
REMARK    4  A    between atoms: C9_11  and  C10_12 
REMARK    5  A    between atoms: C14_19  and  O5_20 
REMARK    6  A    between atoms: O5_20  and  C15_21 
REMARK    7  A    between atoms: C15_21  and  C16_23 
ROOT
HETATM    1  C1  UNL     1      23.508  81.686  37.682  1.00  0.00     0.016 C 
HETATM    2  C2  UNL     1      23.736  82.046  39.106  1.00  0.00    -0.032 C 
HETATM    3  C3  UNL     1      23.284  83.510  39.270  1.00  0.00     0.010 C 
HETATM    4  C4  UNL     1      21.875  82.873  39.142  1.00  0.00     0.006 C 
HETATM    5  C5  UNL     1      22.514  81.821  40.011  1.00  0.00    -0.005 C 
HETATM    6  C6  UNL     1      22.092  80.445  40.065  1.00  0.00     0.015 C 
HETATM    7  C7  UNL     1      23.226  79.464  40.106  1.00  0.00     0.047 C 
HETATM    8  C11 UNL     1      24.368  79.740  40.972  1.00  0.00     0.158 C 
HETATM    9  O4  UNL     1      25.553  79.407  40.248  1.00  0.00    -0.382 OA
HETATM   10  C12 UNL     1      25.673  80.454  39.290  1.00  0.00     0.176 C 
HETATM   11  C13 UNL     1      24.935  81.636  39.814  1.00  0.00     0.050 C 
HETATM   12  C14 UNL     1      24.766  81.152  41.237  1.00  0.00     0.168 C 
ENDROOT
BRANCH  12  13
HETATM   13  O5  UNL     1      26.119  81.077  41.737  1.00  0.00    -0.313 OA
BRANCH  13  14
HETATM   14  C15 UNL     1      26.367  80.822  43.068  1.00  0.00     0.263 C 
HETATM   15  O6  UNL     1      27.400  80.217  43.402  1.00  0.00    -0.265 OA
BRANCH  14  16
HETATM   16  C16 UNL     1      25.411  81.264  44.087  1.00  0.00     0.085 C 
HETATM   17  C17 UNL     1      25.557  80.331  45.298  1.00  0.00     0.014 C 
HETATM   18  C18 UNL     1      25.121  81.154  46.467  1.00  0.00     0.001 C 
HETATM   19  C19 UNL     1      25.034  82.578  46.001  1.00  0.00     0.001 C 
HETATM   20  C20 UNL     1      25.822  82.587  44.717  1.00  0.00     0.014 C 
ENDBRANCH  14  16
ENDBRANCH  13  14
ENDBRANCH  12  13
BRANCH   7  21
HETATM   21  C8  UNL     1      22.739  78.043  40.410  1.00  0.00     0.134 C 
BRANCH  21  22
HETATM   22  O1  UNL     1      23.472  77.108  39.686  1.00  0.00    -0.395 OA
ATOM     23  H1  UNL     1      22.898  76.447  39.315  1.00  0.00     0.210 HD
ENDBRANCH  21  22
BRANCH  21  24
HETATM   24  C9  UNL     1      21.285  77.840  40.173  1.00  0.00     0.145 C 
BRANCH  24  25
HETATM   25  C10 UNL     1      20.771  77.065  41.359  1.00  0.00     0.175 C 
HETATM   26  O2  UNL     1      21.525  76.169  41.822  1.00  0.00    -0.648 OA
HETATM   27  O3  UNL     1      19.554  77.287  41.937  1.00  0.00    -0.648 OA
ENDBRANCH  24  25
ENDBRANCH  21  24
ENDBRANCH   7  21
TORSDOF 7
ENDMDL
MODEL 5
REMARK VINA RESULT: -6.642599974      7.281     10.729
REMARK  7 active torsions:
REMARK  status: ('A' for Active; 'I' for Inactive)
REMARK    1  A    between atoms: C7_7  and  C8_8 
REMARK    2  A    between atoms: C8_8  and  O1_9 
REMARK    3  A    between atoms: C8_8  and  C9_11 
REMARK    4  A    between atoms: C9_11  and  C10_12 
REMARK    5  A    between atoms: C14_19  and  O5_20 
REMARK    6  A    between atoms: O5_20  and  C15_21 
REMARK    7  A    between atoms: C15_21  and  C16_23 
ROOT
HETATM    1  C1  UNL     1      23.630  81.686  37.883  1.00  0.00     0.016 C 
HETATM    2  C2  UNL     1      23.711  81.989  39.336  1.00  0.00    -0.032 C 
HETATM    3  C3  UNL     1      23.002  83.340  39.546  1.00  0.00     0.010 C 
HETATM    4  C4  UNL     1      21.735  82.480  39.292  1.00  0.00     0.006 C 
HETATM    5  C5  UNL     1      22.499  81.501  40.145  1.00  0.00    -0.005 C 
HETATM    6  C6  UNL     1      22.322  80.072  40.099  1.00  0.00     0.015 C 
HETATM    7  C7  UNL     1      23.606  79.300  40.163  1.00  0.00     0.047 C 
HETATM    8  C11 UNL     1      24.633  79.712  41.116  1.00  0.00     0.158 C 
HETATM    9  O4  UNL     1      25.896  79.635  40.455  1.00  0.00    -0.382 OA
HETATM   10  C12 UNL     1      25.884  80.745  39.564  1.00  0.00     0.176 C 
HETATM   11  C13 UNL     1      24.923  81.747  40.099  1.00  0.00     0.050 C 
HETATM   12  C14 UNL     1      24.761  81.153  41.480  1.00  0.00     0.168 C 
ENDROOT
BRANCH  12  13
HETATM   13  O5  UNL     1      26.076  81.279  42.064  1.00  0.00    -0.313 OA
BRANCH  13  14
HETATM   14  C15 UNL     1      26.301  80.942  43.380  1.00  0.00     0.263 C 
HETATM   15  O6  UNL     1      27.338  80.336  43.697  1.00  0.00    -0.265 OA
BRANCH  14  16
HETATM   16  C16 UNL     1      25.314  81.297  44.404  1.00  0.00     0.085 C 
HETATM   17  C17 UNL     1      25.542  80.374  45.610  1.00  0.00     0.014 C 
HETATM   18  C18 UNL     1      25.041  81.153  46.784  1.00  0.00     0.001 C 
HETATM   19  C19 UNL     1      24.833  82.566  46.325  1.00  0.00     0.001 C 
HETATM   20  C20 UNL     1      25.613  82.647  45.038  1.00  0.00     0.014 C 
ENDBRANCH  14  16
ENDBRANCH  13  14
ENDBRANCH  12  13
BRANCH   7  21
HETATM   21  C8  UNL     1      23.360  77.800  40.359  1.00  0.00     0.134 C 
BRANCH  21  22
HETATM   22  O1  UNL     1      24.242  77.276  41.299  1.00  0.00    -0.395 OA
ATOM     23  H1  UNL     1      25.032  76.960  40.877  1.00  0.00     0.210 HD
ENDBRANCH  21  22
BRANCH  21  24
HETATM   24  C9  UNL     1      23.429  77.008  39.102  1.00  0.00     0.145 C 
BRANCH  24  25
HETATM   25  C10 UNL     1      24.693  76.192  39.190  1.00  0.00     0.175 C 
HETATM   26  O2  UNL     1      24.567  74.983  39.520  1.00  0.00    -0.648 OA
HETATM   27  O3  UNL     1      25.936  76.694  38.935  1.00  0.00    -0.648 OA
ENDBRANCH  24  25
ENDBRANCH  21  24
ENDBRANCH   7  21
TORSDOF 7
ENDMDL
