MODEL 1
REMARK VINA RESULT: -6.971717406      0.000      0.000
REMARK  3 active torsions:
REMARK  status: ('A' for Active; 'I' for Inactive)
REMARK    1  A    between atoms: N1_4  and  C4_5 
REMARK    2  A    between atoms: C4_5  and  C5_6 
REMARK    3  A    between atoms: C6_11  and  C7_12 
ROOT
HETATM    1  C5  UNL     1      53.636  41.650  87.264  1.00  0.00     0.168 A 
HETATM    2  N2  UNL     1      53.535  41.202  86.013  1.00  0.00    -0.280 N 
ATOM      3  H2  UNL     1      54.042  40.398  85.643  1.00  0.00     0.189 HD
HETATM    4  N3  UNL     1      52.685  41.945  85.316  1.00  0.00    -0.281 N 
ATOM      5  H3  UNL     1      52.412  41.836  84.339  1.00  0.00     0.189 HD
HETATM    6  C6  UNL     1      52.260  42.885  86.202  1.00  0.00     0.144 A 
HETATM    7  O1  UNL     1      52.835  42.688  87.339  1.00  0.00    -0.280 OA
ENDROOT
BRANCH   6   8
HETATM    8  C7  UNL     1      51.290  43.964  85.904  1.00  0.00     0.065 C 
HETATM    9  C8  UNL     1      52.056  45.283  86.074  1.00  0.00     0.040 C 
HETATM   10  C9  UNL     1      51.054  46.375  85.731  1.00  0.00     0.233 C 
HETATM   11  N4  UNL     1      50.072  46.459  86.768  1.00  0.00    -0.075 N 
HETATM   12  C10 UNL     1      50.060  45.302  87.638  1.00  0.00     0.233 C 
ATOM     13  H42 UNL     1      50.187  47.317  87.308  1.00  0.00     0.277 HD
ATOM     14  H41 UNL     1      49.146  46.629  86.378  1.00  0.00     0.277 HD
HETATM   15  C11 UNL     1      50.152  44.006  86.888  1.00  0.00     0.040 C 
ENDBRANCH   6   8
BRANCH   1  16
HETATM   16  C4  UNL     1      54.435  41.178  88.414  1.00  0.00     0.358 C 
BRANCH  16  17
HETATM   17  N1  UNL     1      53.890  41.535  89.682  1.00  0.00     0.096 N 
HETATM   18  C3  UNL     1      54.793  42.290  90.493  1.00  0.00     0.273 C 
HETATM   19  C2  UNL     1      55.161  41.646  91.787  1.00  0.00     0.030 C 
HETATM   20  C1  UNL     1      54.010  41.100  92.561  1.00  0.00     0.003 C 
HETATM   21  C13 UNL     1      52.890  40.572  91.702  1.00  0.00     0.030 C 
HETATM   22  C12 UNL     1      53.445  40.309  90.323  1.00  0.00     0.273 C 
ENDBRANCH  16  17
ENDBRANCH   1  16
TORSDOF 3
ENDMDL
MODEL 2
REMARK VINA RESULT: -6.879520208      2.250      5.870
REMARK  3 active torsions:
REMARK  status: ('A' for Active; 'I' for Inactive)
REMARK    1  A    between atoms: N1_4  and  C4_5 
REMARK    2  A    between atoms: C4_5  and  C5_6 
REMARK    3  A    between atoms: C6_11  and  C7_12 
ROOT
HETATM    1  C5  UNL     1      50.659  42.414  89.659  1.00  0.00     0.168 A 
HETATM    2  N2  UNL     1      50.604  41.120  89.972  1.00  0.00    -0.280 N 
ATOM      3  H2  UNL     1      49.744  40.607  90.169  1.00  0.00     0.189 HD
HETATM    4  N3  UNL     1      51.821  40.590  89.994  1.00  0.00    -0.281 N 
ATOM      5  H3  UNL     1      52.081  39.626  90.201  1.00  0.00     0.189 HD
HETATM    6  C6  UNL     1      52.640  41.629  89.678  1.00  0.00     0.144 A 
HETATM    7  O1  UNL     1      51.931  42.687  89.486  1.00  0.00    -0.280 OA
ENDROOT
BRANCH   6   8
HETATM    8  C7  UNL     1      54.116  41.550  89.571  1.00  0.00     0.065 C 
HETATM    9  C8  UNL     1      54.651  42.892  90.087  1.00  0.00     0.040 C 
HETATM   10  C9  UNL     1      56.165  42.779  90.002  1.00  0.00     0.233 C 
HETATM   11  N4  UNL     1      56.565  42.802  88.629  1.00  0.00    -0.075 N 
HETATM   12  C10 UNL     1      55.472  42.557  87.712  1.00  0.00     0.233 C 
ATOM     13  H42 UNL     1      57.038  43.677  88.403  1.00  0.00     0.277 HD
ATOM     14  H41 UNL     1      57.331  42.150  88.463  1.00  0.00     0.277 HD
HETATM   15  C11 UNL     1      54.587  41.427  88.146  1.00  0.00     0.040 C 
ENDBRANCH   6   8
BRANCH   1  16
HETATM   16  C4  UNL     1      49.599  43.432  89.506  1.00  0.00     0.358 C 
BRANCH  16  17
HETATM   17  N1  UNL     1      49.606  44.088  88.241  1.00  0.00     0.096 N 
HETATM   18  C3  UNL     1      49.748  43.189  87.139  1.00  0.00     0.273 C 
HETATM   19  C2  UNL     1      50.965  43.411  86.303  1.00  0.00     0.030 C 
HETATM   20  C1  UNL     1      51.210  44.831  85.923  1.00  0.00     0.003 C 
HETATM   21  C13 UNL     1      50.770  45.827  86.965  1.00  0.00     0.030 C 
HETATM   22  C12 UNL     1      50.647  45.101  88.283  1.00  0.00     0.273 C 
ENDBRANCH  16  17
ENDBRANCH   1  16
TORSDOF 3
ENDMDL
MODEL 3
REMARK VINA RESULT: -6.680879143      1.244      5.308
REMARK  3 active torsions:
REMARK  status: ('A' for Active; 'I' for Inactive)
REMARK    1  A    between atoms: N1_4  and  C4_5 
REMARK    2  A    between atoms: C4_5  and  C5_6 
REMARK    3  A    between atoms: C6_11  and  C7_12 
ROOT
HETATM    1  C5  UNL     1      52.269  42.859  86.152  1.00  0.00     0.168 A 
HETATM    2  N2  UNL     1      52.750  41.851  85.424  1.00  0.00    -0.280 N 
ATOM      3  H2  UNL     1      52.569  41.717  84.428  1.00  0.00     0.189 HD
HETATM    4  N3  UNL     1      53.495  41.046  86.170  1.00  0.00    -0.281 N 
ATOM      5  H3  UNL     1      53.987  40.200  85.882  1.00  0.00     0.189 HD
HETATM    6  C6  UNL     1      53.453  41.607  87.409  1.00  0.00     0.144 A 
HETATM    7  O1  UNL     1      52.726  42.671  87.368  1.00  0.00    -0.280 OA
ENDROOT
BRANCH   6   8
HETATM    8  C7  UNL     1      54.136  41.076  88.611  1.00  0.00     0.065 C 
HETATM    9  C8  UNL     1      53.036  40.841  89.655  1.00  0.00     0.040 C 
HETATM   10  C9  UNL     1      53.751  40.265  90.867  1.00  0.00     0.233 C 
HETATM   11  N4  UNL     1      54.538  41.290  91.483  1.00  0.00    -0.075 N 
HETATM   12  C10 UNL     1      54.744  42.441  90.631  1.00  0.00     0.233 C 
ATOM     13  H42 UNL     1      54.136  41.568  92.378  1.00  0.00     0.277 HD
ATOM     14  H41 UNL     1      55.429  40.915  91.809  1.00  0.00     0.277 HD
HETATM   15  C11 UNL     1      55.091  42.069  89.219  1.00  0.00     0.040 C 
ENDBRANCH   6   8
BRANCH   1  16
HETATM   16  C4  UNL     1      51.404  44.001  85.794  1.00  0.00     0.358 C 
BRANCH  16  17
HETATM   17  N1  UNL     1      50.337  44.227  86.711  1.00  0.00     0.096 N 
HETATM   18  C3  UNL     1      50.695  45.088  87.795  1.00  0.00     0.273 C 
HETATM   19  C2  UNL     1      50.593  44.468  89.148  1.00  0.00     0.030 C 
HETATM   20  C1  UNL     1      49.326  43.724  89.399  1.00  0.00     0.003 C 
HETATM   21  C13 UNL     1      48.757  43.055  88.174  1.00  0.00     0.030 C 
HETATM   22  C12 UNL     1      49.864  42.926  87.155  1.00  0.00     0.273 C 
ENDBRANCH  16  17
ENDBRANCH   1  16
TORSDOF 3
ENDMDL
MODEL 4
REMARK VINA RESULT: -6.666155286      2.294      3.423
REMARK  3 active torsions:
REMARK  status: ('A' for Active; 'I' for Inactive)
REMARK    1  A    between atoms: N1_4  and  C4_5 
REMARK    2  A    between atoms: C4_5  and  C5_6 
REMARK    3  A    between atoms: C6_11  and  C7_12 
ROOT
HETATM    1  C5  UNL     1      54.106  44.553  88.942  1.00  0.00     0.168 A 
HETATM    2  N2  UNL     1      53.893  45.805  89.345  1.00  0.00    -0.280 N 
ATOM      3  H2  UNL     1      54.627  46.458  89.622  1.00  0.00     0.189 HD
HETATM    4  N3  UNL     1      52.596  46.087  89.338  1.00  0.00    -0.281 N 
ATOM      5  H3  UNL     1      52.143  46.963  89.597  1.00  0.00     0.189 HD
HETATM    6  C6  UNL     1      52.009  44.937  88.908  1.00  0.00     0.144 A 
HETATM    7  O1  UNL     1      52.920  44.054  88.682  1.00  0.00    -0.280 OA
ENDROOT
BRANCH   6   8
HETATM    8  C7  UNL     1      50.552  44.737  88.728  1.00  0.00     0.065 C 
HETATM    9  C8  UNL     1      50.210  43.430  89.456  1.00  0.00     0.040 C 
HETATM   10  C9  UNL     1      48.709  43.261  89.290  1.00  0.00     0.233 C 
HETATM   11  N4  UNL     1      48.417  42.934  87.928  1.00  0.00    -0.075 N 
HETATM   12  C10 UNL     1      49.517  43.205  87.027  1.00  0.00     0.233 C 
ATOM     13  H42 UNL     1      48.112  41.964  87.845  1.00  0.00     0.277 HD
ATOM     14  H41 UNL     1      47.568  43.404  87.615  1.00  0.00     0.277 HD
HETATM   15  C11 UNL     1      50.171  44.531  87.286  1.00  0.00     0.040 C 
ENDBRANCH   6   8
BRANCH   1  16
HETATM   16  C4  UNL     1      55.351  43.774  88.776  1.00  0.00     0.358 C 
BRANCH  16  17
HETATM   17  N1  UNL     1      55.302  42.476  89.361  1.00  0.00     0.096 N 
HETATM   18  C3  UNL     1      54.715  41.492  88.505  1.00  0.00     0.273 C 
HETATM   19  C2  UNL     1      53.481  40.849  89.044  1.00  0.00     0.030 C 
HETATM   20  C1  UNL     1      53.582  40.394  90.460  1.00  0.00     0.003 C 
HETATM   21  C13 UNL     1      54.465  41.262  91.319  1.00  0.00     0.030 C 
HETATM   22  C12 UNL     1      54.614  42.599  90.636  1.00  0.00     0.273 C 
ENDBRANCH  16  17
ENDBRANCH   1  16
TORSDOF 3
ENDMDL
MODEL 5
REMARK VINA RESULT: -6.385763093      2.202      2.781
REMARK  3 active torsions:
REMARK  status: ('A' for Active; 'I' for Inactive)
REMARK    1  A    between atoms: N1_4  and  C4_5 
REMARK    2  A    between atoms: C4_5  and  C5_6 
REMARK    3  A    between atoms: C6_11  and  C7_12 
ROOT
HETATM    1  C5  UNL     1      50.526  42.327  89.174  1.00  0.00     0.168 A 
HETATM    2  N2  UNL     1      49.204  42.454  89.059  1.00  0.00    -0.280 N 
ATOM      3  H2  UNL     1      48.523  41.784  89.419  1.00  0.00     0.189 HD
HETATM    4  N3  UNL     1      48.894  43.570  88.411  1.00  0.00    -0.281 N 
ATOM      5  H3  UNL     1      47.966  43.924  88.179  1.00  0.00     0.189 HD
HETATM    6  C6  UNL     1      50.099  44.134  88.126  1.00  0.00     0.144 A 
HETATM    7  O1  UNL     1      51.040  43.383  88.587  1.00  0.00    -0.280 OA
ENDROOT
BRANCH   6   8
HETATM    8  C7  UNL     1      50.294  45.412  87.402  1.00  0.00     0.065 C 
HETATM    9  C8  UNL     1      51.053  45.058  86.115  1.00  0.00     0.040 C 
HETATM   10  C9  UNL     1      51.213  46.373  85.370  1.00  0.00     0.233 C 
HETATM   11  N4  UNL     1      52.158  47.197  86.062  1.00  0.00    -0.075 N 
HETATM   12  C10 UNL     1      52.417  46.754  87.415  1.00  0.00     0.233 C 
ATOM     13  H42 UNL     1      53.026  47.275  85.533  1.00  0.00     0.277 HD
ATOM     14  H41 UNL     1      51.865  48.173  86.050  1.00  0.00     0.277 HD
HETATM   15  C11 UNL     1      51.169  46.376  88.157  1.00  0.00     0.040 C 
ENDBRANCH   6   8
BRANCH   1  16
HETATM   16  C4  UNL     1      51.359  41.280  89.800  1.00  0.00     0.358 C 
BRANCH  16  17
HETATM   17  N1  UNL     1      52.387  41.789  90.646  1.00  0.00     0.096 N 
HETATM   18  C3  UNL     1      53.444  42.430  89.927  1.00  0.00     0.273 C 
HETATM   19  C2  UNL     1      54.788  41.806  90.102  1.00  0.00     0.030 C 
HETATM   20  C1  UNL     1      55.155  41.499  91.514  1.00  0.00     0.003 C 
HETATM   21  C13 UNL     1      53.982  41.115  92.380  1.00  0.00     0.030 C 
HETATM   22  C12 UNL     1      52.852  40.689  91.475  1.00  0.00     0.273 C 
ENDBRANCH  16  17
ENDBRANCH   1  16
TORSDOF 3
ENDMDL
