MODEL 1
REMARK VINA RESULT: -6.623713509      0.000      0.000
REMARK  4 active torsions:
REMARK  status: ('A' for Active; 'I' for Inactive)
REMARK    1  A    between atoms: O1_1  and  C1_3 
REMARK    2  A    between atoms: C4_6  and  N1_7 
REMARK    3  A    between atoms: C8_11  and  C9_12 
REMARK    4  A    between atoms: C9_12  and  N2_13 
ROOT
HETATM    1  N1  UNL     1      52.412  43.644  88.687  1.00  0.00     0.093 N 
HETATM    2  C5  UNL     1      51.432  44.596  89.085  1.00  0.00     0.273 C 
HETATM    3  C6  UNL     1      50.041  44.293  88.623  1.00  0.00     0.031 C 
HETATM    4  C7  UNL     1      50.031  44.400  87.104  1.00  0.00     0.010 C 
HETATM    5  C8  UNL     1      51.232  43.717  86.550  1.00  0.00     0.034 C 
HETATM    6  C12 UNL     1      52.002  42.877  87.524  1.00  0.00     0.279 C 
ENDROOT
BRANCH   1   7
HETATM    7  C4  UNL     1      52.948  42.793  89.699  1.00  0.00     0.223 C 
HETATM    8  C3  UNL     1      54.398  42.447  89.512  1.00  0.00     0.038 C 
HETATM    9  C2  UNL     1      54.885  41.989  90.902  1.00  0.00     0.034 C 
HETATM   10  C1  UNL     1      53.949  41.002  91.525  1.00  0.00     0.118 C 
HETATM   11  C14 UNL     1      53.092  40.398  90.445  1.00  0.00     0.034 C 
HETATM   12  C13 UNL     1      52.204  41.473  89.808  1.00  0.00     0.038 C 
BRANCH  10  13
HETATM   13  O1  UNL     1      54.678  39.986  92.133  1.00  0.00    -0.396 OA
ATOM     14  H1  UNL     1      55.485  40.340  92.488  1.00  0.00     0.210 HD
ENDBRANCH  10  13
ENDBRANCH   1   7
BRANCH   5  15
HETATM   15  C9  UNL     1      52.096  44.600  85.683  1.00  0.00     0.156 C 
BRANCH  15  16
HETATM   16  N2  UNL     1      52.274  44.069  84.352  1.00  0.00    -0.286 N 
HETATM   17  C10 UNL     1      51.562  42.985  83.881  1.00  0.00     0.201 A 
HETATM   18  N3  UNL     1      51.932  42.745  82.622  1.00  0.00    -0.346 N 
HETATM   19  C11 UNL     1      52.861  43.634  82.272  1.00  0.00     0.198 A 
ATOM     20  H3  UNL     1      51.564  42.004  82.025  1.00  0.00     0.167 HD
HETATM   21  N4  UNL     1      53.046  44.432  83.352  1.00  0.00    -0.293 N 
ATOM     22  H4  UNL     1      53.700  45.214  83.384  1.00  0.00     0.188 HD
ENDBRANCH  15  16
ENDBRANCH   5  15
TORSDOF 4
ENDMDL
MODEL 2
REMARK VINA RESULT: -6.545894718      1.361      1.644
REMARK  4 active torsions:
REMARK  status: ('A' for Active; 'I' for Inactive)
REMARK    1  A    between atoms: O1_1  and  C1_3 
REMARK    2  A    between atoms: C4_6  and  N1_7 
REMARK    3  A    between atoms: C8_11  and  C9_12 
REMARK    4  A    between atoms: C9_12  and  N2_13 
ROOT
HETATM    1  N1  UNL     1      53.477  43.884  88.655  1.00  0.00     0.093 N 
HETATM    2  C5  UNL     1      53.734  45.174  89.197  1.00  0.00     0.273 C 
HETATM    3  C6  UNL     1      52.579  46.123  89.131  1.00  0.00     0.031 C 
HETATM    4  C7  UNL     1      52.311  46.413  87.660  1.00  0.00     0.010 C 
HETATM    5  C8  UNL     1      52.357  45.142  86.887  1.00  0.00     0.034 C 
HETATM    6  C12 UNL     1      52.377  43.888  87.708  1.00  0.00     0.279 C 
ENDROOT
BRANCH   1   7
HETATM    7  C4  UNL     1      53.359  42.798  89.573  1.00  0.00     0.223 C 
HETATM    8  C3  UNL     1      54.668  42.315  90.131  1.00  0.00     0.038 C 
HETATM    9  C2  UNL     1      54.299  41.548  91.417  1.00  0.00     0.034 C 
HETATM   10  C1  UNL     1      53.175  40.586  91.191  1.00  0.00     0.118 C 
HETATM   11  C14 UNL     1      53.065  40.307  89.716  1.00  0.00     0.034 C 
HETATM   12  C13 UNL     1      52.681  41.585  88.960  1.00  0.00     0.038 C 
BRANCH  10  13
HETATM   13  O1  UNL     1      53.442  39.391  91.850  1.00  0.00    -0.396 OA
ATOM     14  H1  UNL     1      52.640  38.890  91.942  1.00  0.00     0.210 HD
ENDBRANCH  10  13
ENDBRANCH   1   7
BRANCH   5  15
HETATM   15  C9  UNL     1      53.353  45.149  85.753  1.00  0.00     0.156 C 
BRANCH  15  16
HETATM   16  N2  UNL     1      53.002  44.226  84.699  1.00  0.00    -0.286 N 
HETATM   17  C10 UNL     1      53.911  43.351  84.141  1.00  0.00     0.201 A 
HETATM   18  N3  UNL     1      53.288  42.622  83.213  1.00  0.00    -0.346 N 
HETATM   19  C11 UNL     1      52.014  43.005  83.152  1.00  0.00     0.198 A 
ATOM     20  H3  UNL     1      53.718  41.892  82.643  1.00  0.00     0.167 HD
HETATM   21  N4  UNL     1      51.870  43.986  84.076  1.00  0.00    -0.293 N 
ATOM     22  H4  UNL     1      50.994  44.475  84.263  1.00  0.00     0.188 HD
ENDBRANCH  15  16
ENDBRANCH   5  15
TORSDOF 4
ENDMDL
MODEL 3
REMARK VINA RESULT: -6.532662623      3.459      6.798
REMARK  4 active torsions:
REMARK  status: ('A' for Active; 'I' for Inactive)
REMARK    1  A    between atoms: O1_1  and  C1_3 
REMARK    2  A    between atoms: C4_6  and  N1_7 
REMARK    3  A    between atoms: C8_11  and  C9_12 
REMARK    4  A    between atoms: C9_12  and  N2_13 
ROOT
HETATM    1  N1  UNL     1      51.258  43.796  87.020  1.00  0.00     0.093 N 
HETATM    2  C5  UNL     1      49.966  43.203  87.068  1.00  0.00     0.273 C 
HETATM    3  C6  UNL     1      49.224  43.417  88.350  1.00  0.00     0.031 C 
HETATM    4  C7  UNL     1      49.984  42.680  89.445  1.00  0.00     0.010 C 
HETATM    5  C8  UNL     1      51.443  42.944  89.301  1.00  0.00     0.034 C 
HETATM    6  C12 UNL     1      51.808  44.036  88.342  1.00  0.00     0.279 C 
ENDROOT
BRANCH   1   7
HETATM    7  C4  UNL     1      51.425  44.937  86.181  1.00  0.00     0.223 C 
HETATM    8  C3  UNL     1      52.786  45.050  85.553  1.00  0.00     0.038 C 
HETATM    9  C2  UNL     1      52.597  45.993  84.348  1.00  0.00     0.034 C 
HETATM   10  C1  UNL     1      51.833  47.226  84.717  1.00  0.00     0.118 C 
HETATM   11  C14 UNL     1      51.895  47.405  86.210  1.00  0.00     0.034 C 
HETATM   12  C13 UNL     1      51.183  46.245  86.915  1.00  0.00     0.038 C 
BRANCH  10  13
HETATM   13  O1  UNL     1      52.413  48.335  84.112  1.00  0.00    -0.396 OA
ATOM     14  H1  UNL     1      51.753  49.001  83.965  1.00  0.00     0.210 HD
ENDBRANCH  10  13
ENDBRANCH   1   7
BRANCH   5  15
HETATM   15  C9  UNL     1      52.281  41.697  89.161  1.00  0.00     0.156 C 
BRANCH  15  16
HETATM   16  N2  UNL     1      52.943  41.332  90.391  1.00  0.00    -0.286 N 
HETATM   17  C10 UNL     1      54.132  41.903  90.796  1.00  0.00     0.201 A 
HETATM   18  N3  UNL     1      54.481  41.377  91.971  1.00  0.00    -0.346 N 
HETATM   19  C11 UNL     1      53.561  40.483  92.330  1.00  0.00     0.198 A 
ATOM     20  H3  UNL     1      55.315  41.620  92.506  1.00  0.00     0.167 HD
HETATM   21  N4  UNL     1      52.632  40.481  91.344  1.00  0.00    -0.293 N 
ATOM     22  H4  UNL     1      51.797  39.894  91.341  1.00  0.00     0.188 HD
ENDBRANCH  15  16
ENDBRANCH   5  15
TORSDOF 4
ENDMDL
MODEL 4
REMARK VINA RESULT: -6.511988409      4.010      6.246
REMARK  4 active torsions:
REMARK  status: ('A' for Active; 'I' for Inactive)
REMARK    1  A    between atoms: O1_1  and  C1_3 
REMARK    2  A    between atoms: C4_6  and  N1_7 
REMARK    3  A    between atoms: C8_11  and  C9_12 
REMARK    4  A    between atoms: C9_12  and  N2_13 
ROOT
HETATM    1  N1  UNL     1      53.545  43.504  88.470  1.00  0.00     0.093 N 
HETATM    2  C5  UNL     1      54.150  42.224  88.604  1.00  0.00     0.273 C 
HETATM    3  C6  UNL     1      54.893  42.013  89.886  1.00  0.00     0.031 C 
HETATM    4  C7  UNL     1      56.085  42.960  89.883  1.00  0.00     0.010 C 
HETATM    5  C8  UNL     1      55.650  44.304  89.413  1.00  0.00     0.034 C 
HETATM    6  C12 UNL     1      54.169  44.505  89.317  1.00  0.00     0.279 C 
ENDROOT
BRANCH   1   7
HETATM    7  C4  UNL     1      52.123  43.570  88.560  1.00  0.00     0.223 C 
HETATM    8  C3  UNL     1      51.476  42.313  89.070  1.00  0.00     0.038 C 
HETATM    9  C2  UNL     1      50.081  42.749  89.563  1.00  0.00     0.034 C 
HETATM   10  C1  UNL     1      49.376  43.606  88.559  1.00  0.00     0.118 C 
HETATM   11  C14 UNL     1      50.010  43.395  87.211  1.00  0.00     0.034 C 
HETATM   12  C13 UNL     1      51.465  43.879  87.226  1.00  0.00     0.038 C 
BRANCH  10  13
HETATM   13  O1  UNL     1      48.039  43.234  88.484  1.00  0.00    -0.396 OA
ATOM     14  H1  UNL     1      47.947  42.489  87.901  1.00  0.00     0.210 HD
ENDBRANCH  10  13
ENDBRANCH   1   7
BRANCH   5  15
HETATM   15  C9  UNL     1      56.418  44.815  88.218  1.00  0.00     0.156 C 
BRANCH  15  16
HETATM   16  N2  UNL     1      57.713  45.346  88.575  1.00  0.00    -0.286 N 
HETATM   17  C10 UNL     1      57.895  46.648  88.992  1.00  0.00     0.201 A 
HETATM   18  N3  UNL     1      59.187  46.834  89.264  1.00  0.00    -0.346 N 
HETATM   19  C11 UNL     1      59.841  45.697  89.028  1.00  0.00     0.198 A 
ATOM     20  H3  UNL     1      59.607  47.702  89.597  1.00  0.00     0.167 HD
HETATM   21  N4  UNL     1      58.910  44.805  88.610  1.00  0.00    -0.293 N 
ATOM     22  H4  UNL     1      59.113  43.838  88.356  1.00  0.00     0.188 HD
ENDBRANCH  15  16
ENDBRANCH   5  15
TORSDOF 4
ENDMDL
MODEL 5
REMARK VINA RESULT: -6.497533846      3.709      5.290
REMARK  4 active torsions:
REMARK  status: ('A' for Active; 'I' for Inactive)
REMARK    1  A    between atoms: O1_1  and  C1_3 
REMARK    2  A    between atoms: C4_6  and  N1_7 
REMARK    3  A    between atoms: C8_11  and  C9_12 
REMARK    4  A    between atoms: C9_12  and  N2_13 
ROOT
HETATM    1  N1  UNL     1      54.527  43.396  89.150  1.00  0.00     0.093 N 
HETATM    2  C5  UNL     1      54.399  42.500  90.247  1.00  0.00     0.273 C 
HETATM    3  C6  UNL     1      53.787  41.177  89.908  1.00  0.00     0.031 C 
HETATM    4  C7  UNL     1      52.343  41.434  89.499  1.00  0.00     0.010 C 
HETATM    5  C8  UNL     1      52.286  42.608  88.586  1.00  0.00     0.034 C 
HETATM    6  C12 UNL     1      53.608  43.087  88.069  1.00  0.00     0.279 C 
ENDROOT
BRANCH   1   7
HETATM    7  C4  UNL     1      55.841  43.639  88.652  1.00  0.00     0.223 C 
HETATM    8  C3  UNL     1      56.929  42.916  89.396  1.00  0.00     0.038 C 
HETATM    9  C2  UNL     1      58.131  42.894  88.431  1.00  0.00     0.034 C 
HETATM   10  C1  UNL     1      58.394  44.241  87.834  1.00  0.00     0.118 C 
HETATM   11  C14 UNL     1      57.737  45.288  88.693  1.00  0.00     0.034 C 
HETATM   12  C13 UNL     1      56.214  45.112  88.674  1.00  0.00     0.038 C 
BRANCH  10  13
HETATM   13  O1  UNL     1      59.763  44.483  87.809  1.00  0.00    -0.396 OA
ATOM     14  H1  UNL     1      60.233  43.658  87.777  1.00  0.00     0.210 HD
ENDBRANCH  10  13
ENDBRANCH   1   7
BRANCH   5  15
HETATM   15  C9  UNL     1      51.376  43.713  89.064  1.00  0.00     0.156 C 
BRANCH  15  16
HETATM   16  N2  UNL     1      49.978  43.374  88.941  1.00  0.00    -0.286 N 
HETATM   17  C10 UNL     1      49.437  42.850  87.785  1.00  0.00     0.201 A 
HETATM   18  N3  UNL     1      48.137  42.626  87.984  1.00  0.00    -0.346 N 
HETATM   19  C11 UNL     1      47.825  42.996  89.226  1.00  0.00     0.198 A 
ATOM     20  H3  UNL     1      47.489  42.237  87.299  1.00  0.00     0.167 HD
HETATM   21  N4  UNL     1      48.973  43.447  89.786  1.00  0.00    -0.293 N 
ATOM     22  H4  UNL     1      49.049  43.797  90.741  1.00  0.00     0.188 HD
ENDBRANCH  15  16
ENDBRANCH   5  15
TORSDOF 4
ENDMDL
