MODEL 1
REMARK VINA RESULT: -6.310259260      0.000      0.000
REMARK  4 active torsions:
REMARK  status: ('A' for Active; 'I' for Inactive)
REMARK    1  A    between atoms: C2_2  and  C4_4 
REMARK    2  A    between atoms: C4_4  and  O1_11 
REMARK    3  A    between atoms: N1_5  and  N2_7 
REMARK    4  A    between atoms: O1_11  and  C7_12 
ROOT
HETATM    1  N2  UNL     1      53.793  41.618  90.690  1.00  0.00    -0.231 N 
HETATM    2  C5  UNL     1      55.014  42.337  91.041  1.00  0.00     0.191 C 
HETATM    3  C6  UNL     1      53.571  40.369  91.286  1.00  0.00     0.200 C 
HETATM    4  N3  UNL     1      53.372  39.339  91.787  1.00  0.00    -0.170 NA
ENDROOT
BRANCH   1   5
HETATM    5  N1  UNL     1      52.856  42.154  89.779  1.00  0.00    -0.272 N 
HETATM    6  C4  UNL     1      53.085  42.055  88.517  1.00  0.00     0.137 C 
ATOM      7  H1  UNL     1      52.011  42.614  90.117  1.00  0.00     0.189 HD
BRANCH   6   8
HETATM    8  C2  UNL     1      54.306  41.392  87.977  1.00  0.00     0.054 C 
HETATM    9  C1  UNL     1      55.389  42.366  87.663  1.00  0.00     0.018 C 
HETATM   10  C3  UNL     1      53.960  40.649  86.701  1.00  0.00     0.018 C 
ENDBRANCH   6   8
BRANCH   6  11
HETATM   11  O1  UNL     1      52.125  42.602  87.696  1.00  0.00    -0.332 OA
BRANCH  11  12
HETATM   12  C7  UNL     1      51.859  43.946  87.640  1.00  0.00     0.134 C 
HETATM   13  C8  UNL     1      52.853  44.848  87.004  1.00  0.00     0.065 C 
HETATM   14  C9  UNL     1      52.562  46.269  87.509  1.00  0.00     0.189 C 
HETATM   15  C10 UNL     1      52.180  47.194  86.346  1.00  0.00     0.035 C 
HETATM   16  N4  UNL     1      51.288  46.302  88.245  1.00  0.00    -0.067 N 
HETATM   17  C11 UNL     1      50.844  46.545  85.958  1.00  0.00     0.035 C 
HETATM   18  C12 UNL     1      50.375  45.818  87.200  1.00  0.00     0.189 C 
HETATM   19  C13 UNL     1      50.502  44.296  87.043  1.00  0.00     0.065 C 
ATOM     20  H42 UNL     1      51.270  45.785  89.125  1.00  0.00     0.278 HD
ATOM     21  H41 UNL     1      51.044  47.197  88.669  1.00  0.00     0.278 HD
ENDBRANCH  11  12
ENDBRANCH   6  11
ENDBRANCH   1   5
TORSDOF 4
ENDMDL
MODEL 2
REMARK VINA RESULT: -6.268468460      1.757      2.497
REMARK  4 active torsions:
REMARK  status: ('A' for Active; 'I' for Inactive)
REMARK    1  A    between atoms: C2_2  and  C4_4 
REMARK    2  A    between atoms: C4_4  and  O1_11 
REMARK    3  A    between atoms: N1_5  and  N2_7 
REMARK    4  A    between atoms: O1_11  and  C7_12 
ROOT
HETATM    1  N2  UNL     1      54.491  41.867  90.626  1.00  0.00    -0.231 N 
HETATM    2  C5  UNL     1      55.871  42.055  91.063  1.00  0.00     0.191 C 
HETATM    3  C6  UNL     1      53.844  40.676  90.982  1.00  0.00     0.200 C 
HETATM    4  N3  UNL     1      53.297  39.697  91.285  1.00  0.00    -0.170 NA
ENDROOT
BRANCH   1   5
HETATM    5  N1  UNL     1      53.817  42.850  89.868  1.00  0.00    -0.272 N 
HETATM    6  C4  UNL     1      53.959  42.860  88.590  1.00  0.00     0.137 C 
ATOM      7  H1  UNL     1      53.226  43.543  90.329  1.00  0.00     0.189 HD
BRANCH   6   8
HETATM    8  C2  UNL     1      54.812  41.868  87.875  1.00  0.00     0.054 C 
HETATM    9  C1  UNL     1      55.665  42.501  86.830  1.00  0.00     0.018 C 
HETATM   10  C3  UNL     1      53.932  40.835  87.198  1.00  0.00     0.018 C 
ENDBRANCH   6   8
BRANCH   6  11
HETATM   11  O1  UNL     1      53.270  43.848  87.924  1.00  0.00    -0.332 OA
BRANCH  11  12
HETATM   12  C7  UNL     1      51.901  43.939  87.919  1.00  0.00     0.134 C 
HETATM   13  C8  UNL     1      51.103  42.726  87.607  1.00  0.00     0.065 C 
HETATM   14  C9  UNL     1      49.704  43.202  87.185  1.00  0.00     0.189 C 
HETATM   15  C10 UNL     1      48.634  42.673  88.150  1.00  0.00     0.035 C 
HETATM   16  N4  UNL     1      49.550  44.641  87.450  1.00  0.00    -0.067 N 
HETATM   17  C11 UNL     1      49.044  43.455  89.406  1.00  0.00     0.035 C 
HETATM   18  C12 UNL     1      49.800  44.664  88.898  1.00  0.00     0.189 C 
HETATM   19  C13 UNL     1      51.305  44.546  89.182  1.00  0.00     0.065 C 
ATOM     20  H42 UNL     1      50.133  45.261  86.889  1.00  0.00     0.278 HD
ATOM     21  H41 UNL     1      48.670  45.056  87.145  1.00  0.00     0.278 HD
ENDBRANCH  11  12
ENDBRANCH   6  11
ENDBRANCH   1   5
TORSDOF 4
ENDMDL
MODEL 3
REMARK VINA RESULT: -6.167568653      1.994      2.810
REMARK  4 active torsions:
REMARK  status: ('A' for Active; 'I' for Inactive)
REMARK    1  A    between atoms: C2_2  and  C4_4 
REMARK    2  A    between atoms: C4_4  and  O1_11 
REMARK    3  A    between atoms: N1_5  and  N2_7 
REMARK    4  A    between atoms: O1_11  and  C7_12 
ROOT
HETATM    1  N2  UNL     1      55.833  42.783  89.799  1.00  0.00    -0.231 N 
HETATM    2  C5  UNL     1      57.259  42.703  89.501  1.00  0.00     0.191 C 
HETATM    3  C6  UNL     1      55.351  42.074  90.908  1.00  0.00     0.200 C 
HETATM    4  N3  UNL     1      54.947  41.501  91.835  1.00  0.00    -0.170 NA
ENDROOT
BRANCH   1   5
HETATM    5  N1  UNL     1      54.954  43.548  89.000  1.00  0.00    -0.272 N 
HETATM    6  C4  UNL     1      54.344  42.980  88.021  1.00  0.00     0.137 C 
ATOM      7  H1  UNL     1      54.805  44.538  89.198  1.00  0.00     0.189 HD
BRANCH   6   8
HETATM    8  C2  UNL     1      54.531  41.537  87.695  1.00  0.00     0.054 C 
HETATM    9  C1  UNL     1      54.452  41.271  86.231  1.00  0.00     0.018 C 
HETATM   10  C3  UNL     1      53.453  40.717  88.379  1.00  0.00     0.018 C 
ENDBRANCH   6   8
BRANCH   6  11
HETATM   11  O1  UNL     1      53.506  43.793  87.293  1.00  0.00    -0.332 OA
BRANCH  11  12
HETATM   12  C7  UNL     1      52.173  43.947  87.575  1.00  0.00     0.134 C 
HETATM   13  C8  UNL     1      51.206  42.956  87.038  1.00  0.00     0.065 C 
HETATM   14  C9  UNL     1      49.819  43.615  87.067  1.00  0.00     0.189 C 
HETATM   15  C10 UNL     1      48.866  42.839  87.987  1.00  0.00     0.035 C 
HETATM   16  N4  UNL     1      49.868  44.880  87.815  1.00  0.00    -0.067 N 
HETATM   17  C11 UNL     1      49.555  43.121  89.331  1.00  0.00     0.035 C 
HETATM   18  C12 UNL     1      50.348  44.393  89.116  1.00  0.00     0.189 C 
HETATM   19  C13 UNL     1      51.857  44.112  89.056  1.00  0.00     0.065 C 
ATOM     20  H42 UNL     1      50.418  45.627  87.390  1.00  0.00     0.278 HD
ATOM     21  H41 UNL     1      49.001  45.418  87.835  1.00  0.00     0.278 HD
ENDBRANCH  11  12
ENDBRANCH   6  11
ENDBRANCH   1   5
TORSDOF 4
ENDMDL
MODEL 4
REMARK VINA RESULT: -6.069345306      2.907      5.057
REMARK  4 active torsions:
REMARK  status: ('A' for Active; 'I' for Inactive)
REMARK    1  A    between atoms: C2_2  and  C4_4 
REMARK    2  A    between atoms: C4_4  and  O1_11 
REMARK    3  A    between atoms: N1_5  and  N2_7 
REMARK    4  A    between atoms: O1_11  and  C7_12 
ROOT
HETATM    1  N2  UNL     1      51.426  43.499  88.382  1.00  0.00    -0.231 N 
HETATM    2  C5  UNL     1      51.222  43.408  86.940  1.00  0.00     0.191 C 
HETATM    3  C6  UNL     1      50.317  43.308  89.217  1.00  0.00     0.200 C 
HETATM    4  N3  UNL     1      49.405  43.137  89.917  1.00  0.00    -0.170 NA
ENDROOT
BRANCH   1   5
HETATM    5  N1  UNL     1      52.699  43.770  88.931  1.00  0.00    -0.272 N 
HETATM    6  C4  UNL     1      53.471  42.787  89.235  1.00  0.00     0.137 C 
ATOM      7  H1  UNL     1      53.002  44.732  89.085  1.00  0.00     0.189 HD
BRANCH   6   8
HETATM    8  C2  UNL     1      53.071  41.366  89.029  1.00  0.00     0.054 C 
HETATM    9  C1  UNL     1      53.441  40.498  90.182  1.00  0.00     0.018 C 
HETATM   10  C3  UNL     1      53.758  40.818  87.792  1.00  0.00     0.018 C 
ENDBRANCH   6   8
BRANCH   6  11
HETATM   11  O1  UNL     1      54.692  43.134  89.765  1.00  0.00    -0.332 OA
BRANCH  11  12
HETATM   12  C7  UNL     1      55.726  43.633  89.013  1.00  0.00     0.134 C 
HETATM   13  C8  UNL     1      56.063  45.075  89.124  1.00  0.00     0.065 C 
HETATM   14  C9  UNL     1      56.865  45.450  87.868  1.00  0.00     0.189 C 
HETATM   15  C10 UNL     1      58.277  45.919  88.244  1.00  0.00     0.035 C 
HETATM   16  N4  UNL     1      57.228  44.241  87.111  1.00  0.00    -0.067 N 
HETATM   17  C11 UNL     1      58.830  44.592  88.783  1.00  0.00     0.035 C 
HETATM   18  C12 UNL     1      57.988  43.513  88.136  1.00  0.00     0.189 C 
HETATM   19  C13 UNL     1      57.033  42.863  89.149  1.00  0.00     0.065 C 
ATOM     20  H42 UNL     1      56.451  43.732  86.689  1.00  0.00     0.278 HD
ATOM     21  H41 UNL     1      57.712  44.400  86.228  1.00  0.00     0.278 HD
ENDBRANCH  11  12
ENDBRANCH   6  11
ENDBRANCH   1   5
TORSDOF 4
ENDMDL
MODEL 5
REMARK VINA RESULT: -5.991143075      2.412      5.139
REMARK  4 active torsions:
REMARK  status: ('A' for Active; 'I' for Inactive)
REMARK    1  A    between atoms: C2_2  and  C4_4 
REMARK    2  A    between atoms: C4_4  and  O1_11 
REMARK    3  A    between atoms: N1_5  and  N2_7 
REMARK    4  A    between atoms: O1_11  and  C7_12 
ROOT
HETATM    1  N2  UNL     1      50.329  43.492  88.810  1.00  0.00    -0.231 N 
HETATM    2  C5  UNL     1      50.237  44.910  89.141  1.00  0.00     0.191 C 
HETATM    3  C6  UNL     1      49.138  42.763  88.693  1.00  0.00     0.200 C 
HETATM    4  N3  UNL     1      48.153  42.156  88.580  1.00  0.00    -0.170 NA
ENDROOT
BRANCH   1   5
HETATM    5  N1  UNL     1      51.577  42.860  88.610  1.00  0.00    -0.272 N 
HETATM    6  C4  UNL     1      52.096  42.860  87.433  1.00  0.00     0.137 C 
ATOM      7  H1  UNL     1      52.060  42.411  89.388  1.00  0.00     0.189 HD
BRANCH   6   8
HETATM    8  C2  UNL     1      51.426  43.503  86.266  1.00  0.00     0.054 C 
HETATM    9  C1  UNL     1      51.523  42.678  85.030  1.00  0.00     0.018 C 
HETATM   10  C3  UNL     1      52.074  44.846  85.985  1.00  0.00     0.018 C 
ENDBRANCH   6   8
BRANCH   6  11
HETATM   11  O1  UNL     1      53.311  42.225  87.321  1.00  0.00    -0.332 OA
BRANCH  11  12
HETATM   12  C7  UNL     1      54.485  42.755  87.794  1.00  0.00     0.134 C 
HETATM   13  C8  UNL     1      55.134  42.122  88.971  1.00  0.00     0.065 C 
HETATM   14  C9  UNL     1      56.092  43.161  89.572  1.00  0.00     0.189 C 
HETATM   15  C10 UNL     1      57.542  42.661  89.519  1.00  0.00     0.035 C 
HETATM   16  N4  UNL     1      56.224  44.318  88.673  1.00  0.00    -0.067 N 
HETATM   17  C11 UNL     1      57.735  42.661  87.995  1.00  0.00     0.035 C 
HETATM   18  C12 UNL     1      56.719  43.648  87.462  1.00  0.00     0.189 C 
HETATM   19  C13 UNL     1      55.567  42.935  86.738  1.00  0.00     0.065 C 
ATOM     20  H42 UNL     1      55.385  44.887  88.554  1.00  0.00     0.278 HD
ATOM     21  H41 UNL     1      56.797  45.087  89.020  1.00  0.00     0.278 HD
ENDBRANCH  11  12
ENDBRANCH   6  11
ENDBRANCH   1   5
TORSDOF 4
ENDMDL
