MODEL 1
REMARK VINA RESULT: -5.976498783      0.000      0.000
REMARK  4 active torsions:
REMARK  status: ('A' for Active; 'I' for Inactive)
REMARK    1  A    between atoms: C2_2  and  O1_5 
REMARK    2  A    between atoms: O1_5  and  N1_6 
REMARK    3  A    between atoms: C6_8  and  O2_9 
REMARK    4  A    between atoms: C7_11  and  O3_12 
ROOT
HETATM    1  N1  UNL     1      10.913 -40.440 -77.417  1.00  0.00    -0.063 NA
HETATM    2  C5  UNL     1      10.876 -41.828 -77.835  1.00  0.00     0.190 C 
HETATM    3  C6  UNL     1      12.248 -42.123 -78.367  1.00  0.00     0.192 C 
HETATM    4  C7  UNL     1      12.901 -40.744 -78.290  1.00  0.00     0.311 C 
HETATM    5  O4  UNL     1      12.197 -40.141 -77.283  1.00  0.00    -0.243 OA
ENDROOT
BRANCH   1   6
HETATM    6  O1  UNL     1      10.155 -40.214 -76.364  1.00  0.00    -0.269 OA
BRANCH   6   7
HETATM    7  C2  UNL     1       9.002 -39.502 -76.569  1.00  0.00     0.074 C 
HETATM    8  C1  UNL     1       8.976 -38.746 -77.875  1.00  0.00     0.047 C 
HETATM    9  C3  UNL     1       8.621 -38.645 -75.399  1.00  0.00     0.047 C 
HETATM   10  C4  UNL     1       7.886 -40.557 -76.694  1.00  0.00     0.047 C 
ENDBRANCH   6   7
ENDBRANCH   1   6
BRANCH   3  11
HETATM   11  O2  UNL     1      12.224 -42.453 -79.733  1.00  0.00    -0.389 OA
ATOM     12  H2  UNL     1      11.929 -41.727 -80.270  1.00  0.00     0.210 HD
ENDBRANCH   3  11
BRANCH   4  13
HETATM   13  O3  UNL     1      14.234 -40.856 -77.873  1.00  0.00    -0.367 OA
ATOM     14  H3  UNL     1      14.737 -40.104 -78.163  1.00  0.00     0.212 HD
ENDBRANCH   4  13
TORSDOF 4
ENDMDL
MODEL 2
REMARK VINA RESULT: -5.941714165      0.161      1.224
REMARK  4 active torsions:
REMARK  status: ('A' for Active; 'I' for Inactive)
REMARK    1  A    between atoms: C2_2  and  O1_5 
REMARK    2  A    between atoms: O1_5  and  N1_6 
REMARK    3  A    between atoms: C6_8  and  O2_9 
REMARK    4  A    between atoms: C7_11  and  O3_12 
ROOT
HETATM    1  N1  UNL     1      10.964 -40.518 -77.497  1.00  0.00    -0.063 NA
HETATM    2  C5  UNL     1      10.906 -41.921 -77.863  1.00  0.00     0.190 C 
HETATM    3  C6  UNL     1      12.255 -42.242 -78.438  1.00  0.00     0.192 C 
HETATM    4  C7  UNL     1      12.914 -40.863 -78.439  1.00  0.00     0.311 C 
HETATM    5  O4  UNL     1      12.254 -40.221 -77.426  1.00  0.00    -0.243 OA
ENDROOT
BRANCH   1   6
HETATM    6  O1  UNL     1      10.250 -40.251 -76.424  1.00  0.00    -0.269 OA
BRANCH   6   7
HETATM    7  C2  UNL     1       9.030 -39.659 -76.620  1.00  0.00     0.074 C 
HETATM    8  C1  UNL     1       7.878 -40.634 -76.655  1.00  0.00     0.047 C 
HETATM    9  C3  UNL     1       9.015 -38.708 -77.779  1.00  0.00     0.047 C 
HETATM   10  C4  UNL     1       8.787 -38.795 -75.369  1.00  0.00     0.047 C 
ENDBRANCH   6   7
ENDBRANCH   1   6
BRANCH   3  11
HETATM   11  O2  UNL     1      12.175 -42.621 -79.789  1.00  0.00    -0.389 OA
ATOM     12  H2  UNL     1      12.963 -43.064 -80.082  1.00  0.00     0.210 HD
ENDBRANCH   3  11
BRANCH   4  13
HETATM   13  O3  UNL     1      14.262 -40.966 -78.072  1.00  0.00    -0.367 OA
ATOM     14  H3  UNL     1      14.806 -41.101 -78.840  1.00  0.00     0.212 HD
ENDBRANCH   4  13
TORSDOF 4
ENDMDL
MODEL 3
REMARK VINA RESULT: -5.875579345      0.089      1.240
REMARK  4 active torsions:
REMARK  status: ('A' for Active; 'I' for Inactive)
REMARK    1  A    between atoms: C2_2  and  O1_5 
REMARK    2  A    between atoms: O1_5  and  N1_6 
REMARK    3  A    between atoms: C6_8  and  O2_9 
REMARK    4  A    between atoms: C7_11  and  O3_12 
ROOT
HETATM    1  N1  UNL     1      10.901 -40.395 -77.392  1.00  0.00    -0.063 NA
HETATM    2  C5  UNL     1      10.849 -41.788 -77.795  1.00  0.00     0.190 C 
HETATM    3  C6  UNL     1      12.201 -42.089 -78.372  1.00  0.00     0.192 C 
HETATM    4  C7  UNL     1      12.857 -40.710 -78.334  1.00  0.00     0.311 C 
HETATM    5  O4  UNL     1      12.190 -40.096 -77.307  1.00  0.00    -0.243 OA
ENDROOT
BRANCH   1   6
HETATM    6  O1  UNL     1      10.181 -40.159 -76.316  1.00  0.00    -0.269 OA
BRANCH   6   7
HETATM    7  C2  UNL     1       8.948 -39.593 -76.504  1.00  0.00     0.074 C 
HETATM    8  C1  UNL     1       8.554 -38.614 -75.425  1.00  0.00     0.047 C 
HETATM    9  C3  UNL     1       7.874 -40.601 -76.788  1.00  0.00     0.047 C 
HETATM   10  C4  UNL     1       9.076 -38.748 -77.786  1.00  0.00     0.047 C 
ENDBRANCH   6   7
ENDBRANCH   1   6
BRANCH   3  11
HETATM   11  O2  UNL     1      12.128 -42.433 -79.734  1.00  0.00    -0.389 OA
ATOM     12  H2  UNL     1      11.536 -41.866 -80.213  1.00  0.00     0.210 HD
ENDBRANCH   3  11
BRANCH   4  13
HETATM   13  O3  UNL     1      14.203 -40.818 -77.963  1.00  0.00    -0.367 OA
ATOM     14  H3  UNL     1      14.348 -40.413 -77.116  1.00  0.00     0.212 HD
ENDBRANCH   4  13
TORSDOF 4
ENDMDL
MODEL 4
REMARK VINA RESULT: -5.437431750      1.534      4.573
REMARK  4 active torsions:
REMARK  status: ('A' for Active; 'I' for Inactive)
REMARK    1  A    between atoms: C2_2  and  O1_5 
REMARK    2  A    between atoms: O1_5  and  N1_6 
REMARK    3  A    between atoms: C6_8  and  O2_9 
REMARK    4  A    between atoms: C7_11  and  O3_12 
ROOT
HETATM    1  N1  UNL     1      10.491 -40.216 -76.929  1.00  0.00    -0.063 NA
HETATM    2  C5  UNL     1       9.176 -40.434 -77.503  1.00  0.00     0.190 C 
HETATM    3  C6  UNL     1       8.218 -39.721 -76.593  1.00  0.00     0.192 C 
HETATM    4  C7  UNL     1       9.154 -39.259 -75.476  1.00  0.00     0.311 C 
HETATM    5  O4  UNL     1      10.360 -39.173 -76.121  1.00  0.00    -0.243 OA
ENDROOT
BRANCH   1   6
HETATM    6  O1  UNL     1      11.428 -40.120 -77.848  1.00  0.00    -0.269 OA
BRANCH   6   7
HETATM    7  C2  UNL     1      12.088 -41.272 -78.185  1.00  0.00     0.074 C 
HETATM    8  C1  UNL     1      11.363 -42.532 -77.780  1.00  0.00     0.047 C 
HETATM    9  C3  UNL     1      13.527 -41.273 -77.761  1.00  0.00     0.047 C 
HETATM   10  C4  UNL     1      12.108 -41.298 -79.725  1.00  0.00     0.047 C 
ENDBRANCH   6   7
ENDBRANCH   1   6
BRANCH   3  11
HETATM   11  O2  UNL     1       7.314 -40.608 -75.981  1.00  0.00    -0.389 OA
ATOM     12  H2  UNL     1       6.605 -40.149 -75.545  1.00  0.00     0.210 HD
ENDBRANCH   3  11
BRANCH   4  13
HETATM   13  O3  UNL     1       8.807 -37.972 -75.048  1.00  0.00    -0.367 OA
ATOM     14  H3  UNL     1       8.680 -37.958 -74.107  1.00  0.00     0.212 HD
ENDBRANCH   4  13
TORSDOF 4
ENDMDL
MODEL 5
REMARK VINA RESULT: -5.334687794      3.218      4.524
REMARK  4 active torsions:
REMARK  status: ('A' for Active; 'I' for Inactive)
REMARK    1  A    between atoms: C2_2  and  O1_5 
REMARK    2  A    between atoms: O1_5  and  N1_6 
REMARK    3  A    between atoms: C6_8  and  O2_9 
REMARK    4  A    between atoms: C7_11  and  O3_12 
ROOT
HETATM    1  N1  UNL     1       7.759 -40.828 -76.940  1.00  0.00    -0.063 NA
HETATM    2  C5  UNL     1       8.988 -40.390 -77.574  1.00  0.00     0.190 C 
HETATM    3  C6  UNL     1       9.603 -39.406 -76.621  1.00  0.00     0.192 C 
HETATM    4  C7  UNL     1       8.517 -39.310 -75.549  1.00  0.00     0.311 C 
HETATM    5  O4  UNL     1       7.891 -40.523 -75.656  1.00  0.00    -0.243 OA
ENDROOT
BRANCH   1   6
HETATM    6  O1  UNL     1       7.479 -42.086 -77.209  1.00  0.00    -0.269 OA
BRANCH   6   7
HETATM    7  C2  UNL     1       6.407 -42.322 -78.029  1.00  0.00     0.074 C 
HETATM    8  C1  UNL     1       6.733 -42.229 -79.500  1.00  0.00     0.047 C 
HETATM    9  C3  UNL     1       5.192 -41.526 -77.657  1.00  0.00     0.047 C 
HETATM   10  C4  UNL     1       6.028 -43.796 -77.794  1.00  0.00     0.047 C 
ENDBRANCH   6   7
ENDBRANCH   1   6
BRANCH   3  11
HETATM   11  O2  UNL     1       9.695 -38.119 -77.179  1.00  0.00    -0.389 OA
ATOM     12  H2  UNL     1       9.263 -37.466 -76.641  1.00  0.00     0.210 HD
ENDBRANCH   3  11
BRANCH   4  13
HETATM   13  O3  UNL     1       9.093 -39.237 -74.275  1.00  0.00    -0.367 OA
ATOM     14  H3  UNL     1       8.452 -38.942 -73.638  1.00  0.00     0.212 HD
ENDBRANCH   4  13
TORSDOF 4
ENDMDL
