MODEL 1
REMARK VINA RESULT: -5.860651963      0.000      0.000
REMARK  4 active torsions:
REMARK  status: ('A' for Active; 'I' for Inactive)
REMARK    1  A    between atoms: C2_2  and  C3_3 
REMARK    2  A    between atoms: C4_5  and  O2_6 
REMARK    3  A    between atoms: C6_10  and  O4_11 
REMARK    4  A    between atoms: C7_13  and  O5_14 
ROOT
HETATM    1  C3  UNL     1      10.892 -40.835 -77.837  1.00  0.00     0.196 C 
HETATM    2  O1  UNL     1      10.042 -41.814 -77.327  1.00  0.00    -0.320 OA
HETATM    3  C4  UNL     1       8.868 -41.751 -78.097  1.00  0.00     0.292 C 
HETATM    4  C5  UNL     1       9.099 -40.470 -78.861  1.00  0.00     0.211 C 
HETATM    5  O3  UNL     1      10.468 -40.660 -79.180  1.00  0.00    -0.340 OA
HETATM    6  C6  UNL     1       9.139 -39.312 -77.898  1.00  0.00     0.186 C 
HETATM    7  C7  UNL     1      10.555 -39.462 -77.314  1.00  0.00     0.212 C 
ENDROOT
BRANCH   1   8
HETATM    8  C2  UNL     1      12.313 -41.215 -77.729  1.00  0.00     0.067 C 
HETATM    9  C1  UNL     1      13.126 -40.996 -78.957  1.00  0.00     0.010 C 
ENDBRANCH   1   8
BRANCH   7  10
HETATM   10  O5  UNL     1      10.552 -39.382 -75.947  1.00  0.00    -0.387 OA
ATOM     11  H5  UNL     1      11.178 -38.757 -75.602  1.00  0.00     0.210 HD
ENDBRANCH   7  10
BRANCH   3  12
HETATM   12  O2  UNL     1       8.902 -42.799 -78.987  1.00  0.00    -0.368 OA
ATOM     13  H2  UNL     1       8.352 -43.488 -78.636  1.00  0.00     0.212 HD
ENDBRANCH   3  12
BRANCH   6  14
HETATM   14  O4  UNL     1       8.983 -38.083 -78.522  1.00  0.00    -0.390 OA
ATOM     15  H4  UNL     1       9.328 -37.361 -78.010  1.00  0.00     0.210 HD
ENDBRANCH   6  14
TORSDOF 4
ENDMDL
MODEL 2
REMARK VINA RESULT: -5.581058508      1.747      3.801
REMARK  4 active torsions:
REMARK  status: ('A' for Active; 'I' for Inactive)
REMARK    1  A    between atoms: C2_2  and  C3_3 
REMARK    2  A    between atoms: C4_5  and  O2_6 
REMARK    3  A    between atoms: C6_10  and  O4_11 
REMARK    4  A    between atoms: C7_13  and  O5_14 
ROOT
HETATM    1  C3  UNL     1      10.885 -40.938 -77.949  1.00  0.00     0.196 C 
HETATM    2  O1  UNL     1      12.017 -41.089 -77.152  1.00  0.00    -0.320 OA
HETATM    3  C4  UNL     1      13.080 -41.353 -78.032  1.00  0.00     0.292 C 
HETATM    4  C5  UNL     1      12.330 -41.593 -79.319  1.00  0.00     0.211 C 
HETATM    5  O3  UNL     1      11.389 -40.536 -79.213  1.00  0.00    -0.340 OA
HETATM    6  C6  UNL     1      11.469 -42.821 -79.177  1.00  0.00     0.186 C 
HETATM    7  C7  UNL     1      10.295 -42.265 -78.353  1.00  0.00     0.212 C 
ENDROOT
BRANCH   1   8
HETATM    8  C2  UNL     1       9.924 -39.972 -77.382  1.00  0.00     0.067 C 
HETATM    9  C1  UNL     1       9.015 -39.325 -78.367  1.00  0.00     0.010 C 
ENDBRANCH   1   8
BRANCH   7  10
HETATM   10  O5  UNL     1       9.988 -43.074 -77.293  1.00  0.00    -0.387 OA
ATOM     11  H5  UNL     1       9.154 -42.871 -76.888  1.00  0.00     0.210 HD
ENDBRANCH   7  10
BRANCH   3  12
HETATM   12  O2  UNL     1      13.806 -40.193 -78.162  1.00  0.00    -0.368 OA
ATOM     13  H2  UNL     1      13.683 -39.877 -79.049  1.00  0.00     0.212 HD
ENDBRANCH   3  12
BRANCH   6  14
HETATM   14  O4  UNL     1      11.034 -43.321 -80.395  1.00  0.00    -0.390 OA
ATOM     15  H4  UNL     1      11.745 -43.623 -80.948  1.00  0.00     0.210 HD
ENDBRANCH   6  14
TORSDOF 4
ENDMDL
MODEL 3
REMARK VINA RESULT: -5.556471625      1.036      1.051
REMARK  4 active torsions:
REMARK  status: ('A' for Active; 'I' for Inactive)
REMARK    1  A    between atoms: C2_2  and  C3_3 
REMARK    2  A    between atoms: C4_5  and  O2_6 
REMARK    3  A    between atoms: C6_10  and  O4_11 
REMARK    4  A    between atoms: C7_13  and  O5_14 
ROOT
HETATM    1  C3  UNL     1      10.430 -41.553 -78.366  1.00  0.00     0.196 C 
HETATM    2  O1  UNL     1       9.705 -42.406 -77.536  1.00  0.00    -0.320 OA
HETATM    3  C4  UNL     1       8.364 -41.997 -77.633  1.00  0.00     0.292 C 
HETATM    4  C5  UNL     1       8.519 -40.690 -78.372  1.00  0.00     0.211 C 
HETATM    5  O3  UNL     1       9.486 -41.101 -79.325  1.00  0.00    -0.340 OA
HETATM    6  C6  UNL     1       9.288 -39.717 -77.516  1.00  0.00     0.186 C 
HETATM    7  C7  UNL     1      10.726 -40.232 -77.702  1.00  0.00     0.212 C 
ENDROOT
BRANCH   1   8
HETATM    8  C2  UNL     1      11.594 -42.221 -78.978  1.00  0.00     0.067 C 
HETATM    9  C1  UNL     1      12.511 -41.330 -79.741  1.00  0.00     0.010 C 
ENDBRANCH   1   8
BRANCH   7  10
HETATM   10  O5  UNL     1      11.382 -40.354 -76.507  1.00  0.00    -0.387 OA
ATOM     11  H5  UNL     1      11.175 -39.665 -75.888  1.00  0.00     0.210 HD
ENDBRANCH   7  10
BRANCH   3  12
HETATM   12  O2  UNL     1       7.720 -42.888 -78.457  1.00  0.00    -0.368 OA
ATOM     13  H2  UNL     1       6.942 -42.457 -78.791  1.00  0.00     0.212 HD
ENDBRANCH   3  12
BRANCH   6  14
HETATM   14  O4  UNL     1       9.167 -38.405 -77.946  1.00  0.00    -0.390 OA
ATOM     15  H4  UNL     1       9.501 -37.776 -77.317  1.00  0.00     0.210 HD
ENDBRANCH   6  14
TORSDOF 4
ENDMDL
MODEL 4
REMARK VINA RESULT: -5.429457587      2.005      3.344
REMARK  4 active torsions:
REMARK  status: ('A' for Active; 'I' for Inactive)
REMARK    1  A    between atoms: C2_2  and  C3_3 
REMARK    2  A    between atoms: C4_5  and  O2_6 
REMARK    3  A    between atoms: C6_10  and  O4_11 
REMARK    4  A    between atoms: C7_13  and  O5_14 
ROOT
HETATM    1  C3  UNL     1      11.119 -41.826 -79.090  1.00  0.00     0.196 C 
HETATM    2  O1  UNL     1      12.161 -41.159 -79.730  1.00  0.00    -0.320 OA
HETATM    3  C4  UNL     1      13.024 -40.715 -78.714  1.00  0.00     0.292 C 
HETATM    4  C5  UNL     1      12.180 -40.980 -77.491  1.00  0.00     0.211 C 
HETATM    5  O3  UNL     1      11.675 -42.255 -77.856  1.00  0.00    -0.340 OA
HETATM    6  C6  UNL     1      10.950 -40.111 -77.531  1.00  0.00     0.186 C 
HETATM    7  C7  UNL     1      10.083 -40.872 -78.549  1.00  0.00     0.212 C 
ENDROOT
BRANCH   1   8
HETATM    8  C2  UNL     1      10.585 -42.939 -79.896  1.00  0.00     0.067 C 
HETATM    9  C1  UNL     1      11.544 -44.044 -80.172  1.00  0.00     0.010 C 
ENDBRANCH   1   8
BRANCH   7  10
HETATM   10  O5  UNL     1       9.561 -40.036 -79.499  1.00  0.00    -0.387 OA
ATOM     11  H5  UNL     1      10.203 -39.720 -80.123  1.00  0.00     0.210 HD
ENDBRANCH   7  10
BRANCH   3  12
HETATM   12  O2  UNL     1      14.104 -41.565 -78.689  1.00  0.00    -0.368 OA
ATOM     13  H2  UNL     1      14.602 -41.416 -79.483  1.00  0.00     0.212 HD
ENDBRANCH   3  12
BRANCH   6  14
HETATM   14  O4  UNL     1      10.313 -40.017 -76.303  1.00  0.00    -0.390 OA
ATOM     15  H4  UNL     1       9.601 -40.638 -76.206  1.00  0.00     0.210 HD
ENDBRANCH   6  14
TORSDOF 4
ENDMDL
MODEL 5
REMARK VINA RESULT: -5.409253883      1.141      1.344
REMARK  4 active torsions:
REMARK  status: ('A' for Active; 'I' for Inactive)
REMARK    1  A    between atoms: C2_2  and  C3_3 
REMARK    2  A    between atoms: C4_5  and  O2_6 
REMARK    3  A    between atoms: C6_10  and  O4_11 
REMARK    4  A    between atoms: C7_13  and  O5_14 
ROOT
HETATM    1  C3  UNL     1      10.169 -40.307 -77.861  1.00  0.00     0.196 C 
HETATM    2  O1  UNL     1       9.256 -40.926 -77.011  1.00  0.00    -0.320 OA
HETATM    3  C4  UNL     1       8.275 -41.495 -77.840  1.00  0.00     0.292 C 
HETATM    4  C5  UNL     1       8.630 -40.871 -79.168  1.00  0.00     0.211 C 
HETATM    5  O3  UNL     1      10.040 -41.004 -79.091  1.00  0.00    -0.340 OA
HETATM    6  C6  UNL     1       8.430 -39.381 -79.092  1.00  0.00     0.186 C 
HETATM    7  C7  UNL     1       9.690 -38.952 -78.319  1.00  0.00     0.212 C 
ENDROOT
BRANCH   1   8
HETATM    8  C2  UNL     1      11.543 -40.337 -77.326  1.00  0.00     0.067 C 
HETATM    9  C1  UNL     1      12.356 -41.520 -77.722  1.00  0.00     0.010 C 
ENDBRANCH   1   8
BRANCH   7  10
HETATM   10  O5  UNL     1       9.391 -38.101 -77.290  1.00  0.00    -0.387 OA
ATOM     11  H5  UNL     1       9.823 -37.258 -77.356  1.00  0.00     0.210 HD
ENDBRANCH   7  10
BRANCH   3  12
HETATM   12  O2  UNL     1       8.527 -42.844 -77.912  1.00  0.00    -0.368 OA
ATOM     13  H2  UNL     1       9.130 -43.059 -77.210  1.00  0.00     0.212 HD
ENDBRANCH   3  12
BRANCH   6  14
HETATM   14  O4  UNL     1       8.379 -38.777 -80.339  1.00  0.00    -0.390 OA
ATOM     15  H4  UNL     1       7.949 -37.930 -80.324  1.00  0.00     0.210 HD
ENDBRANCH   6  14
TORSDOF 4
ENDMDL
