MODEL 1
REMARK VINA RESULT: -5.843756459      0.000      0.000
REMARK  3 active torsions:
REMARK  status: ('A' for Active; 'I' for Inactive)
REMARK    1  A    between atoms: O1_2  and  C2_3 
REMARK    2  A    between atoms: C3_6  and  O4_7 
REMARK    3  A    between atoms: C6_12  and  O6_13 
ROOT
HETATM    1  C2  UNL     1      10.028 -38.829 -77.079  1.00  0.00     0.327 C 
HETATM    2  O2  UNL     1      10.406 -39.922 -76.314  1.00  0.00    -0.201 OA
HETATM    3  O3  UNL     1      11.440 -40.548 -76.776  1.00  0.00    -0.177 OA
HETATM    4  C3  UNL     1      10.975 -41.540 -77.648  1.00  0.00     0.444 C 
HETATM    5  O5  UNL     1       9.601 -41.500 -77.779  1.00  0.00    -0.330 OA
HETATM    6  C4  UNL     1       9.157 -40.567 -78.675  1.00  0.00     0.156 C 
HETATM    7  C5  UNL     1       7.625 -40.617 -78.660  1.00  0.00     0.042 C 
HETATM    8  C6  UNL     1       9.676 -39.193 -78.496  1.00  0.00     0.204 C 
ENDROOT
BRANCH   1   9
HETATM    9  O1  UNL     1       8.938 -38.245 -76.450  1.00  0.00    -0.361 OA
HETATM   10  C1  UNL     1       8.671 -38.940 -75.281  1.00  0.00     0.205 C 
ENDBRANCH   1   9
BRANCH   8  11
HETATM   11  O6  UNL     1       8.698 -38.260 -78.908  1.00  0.00    -0.388 OA
ATOM     12  H6  UNL     1       7.871 -38.727 -78.905  1.00  0.00     0.210 HD
ENDBRANCH   8  11
BRANCH   4  13
HETATM   13  O4  UNL     1      11.634 -41.312 -78.870  1.00  0.00    -0.348 OA
ATOM     14  H4  UNL     1      10.948 -41.238 -79.522  1.00  0.00     0.215 HD
ENDBRANCH   4  13
TORSDOF 3
ENDMDL
MODEL 2
REMARK VINA RESULT: -5.635200387      1.267      3.257
REMARK  3 active torsions:
REMARK  status: ('A' for Active; 'I' for Inactive)
REMARK    1  A    between atoms: O1_2  and  C2_3 
REMARK    2  A    between atoms: C3_6  and  O4_7 
REMARK    3  A    between atoms: C6_12  and  O6_13 
ROOT
HETATM    1  C2  UNL     1      10.912 -40.552 -77.319  1.00  0.00     0.327 C 
HETATM    2  O2  UNL     1      11.029 -39.345 -76.646  1.00  0.00    -0.201 OA
HETATM    3  O3  UNL     1      10.286 -39.264 -75.589  1.00  0.00    -0.177 OA
HETATM    4  C3  UNL     1       9.055 -38.727 -75.981  1.00  0.00     0.444 C 
HETATM    5  O5  UNL     1       9.003 -38.512 -77.344  1.00  0.00    -0.330 OA
HETATM    6  C4  UNL     1       8.696 -39.628 -78.071  1.00  0.00     0.156 C 
HETATM    7  C5  UNL     1       8.733 -39.232 -79.551  1.00  0.00     0.042 C 
HETATM    8  C6  UNL     1       9.511 -40.831 -77.791  1.00  0.00     0.204 C 
ENDROOT
BRANCH   1   9
HETATM    9  O1  UNL     1      11.780 -40.505 -78.399  1.00  0.00    -0.361 OA
HETATM   10  C1  UNL     1      13.028 -40.947 -77.989  1.00  0.00     0.205 C 
ENDBRANCH   1   9
BRANCH   8  11
HETATM   11  O6  UNL     1       9.642 -41.600 -78.971  1.00  0.00    -0.388 OA
ATOM     12  H6  UNL     1       8.763 -41.879 -79.201  1.00  0.00     0.210 HD
ENDBRANCH   8  11
BRANCH   4  13
HETATM   13  O4  UNL     1       8.082 -39.648 -75.550  1.00  0.00    -0.348 OA
ATOM     14  H4  UNL     1       7.912 -40.210 -76.296  1.00  0.00     0.215 HD
ENDBRANCH   4  13
TORSDOF 3
ENDMDL
MODEL 3
REMARK VINA RESULT: -5.582808844      1.333      3.457
REMARK  3 active torsions:
REMARK  status: ('A' for Active; 'I' for Inactive)
REMARK    1  A    between atoms: O1_2  and  C2_3 
REMARK    2  A    between atoms: C3_6  and  O4_7 
REMARK    3  A    between atoms: C6_12  and  O6_13 
ROOT
HETATM    1  C2  UNL     1      10.959 -41.922 -77.932  1.00  0.00     0.327 C 
HETATM    2  O2  UNL     1      11.590 -40.703 -77.733  1.00  0.00    -0.201 OA
HETATM    3  O3  UNL     1      11.321 -40.158 -76.590  1.00  0.00    -0.177 OA
HETATM    4  C3  UNL     1      10.193 -39.349 -76.766  1.00  0.00     0.444 C 
HETATM    5  O5  UNL     1       9.703 -39.429 -78.055  1.00  0.00    -0.330 OA
HETATM    6  C4  UNL     1       8.903 -40.515 -78.277  1.00  0.00     0.156 C 
HETATM    7  C5  UNL     1       8.493 -40.483 -79.754  1.00  0.00     0.042 C 
HETATM    8  C6  UNL     1       9.459 -41.826 -77.877  1.00  0.00     0.204 C 
ENDROOT
BRANCH   1   9
HETATM    9  O1  UNL     1      11.363 -42.395 -79.172  1.00  0.00    -0.361 OA
HETATM   10  C1  UNL     1      12.239 -41.481 -79.736  1.00  0.00     0.205 C 
ENDBRANCH   1   9
BRANCH   8  11
HETATM   11  O6  UNL     1       8.970 -42.832 -78.743  1.00  0.00    -0.388 OA
ATOM     12  H6  UNL     1       8.388 -42.394 -79.352  1.00  0.00     0.210 HD
ENDBRANCH   8  11
BRANCH   4  13
HETATM   13  O4  UNL     1       9.256 -39.787 -75.812  1.00  0.00    -0.348 OA
ATOM     14  H4  UNL     1       9.528 -39.400 -74.988  1.00  0.00     0.215 HD
ENDBRANCH   4  13
TORSDOF 3
ENDMDL
MODEL 4
REMARK VINA RESULT: -5.512360491      1.472      3.181
REMARK  3 active torsions:
REMARK  status: ('A' for Active; 'I' for Inactive)
REMARK    1  A    between atoms: O1_2  and  C2_3 
REMARK    2  A    between atoms: C3_6  and  O4_7 
REMARK    3  A    between atoms: C6_12  and  O6_13 
ROOT
HETATM    1  C2  UNL     1      10.323 -40.541 -77.705  1.00  0.00     0.327 C 
HETATM    2  O2  UNL     1       9.755 -41.784 -77.463  1.00  0.00    -0.201 OA
HETATM    3  O3  UNL     1       8.752 -42.056 -78.234  1.00  0.00    -0.177 OA
HETATM    4  C3  UNL     1       7.595 -41.598 -77.595  1.00  0.00     0.444 C 
HETATM    5  O5  UNL     1       7.887 -40.965 -76.403  1.00  0.00    -0.330 OA
HETATM    6  C4  UNL     1       8.271 -39.661 -76.546  1.00  0.00     0.156 C 
HETATM    7  C5  UNL     1       8.608 -39.129 -75.149  1.00  0.00     0.042 C 
HETATM    8  C6  UNL     1       9.355 -39.404 -77.521  1.00  0.00     0.204 C 
ENDROOT
BRANCH   1   9
HETATM    9  O1  UNL     1      11.394 -40.403 -76.835  1.00  0.00    -0.361 OA
HETATM   10  C1  UNL     1      12.505 -41.016 -77.392  1.00  0.00     0.205 C 
ENDBRANCH   1   9
BRANCH   8  11
HETATM   11  O6  UNL     1      10.126 -38.300 -77.092  1.00  0.00    -0.388 OA
ATOM     12  H6  UNL     1      10.903 -38.664 -76.684  1.00  0.00     0.210 HD
ENDBRANCH   8  11
BRANCH   4  13
HETATM   13  O4  UNL     1       6.968 -40.737 -78.514  1.00  0.00    -0.348 OA
ATOM     14  H4  UNL     1       7.661 -40.408 -79.074  1.00  0.00     0.215 HD
ENDBRANCH   4  13
TORSDOF 3
ENDMDL
MODEL 5
REMARK VINA RESULT: -5.326743001      1.461      3.336
REMARK  3 active torsions:
REMARK  status: ('A' for Active; 'I' for Inactive)
REMARK    1  A    between atoms: O1_2  and  C2_3 
REMARK    2  A    between atoms: C3_6  and  O4_7 
REMARK    3  A    between atoms: C6_12  and  O6_13 
ROOT
HETATM    1  C2  UNL     1      10.806 -40.565 -78.171  1.00  0.00     0.327 C 
HETATM    2  O2  UNL     1      10.001 -41.157 -79.132  1.00  0.00    -0.201 OA
HETATM    3  O3  UNL     1       9.611 -40.342 -80.058  1.00  0.00    -0.177 OA
HETATM    4  C3  UNL     1       8.400 -39.780 -79.641  1.00  0.00     0.444 C 
HETATM    5  O5  UNL     1       8.042 -40.218 -78.381  1.00  0.00    -0.330 OA
HETATM    6  C4  UNL     1       8.655 -39.541 -77.363  1.00  0.00     0.156 C 
HETATM    7  C5  UNL     1       8.195 -40.180 -76.049  1.00  0.00     0.042 C 
HETATM    8  C6  UNL     1      10.129 -39.432 -77.449  1.00  0.00     0.204 C 
ENDROOT
BRANCH   1   9
HETATM    9  O1  UNL     1      11.169 -41.556 -77.271  1.00  0.00    -0.361 OA
HETATM   10  C1  UNL     1      11.020 -42.791 -77.882  1.00  0.00     0.205 C 
ENDBRANCH   1   9
BRANCH   8  11
HETATM   11  O6  UNL     1      10.679 -39.413 -76.147  1.00  0.00    -0.388 OA
ATOM     12  H6  UNL     1       9.951 -39.257 -75.556  1.00  0.00     0.210 HD
ENDBRANCH   8  11
BRANCH   4  13
HETATM   13  O4  UNL     1       8.590 -38.387 -79.686  1.00  0.00    -0.348 OA
ATOM     14  H4  UNL     1       8.351 -38.123 -80.567  1.00  0.00     0.215 HD
ENDBRANCH   4  13
TORSDOF 3
ENDMDL
