MODEL 1
REMARK VINA RESULT: -6.102411442      0.000      0.000
REMARK  3 active torsions:
REMARK  status: ('A' for Active; 'I' for Inactive)
REMARK    1  A    between atoms: O1_2  and  C2_3 
REMARK    2  A    between atoms: C5_7  and  O3_8 
REMARK    3  A    between atoms: C6_12  and  O6_13 
ROOT
HETATM    1  C2  UNL     1      10.525 -41.168 -78.332  1.00  0.00     0.317 C 
HETATM    2  O2  UNL     1       9.271 -41.083 -77.824  1.00  0.00    -0.346 OA
HETATM    3  C3  UNL     1       8.810 -39.855 -77.478  1.00  0.00     0.178 C 
HETATM    4  C4  UNL     1       8.990 -38.784 -78.513  1.00  0.00     0.045 C 
HETATM    5  C5  UNL     1       9.321 -39.375 -76.130  1.00  0.00     0.322 C 
HETATM    6  O4  UNL     1      10.664 -39.119 -76.112  1.00  0.00    -0.203 OA
HETATM    7  O5  UNL     1      11.362 -40.228 -76.348  1.00  0.00    -0.200 OA
HETATM    8  C6  UNL     1      11.544 -40.267 -77.722  1.00  0.00     0.350 C 
ENDROOT
BRANCH   1   9
HETATM    9  O1  UNL     1      10.977 -42.483 -78.081  1.00  0.00    -0.361 OA
HETATM   10  C1  UNL     1      11.096 -43.203 -79.263  1.00  0.00     0.205 C 
ENDBRANCH   1   9
BRANCH   8  11
HETATM   11  O6  UNL     1      12.807 -40.863 -77.933  1.00  0.00    -0.365 OA
ATOM     12  H6  UNL     1      13.377 -40.193 -78.293  1.00  0.00     0.213 HD
ENDBRANCH   8  11
BRANCH   5  13
HETATM   13  O3  UNL     1       8.644 -38.193 -75.838  1.00  0.00    -0.366 OA
ATOM     14  H3  UNL     1       7.720 -38.409 -75.791  1.00  0.00     0.212 HD
ENDBRANCH   5  13
TORSDOF 3
ENDMDL
MODEL 2
REMARK VINA RESULT: -5.817372961      1.273      3.575
REMARK  3 active torsions:
REMARK  status: ('A' for Active; 'I' for Inactive)
REMARK    1  A    between atoms: O1_2  and  C2_3 
REMARK    2  A    between atoms: C5_7  and  O3_8 
REMARK    3  A    between atoms: C6_12  and  O6_13 
ROOT
HETATM    1  C2  UNL     1       9.151 -40.260 -78.314  1.00  0.00     0.317 C 
HETATM    2  O2  UNL     1      10.237 -40.550 -79.072  1.00  0.00    -0.346 OA
HETATM    3  C3  UNL     1      11.204 -41.328 -78.525  1.00  0.00     0.178 C 
HETATM    4  C4  UNL     1      10.721 -42.586 -77.864  1.00  0.00     0.045 C 
HETATM    5  C5  UNL     1      12.135 -40.569 -77.594  1.00  0.00     0.322 C 
HETATM    6  O4  UNL     1      11.529 -40.131 -76.450  1.00  0.00    -0.203 OA
HETATM    7  O5  UNL     1      10.564 -39.258 -76.727  1.00  0.00    -0.200 OA
HETATM    8  C6  UNL     1       9.409 -40.011 -76.867  1.00  0.00     0.350 C 
ENDROOT
BRANCH   1   9
HETATM    9  O1  UNL     1       8.611 -39.058 -78.820  1.00  0.00    -0.361 OA
HETATM   10  C1  UNL     1       8.317 -39.175 -80.173  1.00  0.00     0.205 C 
ENDBRANCH   1   9
BRANCH   8  11
HETATM   11  O6  UNL     1       8.354 -39.202 -76.389  1.00  0.00    -0.365 OA
ATOM     12  H6  UNL     1       7.541 -39.609 -76.668  1.00  0.00     0.213 HD
ENDBRANCH   8  11
BRANCH   5  13
HETATM   13  O3  UNL     1      13.159 -41.446 -77.242  1.00  0.00    -0.366 OA
ATOM     14  H3  UNL     1      13.802 -40.940 -76.760  1.00  0.00     0.212 HD
ENDBRANCH   5  13
TORSDOF 3
ENDMDL
MODEL 3
REMARK VINA RESULT: -5.707985670      2.084      3.683
REMARK  3 active torsions:
REMARK  status: ('A' for Active; 'I' for Inactive)
REMARK    1  A    between atoms: O1_2  and  C2_3 
REMARK    2  A    between atoms: C5_7  and  O3_8 
REMARK    3  A    between atoms: C6_12  and  O6_13 
ROOT
HETATM    1  C2  UNL     1      11.650 -42.299 -80.588  1.00  0.00     0.317 C 
HETATM    2  O2  UNL     1      11.391 -41.029 -80.186  1.00  0.00    -0.346 OA
HETATM    3  C3  UNL     1      11.814 -40.656 -78.953  1.00  0.00     0.178 C 
HETATM    4  C4  UNL     1      13.243 -40.985 -78.634  1.00  0.00     0.045 C 
HETATM    5  C5  UNL     1      10.903 -41.129 -77.833  1.00  0.00     0.322 C 
HETATM    6  O4  UNL     1      10.900 -42.485 -77.664  1.00  0.00    -0.203 OA
HETATM    7  O5  UNL     1      10.429 -43.098 -78.747  1.00  0.00    -0.200 OA
HETATM    8  C6  UNL     1      11.535 -43.354 -79.541  1.00  0.00     0.350 C 
ENDROOT
BRANCH   1   9
HETATM    9  O1  UNL     1      10.683 -42.621 -81.565  1.00  0.00    -0.361 OA
HETATM   10  C1  UNL     1      10.483 -41.557 -82.437  1.00  0.00     0.205 C 
ENDBRANCH   1   9
BRANCH   8  11
HETATM   11  O6  UNL     1      11.267 -44.572 -80.206  1.00  0.00    -0.365 OA
ATOM     12  H6  UNL     1      12.036 -44.783 -80.724  1.00  0.00     0.213 HD
ENDBRANCH   8  11
BRANCH   5  13
HETATM   13  O3  UNL     1      11.366 -40.540 -76.658  1.00  0.00    -0.366 OA
ATOM     14  H3  UNL     1      11.911 -39.805 -76.914  1.00  0.00     0.212 HD
ENDBRANCH   5  13
TORSDOF 3
ENDMDL
MODEL 4
REMARK VINA RESULT: -5.687352390      1.748      2.335
REMARK  3 active torsions:
REMARK  status: ('A' for Active; 'I' for Inactive)
REMARK    1  A    between atoms: O1_2  and  C2_3 
REMARK    2  A    between atoms: C5_7  and  O3_8 
REMARK    3  A    between atoms: C6_12  and  O6_13 
ROOT
HETATM    1  C2  UNL     1       8.477 -41.902 -78.490  1.00  0.00     0.317 C 
HETATM    2  O2  UNL     1       7.870 -40.910 -77.793  1.00  0.00    -0.346 OA
HETATM    3  C3  UNL     1       8.390 -39.660 -77.886  1.00  0.00     0.178 C 
HETATM    4  C4  UNL     1       8.665 -39.178 -79.280  1.00  0.00     0.045 C 
HETATM    5  C5  UNL     1       9.610 -39.447 -77.006  1.00  0.00     0.322 C 
HETATM    6  O4  UNL     1      10.702 -40.170 -77.397  1.00  0.00    -0.203 OA
HETATM    7  O5  UNL     1      10.463 -41.477 -77.310  1.00  0.00    -0.200 OA
HETATM    8  C6  UNL     1       9.965 -41.847 -78.549  1.00  0.00     0.350 C 
ENDROOT
BRANCH   1   9
HETATM    9  O1  UNL     1       8.163 -43.111 -77.832  1.00  0.00    -0.361 OA
HETATM   10  C1  UNL     1       6.842 -43.116 -77.401  1.00  0.00     0.205 C 
ENDBRANCH   1   9
BRANCH   8  11
HETATM   11  O6  UNL     1      10.421 -43.165 -78.776  1.00  0.00    -0.365 OA
ATOM     12  H6  UNL     1       9.990 -43.479 -79.563  1.00  0.00     0.213 HD
ENDBRANCH   8  11
BRANCH   5  13
HETATM   13  O3  UNL     1       9.930 -38.093 -77.079  1.00  0.00    -0.366 OA
ATOM     14  H3  UNL     1      10.128 -37.904 -77.989  1.00  0.00     0.212 HD
ENDBRANCH   5  13
TORSDOF 3
ENDMDL
MODEL 5
REMARK VINA RESULT: -5.644376344      1.578      3.019
REMARK  3 active torsions:
REMARK  status: ('A' for Active; 'I' for Inactive)
REMARK    1  A    between atoms: O1_2  and  C2_3 
REMARK    2  A    between atoms: C5_7  and  O3_8 
REMARK    3  A    between atoms: C6_12  and  O6_13 
ROOT
HETATM    1  C2  UNL     1      10.384 -39.745 -77.522  1.00  0.00     0.317 C 
HETATM    2  O2  UNL     1      10.181 -40.590 -78.563  1.00  0.00    -0.346 OA
HETATM    3  C3  UNL     1       8.984 -40.538 -79.198  1.00  0.00     0.178 C 
HETATM    4  C4  UNL     1       8.521 -39.165 -79.588  1.00  0.00     0.045 C 
HETATM    5  C5  UNL     1       7.877 -41.276 -78.463  1.00  0.00     0.322 C 
HETATM    6  O4  UNL     1       7.524 -40.696 -77.278  1.00  0.00    -0.203 OA
HETATM    7  O5  UNL     1       8.544 -40.704 -76.422  1.00  0.00    -0.200 OA
HETATM    8  C6  UNL     1       9.214 -39.509 -76.630  1.00  0.00     0.350 C 
ENDROOT
BRANCH   1   9
HETATM    9  O1  UNL     1      11.375 -40.335 -76.707  1.00  0.00    -0.361 OA
HETATM   10  C1  UNL     1      12.257 -41.095 -77.466  1.00  0.00     0.205 C 
ENDBRANCH   1   9
BRANCH   8  11
HETATM   11  O6  UNL     1       9.722 -39.120 -75.370  1.00  0.00    -0.365 OA
ATOM     12  H6  UNL     1      10.268 -39.833 -75.057  1.00  0.00     0.213 HD
ENDBRANCH   8  11
BRANCH   5  13
HETATM   13  O3  UNL     1       6.765 -41.276 -79.302  1.00  0.00    -0.366 OA
ATOM     14  H3  UNL     1       6.493 -40.371 -79.400  1.00  0.00     0.212 HD
ENDBRANCH   5  13
TORSDOF 3
ENDMDL
