MODEL 1
REMARK VINA RESULT: -6.472166662      0.000      0.000
REMARK  2 active torsions:
REMARK  status: ('A' for Active; 'I' for Inactive)
REMARK    1  A    between atoms: C5_8  and  C6_9 
REMARK    2  A    between atoms: C6_9  and  O4_10 
ROOT
HETATM    1  C1  UNL     1      11.125 -42.203 -78.167  1.00  0.00     0.078 C 
HETATM    2  C2  UNL     1       9.830 -41.450 -78.378  1.00  0.00     0.161 C 
HETATM    3  C3  UNL     1       9.041 -42.208 -79.443  1.00  0.00     0.078 C 
HETATM    4  O1  UNL     1      10.014 -40.164 -78.830  1.00  0.00    -0.321 OA
HETATM    5  C4  UNL     1       8.843 -39.530 -78.467  1.00  0.00     0.332 C 
HETATM    6  O2  UNL     1       9.049 -38.197 -78.075  1.00  0.00    -0.205 OA
HETATM    7  O3  UNL     1       9.915 -38.281 -77.100  1.00  0.00    -0.228 OA
HETATM    8  C5  UNL     1       9.459 -39.258 -76.220  1.00  0.00     0.217 C 
HETATM    9  C7  UNL     1       8.592 -40.164 -77.092  1.00  0.00     0.217 C 
HETATM   10  O5  UNL     1       9.151 -41.410 -77.185  1.00  0.00    -0.343 OA
ENDROOT
BRANCH   8  11
HETATM   11  C6  UNL     1       8.592 -38.681 -75.128  1.00  0.00     0.202 C 
BRANCH  11  12
HETATM   12  O4  UNL     1       8.737 -39.440 -73.968  1.00  0.00    -0.398 OA
ATOM     13  H4  UNL     1       9.621 -39.784 -73.921  1.00  0.00     0.209 HD
ENDBRANCH  11  12
ENDBRANCH   8  11
TORSDOF 2
ENDMDL
MODEL 2
REMARK VINA RESULT: -6.131397432      0.985      1.129
REMARK  2 active torsions:
REMARK  status: ('A' for Active; 'I' for Inactive)
REMARK    1  A    between atoms: C5_8  and  C6_9 
REMARK    2  A    between atoms: C6_9  and  O4_10 
ROOT
HETATM    1  C1  UNL     1      12.562 -40.927 -78.317  1.00  0.00     0.078 C 
HETATM    2  C2  UNL     1      11.066 -41.135 -78.394  1.00  0.00     0.161 C 
HETATM    3  C3  UNL     1      10.836 -42.476 -79.087  1.00  0.00     0.078 C 
HETATM    4  O1  UNL     1      10.417 -40.169 -79.127  1.00  0.00    -0.321 OA
HETATM    5  C4  UNL     1       9.121 -40.232 -78.658  1.00  0.00     0.332 C 
HETATM    6  O2  UNL     1       8.505 -38.971 -78.599  1.00  0.00    -0.205 OA
HETATM    7  O3  UNL     1       9.297 -38.264 -77.837  1.00  0.00    -0.228 OA
HETATM    8  C5  UNL     1       9.565 -39.020 -76.699  1.00  0.00     0.217 C 
HETATM    9  C7  UNL     1       9.372 -40.463 -77.161  1.00  0.00     0.217 C 
HETATM   10  O5  UNL     1      10.561 -41.139 -77.116  1.00  0.00    -0.343 OA
ENDROOT
BRANCH   8  11
HETATM   11  C6  UNL     1       8.583 -38.744 -75.588  1.00  0.00     0.202 C 
BRANCH  11  12
HETATM   12  O4  UNL     1       9.028 -39.345 -74.411  1.00  0.00    -0.398 OA
ATOM     13  H4  UNL     1       8.327 -39.348 -73.770  1.00  0.00     0.209 HD
ENDBRANCH  11  12
ENDBRANCH   8  11
TORSDOF 2
ENDMDL
MODEL 3
REMARK VINA RESULT: -5.748339003      2.611      4.114
REMARK  2 active torsions:
REMARK  status: ('A' for Active; 'I' for Inactive)
REMARK    1  A    between atoms: C5_8  and  C6_9 
REMARK    2  A    between atoms: C6_9  and  O4_10 
ROOT
HETATM    1  C1  UNL     1      10.544 -40.615 -81.202  1.00  0.00     0.078 C 
HETATM    2  C2  UNL     1      10.514 -41.407 -79.913  1.00  0.00     0.161 C 
HETATM    3  C3  UNL     1       9.371 -42.413 -80.033  1.00  0.00     0.078 C 
HETATM    4  O1  UNL     1      10.277 -40.633 -78.802  1.00  0.00    -0.321 OA
HETATM    5  C4  UNL     1      10.787 -41.394 -77.770  1.00  0.00     0.332 C 
HETATM    6  O2  UNL     1      11.387 -40.613 -76.769  1.00  0.00    -0.205 OA
HETATM    7  O3  UNL     1      12.298 -39.925 -77.403  1.00  0.00    -0.228 OA
HETATM    8  C5  UNL     1      13.021 -40.815 -78.191  1.00  0.00     0.217 C 
HETATM    9  C7  UNL     1      12.046 -41.966 -78.436  1.00  0.00     0.217 C 
HETATM   10  O5  UNL     1      11.725 -42.040 -79.764  1.00  0.00    -0.343 OA
ENDROOT
BRANCH   8  11
HETATM   11  C6  UNL     1      14.228 -41.363 -77.471  1.00  0.00     0.202 C 
BRANCH  11  12
HETATM   12  O4  UNL     1      15.387 -40.989 -78.149  1.00  0.00    -0.398 OA
ATOM     13  H4  UNL     1      15.620 -41.663 -78.777  1.00  0.00     0.209 HD
ENDBRANCH  11  12
ENDBRANCH   8  11
TORSDOF 2
ENDMDL
MODEL 4
REMARK VINA RESULT: -5.736666992      1.923      3.481
REMARK  2 active torsions:
REMARK  status: ('A' for Active; 'I' for Inactive)
REMARK    1  A    between atoms: C5_8  and  C6_9 
REMARK    2  A    between atoms: C6_9  and  O4_10 
ROOT
HETATM    1  C1  UNL     1       8.746 -39.385 -80.196  1.00  0.00     0.078 C 
HETATM    2  C2  UNL     1       8.854 -40.095 -78.864  1.00  0.00     0.161 C 
HETATM    3  C3  UNL     1       7.469 -40.651 -78.540  1.00  0.00     0.078 C 
HETATM    4  O1  UNL     1       9.224 -39.265 -77.832  1.00  0.00    -0.321 OA
HETATM    5  C4  UNL     1       9.750 -40.135 -76.899  1.00  0.00     0.332 C 
HETATM    6  O2  UNL     1      10.841 -39.588 -76.205  1.00  0.00    -0.205 OA
HETATM    7  O3  UNL     1      11.689 -39.264 -77.145  1.00  0.00    -0.228 OA
HETATM    8  C5  UNL     1      11.814 -40.363 -77.990  1.00  0.00     0.217 C 
HETATM    9  C7  UNL     1      10.496 -41.116 -77.815  1.00  0.00     0.217 C 
HETATM   10  O5  UNL     1       9.783 -41.101 -78.982  1.00  0.00    -0.343 OA
ENDROOT
BRANCH   8  11
HETATM   11  C6  UNL     1      12.940 -41.277 -77.572  1.00  0.00     0.202 C 
BRANCH  11  12
HETATM   12  O4  UNL     1      14.084 -40.976 -78.311  1.00  0.00    -0.398 OA
ATOM     13  H4  UNL     1      14.322 -40.066 -78.172  1.00  0.00     0.209 HD
ENDBRANCH  11  12
ENDBRANCH   8  11
TORSDOF 2
ENDMDL
MODEL 5
REMARK VINA RESULT: -5.643836477      1.853      4.116
REMARK  2 active torsions:
REMARK  status: ('A' for Active; 'I' for Inactive)
REMARK    1  A    between atoms: C5_8  and  C6_9 
REMARK    2  A    between atoms: C6_9  and  O4_10 
ROOT
HETATM    1  C1  UNL     1       8.283 -40.070 -76.508  1.00  0.00     0.078 C 
HETATM    2  C2  UNL     1       8.758 -40.643 -77.825  1.00  0.00     0.161 C 
HETATM    3  C3  UNL     1       7.631 -40.440 -78.834  1.00  0.00     0.078 C 
HETATM    4  O1  UNL     1       9.032 -41.990 -77.768  1.00  0.00    -0.321 OA
HETATM    5  C4  UNL     1       9.894 -42.183 -78.828  1.00  0.00     0.332 C 
HETATM    6  O2  UNL     1      10.884 -43.140 -78.551  1.00  0.00    -0.205 OA
HETATM    7  O3  UNL     1      11.477 -42.685 -77.480  1.00  0.00    -0.228 OA
HETATM    8  C5  UNL     1      11.774 -41.344 -77.703  1.00  0.00     0.217 C 
HETATM    9  C7  UNL     1      10.742 -40.906 -78.741  1.00  0.00     0.217 C 
HETATM   10  O5  UNL     1       9.897 -39.973 -78.205  1.00  0.00    -0.343 OA
ENDROOT
BRANCH   8  11
HETATM   11  C6  UNL     1      13.149 -41.156 -78.296  1.00  0.00     0.202 C 
BRANCH  11  12
HETATM   12  O4  UNL     1      13.172 -41.668 -79.593  1.00  0.00    -0.398 OA
ATOM     13  H4  UNL     1      13.111 -42.616 -79.562  1.00  0.00     0.209 HD
ENDBRANCH  11  12
ENDBRANCH   8  11
TORSDOF 2
ENDMDL
