MODEL 1
REMARK VINA RESULT: -7.644957475      0.000      0.000
REMARK  7 active torsions:
REMARK  status: ('A' for Active; 'I' for Inactive)
REMARK    1  A    between atoms: C2_2  and  C3_4 
REMARK    2  A    between atoms: C3_4  and  C5_7 
REMARK    3  A    between atoms: C5_7  and  C6_9 
REMARK       I    between atoms: C6_9  and  N2_11 
REMARK    4  A    between atoms: N2_11  and  C7_13 
REMARK    5  A    between atoms: C10_16  and  S1_17 
REMARK    6  A    between atoms: S1_17  and  N3_20 
REMARK    7  A    between atoms: N3_20  and  C11_22 
ROOT
HETATM    1  C3  UNL     1     -22.959  -9.702   2.676  1.00  0.00     0.241 C 
HETATM    2  C4  UNL     1     -22.939  -8.431   3.441  1.00  0.00     0.080 C 
HETATM    3  N1  UNL     1     -22.921  -7.449   4.049  1.00  0.00    -0.196 NA
ENDROOT
BRANCH   1   4
HETATM    4  C2  UNL     1     -24.249  -9.701   1.926  1.00  0.00     0.148 C 
HETATM    5  C1  UNL     1     -24.389  -9.148   0.566  1.00  0.00     0.093 C 
HETATM    6  O1  UNL     1     -25.260 -10.176   2.442  1.00  0.00    -0.296 OA
ENDBRANCH   1   4
BRANCH   1   7
HETATM    7  C5  UNL     1     -22.916 -10.856   3.603  1.00  0.00     0.241 C 
HETATM    8  O2  UNL     1     -23.201 -10.718   4.821  1.00  0.00    -0.285 OA
BRANCH   7   9
HETATM    9  C6  UNL     1     -22.530 -12.183   3.075  1.00  0.00     0.293 C 
HETATM   10  O3  UNL     1     -23.399 -13.058   3.098  1.00  0.00    -0.264 OA
HETATM   11  N2  UNL     1     -21.229 -12.346   2.598  1.00  0.00    -0.321 N 
ATOM     12  H2  UNL     1     -20.591 -11.550   2.636  1.00  0.00     0.169 HD
BRANCH  11  13
HETATM   13  C7  UNL     1     -20.756 -13.572   2.064  1.00  0.00     0.035 A 
HETATM   14  C8  UNL     1     -20.341 -14.584   2.953  1.00  0.00     0.031 A 
HETATM   15  C9  UNL     1     -19.848 -15.788   2.569  1.00  0.00     0.027 A 
HETATM   16  C10 UNL     1     -19.750 -16.031   1.217  1.00  0.00     0.080 A 
HETATM   17  C14 UNL     1     -20.134 -15.094   0.290  1.00  0.00     0.027 A 
HETATM   18  C15 UNL     1     -20.638 -13.863   0.734  1.00  0.00     0.031 A 
BRANCH  16  19
HETATM   19  S1  UNL     1     -19.110 -17.598   0.728  1.00  0.00     0.264 S 
HETATM   20  O4  UNL     1     -17.963 -17.424  -0.196  1.00  0.00    -0.200 OA
HETATM   21  O5  UNL     1     -20.242 -18.305   0.011  1.00  0.00    -0.200 OA
BRANCH  19  22
HETATM   22  N3  UNL     1     -18.744 -18.487   2.133  1.00  0.00    -0.260 N 
ATOM     23  H3  UNL     1     -18.443 -18.005   2.980  1.00  0.00     0.181 HD
BRANCH  22  24
HETATM   24  C11 UNL     1     -18.850 -19.799   2.124  1.00  0.00     0.158 A 
HETATM   25  N4  UNL     1     -19.957 -20.522   2.288  1.00  0.00    -0.345 N 
HETATM   26  C12 UNL     1     -19.868 -21.820   2.248  1.00  0.00     0.097 A 
ATOM     27  H4  UNL     1     -20.857 -20.067   2.442  1.00  0.00     0.167 HD
HETATM   28  C13 UNL     1     -18.634 -22.371   2.036  1.00  0.00     0.070 A 
HETATM   29  S2  UNL     1     -17.645 -20.985   1.904  1.00  0.00    -0.064 SA
ENDBRANCH  22  24
ENDBRANCH  19  22
ENDBRANCH  16  19
ENDBRANCH  11  13
ENDBRANCH   7   9
ENDBRANCH   1   7
TORSDOF 7
ENDMDL
MODEL 2
REMARK VINA RESULT: -7.481131535      0.752      1.253
REMARK  7 active torsions:
REMARK  status: ('A' for Active; 'I' for Inactive)
REMARK    1  A    between atoms: C2_2  and  C3_4 
REMARK    2  A    between atoms: C3_4  and  C5_7 
REMARK    3  A    between atoms: C5_7  and  C6_9 
REMARK       I    between atoms: C6_9  and  N2_11 
REMARK    4  A    between atoms: N2_11  and  C7_13 
REMARK    5  A    between atoms: C10_16  and  S1_17 
REMARK    6  A    between atoms: S1_17  and  N3_20 
REMARK    7  A    between atoms: N3_20  and  C11_22 
ROOT
HETATM    1  C3  UNL     1     -23.791 -10.025   2.197  1.00  0.00     0.241 C 
HETATM    2  C4  UNL     1     -23.296  -8.627   2.227  1.00  0.00     0.080 C 
HETATM    3  N1  UNL     1     -22.900  -7.543   2.261  1.00  0.00    -0.196 NA
ENDROOT
BRANCH   1   4
HETATM    4  C2  UNL     1     -25.267  -9.934   2.400  1.00  0.00     0.148 C 
HETATM    5  C1  UNL     1     -26.217 -10.921   1.853  1.00  0.00     0.093 C 
HETATM    6  O1  UNL     1     -25.742  -9.004   3.050  1.00  0.00    -0.296 OA
ENDBRANCH   1   4
BRANCH   1   7
HETATM    7  C5  UNL     1     -23.179 -10.807   3.296  1.00  0.00     0.241 C 
HETATM    8  O2  UNL     1     -23.085 -10.328   4.456  1.00  0.00    -0.285 OA
BRANCH   7   9
HETATM    9  C6  UNL     1     -22.676 -12.168   3.012  1.00  0.00     0.293 C 
HETATM   10  O3  UNL     1     -23.441 -13.102   3.264  1.00  0.00    -0.264 OA
HETATM   11  N2  UNL     1     -21.389 -12.295   2.486  1.00  0.00    -0.321 N 
ATOM     12  H2  UNL     1     -20.842 -11.449   2.324  1.00  0.00     0.169 HD
BRANCH  11  13
HETATM   13  C7  UNL     1     -20.811 -13.551   2.169  1.00  0.00     0.035 A 
HETATM   14  C8  UNL     1     -20.613 -13.883   0.813  1.00  0.00     0.031 A 
HETATM   15  C9  UNL     1     -20.094 -15.058   0.379  1.00  0.00     0.027 A 
HETATM   16  C10 UNL     1     -19.738 -15.986   1.334  1.00  0.00     0.080 A 
HETATM   17  C14 UNL     1     -19.900 -15.735   2.673  1.00  0.00     0.027 A 
HETATM   18  C15 UNL     1     -20.442 -14.504   3.075  1.00  0.00     0.031 A 
BRANCH  16  19
HETATM   19  S1  UNL     1     -19.063 -17.509   0.761  1.00  0.00     0.264 S 
HETATM   20  O4  UNL     1     -17.926 -17.260  -0.157  1.00  0.00    -0.200 OA
HETATM   21  O5  UNL     1     -20.183 -18.205   0.013  1.00  0.00    -0.200 OA
BRANCH  19  22
HETATM   22  N3  UNL     1     -18.669 -18.462   2.116  1.00  0.00    -0.260 N 
ATOM     23  H3  UNL     1     -18.266 -18.028   2.947  1.00  0.00     0.181 HD
BRANCH  22  24
HETATM   24  C11 UNL     1     -18.884 -19.760   2.089  1.00  0.00     0.158 A 
HETATM   25  N4  UNL     1     -20.061 -20.384   2.104  1.00  0.00    -0.345 N 
HETATM   26  C12 UNL     1     -20.079 -21.685   2.073  1.00  0.00     0.097 A 
ATOM     27  H4  UNL     1     -20.931 -19.853   2.140  1.00  0.00     0.167 HD
HETATM   28  C13 UNL     1     -18.879 -22.342   2.023  1.00  0.00     0.070 A 
HETATM   29  S2  UNL     1     -17.766 -21.046   2.027  1.00  0.00    -0.064 SA
ENDBRANCH  22  24
ENDBRANCH  19  22
ENDBRANCH  16  19
ENDBRANCH  11  13
ENDBRANCH   7   9
ENDBRANCH   1   7
TORSDOF 7
ENDMDL
MODEL 3
REMARK VINA RESULT: -7.376473492      3.213      9.689
REMARK  7 active torsions:
REMARK  status: ('A' for Active; 'I' for Inactive)
REMARK    1  A    between atoms: C2_2  and  C3_4 
REMARK    2  A    between atoms: C3_4  and  C5_7 
REMARK    3  A    between atoms: C5_7  and  C6_9 
REMARK       I    between atoms: C6_9  and  N2_11 
REMARK    4  A    between atoms: N2_11  and  C7_13 
REMARK    5  A    between atoms: C10_16  and  S1_17 
REMARK    6  A    between atoms: S1_17  and  N3_20 
REMARK    7  A    between atoms: N3_20  and  C11_22 
ROOT
HETATM    1  C3  UNL     1     -19.523 -18.987   1.639  1.00  0.00     0.241 C 
HETATM    2  C4  UNL     1     -18.322 -19.835   1.836  1.00  0.00     0.080 C 
HETATM    3  N1  UNL     1     -17.379 -20.485   1.984  1.00  0.00    -0.196 NA
ENDROOT
BRANCH   1   4
HETATM    4  C2  UNL     1     -20.444 -19.785   0.779  1.00  0.00     0.148 C 
HETATM    5  C1  UNL     1     -21.052 -21.057   1.213  1.00  0.00     0.093 C 
HETATM    6  O1  UNL     1     -20.729 -19.389  -0.351  1.00  0.00    -0.296 OA
ENDBRANCH   1   4
BRANCH   1   7
HETATM    7  C5  UNL     1     -19.152 -17.730   0.950  1.00  0.00     0.241 C 
HETATM    8  O2  UNL     1     -18.193 -17.698   0.135  1.00  0.00    -0.285 OA
BRANCH   7   9
HETATM    9  C6  UNL     1     -19.928 -16.503   1.232  1.00  0.00     0.293 C 
HETATM   10  O3  UNL     1     -20.642 -16.081   0.319  1.00  0.00    -0.264 OA
HETATM   11  N2  UNL     1     -19.798 -15.920   2.493  1.00  0.00    -0.321 N 
ATOM     12  H2  UNL     1     -19.170 -16.355   3.170  1.00  0.00     0.169 HD
BRANCH  11  13
HETATM   13  C7  UNL     1     -20.501 -14.749   2.873  1.00  0.00     0.035 A 
HETATM   14  C8  UNL     1     -21.113 -14.706   4.143  1.00  0.00     0.031 A 
HETATM   15  C9  UNL     1     -21.833 -13.658   4.613  1.00  0.00     0.027 A 
HETATM   16  C10 UNL     1     -21.972 -12.563   3.789  1.00  0.00     0.080 A 
HETATM   17  C14 UNL     1     -21.405 -12.530   2.539  1.00  0.00     0.027 A 
HETATM   18  C15 UNL     1     -20.669 -13.639   2.095  1.00  0.00     0.031 A 
BRANCH  16  19
HETATM   19  S1  UNL     1     -22.907 -11.205   4.409  1.00  0.00     0.264 S 
HETATM   20  O4  UNL     1     -23.193 -11.388   5.852  1.00  0.00    -0.200 OA
HETATM   21  O5  UNL     1     -24.204 -11.201   3.625  1.00  0.00    -0.200 OA
BRANCH  19  22
HETATM   22  N3  UNL     1     -22.070  -9.768   4.042  1.00  0.00    -0.260 N 
ATOM     23  H3  UNL     1     -21.136  -9.609   4.420  1.00  0.00     0.181 HD
BRANCH  22  24
HETATM   24  C11 UNL     1     -22.631  -8.862   3.269  1.00  0.00     0.158 A 
HETATM   25  N4  UNL     1     -22.888  -8.959   1.965  1.00  0.00    -0.345 N 
HETATM   26  C12 UNL     1     -23.452  -7.953   1.363  1.00  0.00     0.097 A 
ATOM     27  H4  UNL     1     -22.648  -9.806   1.449  1.00  0.00     0.167 HD
HETATM   28  C13 UNL     1     -23.752  -6.846   2.109  1.00  0.00     0.070 A 
HETATM   29  S2  UNL     1     -23.203  -7.304   3.659  1.00  0.00    -0.064 SA
ENDBRANCH  22  24
ENDBRANCH  19  22
ENDBRANCH  16  19
ENDBRANCH  11  13
ENDBRANCH   7   9
ENDBRANCH   1   7
TORSDOF 7
ENDMDL
MODEL 4
REMARK VINA RESULT: -7.095466438      1.397      1.841
REMARK  7 active torsions:
REMARK  status: ('A' for Active; 'I' for Inactive)
REMARK    1  A    between atoms: C2_2  and  C3_4 
REMARK    2  A    between atoms: C3_4  and  C5_7 
REMARK    3  A    between atoms: C5_7  and  C6_9 
REMARK       I    between atoms: C6_9  and  N2_11 
REMARK    4  A    between atoms: N2_11  and  C7_13 
REMARK    5  A    between atoms: C10_16  and  S1_17 
REMARK    6  A    between atoms: S1_17  and  N3_20 
REMARK    7  A    between atoms: N3_20  and  C11_22 
ROOT
HETATM    1  C3  UNL     1     -23.954 -10.450   3.769  1.00  0.00     0.241 C 
HETATM    2  C4  UNL     1     -24.599 -11.713   3.333  1.00  0.00     0.080 C 
HETATM    3  N1  UNL     1     -25.087 -12.703   2.994  1.00  0.00    -0.196 NA
ENDROOT
BRANCH   1   4
HETATM    4  C2  UNL     1     -24.445  -9.401   2.827  1.00  0.00     0.148 C 
HETATM    5  C1  UNL     1     -24.146  -9.413   1.382  1.00  0.00     0.093 C 
HETATM    6  O1  UNL     1     -25.133  -8.471   3.246  1.00  0.00    -0.296 OA
ENDBRANCH   1   4
BRANCH   1   7
HETATM    7  C5  UNL     1     -22.481 -10.568   3.669  1.00  0.00     0.241 C 
HETATM    8  O2  UNL     1     -21.746  -9.547   3.717  1.00  0.00    -0.285 OA
BRANCH   7   9
HETATM    9  C6  UNL     1     -21.880 -11.909   3.510  1.00  0.00     0.293 C 
HETATM   10  O3  UNL     1     -21.797 -12.600   4.529  1.00  0.00    -0.264 OA
HETATM   11  N2  UNL     1     -21.456 -12.291   2.237  1.00  0.00    -0.321 N 
ATOM     12  H2  UNL     1     -21.569 -11.633   1.466  1.00  0.00     0.169 HD
BRANCH  11  13
HETATM   13  C7  UNL     1     -20.874 -13.557   1.971  1.00  0.00     0.035 A 
HETATM   14  C8  UNL     1     -20.357 -13.809   0.683  1.00  0.00     0.031 A 
HETATM   15  C9  UNL     1     -19.799 -14.982   0.296  1.00  0.00     0.027 A 
HETATM   16  C10 UNL     1     -19.736 -15.993   1.229  1.00  0.00     0.080 A 
HETATM   17  C14 UNL     1     -20.218 -15.824   2.504  1.00  0.00     0.027 A 
HETATM   18  C15 UNL     1     -20.787 -14.592   2.858  1.00  0.00     0.031 A 
BRANCH  16  19
HETATM   19  S1  UNL     1     -19.009 -17.514   0.718  1.00  0.00     0.264 S 
HETATM   20  O4  UNL     1     -17.825 -17.261  -0.138  1.00  0.00    -0.200 OA
HETATM   21  O5  UNL     1     -20.074 -18.237  -0.081  1.00  0.00    -0.200 OA
BRANCH  19  22
HETATM   22  N3  UNL     1     -18.677 -18.442   2.107  1.00  0.00    -0.260 N 
ATOM     23  H3  UNL     1     -18.322 -17.991   2.951  1.00  0.00     0.181 HD
BRANCH  22  24
HETATM   24  C11 UNL     1     -18.880 -19.742   2.090  1.00  0.00     0.158 A 
HETATM   25  N4  UNL     1     -20.051 -20.378   2.125  1.00  0.00    -0.345 N 
HETATM   26  C12 UNL     1     -20.056 -21.679   2.100  1.00  0.00     0.097 A 
ATOM     27  H4  UNL     1     -20.926 -19.856   2.169  1.00  0.00     0.167 HD
HETATM   28  C13 UNL     1     -18.850 -22.324   2.039  1.00  0.00     0.070 A 
HETATM   29  S2  UNL     1     -17.751 -21.017   2.020  1.00  0.00    -0.064 SA
ENDBRANCH  22  24
ENDBRANCH  19  22
ENDBRANCH  16  19
ENDBRANCH  11  13
ENDBRANCH   7   9
ENDBRANCH   1   7
TORSDOF 7
ENDMDL
MODEL 5
REMARK VINA RESULT: -7.077113698      1.431      1.585
REMARK  7 active torsions:
REMARK  status: ('A' for Active; 'I' for Inactive)
REMARK    1  A    between atoms: C2_2  and  C3_4 
REMARK    2  A    between atoms: C3_4  and  C5_7 
REMARK    3  A    between atoms: C5_7  and  C6_9 
REMARK       I    between atoms: C6_9  and  N2_11 
REMARK    4  A    between atoms: N2_11  and  C7_13 
REMARK    5  A    between atoms: C10_16  and  S1_17 
REMARK    6  A    between atoms: S1_17  and  N3_20 
REMARK    7  A    between atoms: N3_20  and  C11_22 
ROOT
HETATM    1  C3  UNL     1     -23.700 -10.171   2.308  1.00  0.00     0.241 C 
HETATM    2  C4  UNL     1     -23.246  -8.761   2.393  1.00  0.00     0.080 C 
HETATM    3  N1  UNL     1     -22.882  -7.667   2.469  1.00  0.00    -0.196 NA
ENDROOT
BRANCH   1   4
HETATM    4  C2  UNL     1     -25.169 -10.137   2.570  1.00  0.00     0.148 C 
HETATM    5  C1  UNL     1     -26.123 -11.059   1.926  1.00  0.00     0.093 C 
HETATM    6  O1  UNL     1     -25.635  -9.314   3.357  1.00  0.00    -0.296 OA
ENDBRANCH   1   4
BRANCH   1   7
HETATM    7  C5  UNL     1     -23.023 -10.988   3.340  1.00  0.00     0.241 C 
HETATM    8  O2  UNL     1     -22.817 -10.531   4.494  1.00  0.00    -0.285 OA
BRANCH   7   9
HETATM    9  C6  UNL     1     -22.587 -12.358   2.995  1.00  0.00     0.293 C 
HETATM   10  O3  UNL     1     -23.354 -13.274   3.301  1.00  0.00    -0.264 OA
HETATM   11  N2  UNL     1     -21.355 -12.514   2.357  1.00  0.00    -0.321 N 
ATOM     12  H2  UNL     1     -20.799 -11.682   2.158  1.00  0.00     0.169 HD
BRANCH  11  13
HETATM   13  C7  UNL     1     -20.844 -13.781   1.974  1.00  0.00     0.035 A 
HETATM   14  C8  UNL     1     -20.321 -14.630   2.970  1.00  0.00     0.031 A 
HETATM   15  C9  UNL     1     -19.783 -15.852   2.732  1.00  0.00     0.027 A 
HETATM   16  C10 UNL     1     -19.749 -16.286   1.424  1.00  0.00     0.080 A 
HETATM   17  C14 UNL     1     -20.239 -15.515   0.400  1.00  0.00     0.027 A 
HETATM   18  C15 UNL     1     -20.786 -14.257   0.695  1.00  0.00     0.031 A 
BRANCH  16  19
HETATM   19  S1  UNL     1     -19.049 -17.874   1.124  1.00  0.00     0.264 S 
HETATM   20  O4  UNL     1     -18.437 -18.414   2.362  1.00  0.00    -0.200 OA
HETATM   21  O5  UNL     1     -17.978 -17.665   0.072  1.00  0.00    -0.200 OA
BRANCH  19  22
HETATM   22  N3  UNL     1     -20.255 -18.871   0.452  1.00  0.00    -0.260 N 
ATOM     23  H3  UNL     1     -20.926 -18.485  -0.213  1.00  0.00     0.181 HD
BRANCH  22  24
HETATM   24  C11 UNL     1     -20.321 -20.141   0.793  1.00  0.00     0.158 A 
HETATM   25  N4  UNL     1     -19.357 -20.882   1.339  1.00  0.00    -0.345 N 
HETATM   26  C12 UNL     1     -19.606 -22.130   1.609  1.00  0.00     0.097 A 
ATOM     27  H4  UNL     1     -18.442 -20.479   1.541  1.00  0.00     0.167 HD
HETATM   28  C13 UNL     1     -20.853 -22.613   1.317  1.00  0.00     0.070 A 
HETATM   29  S2  UNL     1     -21.620 -21.236   0.657  1.00  0.00    -0.064 SA
ENDBRANCH  22  24
ENDBRANCH  19  22
ENDBRANCH  16  19
ENDBRANCH  11  13
ENDBRANCH   7   9
ENDBRANCH   1   7
TORSDOF 7
ENDMDL
