MODEL 1
REMARK VINA RESULT: -8.207920679      0.000      0.000
REMARK  7 active torsions:
REMARK  status: ('A' for Active; 'I' for Inactive)
REMARK    1  A    between atoms: N1_11  and  C9_12 
REMARK    2  A    between atoms: C9_12  and  C10_13 
REMARK    3  A    between atoms: C10_13  and  N2_14 
REMARK    4  A    between atoms: N2_14  and  C11_16 
REMARK    5  A    between atoms: C13_22  and  N5_23 
REMARK    6  A    between atoms: N5_23  and  N6_25 
REMARK    7  A    between atoms: C14_27  and  C15_28 
ROOT
HETATM    1  C11 UNL     1     -21.531 -14.648   3.935  1.00  0.00     0.693 A 
HETATM    2  N3  UNL     1     -21.840 -13.463   3.368  1.00  0.00    -0.187 N 
ATOM      3  H3  UNL     1     -22.558 -12.867   3.780  1.00  0.00     0.185 HD
HETATM    4  C12 UNL     1     -21.184 -13.069   2.242  1.00  0.00     0.215 A 
HETATM    5  N4  UNL     1     -20.237 -13.850   1.694  1.00  0.00    -0.185 N 
ATOM      6  H4  UNL     1     -19.753 -13.545   0.850  1.00  0.00     0.185 HD
HETATM    7  C13 UNL     1     -19.927 -15.028   2.252  1.00  0.00     0.712 A 
HETATM    8  N7  UNL     1     -20.584 -15.394   3.359  1.00  0.00    -0.021 N 
ATOM      9  H7  UNL     1     -20.349 -16.291   3.785  1.00  0.00     0.203 HD
ENDROOT
BRANCH   1  10
HETATM   10  N2  UNL     1     -22.120 -15.063   4.996  1.00  0.00    -0.224 N 
ATOM     11  H2  UNL     1     -21.837 -15.942   5.429  1.00  0.00     0.177 HD
BRANCH  10  12
HETATM   12  C10 UNL     1     -23.186 -14.279   5.571  1.00  0.00     0.158 C 
BRANCH  12  13
HETATM   13  C9  UNL     1     -23.065 -14.408   7.080  1.00  0.00     0.155 C 
BRANCH  13  14
HETATM   14  N1  UNL     1     -24.120 -15.287   7.522  1.00  0.00    -0.278 N 
HETATM   15  C1  UNL     1     -24.164 -16.690   7.391  1.00  0.00     0.261 A 
HETATM   16  O1  UNL     1     -23.249 -17.382   6.848  1.00  0.00    -0.267 OA
HETATM   17  C2  UNL     1     -25.417 -17.145   7.981  1.00  0.00     0.048 A 
HETATM   18  C3  UNL     1     -25.951 -18.409   8.114  1.00  0.00     0.018 A 
HETATM   19  C7  UNL     1     -26.117 -16.054   8.457  1.00  0.00     0.048 A 
HETATM   20  C4  UNL     1     -27.192 -18.576   8.730  1.00  0.00     0.001 A 
HETATM   21  C5  UNL     1     -27.910 -17.503   9.214  1.00  0.00     0.001 A 
HETATM   22  C6  UNL     1     -27.344 -16.256   9.061  1.00  0.00     0.018 A 
HETATM   23  C8  UNL     1     -25.310 -14.875   8.175  1.00  0.00     0.261 A 
HETATM   24  O2  UNL     1     -25.672 -13.705   8.487  1.00  0.00    -0.267 OA
ENDBRANCH  13  14
ENDBRANCH  12  13
ENDBRANCH  10  12
ENDBRANCH   1  10
BRANCH   7  25
HETATM   25  N5  UNL     1     -19.029 -15.803   1.763  1.00  0.00    -0.132 N 
ATOM     26  H5  UNL     1     -18.298 -15.426   1.161  1.00  0.00     0.205 HD
BRANCH  25  27
HETATM   27  N6  UNL     1     -19.060 -17.160   2.058  1.00  0.00    -0.296 N 
HETATM   28  C14 UNL     1     -18.781 -18.082   1.225  1.00  0.00     0.126 C 
ATOM     29  H6  UNL     1     -19.322 -17.436   3.004  1.00  0.00     0.186 HD
BRANCH  28  30
HETATM   30  C15 UNL     1     -18.856 -19.476   1.683  1.00  0.00     0.021 A 
HETATM   31  C16 UNL     1     -17.856 -20.259   2.180  1.00  0.00     0.021 A 
HETATM   32  C17 UNL     1     -18.166 -21.518   2.536  1.00  0.00     0.008 A 
HETATM   33  C18 UNL     1     -19.469 -21.908   2.368  1.00  0.00     0.050 A 
HETATM   34  S1  UNL     1     -20.208 -20.517   1.724  1.00  0.00    -0.101 SA
ENDBRANCH  28  30
ENDBRANCH  25  27
ENDBRANCH   7  25
TORSDOF 7
ENDMDL
MODEL 2
REMARK VINA RESULT: -8.184119611      0.462      1.713
REMARK  7 active torsions:
REMARK  status: ('A' for Active; 'I' for Inactive)
REMARK    1  A    between atoms: N1_11  and  C9_12 
REMARK    2  A    between atoms: C9_12  and  C10_13 
REMARK    3  A    between atoms: C10_13  and  N2_14 
REMARK    4  A    between atoms: N2_14  and  C11_16 
REMARK    5  A    between atoms: C13_22  and  N5_23 
REMARK    6  A    between atoms: N5_23  and  N6_25 
REMARK    7  A    between atoms: C14_27  and  C15_28 
ROOT
HETATM    1  C11 UNL     1     -21.202 -14.606   3.922  1.00  0.00     0.693 A 
HETATM    2  N3  UNL     1     -21.844 -13.818   3.035  1.00  0.00    -0.187 N 
ATOM      3  H3  UNL     1     -22.610 -13.217   3.341  1.00  0.00     0.185 HD
HETATM    4  C12 UNL     1     -21.460 -13.829   1.728  1.00  0.00     0.215 A 
HETATM    5  N4  UNL     1     -20.452 -14.619   1.320  1.00  0.00    -0.185 N 
ATOM      6  H4  UNL     1     -20.173 -14.619   0.339  1.00  0.00     0.185 HD
HETATM    7  C13 UNL     1     -19.811 -15.404   2.196  1.00  0.00     0.712 A 
HETATM    8  N7  UNL     1     -20.206 -15.376   3.475  1.00  0.00    -0.021 N 
ATOM      9  H7  UNL     1     -19.719 -15.974   4.143  1.00  0.00     0.203 HD
ENDROOT
BRANCH   1  10
HETATM   10  N2  UNL     1     -21.526 -14.631   5.162  1.00  0.00    -0.224 N 
ATOM     11  H2  UNL     1     -20.807 -14.560   5.882  1.00  0.00     0.177 HD
BRANCH  10  12
HETATM   12  C10 UNL     1     -22.915 -14.760   5.533  1.00  0.00     0.158 C 
BRANCH  12  13
HETATM   13  C9  UNL     1     -22.973 -14.718   7.050  1.00  0.00     0.155 C 
BRANCH  13  14
HETATM   14  N1  UNL     1     -24.123 -15.488   7.457  1.00  0.00    -0.278 N 
HETATM   15  C1  UNL     1     -25.354 -14.988   7.928  1.00  0.00     0.261 A 
HETATM   16  O1  UNL     1     -25.616 -13.753   8.057  1.00  0.00    -0.267 OA
HETATM   17  C2  UNL     1     -26.210 -16.133   8.216  1.00  0.00     0.048 A 
HETATM   18  C3  UNL     1     -27.501 -16.202   8.695  1.00  0.00     0.018 A 
HETATM   19  C7  UNL     1     -25.523 -17.296   7.931  1.00  0.00     0.048 A 
HETATM   20  C4  UNL     1     -28.103 -17.447   8.886  1.00  0.00     0.001 A 
HETATM   21  C5  UNL     1     -27.438 -18.623   8.608  1.00  0.00     0.001 A 
HETATM   22  C6  UNL     1     -26.149 -18.511   8.133  1.00  0.00     0.018 A 
HETATM   23  C8  UNL     1     -24.204 -16.904   7.451  1.00  0.00     0.261 A 
HETATM   24  O2  UNL     1     -23.325 -17.742   7.102  1.00  0.00    -0.267 OA
ENDBRANCH  13  14
ENDBRANCH  12  13
ENDBRANCH  10  12
ENDBRANCH   1  10
BRANCH   7  25
HETATM   25  N5  UNL     1     -18.844 -16.172   1.848  1.00  0.00    -0.132 N 
ATOM     26  H5  UNL     1     -18.043 -15.792   1.345  1.00  0.00     0.205 HD
BRANCH  25  27
HETATM   27  N6  UNL     1     -18.894 -17.523   2.162  1.00  0.00    -0.296 N 
HETATM   28  C14 UNL     1     -19.076 -18.452   1.310  1.00  0.00     0.126 C 
ATOM     29  H6  UNL     1     -18.776 -17.790   3.139  1.00  0.00     0.186 HD
BRANCH  28  30
HETATM   30  C15 UNL     1     -19.105 -19.839   1.791  1.00  0.00     0.021 A 
HETATM   31  C16 UNL     1     -18.095 -20.558   2.363  1.00  0.00     0.021 A 
HETATM   32  C17 UNL     1     -18.359 -21.826   2.726  1.00  0.00     0.008 A 
HETATM   33  C18 UNL     1     -19.627 -22.289   2.490  1.00  0.00     0.050 A 
HETATM   34  S1  UNL     1     -20.399 -20.951   1.775  1.00  0.00    -0.101 SA
ENDBRANCH  28  30
ENDBRANCH  25  27
ENDBRANCH   7  25
TORSDOF 7
ENDMDL
MODEL 3
REMARK VINA RESULT: -8.046992413      3.265      4.631
REMARK  7 active torsions:
REMARK  status: ('A' for Active; 'I' for Inactive)
REMARK    1  A    between atoms: N1_11  and  C9_12 
REMARK    2  A    between atoms: C9_12  and  C10_13 
REMARK    3  A    between atoms: C10_13  and  N2_14 
REMARK    4  A    between atoms: N2_14  and  C11_16 
REMARK    5  A    between atoms: C13_22  and  N5_23 
REMARK    6  A    between atoms: N5_23  and  N6_25 
REMARK    7  A    between atoms: C14_27  and  C15_28 
ROOT
HETATM    1  C11 UNL     1     -21.065 -14.657   3.413  1.00  0.00     0.693 A 
HETATM    2  N3  UNL     1     -21.218 -13.582   2.612  1.00  0.00    -0.187 N 
ATOM      3  H3  UNL     1     -21.869 -12.839   2.867  1.00  0.00     0.185 HD
HETATM    4  C12 UNL     1     -20.496 -13.497   1.460  1.00  0.00     0.215 A 
HETATM    5  N4  UNL     1     -19.638 -14.473   1.118  1.00  0.00    -0.185 N 
ATOM      6  H4  UNL     1     -19.103 -14.399   0.253  1.00  0.00     0.185 HD
HETATM    7  C13 UNL     1     -19.482 -15.543   1.909  1.00  0.00     0.712 A 
HETATM    8  N7  UNL     1     -20.202 -15.605   3.036  1.00  0.00    -0.021 N 
ATOM      9  H7  UNL     1     -20.084 -16.420   3.639  1.00  0.00     0.203 HD
ENDROOT
BRANCH   1  10
HETATM   10  N2  UNL     1     -21.721 -14.784   4.506  1.00  0.00    -0.224 N 
ATOM     11  H2  UNL     1     -22.258 -15.632   4.688  1.00  0.00     0.177 HD
BRANCH  10  12
HETATM   12  C10 UNL     1     -21.695 -13.718   5.479  1.00  0.00     0.158 C 
BRANCH  12  13
HETATM   13  C9  UNL     1     -23.119 -13.536   5.974  1.00  0.00     0.155 C 
BRANCH  13  14
HETATM   14  N1  UNL     1     -23.863 -12.898   4.915  1.00  0.00    -0.278 N 
HETATM   15  C1  UNL     1     -24.994 -13.409   4.247  1.00  0.00     0.261 A 
HETATM   16  O1  UNL     1     -25.520 -14.536   4.501  1.00  0.00    -0.267 OA
HETATM   17  C2  UNL     1     -25.403 -12.419   3.258  1.00  0.00     0.048 A 
HETATM   18  C3  UNL     1     -26.438 -12.419   2.348  1.00  0.00     0.018 A 
HETATM   19  C7  UNL     1     -24.548 -11.336   3.320  1.00  0.00     0.048 A 
HETATM   20  C4  UNL     1     -26.615 -11.327   1.498  1.00  0.00     0.001 A 
HETATM   21  C5  UNL     1     -25.776 -10.233   1.542  1.00  0.00     0.001 A 
HETATM   22  C6  UNL     1     -24.753 -10.271   2.464  1.00  0.00     0.018 A 
HETATM   23  C8  UNL     1     -23.572 -11.624   4.362  1.00  0.00     0.261 A 
HETATM   24  O2  UNL     1     -22.642 -10.826   4.671  1.00  0.00    -0.267 OA
ENDBRANCH  13  14
ENDBRANCH  12  13
ENDBRANCH  10  12
ENDBRANCH   1  10
BRANCH   7  25
HETATM   25  N5  UNL     1     -18.673 -16.497   1.621  1.00  0.00    -0.132 N 
ATOM     26  H5  UNL     1     -17.794 -16.298   1.144  1.00  0.00     0.205 HD
BRANCH  25  27
HETATM   27  N6  UNL     1     -19.002 -17.801   1.963  1.00  0.00    -0.296 N 
HETATM   28  C14 UNL     1     -18.369 -18.831   1.560  1.00  0.00     0.126 C 
ATOM     29  H6  UNL     1     -19.802 -17.946   2.578  1.00  0.00     0.186 HD
BRANCH  28  30
HETATM   30  C15 UNL     1     -18.834 -20.150   2.006  1.00  0.00     0.021 A 
HETATM   31  C16 UNL     1     -18.131 -21.117   2.666  1.00  0.00     0.021 A 
HETATM   32  C17 UNL     1     -18.775 -22.257   2.973  1.00  0.00     0.008 A 
HETATM   33  C18 UNL     1     -20.089 -22.350   2.597  1.00  0.00     0.050 A 
HETATM   34  S1  UNL     1     -20.378 -20.856   1.832  1.00  0.00    -0.101 SA
ENDBRANCH  28  30
ENDBRANCH  25  27
ENDBRANCH   7  25
TORSDOF 7
ENDMDL
MODEL 4
REMARK VINA RESULT: -8.015699396      3.256      4.701
REMARK  7 active torsions:
REMARK  status: ('A' for Active; 'I' for Inactive)
REMARK    1  A    between atoms: N1_11  and  C9_12 
REMARK    2  A    between atoms: C9_12  and  C10_13 
REMARK    3  A    between atoms: C10_13  and  N2_14 
REMARK    4  A    between atoms: N2_14  and  C11_16 
REMARK    5  A    between atoms: C13_22  and  N5_23 
REMARK    6  A    between atoms: N5_23  and  N6_25 
REMARK    7  A    between atoms: C14_27  and  C15_28 
ROOT
HETATM    1  C11 UNL     1     -21.074 -14.666   3.415  1.00  0.00     0.693 A 
HETATM    2  N3  UNL     1     -21.215 -13.573   2.636  1.00  0.00    -0.187 N 
ATOM      3  H3  UNL     1     -21.863 -12.832   2.902  1.00  0.00     0.185 HD
HETATM    4  C12 UNL     1     -20.485 -13.468   1.491  1.00  0.00     0.215 A 
HETATM    5  N4  UNL     1     -19.630 -14.442   1.135  1.00  0.00    -0.185 N 
ATOM      6  H4  UNL     1     -19.088 -14.353   0.276  1.00  0.00     0.185 HD
HETATM    7  C13 UNL     1     -19.486 -15.529   1.904  1.00  0.00     0.712 A 
HETATM    8  N7  UNL     1     -20.214 -15.611   3.025  1.00  0.00    -0.021 N 
ATOM      9  H7  UNL     1     -20.106 -16.438   3.611  1.00  0.00     0.203 HD
ENDROOT
BRANCH   1  10
HETATM   10  N2  UNL     1     -21.739 -14.811   4.501  1.00  0.00    -0.224 N 
ATOM     11  H2  UNL     1     -22.309 -15.645   4.647  1.00  0.00     0.177 HD
BRANCH  10  12
HETATM   12  C10 UNL     1     -21.675 -13.788   5.517  1.00  0.00     0.158 C 
BRANCH  12  13
HETATM   13  C9  UNL     1     -23.095 -13.563   6.008  1.00  0.00     0.155 C 
BRANCH  13  14
HETATM   14  N1  UNL     1     -23.814 -12.895   4.951  1.00  0.00    -0.278 N 
HETATM   15  C1  UNL     1     -23.527 -11.630   4.399  1.00  0.00     0.261 A 
HETATM   16  O1  UNL     1     -22.565 -10.892   4.776  1.00  0.00    -0.267 OA
HETATM   17  C2  UNL     1     -24.518 -11.370   3.362  1.00  0.00     0.048 A 
HETATM   18  C3  UNL     1     -24.692 -10.289   2.524  1.00  0.00     0.018 A 
HETATM   19  C7  UNL     1     -25.384 -12.442   3.284  1.00  0.00     0.048 A 
HETATM   20  C4  UNL     1     -25.740 -10.288   1.602  1.00  0.00     0.001 A 
HETATM   21  C5  UNL     1     -26.617 -11.347   1.504  1.00  0.00     0.001 A 
HETATM   22  C6  UNL     1     -26.411 -12.407   2.359  1.00  0.00     0.018 A 
HETATM   23  C8  UNL     1     -24.952 -13.412   4.280  1.00  0.00     0.261 A 
HETATM   24  O2  UNL     1     -25.540 -14.515   4.464  1.00  0.00    -0.267 OA
ENDBRANCH  13  14
ENDBRANCH  12  13
ENDBRANCH  10  12
ENDBRANCH   1  10
BRANCH   7  25
HETATM   25  N5  UNL     1     -18.681 -16.481   1.602  1.00  0.00    -0.132 N 
ATOM     26  H5  UNL     1     -17.808 -16.280   1.114  1.00  0.00     0.205 HD
BRANCH  25  27
HETATM   27  N6  UNL     1     -19.004 -17.787   1.943  1.00  0.00    -0.296 N 
HETATM   28  C14 UNL     1     -18.360 -18.813   1.549  1.00  0.00     0.126 C 
ATOM     29  H6  UNL     1     -19.810 -17.936   2.550  1.00  0.00     0.186 HD
BRANCH  28  30
HETATM   30  C15 UNL     1     -18.821 -20.135   1.994  1.00  0.00     0.021 A 
HETATM   31  C16 UNL     1     -18.120 -21.093   2.668  1.00  0.00     0.021 A 
HETATM   32  C17 UNL     1     -18.759 -22.237   2.971  1.00  0.00     0.008 A 
HETATM   33  C18 UNL     1     -20.067 -22.343   2.574  1.00  0.00     0.050 A 
HETATM   34  S1  UNL     1     -20.355 -20.855   1.799  1.00  0.00    -0.101 SA
ENDBRANCH  28  30
ENDBRANCH  25  27
ENDBRANCH   7  25
TORSDOF 7
ENDMDL
MODEL 5
REMARK VINA RESULT: -7.883057379      1.975      2.909
REMARK  7 active torsions:
REMARK  status: ('A' for Active; 'I' for Inactive)
REMARK    1  A    between atoms: N1_11  and  C9_12 
REMARK    2  A    between atoms: C9_12  and  C10_13 
REMARK    3  A    between atoms: C10_13  and  N2_14 
REMARK    4  A    between atoms: N2_14  and  C11_16 
REMARK    5  A    between atoms: C13_22  and  N5_23 
REMARK    6  A    between atoms: N5_23  and  N6_25 
REMARK    7  A    between atoms: C14_27  and  C15_28 
ROOT
HETATM    1  C11 UNL     1     -20.606 -13.342   1.753  1.00  0.00     0.693 A 
HETATM    2  N3  UNL     1     -20.319 -13.123   0.453  1.00  0.00    -0.187 N 
ATOM      3  H3  UNL     1     -20.663 -12.284  -0.015  1.00  0.00     0.185 HD
HETATM    4  C12 UNL     1     -19.567 -14.031  -0.229  1.00  0.00     0.215 A 
HETATM    5  N4  UNL     1     -19.113 -15.138   0.382  1.00  0.00    -0.185 N 
ATOM      6  H4  UNL     1     -18.551 -15.811  -0.138  1.00  0.00     0.185 HD
HETATM    7  C13 UNL     1     -19.394 -15.361   1.673  1.00  0.00     0.712 A 
HETATM    8  N7  UNL     1     -20.135 -14.455   2.323  1.00  0.00    -0.021 N 
ATOM      9  H7  UNL     1     -20.351 -14.623   3.306  1.00  0.00     0.203 HD
ENDROOT
BRANCH   1  10
HETATM   10  N2  UNL     1     -21.310 -12.518   2.438  1.00  0.00    -0.224 N 
ATOM     11  H2  UNL     1     -20.870 -11.710   2.880  1.00  0.00     0.177 HD
BRANCH  10  12
HETATM   12  C10 UNL     1     -22.729 -12.740   2.579  1.00  0.00     0.158 C 
BRANCH  12  13
HETATM   13  C9  UNL     1     -23.140 -12.140   3.912  1.00  0.00     0.155 C 
BRANCH  13  14
HETATM   14  N1  UNL     1     -23.547 -13.228   4.767  1.00  0.00    -0.278 N 
HETATM   15  C1  UNL     1     -22.709 -14.171   5.397  1.00  0.00     0.261 A 
HETATM   16  O1  UNL     1     -21.444 -14.180   5.288  1.00  0.00    -0.267 OA
HETATM   17  C2  UNL     1     -23.562 -15.077   6.155  1.00  0.00     0.048 A 
HETATM   18  C3  UNL     1     -23.255 -16.166   6.943  1.00  0.00     0.018 A 
HETATM   19  C7  UNL     1     -24.881 -14.702   5.993  1.00  0.00     0.048 A 
HETATM   20  C4  UNL     1     -24.278 -16.878   7.571  1.00  0.00     0.001 A 
HETATM   21  C5  UNL     1     -25.602 -16.522   7.425  1.00  0.00     0.001 A 
HETATM   22  C6  UNL     1     -25.868 -15.429   6.629  1.00  0.00     0.018 A 
HETATM   23  C8  UNL     1     -24.886 -13.536   5.119  1.00  0.00     0.261 A 
HETATM   24  O2  UNL     1     -25.948 -12.944   4.772  1.00  0.00    -0.267 OA
ENDBRANCH  13  14
ENDBRANCH  12  13
ENDBRANCH  10  12
ENDBRANCH   1  10
BRANCH   7  25
HETATM   25  N5  UNL     1     -18.980 -16.404   2.295  1.00  0.00    -0.132 N 
ATOM     26  H5  UNL     1     -18.272 -16.319   3.024  1.00  0.00     0.205 HD
BRANCH  25  27
HETATM   27  N6  UNL     1     -19.502 -17.648   1.971  1.00  0.00    -0.296 N 
HETATM   28  C14 UNL     1     -18.813 -18.715   1.882  1.00  0.00     0.126 C 
ATOM     29  H6  UNL     1     -20.504 -17.713   1.793  1.00  0.00     0.186 HD
BRANCH  28  30
HETATM   30  C15 UNL     1     -19.505 -19.962   1.531  1.00  0.00     0.021 A 
HETATM   31  C16 UNL     1     -20.687 -20.116   0.866  1.00  0.00     0.021 A 
HETATM   32  C17 UNL     1     -21.128 -21.369   0.658  1.00  0.00     0.008 A 
HETATM   33  C18 UNL     1     -20.348 -22.390   1.134  1.00  0.00     0.050 A 
HETATM   34  S1  UNL     1     -19.038 -21.572   1.850  1.00  0.00    -0.101 SA
ENDBRANCH  28  30
ENDBRANCH  25  27
ENDBRANCH   7  25
TORSDOF 7
ENDMDL
