MODEL 1
REMARK VINA RESULT: -5.249175333      0.000      0.000
REMARK  7 active torsions:
REMARK  status: ('A' for Active; 'I' for Inactive)
REMARK    1  A    between atoms: O1_2  and  C2_3 
REMARK    2  A    between atoms: C2_3  and  C3_4 
REMARK    3  A    between atoms: C3_4  and  N1_5 
REMARK    4  A    between atoms: N1_5  and  C4_6 
REMARK       I    between atoms: N1_5  and  C17_26 
REMARK    5  A    between atoms: C9_14  and  O2_15 
REMARK    6  A    between atoms: C11_19  and  C12_20 
REMARK    7  A    between atoms: C12_20  and  C13_22 
ROOT
HETATM    1  C4  UNL     1     -25.479 -14.033   4.842  1.00  0.00     0.119 C 
HETATM    2  C5  UNL     1     -25.366 -12.882   4.305  1.00  0.00     0.030 C 
HETATM    3  C6  UNL     1     -26.453 -12.513   3.265  1.00  0.00     0.132 C 
HETATM    4  S1  UNL     1     -26.180 -10.756   2.918  1.00  0.00    -0.153 SA
HETATM    5  C7  UNL     1     -24.421 -10.575   2.455  1.00  0.00     0.115 C 
HETATM    6  C8  UNL     1     -23.631 -11.248   3.535  1.00  0.00     0.157 C 
HETATM    7  N2  UNL     1     -24.458 -11.859   4.534  1.00  0.00    -0.381 N 
ATOM      8  H2  UNL     1     -24.372 -11.513   5.490  1.00  0.00     0.160 HD
HETATM    9  C9  UNL     1     -22.795 -10.148   4.127  1.00  0.00     0.381 C 
HETATM   10  N3  UNL     1     -22.838  -9.035   3.236  1.00  0.00     0.128 N 
HETATM   11  C10 UNL     1     -22.917  -7.841   4.101  1.00  0.00     0.314 C 
HETATM   12  C11 UNL     1     -23.988  -9.163   2.439  1.00  0.00     0.311 C 
ENDROOT
BRANCH   1  13
HETATM   13  N1  UNL     1     -24.807 -14.811   5.774  1.00  0.00    -0.325 N 
HETATM   14  C17 UNL     1     -25.323 -15.415   6.916  1.00  0.00     0.219 C 
HETATM   15  C18 UNL     1     -24.415 -16.257   7.798  1.00  0.00     0.117 C 
HETATM   16  O4  UNL     1     -26.483 -15.354   7.341  1.00  0.00    -0.274 OA
BRANCH  13  17
HETATM   17  C3  UNL     1     -23.352 -15.095   5.542  1.00  0.00     0.157 C 
BRANCH  17  18
HETATM   18  C2  UNL     1     -22.483 -14.069   6.187  1.00  0.00     0.187 C 
BRANCH  18  19
HETATM   19  O1  UNL     1     -21.694 -13.434   5.232  1.00  0.00    -0.394 OA
HETATM   20  C1  UNL     1     -21.528 -14.223   4.113  1.00  0.00     0.201 C 
ENDBRANCH  18  19
ENDBRANCH  17  18
ENDBRANCH  13  17
ENDBRANCH   1  13
BRANCH   9  21
HETATM   21  O2  UNL     1     -21.513 -10.642   4.366  1.00  0.00    -0.366 OA
ATOM     22  H2  UNL     1     -20.883  -9.959   4.168  1.00  0.00     0.212 HD
ENDBRANCH   9  21
BRANCH  12  23
HETATM   23  C12 UNL     1     -23.937  -8.567   1.085  1.00  0.00     0.169 C 
HETATM   24  O3  UNL     1     -24.068  -9.408   0.189  1.00  0.00    -0.295 OA
BRANCH  23  25
HETATM   25  C13 UNL     1     -23.762  -7.189   0.676  1.00  0.00     0.012 C 
HETATM   26  C14 UNL     1     -22.285  -6.756   0.680  1.00  0.00     0.022 C 
HETATM   27  C15 UNL     1     -24.502  -6.151   1.433  1.00  0.00     0.022 C 
HETATM   28  C16 UNL     1     -24.168  -7.032  -0.801  1.00  0.00     0.022 C 
ENDBRANCH  23  25
ENDBRANCH  12  23
TORSDOF 7
ENDMDL
MODEL 2
REMARK VINA RESULT: -5.146968559      3.806      8.663
REMARK  7 active torsions:
REMARK  status: ('A' for Active; 'I' for Inactive)
REMARK    1  A    between atoms: O1_2  and  C2_3 
REMARK    2  A    between atoms: C2_3  and  C3_4 
REMARK    3  A    between atoms: C3_4  and  N1_5 
REMARK    4  A    between atoms: N1_5  and  C4_6 
REMARK       I    between atoms: N1_5  and  C17_26 
REMARK    5  A    between atoms: C9_14  and  O2_15 
REMARK    6  A    between atoms: C11_19  and  C12_20 
REMARK    7  A    between atoms: C12_20  and  C13_22 
ROOT
HETATM    1  C4  UNL     1     -22.753 -14.581   5.340  1.00  0.00     0.119 C 
HETATM    2  C5  UNL     1     -23.665 -14.960   6.147  1.00  0.00     0.030 C 
HETATM    3  C6  UNL     1     -23.539 -16.411   6.675  1.00  0.00     0.132 C 
HETATM    4  S1  UNL     1     -24.785 -16.534   7.984  1.00  0.00    -0.153 SA
HETATM    5  C7  UNL     1     -26.373 -15.997   7.255  1.00  0.00     0.115 C 
HETATM    6  C8  UNL     1     -26.111 -14.673   6.605  1.00  0.00     0.157 C 
HETATM    7  N2  UNL     1     -24.737 -14.270   6.693  1.00  0.00    -0.381 N 
ATOM      8  H2  UNL     1     -24.532 -13.408   7.198  1.00  0.00     0.160 HD
HETATM    9  C9  UNL     1     -27.001 -13.712   7.341  1.00  0.00     0.381 C 
HETATM   10  N3  UNL     1     -27.944 -14.474   8.094  1.00  0.00     0.128 N 
HETATM   11  C10 UNL     1     -28.088 -13.763   9.379  1.00  0.00     0.314 C 
HETATM   12  C11 UNL     1     -27.408 -15.759   8.282  1.00  0.00     0.311 C 
ENDROOT
BRANCH   1  13
HETATM   13  N1  UNL     1     -22.420 -13.447   4.613  1.00  0.00    -0.325 N 
HETATM   14  C17 UNL     1     -22.519 -12.117   5.011  1.00  0.00     0.219 C 
HETATM   15  C18 UNL     1     -22.071 -11.013   4.066  1.00  0.00     0.117 C 
HETATM   16  O4  UNL     1     -22.949 -11.682   6.086  1.00  0.00    -0.274 OA
BRANCH  13  17
HETATM   17  C3  UNL     1     -21.844 -13.628   3.240  1.00  0.00     0.157 C 
BRANCH  17  18
HETATM   18  C2  UNL     1     -20.801 -14.694   3.219  1.00  0.00     0.187 C 
BRANCH  18  19
HETATM   19  O1  UNL     1     -19.986 -14.552   2.100  1.00  0.00    -0.394 OA
HETATM   20  C1  UNL     1     -20.312 -13.419   1.383  1.00  0.00     0.201 C 
ENDBRANCH  18  19
ENDBRANCH  17  18
ENDBRANCH  13  17
ENDBRANCH   1  13
BRANCH   9  21
HETATM   21  O2  UNL     1     -27.577 -12.840   6.417  1.00  0.00    -0.366 OA
ATOM     22  H2  UNL     1     -28.519 -12.854   6.533  1.00  0.00     0.212 HD
ENDBRANCH   9  21
BRANCH  12  23
HETATM   23  C12 UNL     1     -28.373 -16.873   8.428  1.00  0.00     0.169 C 
HETATM   24  O3  UNL     1     -29.305 -16.806   7.620  1.00  0.00    -0.295 OA
BRANCH  23  25
HETATM   25  C13 UNL     1     -28.378 -17.990   9.350  1.00  0.00     0.012 C 
HETATM   26  C14 UNL     1     -27.544 -19.178   8.841  1.00  0.00     0.022 C 
HETATM   27  C15 UNL     1     -29.696 -18.545   9.744  1.00  0.00     0.022 C 
HETATM   28  C16 UNL     1     -27.660 -17.591  10.652  1.00  0.00     0.022 C 
ENDBRANCH  23  25
ENDBRANCH  12  23
TORSDOF 7
ENDMDL
MODEL 3
REMARK VINA RESULT: -5.133760824      2.890      8.049
REMARK  7 active torsions:
REMARK  status: ('A' for Active; 'I' for Inactive)
REMARK    1  A    between atoms: O1_2  and  C2_3 
REMARK    2  A    between atoms: C2_3  and  C3_4 
REMARK    3  A    between atoms: C3_4  and  N1_5 
REMARK    4  A    between atoms: N1_5  and  C4_6 
REMARK       I    between atoms: N1_5  and  C17_26 
REMARK    5  A    between atoms: C9_14  and  O2_15 
REMARK    6  A    between atoms: C11_19  and  C12_20 
REMARK    7  A    between atoms: C12_20  and  C13_22 
ROOT
HETATM    1  C4  UNL     1     -22.119 -13.461   4.905  1.00  0.00     0.119 C 
HETATM    2  C5  UNL     1     -23.198 -13.671   5.553  1.00  0.00     0.030 C 
HETATM    3  C6  UNL     1     -23.030 -13.973   7.062  1.00  0.00     0.132 C 
HETATM    4  S1  UNL     1     -24.714 -13.935   7.729  1.00  0.00    -0.153 SA
HETATM    5  C7  UNL     1     -25.713 -15.075   6.709  1.00  0.00     0.115 C 
HETATM    6  C8  UNL     1     -25.472 -14.685   5.283  1.00  0.00     0.157 C 
HETATM    7  N2  UNL     1     -24.524 -13.617   5.149  1.00  0.00    -0.381 N 
ATOM      8  H2  UNL     1     -24.850 -12.750   4.724  1.00  0.00     0.160 HD
HETATM    9  C9  UNL     1     -26.824 -14.269   4.775  1.00  0.00     0.381 C 
HETATM   10  N3  UNL     1     -27.803 -14.720   5.711  1.00  0.00     0.128 N 
HETATM   11  C10 UNL     1     -28.800 -13.635   5.792  1.00  0.00     0.314 C 
HETATM   12  C11 UNL     1     -27.162 -14.916   6.946  1.00  0.00     0.311 C 
ENDROOT
BRANCH   1  13
HETATM   13  N1  UNL     1     -21.734 -13.170   3.604  1.00  0.00    -0.325 N 
HETATM   14  C17 UNL     1     -20.974 -13.955   2.742  1.00  0.00     0.219 C 
HETATM   15  C18 UNL     1     -20.683 -13.462   1.333  1.00  0.00     0.117 C 
HETATM   16  O4  UNL     1     -20.468 -15.060   2.977  1.00  0.00    -0.274 OA
BRANCH  13  17
HETATM   17  C3  UNL     1     -22.203 -11.881   2.996  1.00  0.00     0.157 C 
BRANCH  17  18
HETATM   18  C2  UNL     1     -21.946 -10.723   3.900  1.00  0.00     0.187 C 
BRANCH  18  19
HETATM   19  O1  UNL     1     -23.147 -10.203   4.373  1.00  0.00    -0.394 OA
HETATM   20  C1  UNL     1     -23.241  -8.849   4.121  1.00  0.00     0.201 C 
ENDBRANCH  18  19
ENDBRANCH  17  18
ENDBRANCH  13  17
ENDBRANCH   1  13
BRANCH   9  21
HETATM   21  O2  UNL     1     -26.990 -14.771   3.485  1.00  0.00    -0.366 OA
ATOM     22  H2  UNL     1     -27.910 -14.718   3.255  1.00  0.00     0.212 HD
ENDBRANCH   9  21
BRANCH  12  23
HETATM   23  C12 UNL     1     -27.738 -15.940   7.846  1.00  0.00     0.169 C 
HETATM   24  O3  UNL     1     -28.307 -16.850   7.232  1.00  0.00    -0.295 OA
BRANCH  23  25
HETATM   25  C13 UNL     1     -27.730 -16.026   9.291  1.00  0.00     0.012 C 
HETATM   26  C14 UNL     1     -29.006 -16.683   9.850  1.00  0.00     0.022 C 
HETATM   27  C15 UNL     1     -27.544 -14.767  10.051  1.00  0.00     0.022 C 
HETATM   28  C16 UNL     1     -26.616 -16.986   9.747  1.00  0.00     0.022 C 
ENDBRANCH  23  25
ENDBRANCH  12  23
TORSDOF 7
ENDMDL
MODEL 4
REMARK VINA RESULT: -5.097729084      1.291      1.666
REMARK  7 active torsions:
REMARK  status: ('A' for Active; 'I' for Inactive)
REMARK    1  A    between atoms: O1_2  and  C2_3 
REMARK    2  A    between atoms: C2_3  and  C3_4 
REMARK    3  A    between atoms: C3_4  and  N1_5 
REMARK    4  A    between atoms: N1_5  and  C4_6 
REMARK       I    between atoms: N1_5  and  C17_26 
REMARK    5  A    between atoms: C9_14  and  O2_15 
REMARK    6  A    between atoms: C11_19  and  C12_20 
REMARK    7  A    between atoms: C12_20  and  C13_22 
ROOT
HETATM    1  C4  UNL     1     -24.606 -13.559   4.383  1.00  0.00     0.119 C 
HETATM    2  C5  UNL     1     -24.689 -12.404   3.850  1.00  0.00     0.030 C 
HETATM    3  C6  UNL     1     -25.775 -12.240   2.757  1.00  0.00     0.132 C 
HETATM    4  S1  UNL     1     -25.826 -10.461   2.421  1.00  0.00    -0.153 SA
HETATM    5  C7  UNL     1     -24.113  -9.945   2.045  1.00  0.00     0.115 C 
HETATM    6  C8  UNL     1     -23.262 -10.463   3.163  1.00  0.00     0.157 C 
HETATM    7  N2  UNL     1     -24.005 -11.228   4.121  1.00  0.00    -0.381 N 
ATOM      8  H2  UNL     1     -24.034 -10.880   5.080  1.00  0.00     0.160 HD
HETATM    9  C9  UNL     1     -22.681  -9.228   3.794  1.00  0.00     0.381 C 
HETATM   10  N3  UNL     1     -22.893  -8.136   2.900  1.00  0.00     0.128 N 
HETATM   11  C10 UNL     1     -23.241  -6.987   3.758  1.00  0.00     0.314 C 
HETATM   12  C11 UNL     1     -23.957  -8.476   2.048  1.00  0.00     0.311 C 
ENDROOT
BRANCH   1  13
HETATM   13  N1  UNL     1     -23.844 -14.201   5.347  1.00  0.00    -0.325 N 
HETATM   14  C17 UNL     1     -24.250 -15.187   6.242  1.00  0.00     0.219 C 
HETATM   15  C18 UNL     1     -23.242 -15.787   7.210  1.00  0.00     0.117 C 
HETATM   16  O4  UNL     1     -25.383 -15.666   6.372  1.00  0.00    -0.274 OA
BRANCH  13  17
HETATM   17  C3  UNL     1     -22.388 -13.852   5.449  1.00  0.00     0.157 C 
BRANCH  17  18
HETATM   18  C2  UNL     1     -21.629 -14.309   4.250  1.00  0.00     0.187 C 
BRANCH  18  19
HETATM   19  O1  UNL     1     -21.365 -13.235   3.405  1.00  0.00    -0.394 OA
HETATM   20  C1  UNL     1     -21.365 -13.626   2.082  1.00  0.00     0.201 C 
ENDBRANCH  18  19
ENDBRANCH  17  18
ENDBRANCH  13  17
ENDBRANCH   1  13
BRANCH   9  21
HETATM   21  O2  UNL     1     -21.341  -9.470   4.096  1.00  0.00    -0.366 OA
ATOM     22  H2  UNL     1     -21.281  -9.756   5.000  1.00  0.00     0.212 HD
ENDBRANCH   9  21
BRANCH  12  23
HETATM   23  C12 UNL     1     -23.955  -7.870   0.697  1.00  0.00     0.169 C 
HETATM   24  O3  UNL     1     -22.820  -7.568   0.312  1.00  0.00    -0.295 OA
BRANCH  23  25
HETATM   25  C13 UNL     1     -25.052  -7.592  -0.205  1.00  0.00     0.012 C 
HETATM   26  C14 UNL     1     -26.314  -7.110   0.533  1.00  0.00     0.022 C 
HETATM   27  C15 UNL     1     -25.491  -8.685  -1.107  1.00  0.00     0.022 C 
HETATM   28  C16 UNL     1     -24.694  -6.394  -1.103  1.00  0.00     0.022 C 
ENDBRANCH  23  25
ENDBRANCH  12  23
TORSDOF 7
ENDMDL
MODEL 5
REMARK VINA RESULT: -5.073987821      3.023      5.607
REMARK  7 active torsions:
REMARK  status: ('A' for Active; 'I' for Inactive)
REMARK    1  A    between atoms: O1_2  and  C2_3 
REMARK    2  A    between atoms: C2_3  and  C3_4 
REMARK    3  A    between atoms: C3_4  and  N1_5 
REMARK    4  A    between atoms: N1_5  and  C4_6 
REMARK       I    between atoms: N1_5  and  C17_26 
REMARK    5  A    between atoms: C9_14  and  O2_15 
REMARK    6  A    between atoms: C11_19  and  C12_20 
REMARK    7  A    between atoms: C12_20  and  C13_22 
ROOT
HETATM    1  C4  UNL     1     -25.435 -17.107   8.429  1.00  0.00     0.119 C 
HETATM    2  C5  UNL     1     -24.973 -16.325   7.534  1.00  0.00     0.030 C 
HETATM    3  C6  UNL     1     -23.431 -16.179   7.496  1.00  0.00     0.132 C 
HETATM    4  S1  UNL     1     -23.092 -15.258   5.973  1.00  0.00    -0.153 SA
HETATM    5  C7  UNL     1     -24.119 -13.747   6.030  1.00  0.00     0.115 C 
HETATM    6  C8  UNL     1     -25.516 -14.198   6.328  1.00  0.00     0.157 C 
HETATM    7  N2  UNL     1     -25.614 -15.614   6.530  1.00  0.00    -0.381 N 
ATOM      8  H2  UNL     1     -26.202 -16.141   5.885  1.00  0.00     0.160 HD
HETATM    9  C9  UNL     1     -26.311 -13.770   5.126  1.00  0.00     0.381 C 
HETATM   10  N3  UNL     1     -25.518 -12.848   4.380  1.00  0.00     0.128 N 
HETATM   11  C10 UNL     1     -25.763 -13.175   2.962  1.00  0.00     0.314 C 
HETATM   12  C11 UNL     1     -24.173 -13.057   4.725  1.00  0.00     0.311 C 
ENDROOT
BRANCH   1  13
HETATM   13  N1  UNL     1     -26.671 -17.558   8.870  1.00  0.00    -0.325 N 
HETATM   14  C17 UNL     1     -27.604 -16.875   9.644  1.00  0.00     0.219 C 
HETATM   15  C18 UNL     1     -28.923 -17.544   9.999  1.00  0.00     0.117 C 
HETATM   16  O4  UNL     1     -27.503 -15.735  10.115  1.00  0.00    -0.274 OA
BRANCH  13  17
HETATM   17  C3  UNL     1     -27.114 -18.930   8.454  1.00  0.00     0.157 C 
BRANCH  17  18
HETATM   18  C2  UNL     1     -25.966 -19.762   7.994  1.00  0.00     0.187 C 
BRANCH  18  19
HETATM   19  O1  UNL     1     -26.079 -20.033   6.633  1.00  0.00    -0.394 OA
HETATM   20  C1  UNL     1     -26.613 -21.286   6.414  1.00  0.00     0.201 C 
ENDBRANCH  18  19
ENDBRANCH  17  18
ENDBRANCH  13  17
ENDBRANCH   1  13
BRANCH   9  21
HETATM   21  O2  UNL     1     -27.533 -13.255   5.560  1.00  0.00    -0.366 OA
ATOM     22  H2  UNL     1     -28.181 -13.401   4.882  1.00  0.00     0.212 HD
ENDBRANCH   9  21
BRANCH  12  23
HETATM   23  C12 UNL     1     -23.265 -11.891   4.626  1.00  0.00     0.169 C 
HETATM   24  O3  UNL     1     -23.035 -11.371   5.724  1.00  0.00    -0.295 OA
BRANCH  23  25
HETATM   25  C13 UNL     1     -22.632 -11.294   3.469  1.00  0.00     0.012 C 
HETATM   26  C14 UNL     1     -21.495 -10.330   3.851  1.00  0.00     0.022 C 
HETATM   27  C15 UNL     1     -23.499 -10.559   2.517  1.00  0.00     0.022 C 
HETATM   28  C16 UNL     1     -21.907 -12.383   2.657  1.00  0.00     0.022 C 
ENDBRANCH  23  25
ENDBRANCH  12  23
TORSDOF 7
ENDMDL
