MODEL 1
REMARK VINA RESULT: -6.873565940      0.000      0.000
REMARK  7 active torsions:
REMARK  status: ('A' for Active; 'I' for Inactive)
REMARK    1  A    between atoms: C2_2  and  N1_3 
REMARK       I    between atoms: N1_3  and  C3_5 
REMARK    2  A    between atoms: C3_5  and  C4_7 
REMARK    3  A    between atoms: C7_12  and  N2_13 
REMARK       I    between atoms: N2_13  and  C8_15 
REMARK    4  A    between atoms: C8_15  and  C9_17 
REMARK    5  A    between atoms: C9_17  and  C10_18 
REMARK    6  A    between atoms: C9_17  and  C12_20 
REMARK    7  A    between atoms: C12_20  and  O6_22 
ROOT
HETATM    1  C4  UNL     1     -24.708 -13.385   5.356  1.00  0.00     0.126 C 
HETATM    2  C5  UNL     1     -23.736 -12.535   4.696  1.00  0.00     0.162 C 
HETATM    3  O2  UNL     1     -24.084 -11.569   3.773  1.00  0.00    -0.312 OA
HETATM    4  C6  UNL     1     -22.844 -11.208   3.186  1.00  0.00     0.283 C 
HETATM    5  O3  UNL     1     -22.553 -10.151   2.564  1.00  0.00    -0.263 OA
HETATM    6  C7  UNL     1     -21.860 -12.336   3.426  1.00  0.00     0.200 C 
HETATM    7  C14 UNL     1     -22.819 -13.403   3.852  1.00  0.00     0.111 C 
HETATM    8  S1  UNL     1     -22.289 -14.491   5.174  1.00  0.00    -0.149 SA
HETATM    9  C15 UNL     1     -23.858 -14.353   6.148  1.00  0.00     0.016 C 
HETATM   10  C16 UNL     1     -23.470 -13.708   7.463  1.00  0.00     0.028 C 
HETATM   11  C17 UNL     1     -24.441 -15.690   6.392  1.00  0.00     0.028 C 
ENDROOT
BRANCH   6  12
HETATM   12  N2  UNL     1     -21.330 -12.664   2.098  1.00  0.00    -0.345 N 
HETATM   13  C8  UNL     1     -20.366 -13.672   1.925  1.00  0.00     0.232 C 
HETATM   14  O4  UNL     1     -19.956 -14.292   2.928  1.00  0.00    -0.273 OA
ATOM     15  H2  UNL     1     -21.668 -12.150   1.285  1.00  0.00     0.163 HD
BRANCH  13  16
HETATM   16  C9  UNL     1     -19.844 -14.000   0.593  1.00  0.00     0.177 C 
BRANCH  16  17
HETATM   17  C10 UNL     1     -20.838 -13.750  -0.531  1.00  0.00     0.020 C 
HETATM   18  C11 UNL     1     -20.283 -12.940  -1.649  1.00  0.00     0.006 C 
ENDBRANCH  16  17
BRANCH  16  19
HETATM   19  C12 UNL     1     -19.438 -15.421   0.517  1.00  0.00     0.271 C 
HETATM   20  O5  UNL     1     -18.252 -15.741   0.322  1.00  0.00    -0.264 OA
BRANCH  19  21
HETATM   21  O6  UNL     1     -20.382 -16.424   0.660  1.00  0.00    -0.326 OA
HETATM   22  C13 UNL     1     -20.038 -17.756   0.939  1.00  0.00     0.213 C 
ENDBRANCH  19  21
ENDBRANCH  16  19
ENDBRANCH  13  16
ENDBRANCH   6  12
BRANCH   1  23
HETATM   23  C3  UNL     1     -25.742 -13.974   4.517  1.00  0.00     0.225 C 
HETATM   24  N1  UNL     1     -26.038 -13.519   3.218  1.00  0.00    -0.361 N 
ATOM     25  H1  UNL     1     -25.510 -12.739   2.828  1.00  0.00     0.162 HD
HETATM   26  O1  UNL     1     -26.414 -14.936   4.955  1.00  0.00    -0.273 OA
BRANCH  24  27
HETATM   27  C2  UNL     1     -27.074 -14.136   2.431  1.00  0.00     0.118 C 
HETATM   28  C1  UNL     1     -26.684 -14.349   1.004  1.00  0.00     0.026 C 
ENDBRANCH  24  27
ENDBRANCH   1  23
TORSDOF 7
ENDMDL
MODEL 2
REMARK VINA RESULT: -6.565857213      1.104      2.030
REMARK  7 active torsions:
REMARK  status: ('A' for Active; 'I' for Inactive)
REMARK    1  A    between atoms: C2_2  and  N1_3 
REMARK       I    between atoms: N1_3  and  C3_5 
REMARK    2  A    between atoms: C3_5  and  C4_7 
REMARK    3  A    between atoms: C7_12  and  N2_13 
REMARK       I    between atoms: N2_13  and  C8_15 
REMARK    4  A    between atoms: C8_15  and  C9_17 
REMARK    5  A    between atoms: C9_17  and  C10_18 
REMARK    6  A    between atoms: C9_17  and  C12_20 
REMARK    7  A    between atoms: C12_20  and  O6_22 
ROOT
HETATM    1  C4  UNL     1     -25.221 -13.232   5.579  1.00  0.00     0.126 C 
HETATM    2  C5  UNL     1     -24.018 -12.791   4.899  1.00  0.00     0.162 C 
HETATM    3  O2  UNL     1     -24.030 -11.871   3.871  1.00  0.00    -0.312 OA
HETATM    4  C6  UNL     1     -22.724 -11.966   3.324  1.00  0.00     0.283 C 
HETATM    5  O3  UNL     1     -22.107 -11.120   2.623  1.00  0.00    -0.263 OA
HETATM    6  C7  UNL     1     -22.140 -13.306   3.725  1.00  0.00     0.200 C 
HETATM    7  C14 UNL     1     -23.390 -13.981   4.195  1.00  0.00     0.111 C 
HETATM    8  S1  UNL     1     -23.253 -15.030   5.641  1.00  0.00    -0.149 SA
HETATM    9  C15 UNL     1     -24.729 -14.321   6.506  1.00  0.00     0.016 C 
HETATM   10  C16 UNL     1     -24.196 -13.686   7.775  1.00  0.00     0.028 C 
HETATM   11  C17 UNL     1     -25.700 -15.385   6.842  1.00  0.00     0.028 C 
ENDROOT
BRANCH   6  12
HETATM   12  N2  UNL     1     -21.702 -13.919   2.467  1.00  0.00    -0.345 N 
HETATM   13  C8  UNL     1     -20.676 -14.880   2.440  1.00  0.00     0.232 C 
HETATM   14  O4  UNL     1     -20.130 -15.208   3.514  1.00  0.00    -0.273 OA
ATOM     15  H2  UNL     1     -22.151 -13.644   1.594  1.00  0.00     0.163 HD
BRANCH  13  16
HETATM   16  C9  UNL     1     -20.247 -15.495   1.178  1.00  0.00     0.177 C 
BRANCH  16  17
HETATM   17  C10 UNL     1     -19.368 -16.723   1.365  1.00  0.00     0.020 C 
HETATM   18  C11 UNL     1     -19.939 -17.960   0.767  1.00  0.00     0.006 C 
ENDBRANCH  16  17
BRANCH  16  19
HETATM   19  C12 UNL     1     -19.490 -14.532   0.348  1.00  0.00     0.271 C 
HETATM   20  O5  UNL     1     -18.302 -14.740   0.044  1.00  0.00    -0.264 OA
BRANCH  19  21
HETATM   21  O6  UNL     1     -20.099 -13.374  -0.106  1.00  0.00    -0.326 OA
HETATM   22  C13 UNL     1     -20.147 -13.023  -1.463  1.00  0.00     0.213 C 
ENDBRANCH  19  21
ENDBRANCH  16  19
ENDBRANCH  13  16
ENDBRANCH   6  12
BRANCH   1  23
HETATM   23  C3  UNL     1     -26.363 -13.567   4.742  1.00  0.00     0.225 C 
HETATM   24  N1  UNL     1     -26.249 -13.966   3.397  1.00  0.00    -0.361 N 
ATOM     25  H1  UNL     1     -25.324 -14.031   2.971  1.00  0.00     0.162 HD
HETATM   26  O1  UNL     1     -27.517 -13.503   5.225  1.00  0.00    -0.273 OA
BRANCH  24  27
HETATM   27  C2  UNL     1     -27.413 -14.284   2.612  1.00  0.00     0.118 C 
HETATM   28  C1  UNL     1     -27.096 -14.595   1.186  1.00  0.00     0.026 C 
ENDBRANCH  24  27
ENDBRANCH   1  23
TORSDOF 7
ENDMDL
MODEL 3
REMARK VINA RESULT: -6.468771472      1.453      2.333
REMARK  7 active torsions:
REMARK  status: ('A' for Active; 'I' for Inactive)
REMARK    1  A    between atoms: C2_2  and  N1_3 
REMARK       I    between atoms: N1_3  and  C3_5 
REMARK    2  A    between atoms: C3_5  and  C4_7 
REMARK    3  A    between atoms: C7_12  and  N2_13 
REMARK       I    between atoms: N2_13  and  C8_15 
REMARK    4  A    between atoms: C8_15  and  C9_17 
REMARK    5  A    between atoms: C9_17  and  C10_18 
REMARK    6  A    between atoms: C9_17  and  C12_20 
REMARK    7  A    between atoms: C12_20  and  O6_22 
ROOT
HETATM    1  C4  UNL     1     -25.240 -13.295   5.612  1.00  0.00     0.126 C 
HETATM    2  C5  UNL     1     -24.086 -12.815   4.874  1.00  0.00     0.162 C 
HETATM    3  O2  UNL     1     -24.184 -11.936   3.815  1.00  0.00    -0.312 OA
HETATM    4  C6  UNL     1     -22.894 -11.981   3.227  1.00  0.00     0.283 C 
HETATM    5  O3  UNL     1     -22.349 -11.129   2.473  1.00  0.00    -0.263 OA
HETATM    6  C7  UNL     1     -22.221 -13.270   3.656  1.00  0.00     0.200 C 
HETATM    7  C14 UNL     1     -23.415 -13.994   4.193  1.00  0.00     0.111 C 
HETATM    8  S1  UNL     1     -23.172 -14.978   5.671  1.00  0.00    -0.149 SA
HETATM    9  C15 UNL     1     -24.657 -14.318   6.561  1.00  0.00     0.016 C 
HETATM   10  C16 UNL     1     -24.119 -13.606   7.786  1.00  0.00     0.028 C 
HETATM   11  C17 UNL     1     -25.554 -15.421   6.969  1.00  0.00     0.028 C 
ENDROOT
BRANCH   6  12
HETATM   12  N2  UNL     1     -21.791 -13.906   2.406  1.00  0.00    -0.345 N 
HETATM   13  C8  UNL     1     -20.724 -14.821   2.382  1.00  0.00     0.232 C 
HETATM   14  O4  UNL     1     -20.135 -15.087   3.450  1.00  0.00    -0.273 OA
ATOM     15  H2  UNL     1     -22.276 -13.680   1.538  1.00  0.00     0.163 HD
BRANCH  13  16
HETATM   16  C9  UNL     1     -20.302 -15.459   1.129  1.00  0.00     0.177 C 
BRANCH  16  17
HETATM   17  C10 UNL     1     -19.386 -16.657   1.332  1.00  0.00     0.020 C 
HETATM   18  C11 UNL     1     -19.946 -17.931   0.806  1.00  0.00     0.006 C 
ENDBRANCH  16  17
BRANCH  16  19
HETATM   19  C12 UNL     1     -19.590 -14.500   0.257  1.00  0.00     0.271 C 
HETATM   20  O5  UNL     1     -18.396 -14.671  -0.047  1.00  0.00    -0.264 OA
BRANCH  19  21
HETATM   21  O6  UNL     1     -20.247 -13.385  -0.236  1.00  0.00    -0.326 OA
HETATM   22  C13 UNL     1     -20.066 -12.914  -1.545  1.00  0.00     0.213 C 
ENDBRANCH  19  21
ENDBRANCH  16  19
ENDBRANCH  13  16
ENDBRANCH   6  12
BRANCH   1  23
HETATM   23  C3  UNL     1     -26.388 -13.725   4.828  1.00  0.00     0.225 C 
HETATM   24  N1  UNL     1     -27.704 -13.294   5.080  1.00  0.00    -0.361 N 
ATOM     25  H1  UNL     1     -27.880 -12.645   5.848  1.00  0.00     0.162 HD
HETATM   26  O1  UNL     1     -26.217 -14.519   3.874  1.00  0.00    -0.273 OA
BRANCH  24  27
HETATM   27  C2  UNL     1     -28.806 -13.752   4.274  1.00  0.00     0.118 C 
HETATM   28  C1  UNL     1     -29.613 -14.823   4.933  1.00  0.00     0.026 C 
ENDBRANCH  24  27
ENDBRANCH   1  23
TORSDOF 7
ENDMDL
MODEL 4
REMARK VINA RESULT: -6.304817988      3.536      5.429
REMARK  7 active torsions:
REMARK  status: ('A' for Active; 'I' for Inactive)
REMARK    1  A    between atoms: C2_2  and  N1_3 
REMARK       I    between atoms: N1_3  and  C3_5 
REMARK    2  A    between atoms: C3_5  and  C4_7 
REMARK    3  A    between atoms: C7_12  and  N2_13 
REMARK       I    between atoms: N2_13  and  C8_15 
REMARK    4  A    between atoms: C8_15  and  C9_17 
REMARK    5  A    between atoms: C9_17  and  C10_18 
REMARK    6  A    between atoms: C9_17  and  C12_20 
REMARK    7  A    between atoms: C12_20  and  O6_22 
ROOT
HETATM    1  C4  UNL     1     -24.502  -8.269   3.747  1.00  0.00     0.126 C 
HETATM    2  C5  UNL     1     -23.940  -9.589   3.966  1.00  0.00     0.162 C 
HETATM    3  O2  UNL     1     -22.849  -9.817   4.780  1.00  0.00    -0.312 OA
HETATM    4  C6  UNL     1     -22.476 -11.149   4.469  1.00  0.00     0.283 C 
HETATM    5  O3  UNL     1     -21.790 -11.950   5.162  1.00  0.00    -0.263 OA
HETATM    6  C7  UNL     1     -23.049 -11.498   3.110  1.00  0.00     0.200 C 
HETATM    7  C14 UNL     1     -23.414 -10.123   2.646  1.00  0.00     0.111 C 
HETATM    8  S1  UNL     1     -24.944  -9.954   1.729  1.00  0.00    -0.149 SA
HETATM    9  C15 UNL     1     -25.565  -8.503   2.697  1.00  0.00     0.016 C 
HETATM   10  C16 UNL     1     -26.835  -8.974   3.377  1.00  0.00     0.028 C 
HETATM   11  C17 UNL     1     -25.862  -7.365   1.801  1.00  0.00     0.028 C 
ENDROOT
BRANCH   6  12
HETATM   12  N2  UNL     1     -21.906 -11.984   2.331  1.00  0.00    -0.345 N 
HETATM   13  C8  UNL     1     -21.657 -13.359   2.179  1.00  0.00     0.232 C 
HETATM   14  O4  UNL     1     -22.429 -14.175   2.726  1.00  0.00    -0.273 OA
ATOM     15  H2  UNL     1     -21.279 -11.311   1.890  1.00  0.00     0.163 HD
BRANCH  13  16
HETATM   16  C9  UNL     1     -20.515 -13.840   1.392  1.00  0.00     0.177 C 
BRANCH  16  17
HETATM   17  C10 UNL     1     -20.797 -13.936  -0.099  1.00  0.00     0.020 C 
HETATM   18  C11 UNL     1     -19.906 -13.083  -0.931  1.00  0.00     0.006 C 
ENDBRANCH  16  17
BRANCH  16  19
HETATM   19  C12 UNL     1     -20.082 -15.180   1.848  1.00  0.00     0.271 C 
HETATM   20  O5  UNL     1     -19.530 -15.336   2.951  1.00  0.00    -0.264 OA
BRANCH  19  21
HETATM   21  O6  UNL     1     -20.286 -16.289   1.043  1.00  0.00    -0.326 OA
HETATM   22  C13 UNL     1     -19.294 -17.255   0.817  1.00  0.00     0.213 C 
ENDBRANCH  19  21
ENDBRANCH  16  19
ENDBRANCH  13  16
ENDBRANCH   6  12
BRANCH   1  23
HETATM   23  C3  UNL     1     -23.560  -7.192   3.482  1.00  0.00     0.225 C 
HETATM   24  N1  UNL     1     -23.625  -5.934   4.110  1.00  0.00    -0.361 N 
ATOM     25  H1  UNL     1     -24.363  -5.751   4.790  1.00  0.00     0.162 HD
HETATM   26  O1  UNL     1     -22.636  -7.373   2.656  1.00  0.00    -0.273 OA
BRANCH  24  27
HETATM   27  C2  UNL     1     -22.669  -4.900   3.808  1.00  0.00     0.118 C 
HETATM   28  C1  UNL     1     -22.673  -3.784   4.802  1.00  0.00     0.026 C 
ENDBRANCH  24  27
ENDBRANCH   1  23
TORSDOF 7
ENDMDL
MODEL 5
REMARK VINA RESULT: -6.187837789      3.184      5.018
REMARK  7 active torsions:
REMARK  status: ('A' for Active; 'I' for Inactive)
REMARK    1  A    between atoms: C2_2  and  N1_3 
REMARK       I    between atoms: N1_3  and  C3_5 
REMARK    2  A    between atoms: C3_5  and  C4_7 
REMARK    3  A    between atoms: C7_12  and  N2_13 
REMARK       I    between atoms: N2_13  and  C8_15 
REMARK    4  A    between atoms: C8_15  and  C9_17 
REMARK    5  A    between atoms: C9_17  and  C10_18 
REMARK    6  A    between atoms: C9_17  and  C12_20 
REMARK    7  A    between atoms: C12_20  and  O6_22 
ROOT
HETATM    1  C4  UNL     1     -24.667  -8.461   3.570  1.00  0.00     0.126 C 
HETATM    2  C5  UNL     1     -23.960  -9.696   3.856  1.00  0.00     0.162 C 
HETATM    3  O2  UNL     1     -22.765  -9.737   4.544  1.00  0.00    -0.312 OA
HETATM    4  C6  UNL     1     -22.305 -11.062   4.332  1.00  0.00     0.283 C 
HETATM    5  O3  UNL     1     -21.470 -11.717   5.013  1.00  0.00    -0.263 OA
HETATM    6  C7  UNL     1     -22.997 -11.612   3.101  1.00  0.00     0.200 C 
HETATM    7  C14 UNL     1     -23.544 -10.336   2.543  1.00  0.00     0.111 C 
HETATM    8  S1  UNL     1     -25.179 -10.401   1.815  1.00  0.00    -0.149 SA
HETATM    9  C15 UNL     1     -25.818  -8.901   2.694  1.00  0.00     0.016 C 
HETATM   10  C16 UNL     1     -26.950  -9.392   3.576  1.00  0.00     0.028 C 
HETATM   11  C17 UNL     1     -26.325  -7.904   1.727  1.00  0.00     0.028 C 
ENDROOT
BRANCH   6  12
HETATM   12  N2  UNL     1     -21.912 -12.092   2.239  1.00  0.00    -0.345 N 
HETATM   13  C8  UNL     1     -21.553 -13.451   2.204  1.00  0.00     0.232 C 
HETATM   14  O4  UNL     1     -22.174 -14.257   2.928  1.00  0.00    -0.273 OA
ATOM     15  H2  UNL     1     -21.408 -11.426   1.654  1.00  0.00     0.163 HD
BRANCH  13  16
HETATM   16  C9  UNL     1     -20.470 -13.926   1.334  1.00  0.00     0.177 C 
BRANCH  16  17
HETATM   17  C10 UNL     1     -20.824 -13.913  -0.145  1.00  0.00     0.020 C 
HETATM   18  C11 UNL     1     -19.858 -13.153  -0.982  1.00  0.00     0.006 C 
ENDBRANCH  16  17
BRANCH  16  19
HETATM   19  C12 UNL     1     -20.077 -15.309   1.683  1.00  0.00     0.271 C 
HETATM   20  O5  UNL     1     -19.516 -15.564   2.763  1.00  0.00    -0.264 OA
BRANCH  19  21
HETATM   21  O6  UNL     1     -20.327 -16.348   0.802  1.00  0.00    -0.326 OA
HETATM   22  C13 UNL     1     -19.568 -17.527   0.784  1.00  0.00     0.213 C 
ENDBRANCH  19  21
ENDBRANCH  16  19
ENDBRANCH  13  16
ENDBRANCH   6  12
BRANCH   1  23
HETATM   23  C3  UNL     1     -23.869  -7.348   3.075  1.00  0.00     0.225 C 
HETATM   24  N1  UNL     1     -22.807  -7.501   2.164  1.00  0.00    -0.361 N 
ATOM     25  H1  UNL     1     -22.571  -8.432   1.822  1.00  0.00     0.162 HD
HETATM   26  O1  UNL     1     -24.127  -6.187   3.467  1.00  0.00    -0.273 OA
BRANCH  24  27
HETATM   27  C2  UNL     1     -22.048  -6.365   1.708  1.00  0.00     0.118 C 
HETATM   28  C1  UNL     1     -21.969  -6.268   0.219  1.00  0.00     0.026 C 
ENDBRANCH  24  27
ENDBRANCH   1  23
TORSDOF 7
ENDMDL
