MODEL 1
REMARK VINA RESULT: -8.200573349      0.000      0.000
REMARK  7 active torsions:
REMARK  status: ('A' for Active; 'I' for Inactive)
REMARK    1  A    between atoms: C2_3  and  O1_4 
REMARK    2  A    between atoms: C3_6  and  C4_7 
REMARK    3  A    between atoms: N2_8  and  N3_10 
REMARK    4  A    between atoms: N3_10  and  C5_12 
REMARK    5  A    between atoms: C5_12  and  C6_13 
REMARK    6  A    between atoms: C5_12  and  S1_20 
REMARK    7  A    between atoms: C7_17  and  O3_18 
ROOT
HETATM    1  C4  UNL     1      -9.841  10.933 -37.001  1.00  0.00     0.128 C 
HETATM    2  N2  UNL     1      -9.772  11.255 -35.755  1.00  0.00    -0.314 N 
ATOM      3  H2  UNL     1      -9.400  12.159 -35.461  1.00  0.00     0.185 HD
ENDROOT
BRANCH   2   4
HETATM    4  N3  UNL     1     -10.225  10.319 -34.825  1.00  0.00    -0.311 N 
ATOM      5  H3  UNL     1     -11.086  10.466 -34.297  1.00  0.00     0.182 HD
BRANCH   4   6
HETATM    6  C5  UNL     1      -9.412   9.117 -34.642  1.00  0.00     0.284 C 
BRANCH   6   7
HETATM    7  C6  UNL     1     -10.221   7.904 -34.573  1.00  0.00     0.167 A 
HETATM    8  O2  UNL     1      -9.948   6.623 -34.567  1.00  0.00    -0.233 OA
HETATM    9  N4  UNL     1     -11.187   6.275 -34.489  1.00  0.00    -0.237 N 
HETATM   10  C7  UNL     1     -11.550   7.545 -34.490  1.00  0.00     0.196 A 
ATOM     11  H4  UNL     1     -11.683   5.386 -34.444  1.00  0.00     0.197 HD
BRANCH  10  12
HETATM   12  O3  UNL     1     -12.734   8.237 -34.433  1.00  0.00    -0.343 OA
ATOM     13  H3  UNL     1     -13.295   8.656 -35.076  1.00  0.00     0.219 HD
ENDBRANCH  10  12
ENDBRANCH   6   7
BRANCH   6  14
HETATM   14  S1  UNL     1      -8.427   9.384 -33.197  1.00  0.00     0.169 S 
HETATM   15  C8  UNL     1      -6.722   8.972 -33.504  1.00  0.00     0.164 C 
HETATM   16  O4  UNL     1      -8.464  10.839 -32.822  1.00  0.00    -0.226 OA
HETATM   17  O5  UNL     1      -8.916   8.608 -32.020  1.00  0.00    -0.226 OA
ENDBRANCH   6  14
ENDBRANCH   4   6
ENDBRANCH   2   4
BRANCH   1  18
HETATM   18  C3  UNL     1      -9.373  11.898 -37.984  1.00  0.00     0.100 A 
HETATM   19  C2  UNL     1     -10.199  12.298 -38.995  1.00  0.00     0.163 A 
HETATM   20  N1  UNL     1      -9.740  13.186 -39.883  1.00  0.00    -0.283 N 
HETATM   21  C1  UNL     1     -10.606  13.616 -40.959  1.00  0.00     0.163 C 
HETATM   22  C10 UNL     1      -8.496  13.675 -39.783  1.00  0.00     0.331 A 
HETATM   23  N5  UNL     1      -7.667  13.280 -38.775  1.00  0.00    -0.274 N 
HETATM   24  O7  UNL     1      -8.053  14.510 -40.610  1.00  0.00    -0.246 OA
HETATM   25  C9  UNL     1      -8.072  12.392 -37.856  1.00  0.00     0.265 A 
ATOM     26  H5  UNL     1      -6.724  13.665 -38.719  1.00  0.00     0.173 HD
HETATM   27  O6  UNL     1      -7.324  12.004 -36.905  1.00  0.00    -0.267 OA
BRANCH  19  28
HETATM   28  O1  UNL     1     -11.509  11.796 -39.118  1.00  0.00    -0.345 OA
ATOM     29  H1  UNL     1     -12.248  12.329 -38.845  1.00  0.00     0.219 HD
ENDBRANCH  19  28
ENDBRANCH   1  18
TORSDOF 7
ENDMDL
MODEL 2
REMARK VINA RESULT: -7.989232801      4.038      7.139
REMARK  7 active torsions:
REMARK  status: ('A' for Active; 'I' for Inactive)
REMARK    1  A    between atoms: C2_3  and  O1_4 
REMARK    2  A    between atoms: C3_6  and  C4_7 
REMARK    3  A    between atoms: N2_8  and  N3_10 
REMARK    4  A    between atoms: N3_10  and  C5_12 
REMARK    5  A    between atoms: C5_12  and  C6_13 
REMARK    6  A    between atoms: C5_12  and  S1_20 
REMARK    7  A    between atoms: C7_17  and  O3_18 
ROOT
HETATM    1  C4  UNL     1      -6.586  12.819 -37.116  1.00  0.00     0.128 C 
HETATM    2  N2  UNL     1      -6.742  12.707 -38.390  1.00  0.00    -0.314 N 
ATOM      3  H2  UNL     1      -6.130  12.110 -38.949  1.00  0.00     0.185 HD
ENDROOT
BRANCH   2   4
HETATM    4  N3  UNL     1      -7.778  13.434 -38.976  1.00  0.00    -0.311 N 
ATOM      5  H3  UNL     1      -7.748  14.452 -39.035  1.00  0.00     0.182 HD
BRANCH   4   6
HETATM    6  C5  UNL     1      -8.910  12.671 -39.502  1.00  0.00     0.284 C 
BRANCH   6   7
HETATM    7  C6  UNL     1      -9.525  13.315 -40.658  1.00  0.00     0.167 A 
HETATM    8  O2  UNL     1     -10.581  13.062 -41.390  1.00  0.00    -0.233 OA
HETATM    9  N4  UNL     1     -10.394  14.080 -42.159  1.00  0.00    -0.237 N 
HETATM   10  C7  UNL     1      -9.313  14.407 -41.474  1.00  0.00     0.196 A 
ATOM     11  H4  UNL     1     -10.880  14.472 -42.966  1.00  0.00     0.197 HD
BRANCH  10  12
HETATM   12  O3  UNL     1      -8.367  15.400 -41.529  1.00  0.00    -0.343 OA
ATOM     13  H3  UNL     1      -8.379  16.321 -41.762  1.00  0.00     0.219 HD
ENDBRANCH  10  12
ENDBRANCH   6   7
BRANCH   6  14
HETATM   14  S1  UNL     1     -10.032  12.431 -38.156  1.00  0.00     0.169 S 
HETATM   15  C8  UNL     1      -9.690  10.905 -37.305  1.00  0.00     0.164 C 
HETATM   16  O4  UNL     1      -9.862  13.537 -37.152  1.00  0.00    -0.226 OA
HETATM   17  O5  UNL     1     -11.460  12.441 -38.592  1.00  0.00    -0.226 OA
ENDBRANCH   6  14
ENDBRANCH   4   6
ENDBRANCH   2   4
BRANCH   1  18
HETATM   18  C3  UNL     1      -5.510  12.067 -36.489  1.00  0.00     0.100 A 
HETATM   19  C2  UNL     1      -5.372  10.732 -36.744  1.00  0.00     0.163 A 
HETATM   20  N1  UNL     1      -4.373  10.068 -36.152  1.00  0.00    -0.283 N 
HETATM   21  C1  UNL     1      -4.217   8.654 -36.413  1.00  0.00     0.163 C 
HETATM   22  C10 UNL     1      -3.524  10.699 -35.329  1.00  0.00     0.331 A 
HETATM   23  N5  UNL     1      -3.657  12.032 -35.072  1.00  0.00    -0.274 N 
HETATM   24  O7  UNL     1      -2.581  10.088 -34.767  1.00  0.00    -0.246 OA
HETATM   25  C9  UNL     1      -4.639  12.749 -35.636  1.00  0.00     0.265 A 
ATOM     26  H5  UNL     1      -2.999  12.490 -34.441  1.00  0.00     0.173 HD
HETATM   27  O6  UNL     1      -4.790  13.991 -35.417  1.00  0.00    -0.267 OA
BRANCH  19  28
HETATM   28  O1  UNL     1      -6.253  10.051 -37.605  1.00  0.00    -0.345 OA
ATOM     29  H1  UNL     1      -6.949  10.527 -38.044  1.00  0.00     0.219 HD
ENDBRANCH  19  28
ENDBRANCH   1  18
TORSDOF 7
ENDMDL
MODEL 3
REMARK VINA RESULT: -7.894476079      3.828      7.314
REMARK  7 active torsions:
REMARK  status: ('A' for Active; 'I' for Inactive)
REMARK    1  A    between atoms: C2_3  and  O1_4 
REMARK    2  A    between atoms: C3_6  and  C4_7 
REMARK    3  A    between atoms: N2_8  and  N3_10 
REMARK    4  A    between atoms: N3_10  and  C5_12 
REMARK    5  A    between atoms: C5_12  and  C6_13 
REMARK    6  A    between atoms: C5_12  and  S1_20 
REMARK    7  A    between atoms: C7_17  and  O3_18 
ROOT
HETATM    1  C4  UNL     1      -6.045  11.905 -37.926  1.00  0.00     0.128 C 
HETATM    2  N2  UNL     1      -7.099  12.613 -37.709  1.00  0.00    -0.314 N 
ATOM      3  H2  UNL     1      -7.506  12.686 -36.775  1.00  0.00     0.185 HD
ENDROOT
BRANCH   2   4
HETATM    4  N3  UNL     1      -7.664  13.275 -38.799  1.00  0.00    -0.311 N 
ATOM      5  H3  UNL     1      -7.265  14.142 -39.161  1.00  0.00     0.182 HD
BRANCH   4   6
HETATM    6  C5  UNL     1      -8.852  12.670 -39.402  1.00  0.00     0.284 C 
BRANCH   6   7
HETATM    7  C6  UNL     1      -9.349  13.436 -40.540  1.00  0.00     0.167 A 
HETATM    8  O2  UNL     1     -10.369  13.309 -41.351  1.00  0.00    -0.233 OA
HETATM    9  N4  UNL     1     -10.068  14.365 -42.028  1.00  0.00    -0.237 N 
HETATM   10  C7  UNL     1      -9.015  14.567 -41.256  1.00  0.00     0.196 A 
ATOM     11  H4  UNL     1     -10.475  14.846 -42.830  1.00  0.00     0.197 HD
BRANCH  10  12
HETATM   12  O3  UNL     1      -8.008  15.496 -41.178  1.00  0.00    -0.343 OA
ATOM     13  H3  UNL     1      -7.691  16.187 -41.748  1.00  0.00     0.219 HD
ENDBRANCH  10  12
ENDBRANCH   6   7
BRANCH   6  14
HETATM   14  S1  UNL     1     -10.043  12.489 -38.107  1.00  0.00     0.169 S 
HETATM   15  C8  UNL     1      -9.822  10.944 -37.250  1.00  0.00     0.164 C 
HETATM   16  O4  UNL     1      -9.857  13.581 -37.092  1.00  0.00    -0.226 OA
HETATM   17  O5  UNL     1     -11.448  12.578 -38.605  1.00  0.00    -0.226 OA
ENDBRANCH   6  14
ENDBRANCH   4   6
ENDBRANCH   2   4
BRANCH   1  18
HETATM   18  C3  UNL     1      -5.444  11.208 -36.800  1.00  0.00     0.100 A 
HETATM   19  C2  UNL     1      -5.170  11.886 -35.646  1.00  0.00     0.163 A 
HETATM   20  N1  UNL     1      -4.617  11.218 -34.628  1.00  0.00    -0.283 N 
HETATM   21  C1  UNL     1      -4.321  11.925 -33.401  1.00  0.00     0.163 C 
HETATM   22  C10 UNL     1      -4.338   9.912 -34.736  1.00  0.00     0.331 A 
HETATM   23  N5  UNL     1      -4.611   9.230 -35.886  1.00  0.00    -0.274 N 
HETATM   24  O7  UNL     1      -3.820   9.272 -33.787  1.00  0.00    -0.246 OA
HETATM   25  C9  UNL     1      -5.164   9.847 -36.939  1.00  0.00     0.265 A 
ATOM     26  H5  UNL     1      -4.389   8.236 -35.945  1.00  0.00     0.173 HD
HETATM   27  O6  UNL     1      -5.430   9.240 -38.023  1.00  0.00    -0.267 OA
BRANCH  19  28
HETATM   28  O1  UNL     1      -5.454  13.259 -35.512  1.00  0.00    -0.345 OA
ATOM     29  H1  UNL     1      -6.304  13.537 -35.190  1.00  0.00     0.219 HD
ENDBRANCH  19  28
ENDBRANCH   1  18
TORSDOF 7
ENDMDL
MODEL 4
REMARK VINA RESULT: -7.885846219      5.200      8.403
REMARK  7 active torsions:
REMARK  status: ('A' for Active; 'I' for Inactive)
REMARK    1  A    between atoms: C2_3  and  O1_4 
REMARK    2  A    between atoms: C3_6  and  C4_7 
REMARK    3  A    between atoms: N2_8  and  N3_10 
REMARK    4  A    between atoms: N3_10  and  C5_12 
REMARK    5  A    between atoms: C5_12  and  C6_13 
REMARK    6  A    between atoms: C5_12  and  S1_20 
REMARK    7  A    between atoms: C7_17  and  O3_18 
ROOT
HETATM    1  C4  UNL     1      -7.923   3.467 -34.966  1.00  0.00     0.128 C 
HETATM    2  N2  UNL     1      -8.671   4.492 -34.740  1.00  0.00    -0.314 N 
ATOM      3  H2  UNL     1      -8.294   5.340 -34.317  1.00  0.00     0.185 HD
ENDROOT
BRANCH   2   4
HETATM    4  N3  UNL     1     -10.016   4.395 -35.097  1.00  0.00    -0.311 N 
ATOM      5  H3  UNL     1     -10.334   3.727 -35.799  1.00  0.00     0.182 HD
BRANCH   4   6
HETATM    6  C5  UNL     1     -10.950   5.294 -34.419  1.00  0.00     0.284 C 
BRANCH   6   7
HETATM    7  C6  UNL     1     -11.128   6.554 -35.135  1.00  0.00     0.167 A 
HETATM    8  O2  UNL     1     -10.560   7.097 -36.182  1.00  0.00    -0.233 OA
HETATM    9  N4  UNL     1     -11.287   8.161 -36.126  1.00  0.00    -0.237 N 
HETATM   10  C7  UNL     1     -11.912   7.687 -35.064  1.00  0.00     0.196 A 
ATOM     11  H4  UNL     1     -11.352   9.018 -36.676  1.00  0.00     0.197 HD
BRANCH  10  12
HETATM   12  O3  UNL     1     -12.913   8.116 -34.229  1.00  0.00    -0.343 OA
ATOM     13  H3  UNL     1     -13.194   8.963 -33.903  1.00  0.00     0.219 HD
ENDBRANCH  10  12
ENDBRANCH   6   7
BRANCH   6  14
HETATM   14  S1  UNL     1     -10.346   5.506 -32.770  1.00  0.00     0.169 S 
HETATM   15  C8  UNL     1     -11.631   6.109 -31.694  1.00  0.00     0.164 C 
HETATM   16  O4  UNL     1      -9.903   4.180 -32.219  1.00  0.00    -0.226 OA
HETATM   17  O5  UNL     1      -9.175   6.429 -32.703  1.00  0.00    -0.226 OA
ENDBRANCH   6  14
ENDBRANCH   4   6
ENDBRANCH   2   4
BRANCH   1  18
HETATM   18  C3  UNL     1      -6.518   3.552 -34.601  1.00  0.00     0.100 A 
HETATM   19  C2  UNL     1      -6.161   3.987 -33.356  1.00  0.00     0.163 A 
HETATM   20  N1  UNL     1      -4.861   4.054 -33.050  1.00  0.00    -0.283 N 
HETATM   21  C1  UNL     1      -4.472   4.514 -31.735  1.00  0.00     0.163 C 
HETATM   22  C10 UNL     1      -3.928   3.700 -33.944  1.00  0.00     0.331 A 
HETATM   23  N5  UNL     1      -4.278   3.263 -35.188  1.00  0.00    -0.274 N 
HETATM   24  O7  UNL     1      -2.703   3.757 -33.669  1.00  0.00    -0.246 OA
HETATM   25  C9  UNL     1      -5.565   3.176 -35.551  1.00  0.00     0.265 A 
ATOM     26  H5  UNL     1      -3.549   2.999 -35.851  1.00  0.00     0.173 HD
HETATM   27  O6  UNL     1      -5.924   2.774 -36.702  1.00  0.00    -0.267 OA
BRANCH  19  28
HETATM   28  O1  UNL     1      -7.126   4.365 -32.403  1.00  0.00    -0.345 OA
ATOM     29  H1  UNL     1      -7.903   4.839 -32.678  1.00  0.00     0.219 HD
ENDBRANCH  19  28
ENDBRANCH   1  18
TORSDOF 7
ENDMDL
MODEL 5
REMARK VINA RESULT: -7.853016845      3.459      5.149
REMARK  7 active torsions:
REMARK  status: ('A' for Active; 'I' for Inactive)
REMARK    1  A    between atoms: C2_3  and  O1_4 
REMARK    2  A    between atoms: C3_6  and  C4_7 
REMARK    3  A    between atoms: N2_8  and  N3_10 
REMARK    4  A    between atoms: N3_10  and  C5_12 
REMARK    5  A    between atoms: C5_12  and  C6_13 
REMARK    6  A    between atoms: C5_12  and  S1_20 
REMARK    7  A    between atoms: C7_17  and  O3_18 
ROOT
HETATM    1  C4  UNL     1      -9.044  11.860 -37.210  1.00  0.00     0.128 C 
HETATM    2  N2  UNL     1      -7.880  11.313 -37.140  1.00  0.00    -0.314 N 
ATOM      3  H2  UNL     1      -7.253  11.295 -37.945  1.00  0.00     0.185 HD
ENDROOT
BRANCH   2   4
HETATM    4  N3  UNL     1      -7.511  10.745 -35.920  1.00  0.00    -0.311 N 
ATOM      5  H3  UNL     1      -8.209  10.418 -35.252  1.00  0.00     0.182 HD
BRANCH   4   6
HETATM    6  C5  UNL     1      -6.078  10.639 -35.643  1.00  0.00     0.284 C 
BRANCH   6   7
HETATM    7  C6  UNL     1      -5.581  11.759 -34.850  1.00  0.00     0.167 A 
HETATM    8  O2  UNL     1      -5.610  12.059 -33.576  1.00  0.00    -0.233 OA
HETATM    9  N4  UNL     1      -4.973  13.169 -33.739  1.00  0.00    -0.237 N 
HETATM   10  C7  UNL     1      -4.899  12.943 -35.038  1.00  0.00     0.196 A 
ATOM     11  H4  UNL     1      -4.656  13.915 -33.119  1.00  0.00     0.197 HD
BRANCH  10  12
HETATM   12  O3  UNL     1      -4.376  13.591 -36.128  1.00  0.00    -0.343 OA
ATOM     13  H3  UNL     1      -4.418  14.481 -36.461  1.00  0.00     0.219 HD
ENDBRANCH  10  12
ENDBRANCH   6   7
BRANCH   6  14
HETATM   14  S1  UNL     1      -5.268  10.475 -37.206  1.00  0.00     0.169 S 
HETATM   15  C8  UNL     1      -3.601   9.882 -37.000  1.00  0.00     0.164 C 
HETATM   16  O4  UNL     1      -5.991   9.460 -38.047  1.00  0.00    -0.226 OA
HETATM   17  O5  UNL     1      -5.243  11.754 -37.976  1.00  0.00    -0.226 OA
ENDBRANCH   6  14
ENDBRANCH   4   6
ENDBRANCH   2   4
BRANCH   1  18
HETATM   18  C3  UNL     1      -9.444  12.457 -38.474  1.00  0.00     0.100 A 
HETATM   19  C2  UNL     1      -8.596  13.306 -39.127  1.00  0.00     0.163 A 
HETATM   20  N1  UNL     1      -8.993  13.839 -40.288  1.00  0.00    -0.283 N 
HETATM   21  C1  UNL     1      -8.103  14.739 -40.988  1.00  0.00     0.163 C 
HETATM   22  C10 UNL     1     -10.196  13.547 -40.800  1.00  0.00     0.331 A 
HETATM   23  N5  UNL     1     -11.047  12.700 -40.152  1.00  0.00    -0.274 N 
HETATM   24  O7  UNL     1     -10.581  14.040 -41.890  1.00  0.00    -0.246 OA
HETATM   25  C9  UNL     1     -10.704  12.136 -38.986  1.00  0.00     0.265 A 
ATOM     26  H5  UNL     1     -11.958  12.493 -40.562  1.00  0.00     0.173 HD
HETATM   27  O6  UNL     1     -11.473  11.343 -38.358  1.00  0.00    -0.267 OA
BRANCH  19  28
HETATM   28  O1  UNL     1      -7.328  13.626 -38.606  1.00  0.00    -0.345 OA
ATOM     29  H1  UNL     1      -6.718  14.138 -39.125  1.00  0.00     0.219 HD
ENDBRANCH  19  28
ENDBRANCH   1  18
TORSDOF 7
ENDMDL
