MODEL 1
REMARK VINA RESULT: -6.939911031      0.000      0.000
REMARK  8 active torsions:
REMARK  status: ('A' for Active; 'I' for Inactive)
REMARK    1  A    between atoms: O1_2  and  C2_3 
REMARK    2  A    between atoms: C2_3  and  C3_5 
REMARK    3  A    between atoms: C3_5  and  C4_6 
REMARK    4  A    between atoms: C3_5  and  N5_18 
REMARK    5  A    between atoms: C5_12  and  N3_13 
REMARK    6  A    between atoms: N3_13  and  N4_15 
REMARK    7  A    between atoms: N5_18  and  O4_19 
REMARK       I    between atoms: N5_18  and  C6_21 
REMARK    8  A    between atoms: C6_21  and  C7_23 
ROOT
HETATM    1  C3  UNL     1      -6.410  11.012 -35.841  1.00  0.00     0.272 C 
ENDROOT
BRANCH   1   2
HETATM    2  C2  UNL     1      -6.976  10.160 -34.734  1.00  0.00     0.290 C 
HETATM    3  O2  UNL     1      -6.682   8.942 -34.650  1.00  0.00    -0.262 OA
BRANCH   2   4
HETATM    4  O1  UNL     1      -7.835  10.675 -33.774  1.00  0.00    -0.325 OA
HETATM    5  C1  UNL     1      -8.151   9.958 -32.587  1.00  0.00     0.213 C 
ENDBRANCH   2   4
ENDBRANCH   1   2
BRANCH   1   6
HETATM    6  C4  UNL     1      -5.328  10.309 -36.555  1.00  0.00     0.116 A 
HETATM    7  N1  UNL     1      -5.378   9.574 -37.676  1.00  0.00    -0.239 N 
HETATM    8  O3  UNL     1      -4.178   9.130 -37.964  1.00  0.00    -0.155 OA
ATOM      9  H1  UNL     1      -6.220   9.389 -38.221  1.00  0.00     0.196 HD
HETATM   10  N2  UNL     1      -3.315   9.548 -37.061  1.00  0.00    -0.222 N 
HETATM   11  C5  UNL     1      -4.010  10.288 -36.169  1.00  0.00     0.169 A 
ATOM     12  H2  UNL     1      -2.314   9.351 -37.039  1.00  0.00     0.198 HD
BRANCH  11  13
HETATM   13  N3  UNL     1      -3.508  10.870 -35.134  1.00  0.00    -0.289 N 
ATOM     14  H3  UNL     1      -4.143  11.291 -34.456  1.00  0.00     0.188 HD
BRANCH  13  15
HETATM   15  N4  UNL     1      -2.133  10.949 -34.900  1.00  0.00    -0.344 N 
ATOM     16  H42 UNL     1      -1.725  11.879 -34.801  1.00  0.00     0.176 HD
ATOM     17  H41 UNL     1      -1.535  10.126 -34.827  1.00  0.00     0.176 HD
ENDBRANCH  13  15
ENDBRANCH  11  13
ENDBRANCH   1   6
BRANCH   1  18
HETATM   18  N5  UNL     1      -7.476  11.287 -36.780  1.00  0.00    -0.206 N 
HETATM   19  C6  UNL     1      -7.536  12.446 -37.598  1.00  0.00     0.281 C 
HETATM   20  O5  UNL     1      -6.578  13.264 -37.470  1.00  0.00    -0.268 OA
BRANCH  18  21
HETATM   21  O4  UNL     1      -8.475  10.388 -36.883  1.00  0.00    -0.284 OA
ATOM     22  H4  UNL     1      -9.367  10.714 -36.892  1.00  0.00     0.245 HD
ENDBRANCH  18  21
BRANCH  19  23
HETATM   23  C7  UNL     1      -8.608  12.720 -38.540  1.00  0.00     0.217 C 
HETATM   24  C8  UNL     1      -9.912  13.112 -37.892  1.00  0.00     0.053 C 
HETATM   25  C9  UNL     1     -10.998  12.397 -38.711  1.00  0.00     0.047 C 
HETATM   26  C10 UNL     1     -10.223  11.941 -39.895  1.00  0.00     0.248 C 
HETATM   27  N6  UNL     1      -8.961  11.514 -39.268  1.00  0.00    -0.044 N 
HETATM   28  S1  UNL     1      -9.568  13.399 -40.805  1.00  0.00    -0.133 SA
ATOM     29  H62 UNL     1      -8.249  11.158 -39.906  1.00  0.00     0.280 HD
ATOM     30  H61 UNL     1      -9.011  10.660 -38.712  1.00  0.00     0.280 HD
HETATM   31  C11 UNL     1      -8.196  13.736 -39.618  1.00  0.00     0.125 C 
ENDBRANCH  19  23
ENDBRANCH   1  18
TORSDOF 8
ENDMDL
MODEL 2
REMARK VINA RESULT: -6.749616678      6.222      9.456
REMARK  8 active torsions:
REMARK  status: ('A' for Active; 'I' for Inactive)
REMARK    1  A    between atoms: O1_2  and  C2_3 
REMARK    2  A    between atoms: C2_3  and  C3_5 
REMARK    3  A    between atoms: C3_5  and  C4_6 
REMARK    4  A    between atoms: C3_5  and  N5_18 
REMARK    5  A    between atoms: C5_12  and  N3_13 
REMARK    6  A    between atoms: N3_13  and  N4_15 
REMARK    7  A    between atoms: N5_18  and  O4_19 
REMARK       I    between atoms: N5_18  and  C6_21 
REMARK    8  A    between atoms: C6_21  and  C7_23 
ROOT
HETATM    1  C3  UNL     1      -1.512   8.114 -35.370  1.00  0.00     0.272 C 
ENDROOT
BRANCH   1   2
HETATM    2  C2  UNL     1      -2.982   8.315 -35.634  1.00  0.00     0.290 C 
HETATM    3  O2  UNL     1      -3.817   7.438 -35.299  1.00  0.00    -0.262 OA
BRANCH   2   4
HETATM    4  O1  UNL     1      -3.470   9.457 -36.250  1.00  0.00    -0.325 OA
HETATM    5  C1  UNL     1      -4.087   9.415 -37.531  1.00  0.00     0.213 C 
ENDBRANCH   2   4
ENDBRANCH   1   2
BRANCH   1   6
HETATM    6  C4  UNL     1      -0.840   9.398 -35.092  1.00  0.00     0.116 A 
HETATM    7  N1  UNL     1      -1.162  10.361 -34.215  1.00  0.00    -0.239 N 
HETATM    8  O3  UNL     1      -0.289  11.337 -34.296  1.00  0.00    -0.155 OA
ATOM      9  H1  UNL     1      -1.962  10.337 -33.583  1.00  0.00     0.196 HD
HETATM   10  N2  UNL     1       0.617  11.056 -35.210  1.00  0.00    -0.222 N 
HETATM   11  C5  UNL     1       0.294   9.848 -35.723  1.00  0.00     0.169 A 
ATOM     12  H2  UNL     1       1.410  11.640 -35.480  1.00  0.00     0.198 HD
BRANCH  11  13
HETATM   13  N3  UNL     1       0.949   9.234 -36.647  1.00  0.00    -0.289 N 
ATOM     14  H3  UNL     1       0.722   9.434 -37.621  1.00  0.00     0.188 HD
BRANCH  13  15
HETATM   15  N4  UNL     1       1.958   8.306 -36.373  1.00  0.00    -0.344 N 
ATOM     16  H42 UNL     1       1.759   7.585 -35.679  1.00  0.00     0.176 HD
ATOM     17  H41 UNL     1       2.867   8.324 -36.834  1.00  0.00     0.176 HD
ENDBRANCH  13  15
ENDBRANCH  11  13
ENDBRANCH   1   6
BRANCH   1  18
HETATM   18  N5  UNL     1      -1.381   7.267 -34.204  1.00  0.00    -0.206 N 
HETATM   19  C6  UNL     1      -0.464   6.187 -34.104  1.00  0.00     0.281 C 
HETATM   20  O5  UNL     1       0.267   5.987 -35.119  1.00  0.00    -0.268 OA
BRANCH  18  21
HETATM   21  O4  UNL     1      -2.181   7.518 -33.148  1.00  0.00    -0.284 OA
ATOM     22  H4  UNL     1      -1.772   7.801 -32.339  1.00  0.00     0.245 HD
ENDBRANCH  18  21
BRANCH  19  23
HETATM   23  C7  UNL     1      -0.335   5.337 -32.933  1.00  0.00     0.217 C 
HETATM   24  C8  UNL     1      -1.290   4.170 -32.911  1.00  0.00     0.053 C 
HETATM   25  C9  UNL     1      -1.760   4.064 -31.451  1.00  0.00     0.047 C 
HETATM   26  C10 UNL     1      -0.799   4.968 -30.765  1.00  0.00     0.248 C 
HETATM   27  N6  UNL     1      -0.699   6.072 -31.734  1.00  0.00    -0.044 N 
HETATM   28  S1  UNL     1       0.909   4.314 -30.954  1.00  0.00    -0.133 SA
ATOM     29  H62 UNL     1      -0.071   6.833 -31.473  1.00  0.00     0.280 HD
ATOM     30  H61 UNL     1      -1.524   6.667 -31.813  1.00  0.00     0.280 HD
HETATM   31  C11 UNL     1       1.112   4.876 -32.699  1.00  0.00     0.125 C 
ENDBRANCH  19  23
ENDBRANCH   1  18
TORSDOF 8
ENDMDL
MODEL 3
REMARK VINA RESULT: -6.747187775      6.819      9.421
REMARK  8 active torsions:
REMARK  status: ('A' for Active; 'I' for Inactive)
REMARK    1  A    between atoms: O1_2  and  C2_3 
REMARK    2  A    between atoms: C2_3  and  C3_5 
REMARK    3  A    between atoms: C3_5  and  C4_6 
REMARK    4  A    between atoms: C3_5  and  N5_18 
REMARK    5  A    between atoms: C5_12  and  N3_13 
REMARK    6  A    between atoms: N3_13  and  N4_15 
REMARK    7  A    between atoms: N5_18  and  O4_19 
REMARK       I    between atoms: N5_18  and  C6_21 
REMARK    8  A    between atoms: C6_21  and  C7_23 
ROOT
HETATM    1  C3  UNL     1      -9.906   5.454 -34.564  1.00  0.00     0.272 C 
ENDROOT
BRANCH   1   2
HETATM    2  C2  UNL     1     -10.317   4.169 -35.235  1.00  0.00     0.290 C 
HETATM    3  O2  UNL     1     -11.482   3.720 -35.099  1.00  0.00    -0.262 OA
BRANCH   2   4
HETATM    4  O1  UNL     1      -9.439   3.435 -36.021  1.00  0.00    -0.325 OA
HETATM    5  C1  UNL     1      -8.134   3.094 -35.570  1.00  0.00     0.213 C 
ENDBRANCH   2   4
ENDBRANCH   1   2
BRANCH   1   6
HETATM    6  C4  UNL     1     -11.081   6.282 -34.231  1.00  0.00     0.116 A 
HETATM    7  N1  UNL     1     -12.001   6.114 -33.269  1.00  0.00    -0.239 N 
HETATM    8  O3  UNL     1     -12.878   7.088 -33.327  1.00  0.00    -0.155 OA
ATOM      9  H1  UNL     1     -12.017   5.347 -32.596  1.00  0.00     0.196 HD
HETATM   10  N2  UNL     1     -12.572   7.912 -34.309  1.00  0.00    -0.222 N 
HETATM   11  C5  UNL     1     -11.451   7.429 -34.889  1.00  0.00     0.169 A 
ATOM     12  H2  UNL     1     -13.083   8.753 -34.579  1.00  0.00     0.198 HD
BRANCH  11  13
HETATM   13  N3  UNL     1     -10.843   7.965 -35.891  1.00  0.00    -0.289 N 
ATOM     14  H3  UNL     1     -10.577   7.369 -36.675  1.00  0.00     0.188 HD
BRANCH  13  15
HETATM   15  N4  UNL     1     -10.533   9.326 -35.951  1.00  0.00    -0.344 N 
ATOM     16  H42 UNL     1     -10.190   9.692 -36.839  1.00  0.00     0.176 HD
ATOM     17  H41 UNL     1     -10.635   9.953 -35.153  1.00  0.00     0.176 HD
ENDBRANCH  13  15
ENDBRANCH  11  13
ENDBRANCH   1   6
BRANCH   1  18
HETATM   18  N5  UNL     1      -9.221   5.116 -33.335  1.00  0.00    -0.206 N 
HETATM   19  C6  UNL     1      -8.026   5.742 -32.892  1.00  0.00     0.281 C 
HETATM   20  O5  UNL     1      -7.564   6.648 -33.646  1.00  0.00    -0.268 OA
BRANCH  18  21
HETATM   21  O4  UNL     1      -9.750   4.144 -32.565  1.00  0.00    -0.284 OA
ATOM     22  H4  UNL     1     -10.355   4.400 -31.879  1.00  0.00     0.245 HD
ENDBRANCH  18  21
BRANCH  19  23
HETATM   23  C7  UNL     1      -7.339   5.399 -31.658  1.00  0.00     0.217 C 
HETATM   24  C8  UNL     1      -6.022   6.109 -31.468  1.00  0.00     0.053 C 
HETATM   25  C9  UNL     1      -5.078   5.050 -30.878  1.00  0.00     0.047 C 
HETATM   26  C10 UNL     1      -6.033   3.969 -30.518  1.00  0.00     0.248 C 
HETATM   27  N6  UNL     1      -6.951   3.999 -31.669  1.00  0.00    -0.044 N 
HETATM   28  S1  UNL     1      -7.209   4.581 -29.244  1.00  0.00    -0.133 SA
ATOM     29  H62 UNL     1      -7.718   3.327 -31.640  1.00  0.00     0.280 HD
ATOM     30  H61 UNL     1      -6.568   3.653 -32.549  1.00  0.00     0.280 HD
HETATM   31  C11 UNL     1      -8.240   5.557 -30.422  1.00  0.00     0.125 C 
ENDBRANCH  19  23
ENDBRANCH   1  18
TORSDOF 8
ENDMDL
MODEL 4
REMARK VINA RESULT: -6.631318050      2.780      6.071
REMARK  8 active torsions:
REMARK  status: ('A' for Active; 'I' for Inactive)
REMARK    1  A    between atoms: O1_2  and  C2_3 
REMARK    2  A    between atoms: C2_3  and  C3_5 
REMARK    3  A    between atoms: C3_5  and  C4_6 
REMARK    4  A    between atoms: C3_5  and  N5_18 
REMARK    5  A    between atoms: C5_12  and  N3_13 
REMARK    6  A    between atoms: N3_13  and  N4_15 
REMARK    7  A    between atoms: N5_18  and  O4_19 
REMARK       I    between atoms: N5_18  and  C6_21 
REMARK    8  A    between atoms: C6_21  and  C7_23 
ROOT
HETATM    1  C3  UNL     1      -8.352  10.918 -37.724  1.00  0.00     0.272 C 
ENDROOT
BRANCH   1   2
HETATM    2  C2  UNL     1      -9.509  10.948 -36.759  1.00  0.00     0.290 C 
HETATM    3  O2  UNL     1      -9.761  11.983 -36.094  1.00  0.00    -0.262 OA
BRANCH   2   4
HETATM    4  O1  UNL     1     -10.334   9.850 -36.565  1.00  0.00    -0.325 OA
HETATM    5  C1  UNL     1     -10.493   9.246 -35.287  1.00  0.00     0.213 C 
ENDBRANCH   2   4
ENDBRANCH   1   2
BRANCH   1   6
HETATM    6  C4  UNL     1      -8.350  12.111 -38.593  1.00  0.00     0.116 A 
HETATM    7  N1  UNL     1      -7.467  13.118 -38.662  1.00  0.00    -0.239 N 
HETATM    8  O3  UNL     1      -7.850  13.976 -39.577  1.00  0.00    -0.155 OA
ATOM      9  H1  UNL     1      -6.626  13.203 -38.091  1.00  0.00     0.196 HD
HETATM   10  N2  UNL     1      -8.976  13.571 -40.129  1.00  0.00    -0.222 N 
HETATM   11  C5  UNL     1      -9.309  12.407 -39.530  1.00  0.00     0.169 A 
ATOM     12  H2  UNL     1      -9.497  14.047 -40.867  1.00  0.00     0.198 HD
BRANCH  11  13
HETATM   13  N3  UNL     1     -10.353  11.702 -39.803  1.00  0.00    -0.289 N 
ATOM     14  H3  UNL     1     -10.229  10.815 -40.291  1.00  0.00     0.188 HD
BRANCH  13  15
HETATM   15  N4  UNL     1     -11.648  12.100 -39.460  1.00  0.00    -0.344 N 
ATOM     16  H42 UNL     1     -12.382  11.392 -39.488  1.00  0.00     0.176 HD
ATOM     17  H41 UNL     1     -11.880  13.055 -39.187  1.00  0.00     0.176 HD
ENDBRANCH  13  15
ENDBRANCH  11  13
ENDBRANCH   1   6
BRANCH   1  18
HETATM   18  N5  UNL     1      -7.128  10.911 -36.952  1.00  0.00    -0.206 N 
HETATM   19  C6  UNL     1      -5.965  10.180 -37.310  1.00  0.00     0.281 C 
HETATM   20  O5  UNL     1      -6.043   9.506 -38.380  1.00  0.00    -0.268 OA
BRANCH  18  21
HETATM   21  O4  UNL     1      -7.092  11.644 -35.821  1.00  0.00    -0.284 OA
ATOM     22  H4  UNL     1      -6.627  12.472 -35.842  1.00  0.00     0.245 HD
ENDBRANCH  18  21
BRANCH  19  23
HETATM   23  C7  UNL     1      -4.738  10.174 -36.532  1.00  0.00     0.217 C 
HETATM   24  C8  UNL     1      -3.585   9.471 -37.205  1.00  0.00     0.053 C 
HETATM   25  C9  UNL     1      -2.883   8.690 -36.083  1.00  0.00     0.047 C 
HETATM   26  C10 UNL     1      -3.518   9.275 -34.872  1.00  0.00     0.248 C 
HETATM   27  N6  UNL     1      -4.917   9.404 -35.313  1.00  0.00    -0.044 N 
HETATM   28  S1  UNL     1      -3.122  11.068 -34.771  1.00  0.00    -0.133 SA
ATOM     29  H62 UNL     1      -5.561   9.802 -34.630  1.00  0.00     0.280 HD
ATOM     30  H61 UNL     1      -5.431   8.529 -35.415  1.00  0.00     0.280 HD
HETATM   31  C11 UNL     1      -4.333  11.582 -36.064  1.00  0.00     0.125 C 
ENDBRANCH  19  23
ENDBRANCH   1  18
TORSDOF 8
ENDMDL
MODEL 5
REMARK VINA RESULT: -6.607268148      6.895      9.702
REMARK  8 active torsions:
REMARK  status: ('A' for Active; 'I' for Inactive)
REMARK    1  A    between atoms: O1_2  and  C2_3 
REMARK    2  A    between atoms: C2_3  and  C3_5 
REMARK    3  A    between atoms: C3_5  and  C4_6 
REMARK    4  A    between atoms: C3_5  and  N5_18 
REMARK    5  A    between atoms: C5_12  and  N3_13 
REMARK    6  A    between atoms: N3_13  and  N4_15 
REMARK    7  A    between atoms: N5_18  and  O4_19 
REMARK       I    between atoms: N5_18  and  C6_21 
REMARK    8  A    between atoms: C6_21  and  C7_23 
ROOT
HETATM    1  C3  UNL     1     -10.706   6.717 -33.199  1.00  0.00     0.272 C 
ENDROOT
BRANCH   1   2
HETATM    2  C2  UNL     1     -10.541   7.156 -34.631  1.00  0.00     0.290 C 
HETATM    3  O2  UNL     1     -10.970   6.443 -35.573  1.00  0.00    -0.262 OA
BRANCH   2   4
HETATM    4  O1  UNL     1      -9.916   8.348 -34.968  1.00  0.00    -0.325 OA
HETATM    5  C1  UNL     1     -10.564   9.338 -35.758  1.00  0.00     0.213 C 
ENDBRANCH   2   4
ENDBRANCH   1   2
BRANCH   1   6
HETATM    6  C4  UNL     1     -11.719   5.650 -33.082  1.00  0.00     0.116 A 
HETATM    7  N1  UNL     1     -12.967   5.705 -32.594  1.00  0.00    -0.239 N 
HETATM    8  O3  UNL     1     -13.524   4.521 -32.680  1.00  0.00    -0.155 OA
ATOM      9  H1  UNL     1     -13.415   6.540 -32.215  1.00  0.00     0.196 HD
HETATM   10  N2  UNL     1     -12.679   3.664 -33.216  1.00  0.00    -0.222 N 
HETATM   11  C5  UNL     1     -11.542   4.347 -33.476  1.00  0.00     0.169 A 
ATOM     12  H2  UNL     1     -12.849   2.674 -33.398  1.00  0.00     0.198 HD
BRANCH  11  13
HETATM   13  N3  UNL     1     -10.479   3.846 -34.005  1.00  0.00    -0.289 N 
ATOM     14  H3  UNL     1      -9.709   3.578 -33.393  1.00  0.00     0.188 HD
BRANCH  13  15
HETATM   15  N4  UNL     1     -10.335   3.655 -35.382  1.00  0.00    -0.344 N 
ATOM     16  H42 UNL     1     -11.186   3.564 -35.937  1.00  0.00     0.176 HD
ATOM     17  H41 UNL     1      -9.426   3.603 -35.842  1.00  0.00     0.176 HD
ENDBRANCH  13  15
ENDBRANCH  11  13
ENDBRANCH   1   6
BRANCH   1  18
HETATM   18  N5  UNL     1      -9.436   6.195 -32.744  1.00  0.00    -0.206 N 
HETATM   19  C6  UNL     1      -9.104   5.987 -31.379  1.00  0.00     0.281 C 
HETATM   20  O5  UNL     1     -10.002   6.288 -30.540  1.00  0.00    -0.268 OA
BRANCH  18  21
HETATM   21  O4  UNL     1      -8.509   5.888 -33.675  1.00  0.00    -0.284 OA
ATOM     22  H4  UNL     1      -8.720   6.060 -34.585  1.00  0.00     0.245 HD
ENDBRANCH  18  21
BRANCH  19  23
HETATM   23  C7  UNL     1      -7.826   5.463 -30.925  1.00  0.00     0.217 C 
HETATM   24  C8  UNL     1      -6.654   6.371 -31.204  1.00  0.00     0.053 C 
HETATM   25  C9  UNL     1      -5.519   5.434 -31.647  1.00  0.00     0.047 C 
HETATM   26  C10 UNL     1      -6.071   4.104 -31.276  1.00  0.00     0.248 C 
HETATM   27  N6  UNL     1      -7.483   4.260 -31.663  1.00  0.00    -0.044 N 
HETATM   28  S1  UNL     1      -6.318   4.022 -29.456  1.00  0.00    -0.133 SA
ATOM     29  H62 UNL     1      -8.080   3.450 -31.491  1.00  0.00     0.280 HD
ATOM     30  H61 UNL     1      -7.667   4.288 -32.666  1.00  0.00     0.280 HD
HETATM   31  C11 UNL     1      -7.859   5.036 -29.449  1.00  0.00     0.125 C 
ENDBRANCH  19  23
ENDBRANCH   1  18
TORSDOF 8
ENDMDL
