MODEL 1
REMARK VINA RESULT: -7.114646108      0.000      0.000
REMARK  7 active torsions:
REMARK  status: ('A' for Active; 'I' for Inactive)
REMARK    1  A    between atoms: O1_2  and  C2_3 
REMARK    2  A    between atoms: C2_3  and  C3_5 
REMARK    3  A    between atoms: C3_5  and  S1_6 
REMARK    4  A    between atoms: C5_10  and  O3_11 
REMARK    5  A    between atoms: C5_10  and  C6_13 
REMARK    6  A    between atoms: C6_13  and  O4_14 
REMARK    7  A    between atoms: C6_13  and  C7_16 
ROOT
HETATM    1  C3  UNL     1      -8.984   5.487 -30.509  1.00  0.00     0.217 C 
HETATM    2  N1  UNL     1      -9.666   4.551 -31.234  1.00  0.00    -0.353 N 
ATOM      3  H1  UNL     1     -10.081   3.742 -30.771  1.00  0.00     0.159 HD
HETATM    4  C5  UNL     1      -9.789   4.714 -32.616  1.00  0.00     0.184 C 
HETATM    5  C8  UNL     1     -10.180   6.140 -32.851  1.00  0.00     0.080 C 
HETATM    6  C9  UNL     1     -10.141   6.559 -34.278  1.00  0.00     0.044 C 
HETATM    7  C10 UNL     1     -11.475   6.906 -34.885  1.00  0.00     0.132 C 
HETATM    8  N2  UNL     1     -12.439   7.369 -33.949  1.00  0.00    -0.149 NA
HETATM    9  N3  UNL     1     -12.644   6.317 -33.044  1.00  0.00    -0.147 NA
HETATM   10  C11 UNL     1     -11.506   6.370 -32.150  1.00  0.00     0.156 C 
HETATM   11  S2  UNL     1      -8.939   6.923 -31.772  1.00  0.00    -0.100 SA
ENDROOT
BRANCH   4  12
HETATM   12  O3  UNL     1     -10.948   3.911 -32.973  1.00  0.00    -0.367 OA
ATOM     13  H3  UNL     1     -11.261   4.294 -33.784  1.00  0.00     0.212 HD
ENDBRANCH   4  12
BRANCH   4  14
HETATM   14  C6  UNL     1      -8.682   4.215 -33.363  1.00  0.00     0.275 C 
BRANCH  14  15
HETATM   15  O4  UNL     1      -7.788   3.598 -32.629  1.00  0.00    -0.380 OA
ATOM     16  H4  UNL     1      -6.997   3.371 -33.103  1.00  0.00     0.210 HD
ENDBRANCH  14  15
BRANCH  14  17
HETATM   17  C7  UNL     1      -8.315   4.216 -34.753  1.00  0.00     0.208 C 
HETATM   18  O5  UNL     1      -7.316   4.719 -35.321  1.00  0.00    -0.646 OA
HETATM   19  O6  UNL     1      -9.220   3.567 -35.638  1.00  0.00    -0.646 OA
ENDBRANCH  14  17
ENDBRANCH   4  14
BRANCH   1  20
HETATM   20  C2  UNL     1      -9.729   6.174 -29.389  1.00  0.00     0.308 C 
HETATM   21  O2  UNL     1     -10.675   5.677 -28.782  1.00  0.00    -0.260 OA
BRANCH  20  22
HETATM   22  O1  UNL     1      -9.332   7.462 -28.982  1.00  0.00    -0.323 OA
HETATM   23  C1  UNL     1      -9.804   7.918 -27.718  1.00  0.00     0.213 C 
ENDBRANCH  20  22
ENDBRANCH   1  20
BRANCH   1  24
HETATM   24  S1  UNL     1      -7.329   5.089 -30.031  1.00  0.00    -0.121 SA
HETATM   25  C4  UNL     1      -7.205   4.156 -28.518  1.00  0.00     0.093 C 
ENDBRANCH   1  24
TORSDOF 7
ENDMDL
MODEL 2
REMARK VINA RESULT: -6.742752282      1.294      1.680
REMARK  7 active torsions:
REMARK  status: ('A' for Active; 'I' for Inactive)
REMARK    1  A    between atoms: O1_2  and  C2_3 
REMARK    2  A    between atoms: C2_3  and  C3_5 
REMARK    3  A    between atoms: C3_5  and  S1_6 
REMARK    4  A    between atoms: C5_10  and  O3_11 
REMARK    5  A    between atoms: C5_10  and  C6_13 
REMARK    6  A    between atoms: C6_13  and  O4_14 
REMARK    7  A    between atoms: C6_13  and  C7_16 
ROOT
HETATM    1  C3  UNL     1      -8.502   5.172 -31.778  1.00  0.00     0.217 C 
HETATM    2  N1  UNL     1      -9.464   4.392 -32.355  1.00  0.00    -0.353 N 
ATOM      3  H1  UNL     1      -9.858   3.598 -31.848  1.00  0.00     0.159 HD
HETATM    4  C5  UNL     1      -9.903   4.694 -33.647  1.00  0.00     0.184 C 
HETATM    5  C8  UNL     1     -10.143   6.171 -33.689  1.00  0.00     0.080 C 
HETATM    6  C9  UNL     1     -10.402   6.711 -35.051  1.00  0.00     0.044 C 
HETATM    7  C10 UNL     1     -11.785   7.265 -35.272  1.00  0.00     0.132 C 
HETATM    8  N2  UNL     1     -12.414   7.751 -34.093  1.00  0.00    -0.149 NA
HETATM    9  N3  UNL     1     -12.529   6.653 -33.229  1.00  0.00    -0.147 NA
HETATM   10  C11 UNL     1     -11.208   6.490 -32.657  1.00  0.00     0.156 C 
HETATM   11  S2  UNL     1      -8.577   6.702 -32.923  1.00  0.00    -0.100 SA
ENDROOT
BRANCH   4  12
HETATM   12  O3  UNL     1     -11.213   4.068 -33.739  1.00  0.00    -0.367 OA
ATOM     13  H3  UNL     1     -11.824   4.795 -33.736  1.00  0.00     0.212 HD
ENDBRANCH   4  12
BRANCH   4  14
HETATM   14  C6  UNL     1      -9.096   4.139 -34.682  1.00  0.00     0.275 C 
BRANCH  14  15
HETATM   15  O4  UNL     1      -9.788   3.580 -35.646  1.00  0.00    -0.380 OA
ATOM     16  H4  UNL     1     -10.401   2.921 -35.342  1.00  0.00     0.210 HD
ENDBRANCH  14  15
BRANCH  14  17
HETATM   17  C7  UNL     1      -7.682   4.057 -34.931  1.00  0.00     0.208 C 
HETATM   18  O5  UNL     1      -6.885   4.935 -35.341  1.00  0.00    -0.646 OA
HETATM   19  O6  UNL     1      -7.081   2.789 -34.700  1.00  0.00    -0.646 OA
ENDBRANCH  14  17
ENDBRANCH   4  14
BRANCH   1  20
HETATM   20  C2  UNL     1      -8.845   5.836 -30.465  1.00  0.00     0.308 C 
HETATM   21  O2  UNL     1      -8.521   6.983 -30.166  1.00  0.00    -0.260 OA
BRANCH  20  22
HETATM   22  O1  UNL     1      -9.591   5.127 -29.505  1.00  0.00    -0.323 OA
HETATM   23  C1  UNL     1      -9.145   5.195 -28.155  1.00  0.00     0.213 C 
ENDBRANCH  20  22
ENDBRANCH   1  20
BRANCH   1  24
HETATM   24  S1  UNL     1      -6.851   4.541 -31.767  1.00  0.00    -0.121 SA
HETATM   25  C4  UNL     1      -6.188   4.243 -30.140  1.00  0.00     0.093 C 
ENDBRANCH   1  24
TORSDOF 7
ENDMDL
MODEL 3
REMARK VINA RESULT: -6.708300060      7.630      9.867
REMARK  7 active torsions:
REMARK  status: ('A' for Active; 'I' for Inactive)
REMARK    1  A    between atoms: O1_2  and  C2_3 
REMARK    2  A    between atoms: C2_3  and  C3_5 
REMARK    3  A    between atoms: C3_5  and  S1_6 
REMARK    4  A    between atoms: C5_10  and  O3_11 
REMARK    5  A    between atoms: C5_10  and  C6_13 
REMARK    6  A    between atoms: C6_13  and  O4_14 
REMARK    7  A    between atoms: C6_13  and  C7_16 
ROOT
HETATM    1  C3  UNL     1      -2.158   5.229 -31.903  1.00  0.00     0.217 C 
HETATM    2  N1  UNL     1      -0.924   5.714 -31.568  1.00  0.00    -0.353 N 
ATOM      3  H1  UNL     1      -0.794   6.709 -31.384  1.00  0.00     0.159 HD
HETATM    4  C5  UNL     1       0.155   4.831 -31.479  1.00  0.00     0.184 C 
HETATM    5  C8  UNL     1      -0.318   3.644 -30.700  1.00  0.00     0.080 C 
HETATM    6  C9  UNL     1       0.630   2.497 -30.693  1.00  0.00     0.044 C 
HETATM    7  C10 UNL     1       1.228   2.163 -29.352  1.00  0.00     0.132 C 
HETATM    8  N2  UNL     1       0.415   2.527 -28.244  1.00  0.00    -0.149 NA
HETATM    9  N3  UNL     1       0.265   3.919 -28.307  1.00  0.00    -0.147 NA
HETATM   10  C11 UNL     1      -0.739   4.138 -29.328  1.00  0.00     0.156 C 
HETATM   11  S2  UNL     1      -1.880   3.362 -31.593  1.00  0.00    -0.100 SA
ENDROOT
BRANCH   4  12
HETATM   12  O3  UNL     1       1.115   5.519 -30.630  1.00  0.00    -0.367 OA
ATOM     13  H3  UNL     1       1.804   4.880 -30.487  1.00  0.00     0.212 HD
ENDBRANCH   4  12
BRANCH   4  14
HETATM   14  C6  UNL     1       0.801   4.572 -32.724  1.00  0.00     0.275 C 
BRANCH  14  15
HETATM   15  O4  UNL     1       1.784   3.708 -32.636  1.00  0.00    -0.380 OA
ATOM     16  H4  UNL     1       1.712   3.125 -31.890  1.00  0.00     0.210 HD
ENDBRANCH  14  15
BRANCH  14  17
HETATM   17  C7  UNL     1       0.620   5.030 -34.074  1.00  0.00     0.208 C 
HETATM   18  O5  UNL     1       0.450   4.375 -35.130  1.00  0.00    -0.646 OA
HETATM   19  O6  UNL     1       0.653   6.440 -34.264  1.00  0.00    -0.646 OA
ENDBRANCH  14  17
ENDBRANCH   4  14
BRANCH   1  20
HETATM   20  C2  UNL     1      -3.285   5.470 -30.928  1.00  0.00     0.308 C 
HETATM   21  O2  UNL     1      -3.642   6.582 -30.546  1.00  0.00    -0.260 OA
BRANCH  20  22
HETATM   22  O1  UNL     1      -4.002   4.373 -30.413  1.00  0.00    -0.323 OA
HETATM   23  C1  UNL     1      -5.418   4.393 -30.564  1.00  0.00     0.213 C 
ENDBRANCH  20  22
ENDBRANCH   1  20
BRANCH   1  24
HETATM   24  S1  UNL     1      -2.690   5.462 -33.573  1.00  0.00    -0.121 SA
HETATM   25  C4  UNL     1      -3.818   4.216 -34.166  1.00  0.00     0.093 C 
ENDBRANCH   1  24
TORSDOF 7
ENDMDL
MODEL 4
REMARK VINA RESULT: -6.626994479      8.512     10.075
REMARK  7 active torsions:
REMARK  status: ('A' for Active; 'I' for Inactive)
REMARK    1  A    between atoms: O1_2  and  C2_3 
REMARK    2  A    between atoms: C2_3  and  C3_5 
REMARK    3  A    between atoms: C3_5  and  S1_6 
REMARK    4  A    between atoms: C5_10  and  O3_11 
REMARK    5  A    between atoms: C5_10  and  C6_13 
REMARK    6  A    between atoms: C6_13  and  O4_14 
REMARK    7  A    between atoms: C6_13  and  C7_16 
ROOT
HETATM    1  C3  UNL     1      -2.329   7.550 -33.869  1.00  0.00     0.217 C 
HETATM    2  N1  UNL     1      -1.851   8.817 -33.680  1.00  0.00    -0.353 N 
ATOM      3  H1  UNL     1      -1.655   9.159 -32.739  1.00  0.00     0.159 HD
HETATM    4  C5  UNL     1      -1.634   9.637 -34.791  1.00  0.00     0.184 C 
HETATM    5  C8  UNL     1      -0.913   8.808 -35.808  1.00  0.00     0.080 C 
HETATM    6  C9  UNL     1      -0.792   9.447 -37.146  1.00  0.00     0.044 C 
HETATM    7  C10 UNL     1       0.611   9.791 -37.571  1.00  0.00     0.132 C 
HETATM    8  N2  UNL     1       1.614   8.967 -36.993  1.00  0.00    -0.149 NA
HETATM    9  N3  UNL     1       1.531   9.162 -35.607  1.00  0.00    -0.147 NA
HETATM   10  C11 UNL     1       0.398   8.363 -35.187  1.00  0.00     0.156 C 
HETATM   11  S2  UNL     1      -1.985   7.336 -35.738  1.00  0.00    -0.100 SA
ENDROOT
BRANCH   4  12
HETATM   12  O3  UNL     1      -0.678  10.630 -34.325  1.00  0.00    -0.367 OA
ATOM     13  H3  UNL     1      -1.199  11.412 -34.186  1.00  0.00     0.212 HD
ENDBRANCH   4  12
BRANCH   4  14
HETATM   14  C6  UNL     1      -2.792  10.340 -35.233  1.00  0.00     0.275 C 
BRANCH  14  15
HETATM   15  O4  UNL     1      -2.835  11.588 -34.831  1.00  0.00    -0.380 OA
ATOM     16  H4  UNL     1      -3.503  11.755 -34.177  1.00  0.00     0.210 HD
ENDBRANCH  14  15
BRANCH  14  17
HETATM   17  C7  UNL     1      -3.936  10.005 -36.037  1.00  0.00     0.208 C 
HETATM   18  O5  UNL     1      -4.016   9.780 -37.268  1.00  0.00    -0.646 OA
HETATM   19  O6  UNL     1      -5.180   9.931 -35.351  1.00  0.00    -0.646 OA
ENDBRANCH  14  17
ENDBRANCH   4  14
BRANCH   1  20
HETATM   20  C2  UNL     1      -1.495   6.409 -33.338  1.00  0.00     0.308 C 
HETATM   21  O2  UNL     1      -1.021   6.368 -32.205  1.00  0.00    -0.260 OA
BRANCH  20  22
HETATM   22  O1  UNL     1      -1.233   5.299 -34.165  1.00  0.00    -0.323 OA
HETATM   23  C1  UNL     1       0.007   4.626 -33.975  1.00  0.00     0.213 C 
ENDBRANCH  20  22
ENDBRANCH   1  20
BRANCH   1  24
HETATM   24  S1  UNL     1      -4.050   7.284 -33.567  1.00  0.00    -0.121 SA
HETATM   25  C4  UNL     1      -4.834   6.166 -34.713  1.00  0.00     0.093 C 
ENDBRANCH   1  24
TORSDOF 7
ENDMDL
MODEL 5
REMARK VINA RESULT: -6.620822322      7.905     10.451
REMARK  7 active torsions:
REMARK  status: ('A' for Active; 'I' for Inactive)
REMARK    1  A    between atoms: O1_2  and  C2_3 
REMARK    2  A    between atoms: C2_3  and  C3_5 
REMARK    3  A    between atoms: C3_5  and  S1_6 
REMARK    4  A    between atoms: C5_10  and  O3_11 
REMARK    5  A    between atoms: C5_10  and  C6_13 
REMARK    6  A    between atoms: C6_13  and  O4_14 
REMARK    7  A    between atoms: C6_13  and  C7_16 
ROOT
HETATM    1  C3  UNL     1      -2.151   4.120 -29.303  1.00  0.00     0.217 C 
HETATM    2  N1  UNL     1      -0.954   4.504 -28.765  1.00  0.00    -0.353 N 
ATOM      3  H1  UNL     1      -0.923   5.195 -28.016  1.00  0.00     0.159 HD
HETATM    4  C5  UNL     1       0.227   3.938 -29.254  1.00  0.00     0.184 C 
HETATM    5  C8  UNL     1      -0.007   2.463 -29.351  1.00  0.00     0.080 C 
HETATM    6  C9  UNL     1       1.066   1.717 -30.063  1.00  0.00     0.044 C 
HETATM    7  C10 UNL     1       1.852   0.753 -29.215  1.00  0.00     0.132 C 
HETATM    8  N2  UNL     1       1.136   0.239 -28.100  1.00  0.00    -0.149 NA
HETATM    9  N3  UNL     1       0.814   1.343 -27.299  1.00  0.00    -0.147 NA
HETATM   10  C11 UNL     1      -0.322   1.960 -27.955  1.00  0.00     0.156 C 
HETATM   11  S2  UNL     1      -1.618   2.518 -30.201  1.00  0.00    -0.100 SA
ENDROOT
BRANCH   4  12
HETATM   12  O3  UNL     1       1.190   4.128 -28.181  1.00  0.00    -0.367 OA
ATOM     13  H3  UNL     1       1.331   5.067 -28.153  1.00  0.00     0.212 HD
ENDBRANCH   4  12
BRANCH   4  14
HETATM   14  C6  UNL     1       0.749   4.588 -30.411  1.00  0.00     0.275 C 
BRANCH  14  15
HETATM   15  O4  UNL     1       1.894   5.193 -30.201  1.00  0.00    -0.380 OA
ATOM     16  H4  UNL     1       1.804   6.112 -29.977  1.00  0.00     0.210 HD
ENDBRANCH  14  15
BRANCH  14  17
HETATM   17  C7  UNL     1       0.320   4.728 -31.776  1.00  0.00     0.208 C 
HETATM   18  O5  UNL     1       0.283   3.879 -32.698  1.00  0.00    -0.646 OA
HETATM   19  O6  UNL     1      -0.115   6.026 -32.162  1.00  0.00    -0.646 OA
ENDBRANCH  14  17
ENDBRANCH   4  14
BRANCH   1  20
HETATM   20  C2  UNL     1      -3.178   3.538 -28.361  1.00  0.00     0.308 C 
HETATM   21  O2  UNL     1      -3.034   3.463 -27.143  1.00  0.00    -0.260 OA
BRANCH  20  22
HETATM   22  O1  UNL     1      -4.395   3.053 -28.878  1.00  0.00    -0.323 OA
HETATM   23  C1  UNL     1      -5.529   3.095 -28.018  1.00  0.00     0.213 C 
ENDBRANCH  20  22
ENDBRANCH   1  20
BRANCH   1  24
HETATM   24  S1  UNL     1      -2.898   5.214 -30.473  1.00  0.00    -0.121 SA
HETATM   25  C4  UNL     1      -3.388   4.435 -31.999  1.00  0.00     0.093 C 
ENDBRANCH   1  24
TORSDOF 7
ENDMDL
