MODEL 1
REMARK VINA RESULT: -5.279325437      0.000      0.000
REMARK  1 active torsions:
REMARK  status: ('A' for Active; 'I' for Inactive)
REMARK    1  A    between atoms: C5_7  and  C6_8 
ROOT
HETATM    1  N1  UNL     1      15.695   2.446  11.393  1.00  0.00    -0.196 NA
HETATM    2  C1  UNL     1      16.248   2.493  12.409  1.00  0.00     0.075 C 
HETATM    3  C2  UNL     1      16.972   2.545  13.697  1.00  0.00     0.164 C 
HETATM    4  S1  UNL     1      17.783   4.167  13.797  1.00  0.00    -0.149 SA
HETATM    5  C3  UNL     1      16.618   4.990  14.940  1.00  0.00     0.076 C 
HETATM    6  C4  UNL     1      15.481   4.028  14.930  1.00  0.00     0.024 C 
HETATM    7  C5  UNL     1      15.971   2.631  14.813  1.00  0.00     0.072 C 
ENDROOT
BRANCH   7   8
HETATM    8  C6  UNL     1      16.437   2.039  16.066  1.00  0.00     0.097 C 
HETATM    9  N2  UNL     1      17.725   1.461  16.192  1.00  0.00    -0.094 NA
HETATM   10  S2  UNL     1      15.448   2.034  17.359  1.00  0.00    -0.068 SA
ENDBRANCH   7   8
TORSDOF 1
ENDMDL
MODEL 2
REMARK VINA RESULT: -4.906483166      1.463      3.894
REMARK  1 active torsions:
REMARK  status: ('A' for Active; 'I' for Inactive)
REMARK    1  A    between atoms: C5_7  and  C6_8 
ROOT
HETATM    1  N1  UNL     1      17.695   1.399  16.288  1.00  0.00    -0.196 NA
HETATM    2  C1  UNL     1      17.079   1.878  15.434  1.00  0.00     0.075 C 
HETATM    3  C2  UNL     1      16.275   2.475  14.345  1.00  0.00     0.164 C 
HETATM    4  S1  UNL     1      15.236   3.768  15.086  1.00  0.00    -0.149 SA
HETATM    5  C3  UNL     1      16.197   5.230  14.562  1.00  0.00     0.076 C 
HETATM    6  C4  UNL     1      17.458   4.590  14.095  1.00  0.00     0.024 C 
HETATM    7  C5  UNL     1      17.181   3.278  13.458  1.00  0.00     0.072 C 
ENDROOT
BRANCH   7   8
HETATM    8  C6  UNL     1      16.727   3.354  12.070  1.00  0.00     0.097 C 
HETATM    9  N2  UNL     1      15.641   2.582  11.591  1.00  0.00    -0.094 NA
HETATM   10  S2  UNL     1      17.494   4.351  11.036  1.00  0.00    -0.068 SA
ENDBRANCH   7   8
TORSDOF 1
ENDMDL
MODEL 3
REMARK VINA RESULT: -4.832678913      1.856      3.923
REMARK  1 active torsions:
REMARK  status: ('A' for Active; 'I' for Inactive)
REMARK    1  A    between atoms: C5_7  and  C6_8 
ROOT
HETATM    1  N1  UNL     1      17.717   1.354  16.324  1.00  0.00    -0.196 NA
HETATM    2  C1  UNL     1      17.076   1.665  15.412  1.00  0.00     0.075 C 
HETATM    3  C2  UNL     1      16.239   2.052  14.256  1.00  0.00     0.164 C 
HETATM    4  S1  UNL     1      15.531   3.684  14.623  1.00  0.00    -0.149 SA
HETATM    5  C3  UNL     1      16.634   4.705  13.586  1.00  0.00     0.076 C 
HETATM    6  C4  UNL     1      17.702   3.722  13.251  1.00  0.00     0.024 C 
HETATM    7  C5  UNL     1      17.134   2.359  13.091  1.00  0.00     0.072 C 
ENDROOT
BRANCH   7   8
HETATM    8  C6  UNL     1      16.515   2.102  11.791  1.00  0.00     0.097 C 
HETATM    9  N2  UNL     1      15.842   3.116  11.065  1.00  0.00    -0.094 NA
HETATM   10  S2  UNL     1      16.593   0.605  11.156  1.00  0.00    -0.068 SA
ENDBRANCH   7   8
TORSDOF 1
ENDMDL
MODEL 4
REMARK VINA RESULT: -4.721437785      1.728      3.810
REMARK  1 active torsions:
REMARK  status: ('A' for Active; 'I' for Inactive)
REMARK    1  A    between atoms: C5_7  and  C6_8 
ROOT
HETATM    1  N1  UNL     1      17.713   1.356  16.325  1.00  0.00    -0.196 NA
HETATM    2  C1  UNL     1      17.073   1.842  15.491  1.00  0.00     0.075 C 
HETATM    3  C2  UNL     1      16.241   2.445  14.428  1.00  0.00     0.164 C 
HETATM    4  S1  UNL     1      15.095   3.604  15.231  1.00  0.00    -0.149 SA
HETATM    5  C3  UNL     1      15.947   5.167  14.820  1.00  0.00     0.076 C 
HETATM    6  C4  UNL     1      17.260   4.657  14.336  1.00  0.00     0.024 C 
HETATM    7  C5  UNL     1      17.095   3.372  13.611  1.00  0.00     0.072 C 
ENDROOT
BRANCH   7   8
HETATM    8  C6  UNL     1      16.655   3.504  12.223  1.00  0.00     0.097 C 
HETATM    9  N2  UNL     1      16.592   4.760  11.571  1.00  0.00    -0.094 NA
HETATM   10  S2  UNL     1      16.217   2.171  11.398  1.00  0.00    -0.068 SA
ENDBRANCH   7   8
TORSDOF 1
ENDMDL
MODEL 5
REMARK VINA RESULT: -4.699044140      2.534      3.311
REMARK  1 active torsions:
REMARK  status: ('A' for Active; 'I' for Inactive)
REMARK    1  A    between atoms: C5_7  and  C6_8 
ROOT
HETATM    1  N1  UNL     1      15.182   0.648  16.436  1.00  0.00    -0.196 NA
HETATM    2  C1  UNL     1      15.987   1.260  15.872  1.00  0.00     0.075 C 
HETATM    3  C2  UNL     1      17.030   2.027  15.158  1.00  0.00     0.164 C 
HETATM    4  S1  UNL     1      17.041   1.451  13.436  1.00  0.00    -0.149 SA
HETATM    5  C3  UNL     1      16.137   2.843  12.671  1.00  0.00     0.076 C 
HETATM    6  C4  UNL     1      15.605   3.534  13.878  1.00  0.00     0.024 C 
HETATM    7  C5  UNL     1      16.568   3.448  15.005  1.00  0.00     0.072 C 
ENDROOT
BRANCH   7   8
HETATM    8  C6  UNL     1      17.660   4.418  14.953  1.00  0.00     0.097 C 
HETATM    9  N2  UNL     1      19.009   4.044  15.175  1.00  0.00    -0.094 NA
HETATM   10  S2  UNL     1      17.323   5.979  14.638  1.00  0.00    -0.068 SA
ENDBRANCH   7   8
TORSDOF 1
ENDMDL
