MODEL 1
REMARK VINA RESULT: -5.739296252      0.000      0.000
REMARK  3 active torsions:
REMARK  status: ('A' for Active; 'I' for Inactive)
REMARK    1  A    between atoms: O1_2  and  C2_3 
REMARK    2  A    between atoms: C2_3  and  C3_4 
REMARK    3  A    between atoms: C9_10  and  O2_11 
ROOT
HETATM    1  C3  UNL     1      15.718   2.032  15.317  1.00  0.00     0.247 C 
HETATM    2  C4  UNL     1      15.039   1.556  16.588  1.00  0.00     0.038 C 
HETATM    3  C5  UNL     1      13.982   2.483  17.081  1.00  0.00     0.004 C 
HETATM    4  C6  UNL     1      14.335   3.938  16.972  1.00  0.00     0.036 C 
HETATM    5  C7  UNL     1      14.824   4.167  15.557  1.00  0.00     0.226 C 
HETATM    6  C8  UNL     1      15.184   5.577  15.267  1.00  0.00     0.069 C 
HETATM    7  C9  UNL     1      16.593   5.483  14.711  1.00  0.00     0.148 C 
HETATM    8  C10 UNL     1      16.822   3.988  14.442  1.00  0.00     0.305 C 
HETATM    9  N1  UNL     1      16.078   3.398  15.494  1.00  0.00     0.102 N 
ENDROOT
BRANCH   1  10
HETATM   10  C2  UNL     1      16.909   1.132  15.089  1.00  0.00     0.202 C 
BRANCH  10  11
HETATM   11  O1  UNL     1      16.622   0.064  14.248  1.00  0.00    -0.394 OA
HETATM   12  C1  UNL     1      16.884   0.490  12.945  1.00  0.00     0.201 C 
ENDBRANCH  10  11
ENDBRANCH   1  10
BRANCH   7  13
HETATM   13  O2  UNL     1      16.720   6.237  13.573  1.00  0.00    -0.394 OA
ATOM     14  H2  UNL     1      17.549   6.700  13.565  1.00  0.00     0.210 HD
ENDBRANCH   7  13
TORSDOF 3
ENDMDL
MODEL 2
REMARK VINA RESULT: -5.711973778      2.532      3.999
REMARK  3 active torsions:
REMARK  status: ('A' for Active; 'I' for Inactive)
REMARK    1  A    between atoms: O1_2  and  C2_3 
REMARK    2  A    between atoms: C2_3  and  C3_4 
REMARK    3  A    between atoms: C9_10  and  O2_11 
ROOT
HETATM    1  C3  UNL     1      16.623   2.372  14.617  1.00  0.00     0.247 C 
HETATM    2  C4  UNL     1      17.460   3.306  15.471  1.00  0.00     0.038 C 
HETATM    3  C5  UNL     1      17.781   4.598  14.801  1.00  0.00     0.004 C 
HETATM    4  C6  UNL     1      18.128   4.469  13.346  1.00  0.00     0.036 C 
HETATM    5  C7  UNL     1      17.041   3.632  12.706  1.00  0.00     0.226 C 
HETATM    6  C8  UNL     1      17.214   3.437  11.245  1.00  0.00     0.069 C 
HETATM    7  C9  UNL     1      17.140   1.931  11.071  1.00  0.00     0.148 C 
HETATM    8  C10 UNL     1      16.626   1.393  12.414  1.00  0.00     0.305 C 
HETATM    9  N1  UNL     1      17.215   2.307  13.324  1.00  0.00     0.102 N 
ENDROOT
BRANCH   1  10
HETATM   10  C2  UNL     1      16.595   1.036  15.322  1.00  0.00     0.202 C 
BRANCH  10  11
HETATM   11  O1  UNL     1      16.575   1.160  16.705  1.00  0.00    -0.394 OA
HETATM   12  C1  UNL     1      15.240   1.082  17.103  1.00  0.00     0.201 C 
ENDBRANCH  10  11
ENDBRANCH   1  10
BRANCH   7  13
HETATM   13  O2  UNL     1      16.309   1.601  10.031  1.00  0.00    -0.394 OA
ATOM     14  H2  UNL     1      16.415   2.209   9.309  1.00  0.00     0.210 HD
ENDBRANCH   7  13
TORSDOF 3
ENDMDL
MODEL 3
REMARK VINA RESULT: -5.602450862      2.794      4.251
REMARK  3 active torsions:
REMARK  status: ('A' for Active; 'I' for Inactive)
REMARK    1  A    between atoms: O1_2  and  C2_3 
REMARK    2  A    between atoms: C2_3  and  C3_4 
REMARK    3  A    between atoms: C9_10  and  O2_11 
ROOT
HETATM    1  C3  UNL     1      17.123   1.734  11.875  1.00  0.00     0.247 C 
HETATM    2  C4  UNL     1      16.649   2.855  10.969  1.00  0.00     0.038 C 
HETATM    3  C5  UNL     1      16.911   4.216  11.517  1.00  0.00     0.004 C 
HETATM    4  C6  UNL     1      16.662   4.347  12.992  1.00  0.00     0.036 C 
HETATM    5  C7  UNL     1      17.386   3.199  13.664  1.00  0.00     0.226 C 
HETATM    6  C8  UNL     1      17.271   3.201  15.144  1.00  0.00     0.069 C 
HETATM    7  C9  UNL     1      16.768   1.806  15.468  1.00  0.00     0.148 C 
HETATM    8  C10 UNL     1      16.920   1.008  14.164  1.00  0.00     0.305 C 
HETATM    9  N1  UNL     1      16.661   2.007  13.194  1.00  0.00     0.102 N 
ENDROOT
BRANCH   1  10
HETATM   10  C2  UNL     1      16.572   0.447  11.310  1.00  0.00     0.202 C 
BRANCH  10  11
HETATM   11  O1  UNL     1      17.533  -0.302  10.644  1.00  0.00    -0.394 OA
HETATM   12  C1  UNL     1      17.853  -1.381  11.469  1.00  0.00     0.201 C 
ENDBRANCH  10  11
ENDBRANCH   1  10
BRANCH   7  13
HETATM   13  O2  UNL     1      17.487   1.255  16.497  1.00  0.00    -0.394 OA
ATOM     14  H2  UNL     1      18.024   0.536  16.186  1.00  0.00     0.210 HD
ENDBRANCH   7  13
TORSDOF 3
ENDMDL
MODEL 4
REMARK VINA RESULT: -5.535579283      1.885      3.608
REMARK  3 active torsions:
REMARK  status: ('A' for Active; 'I' for Inactive)
REMARK    1  A    between atoms: O1_2  and  C2_3 
REMARK    2  A    between atoms: C2_3  and  C3_4 
REMARK    3  A    between atoms: C9_10  and  O2_11 
ROOT
HETATM    1  C3  UNL     1      17.035   2.875  13.989  1.00  0.00     0.247 C 
HETATM    2  C4  UNL     1      16.537   4.094  13.234  1.00  0.00     0.038 C 
HETATM    3  C5  UNL     1      15.878   5.106  14.106  1.00  0.00     0.004 C 
HETATM    4  C6  UNL     1      14.991   4.523  15.167  1.00  0.00     0.036 C 
HETATM    5  C7  UNL     1      15.794   3.450  15.871  1.00  0.00     0.226 C 
HETATM    6  C8  UNL     1      15.068   2.791  16.986  1.00  0.00     0.069 C 
HETATM    7  C9  UNL     1      15.182   1.312  16.666  1.00  0.00     0.148 C 
HETATM    8  C10 UNL     1      16.229   1.220  15.545  1.00  0.00     0.305 C 
HETATM    9  N1  UNL     1      15.983   2.421  14.836  1.00  0.00     0.102 N 
ENDROOT
BRANCH   1  10
HETATM   10  C2  UNL     1      17.443   1.852  12.955  1.00  0.00     0.202 C 
BRANCH  10  11
HETATM   11  O1  UNL     1      18.572   2.233  12.241  1.00  0.00    -0.394 OA
HETATM   12  C1  UNL     1      18.859   1.197  11.351  1.00  0.00     0.201 C 
ENDBRANCH  10  11
ENDBRANCH   1  10
BRANCH   7  13
HETATM   13  O2  UNL     1      15.553   0.600  17.778  1.00  0.00    -0.394 OA
ATOM     14  H2  UNL     1      15.702  -0.313  17.560  1.00  0.00     0.210 HD
ENDBRANCH   7  13
TORSDOF 3
ENDMDL
MODEL 5
REMARK VINA RESULT: -5.476018895      2.772      4.282
REMARK  3 active torsions:
REMARK  status: ('A' for Active; 'I' for Inactive)
REMARK    1  A    between atoms: O1_2  and  C2_3 
REMARK    2  A    between atoms: C2_3  and  C3_4 
REMARK    3  A    between atoms: C9_10  and  O2_11 
ROOT
HETATM    1  C3  UNL     1      17.082   2.726  11.818  1.00  0.00     0.247 C 
HETATM    2  C4  UNL     1      16.743   4.050  11.158  1.00  0.00     0.038 C 
HETATM    3  C5  UNL     1      17.274   5.234  11.891  1.00  0.00     0.004 C 
HETATM    4  C6  UNL     1      17.158   5.139  13.385  1.00  0.00     0.036 C 
HETATM    5  C7  UNL     1      17.721   3.792  13.785  1.00  0.00     0.226 C 
HETATM    6  C8  UNL     1      17.714   3.550  15.250  1.00  0.00     0.069 C 
HETATM    7  C9  UNL     1      17.003   2.217  15.392  1.00  0.00     0.148 C 
HETATM    8  C10 UNL     1      16.922   1.648  13.968  1.00  0.00     0.305 C 
HETATM    9  N1  UNL     1      16.769   2.831  13.204  1.00  0.00     0.102 N 
ENDROOT
BRANCH   1  10
HETATM   10  C2  UNL     1      16.278   1.661  11.110  1.00  0.00     0.202 C 
BRANCH  10  11
HETATM   11  O1  UNL     1      16.994   1.031  10.101  1.00  0.00    -0.394 OA
HETATM   12  C1  UNL     1      17.627  -0.071  10.677  1.00  0.00     0.201 C 
ENDBRANCH  10  11
ENDBRANCH   1  10
BRANCH   7  13
HETATM   13  O2  UNL     1      17.690   1.387  16.241  1.00  0.00    -0.394 OA
ATOM     14  H2  UNL     1      17.651   1.710  17.134  1.00  0.00     0.210 HD
ENDBRANCH   7  13
TORSDOF 3
ENDMDL
