MODEL 1
REMARK VINA RESULT: -5.153241935      0.000      0.000
REMARK  3 active torsions:
REMARK  status: ('A' for Active; 'I' for Inactive)
REMARK    1  A    between atoms: C2_2  and  S1_3 
REMARK    2  A    between atoms: S1_3  and  C3_4 
REMARK    3  A    between atoms: C3_4  and  N2_8 
ROOT
HETATM    1  C3  UNL     1      16.706   2.411  15.178  1.00  0.00     0.151 C 
HETATM    2  N1  UNL     1      17.853   2.699  15.708  1.00  0.00    -0.379 N 
ATOM      3  H11 UNL     1      17.934   2.688  16.725  1.00  0.00     0.158 HD
ATOM      4  H12 UNL     1      18.639   2.929  15.100  1.00  0.00     0.158 HD
ENDROOT
BRANCH   1   5
HETATM    5  S1  UNL     1      16.564   2.431  13.397  1.00  0.00    -0.094 SA
BRANCH   5   6
HETATM    6  C2  UNL     1      16.945   0.811  12.718  1.00  0.00     0.078 C 
HETATM    7  C1  UNL     1      16.539   0.657  11.291  1.00  0.00     0.016 C 
ENDBRANCH   5   6
ENDBRANCH   1   5
BRANCH   1   8
HETATM    8  N2  UNL     1      15.617   2.094  16.021  1.00  0.00    -0.284 N 
HETATM    9  C4  UNL     1      14.747   2.824  16.872  1.00  0.00     0.121 C 
HETATM   10  C5  UNL     1      15.102   2.275  18.231  1.00  0.00     0.044 C 
HETATM   11  C7  UNL     1      13.731   1.811  16.408  1.00  0.00     0.140 C 
HETATM   12  C6  UNL     1      15.153   0.789  17.834  1.00  0.00     0.116 C 
HETATM   13  N3  UNL     1      14.924   0.938  16.385  1.00  0.00    -0.225 NA
ENDBRANCH   1   8
TORSDOF 3
ENDMDL
MODEL 2
REMARK VINA RESULT: -5.051150932      1.943      5.047
REMARK  3 active torsions:
REMARK  status: ('A' for Active; 'I' for Inactive)
REMARK    1  A    between atoms: C2_2  and  S1_3 
REMARK    2  A    between atoms: S1_3  and  C3_4 
REMARK    3  A    between atoms: C3_4  and  N2_8 
ROOT
HETATM    1  C3  UNL     1      16.579   1.650  14.553  1.00  0.00     0.151 C 
HETATM    2  N1  UNL     1      16.784   0.509  15.132  1.00  0.00    -0.379 N 
ATOM      3  H11 UNL     1      17.225  -0.236  14.593  1.00  0.00     0.158 HD
ATOM      4  H12 UNL     1      16.502   0.386  16.104  1.00  0.00     0.158 HD
ENDROOT
BRANCH   1   5
HETATM    5  S1  UNL     1      15.807   2.956  15.498  1.00  0.00    -0.094 SA
BRANCH   5   6
HETATM    6  C2  UNL     1      15.201   2.322  17.067  1.00  0.00     0.078 C 
HETATM    7  C1  UNL     1      13.832   1.735  16.980  1.00  0.00     0.016 C 
ENDBRANCH   5   6
ENDBRANCH   1   5
BRANCH   1   8
HETATM    8  N2  UNL     1      16.970   1.820  13.206  1.00  0.00    -0.284 N 
HETATM    9  C4  UNL     1      16.308   2.127  11.989  1.00  0.00     0.121 C 
HETATM   10  C5  UNL     1      16.506   0.861  11.194  1.00  0.00     0.044 C 
HETATM   11  C7  UNL     1      17.589   2.863  11.683  1.00  0.00     0.140 C 
HETATM   12  C6  UNL     1      17.991   0.645  11.538  1.00  0.00     0.116 C 
HETATM   13  N3  UNL     1      18.165   1.762  12.485  1.00  0.00    -0.225 NA
ENDBRANCH   1   8
TORSDOF 3
ENDMDL
MODEL 3
REMARK VINA RESULT: -5.016680984      1.652      2.364
REMARK  3 active torsions:
REMARK  status: ('A' for Active; 'I' for Inactive)
REMARK    1  A    between atoms: C2_2  and  S1_3 
REMARK    2  A    between atoms: S1_3  and  C3_4 
REMARK    3  A    between atoms: C3_4  and  N2_8 
ROOT
HETATM    1  C3  UNL     1      16.504   2.540  15.225  1.00  0.00     0.151 C 
HETATM    2  N1  UNL     1      17.732   2.284  15.548  1.00  0.00    -0.379 N 
ATOM      3  H11 UNL     1      17.912   1.808  16.432  1.00  0.00     0.158 HD
ATOM      4  H12 UNL     1      18.482   2.564  14.915  1.00  0.00     0.158 HD
ENDROOT
BRANCH   1   5
HETATM    5  S1  UNL     1      16.188   3.374  13.677  1.00  0.00    -0.094 SA
BRANCH   5   6
HETATM    6  C2  UNL     1      16.220   5.157  13.905  1.00  0.00     0.078 C 
HETATM    7  C1  UNL     1      15.101   5.666  14.750  1.00  0.00     0.016 C 
ENDBRANCH   5   6
ENDBRANCH   1   5
BRANCH   1   8
HETATM    8  N2  UNL     1      15.465   2.153  16.102  1.00  0.00    -0.284 N 
HETATM    9  C4  UNL     1      14.597   2.823  17.004  1.00  0.00     0.121 C 
HETATM   10  C5  UNL     1      15.032   2.261  18.335  1.00  0.00     0.044 C 
HETATM   11  C7  UNL     1      13.611   1.774  16.556  1.00  0.00     0.140 C 
HETATM   12  C6  UNL     1      15.135   0.788  17.900  1.00  0.00     0.116 C 
HETATM   13  N3  UNL     1      14.840   0.958  16.465  1.00  0.00    -0.225 NA
ENDBRANCH   1   8
TORSDOF 3
ENDMDL
MODEL 4
REMARK VINA RESULT: -4.918599000      2.031      5.051
REMARK  3 active torsions:
REMARK  status: ('A' for Active; 'I' for Inactive)
REMARK    1  A    between atoms: C2_2  and  S1_3 
REMARK    2  A    between atoms: S1_3  and  C3_4 
REMARK    3  A    between atoms: C3_4  and  N2_8 
ROOT
HETATM    1  C3  UNL     1      16.633   1.436  14.607  1.00  0.00     0.151 C 
HETATM    2  N1  UNL     1      16.886   0.281  15.136  1.00  0.00    -0.379 N 
ATOM      3  H11 UNL     1      17.208  -0.471  14.527  1.00  0.00     0.158 HD
ATOM      4  H12 UNL     1      16.757   0.154  16.140  1.00  0.00     0.158 HD
ENDROOT
BRANCH   1   5
HETATM    5  S1  UNL     1      16.068   2.755  15.673  1.00  0.00    -0.094 SA
BRANCH   5   6
HETATM    6  C2  UNL     1      15.360   2.082  17.183  1.00  0.00     0.078 C 
HETATM    7  C1  UNL     1      13.920   1.715  17.049  1.00  0.00     0.016 C 
ENDBRANCH   5   6
ENDBRANCH   1   5
BRANCH   1   8
HETATM    8  N2  UNL     1      16.811   1.612  13.216  1.00  0.00    -0.284 N 
HETATM    9  C4  UNL     1      16.896   0.755  12.088  1.00  0.00     0.121 C 
HETATM   10  C5  UNL     1      18.314   0.979  11.628  1.00  0.00     0.044 C 
HETATM   11  C7  UNL     1      16.184   1.889  11.394  1.00  0.00     0.140 C 
HETATM   12  C6  UNL     1      18.324   2.512  11.764  1.00  0.00     0.116 C 
HETATM   13  N3  UNL     1      16.981   2.692  12.347  1.00  0.00    -0.225 NA
ENDBRANCH   1   8
TORSDOF 3
ENDMDL
MODEL 5
REMARK VINA RESULT: -4.884480119      2.461      5.068
REMARK  3 active torsions:
REMARK  status: ('A' for Active; 'I' for Inactive)
REMARK    1  A    between atoms: C2_2  and  S1_3 
REMARK    2  A    between atoms: S1_3  and  C3_4 
REMARK    3  A    between atoms: C3_4  and  N2_8 
ROOT
HETATM    1  C3  UNL     1      16.837   1.667  14.456  1.00  0.00     0.151 C 
HETATM    2  N1  UNL     1      16.750   0.513  15.037  1.00  0.00    -0.379 N 
ATOM      3  H11 UNL     1      16.891  -0.325  14.473  1.00  0.00     0.158 HD
ATOM      4  H12 UNL     1      16.544   0.471  16.035  1.00  0.00     0.158 HD
ENDROOT
BRANCH   1   5
HETATM    5  S1  UNL     1      16.590   3.136  15.444  1.00  0.00    -0.094 SA
BRANCH   5   6
HETATM    6  C2  UNL     1      15.068   3.965  14.969  1.00  0.00     0.078 C 
HETATM    7  C1  UNL     1      15.123   5.446  15.135  1.00  0.00     0.016 C 
ENDBRANCH   5   6
ENDBRANCH   1   5
BRANCH   1   8
HETATM    8  N2  UNL     1      17.122   1.725  13.073  1.00  0.00    -0.284 N 
HETATM    9  C4  UNL     1      16.367   1.934  11.890  1.00  0.00     0.121 C 
HETATM   10  C5  UNL     1      16.505   0.606  11.189  1.00  0.00     0.044 C 
HETATM   11  C7  UNL     1      17.618   2.637  11.427  1.00  0.00     0.140 C 
HETATM   12  C6  UNL     1      18.012   0.412  11.433  1.00  0.00     0.116 C 
HETATM   13  N3  UNL     1      18.257   1.602  12.269  1.00  0.00    -0.225 NA
ENDBRANCH   1   8
TORSDOF 3
ENDMDL
