MODEL 1
REMARK VINA RESULT: -6.274318542      0.000      0.000
REMARK  4 active torsions:
REMARK  status: ('A' for Active; 'I' for Inactive)
REMARK    1  A    between atoms: C2_2  and  O1_4 
REMARK    2  A    between atoms: O1_4  and  C4_5 
REMARK    3  A    between atoms: C4_5  and  N1_7 
REMARK       I    between atoms: N1_7  and  C5_8 
REMARK    4  A    between atoms: C5_8  and  C6_10 
ROOT
HETATM    1  N1  UNL     1      -5.041   2.387  15.065  1.00  0.00    -0.333 NA
HETATM    2  C5  UNL     1      -5.232   2.052  16.357  1.00  0.00     0.302 C 
HETATM    3  O2  UNL     1      -4.473   1.287  17.039  1.00  0.00    -0.256 OA
ENDROOT
BRANCH   1   4
HETATM    4  C4  UNL     1      -4.847   2.725  13.762  1.00  0.00     0.292 C 
HETATM    5  S1  UNL     1      -4.731   4.396  13.503  1.00  0.00    -0.017 SA
BRANCH   4   6
HETATM    6  O1  UNL     1      -4.735   1.924  12.677  1.00  0.00    -0.311 OA
BRANCH   6   7
HETATM    7  C2  UNL     1      -3.759   0.974  12.390  1.00  0.00     0.124 C 
HETATM    8  C1  UNL     1      -4.258  -0.287  11.740  1.00  0.00     0.040 C 
HETATM    9  C3  UNL     1      -2.736   1.623  11.473  1.00  0.00     0.040 C 
ENDBRANCH   6   7
ENDBRANCH   4   6
ENDBRANCH   1   4
BRANCH   2  10
HETATM   10  C6  UNL     1      -6.414   2.561  17.169  1.00  0.00     0.044 C 
HETATM   11  C7  UNL     1      -7.550   1.584  16.877  1.00  0.00     0.026 C 
HETATM   12  C8  UNL     1      -6.079   2.523  18.624  1.00  0.00     0.026 C 
HETATM   13  C9  UNL     1      -6.785   3.964  16.806  1.00  0.00     0.026 C 
ENDBRANCH   2  10
TORSDOF 4
ENDMDL
MODEL 2
REMARK VINA RESULT: -6.235390316      0.113      1.188
REMARK  4 active torsions:
REMARK  status: ('A' for Active; 'I' for Inactive)
REMARK    1  A    between atoms: C2_2  and  O1_4 
REMARK    2  A    between atoms: O1_4  and  C4_5 
REMARK    3  A    between atoms: C4_5  and  N1_7 
REMARK       I    between atoms: N1_7  and  C5_8 
REMARK    4  A    between atoms: C5_8  and  C6_10 
ROOT
HETATM    1  N1  UNL     1      -4.995   2.364  14.994  1.00  0.00    -0.333 NA
HETATM    2  C5  UNL     1      -5.174   2.038  16.290  1.00  0.00     0.302 C 
HETATM    3  O2  UNL     1      -4.390   1.305  16.980  1.00  0.00    -0.256 OA
ENDROOT
BRANCH   1   4
HETATM    4  C4  UNL     1      -4.813   2.693  13.687  1.00  0.00     0.292 C 
HETATM    5  S1  UNL     1      -4.699   4.361  13.416  1.00  0.00    -0.017 SA
BRANCH   4   6
HETATM    6  O1  UNL     1      -4.713   1.884  12.607  1.00  0.00    -0.311 OA
BRANCH   6   7
HETATM    7  C2  UNL     1      -3.766   0.900  12.338  1.00  0.00     0.124 C 
HETATM    8  C1  UNL     1      -4.292  -0.331  11.652  1.00  0.00     0.040 C 
HETATM    9  C3  UNL     1      -2.687   1.520  11.467  1.00  0.00     0.040 C 
ENDBRANCH   6   7
ENDBRANCH   4   6
ENDBRANCH   1   4
BRANCH   2  10
HETATM   10  C6  UNL     1      -6.371   2.519  17.098  1.00  0.00     0.044 C 
HETATM   11  C7  UNL     1      -6.657   3.929  16.588  1.00  0.00     0.026 C 
HETATM   12  C8  UNL     1      -7.547   1.637  16.828  1.00  0.00     0.026 C 
HETATM   13  C9  UNL     1      -6.100   2.508  18.569  1.00  0.00     0.026 C 
ENDBRANCH   2  10
TORSDOF 4
ENDMDL
MODEL 3
REMARK VINA RESULT: -6.227514359      0.645      1.057
REMARK  4 active torsions:
REMARK  status: ('A' for Active; 'I' for Inactive)
REMARK    1  A    between atoms: C2_2  and  O1_4 
REMARK    2  A    between atoms: O1_4  and  C4_5 
REMARK    3  A    between atoms: C4_5  and  N1_7 
REMARK       I    between atoms: N1_7  and  C5_8 
REMARK    4  A    between atoms: C5_8  and  C6_10 
ROOT
HETATM    1  N1  UNL     1      -4.880   2.091  15.177  1.00  0.00    -0.333 NA
HETATM    2  C5  UNL     1      -5.265   1.919  16.458  1.00  0.00     0.302 C 
HETATM    3  O2  UNL     1      -4.689   1.158  17.304  1.00  0.00    -0.256 OA
ENDROOT
BRANCH   1   4
HETATM    4  C4  UNL     1      -4.491   2.265  13.886  1.00  0.00     0.292 C 
HETATM    5  S1  UNL     1      -4.844   3.804  13.271  1.00  0.00    -0.017 SA
BRANCH   4   6
HETATM    6  O1  UNL     1      -3.873   1.396  13.053  1.00  0.00    -0.311 OA
BRANCH   6   7
HETATM    7  C2  UNL     1      -3.640   1.512  11.687  1.00  0.00     0.124 C 
HETATM    8  C1  UNL     1      -2.253   1.145  11.235  1.00  0.00     0.040 C 
HETATM    9  C3  UNL     1      -4.638   0.618  10.969  1.00  0.00     0.040 C 
ENDBRANCH   6   7
ENDBRANCH   4   6
ENDBRANCH   1   4
BRANCH   2  10
HETATM   10  C6  UNL     1      -6.471   2.631  17.054  1.00  0.00     0.044 C 
HETATM   11  C7  UNL     1      -7.660   1.719  16.759  1.00  0.00     0.026 C 
HETATM   12  C8  UNL     1      -6.296   2.768  18.531  1.00  0.00     0.026 C 
HETATM   13  C9  UNL     1      -6.665   3.996  16.472  1.00  0.00     0.026 C 
ENDBRANCH   2  10
TORSDOF 4
ENDMDL
MODEL 4
REMARK VINA RESULT: -6.202783706      0.140      1.184
REMARK  4 active torsions:
REMARK  status: ('A' for Active; 'I' for Inactive)
REMARK    1  A    between atoms: C2_2  and  O1_4 
REMARK    2  A    between atoms: O1_4  and  C4_5 
REMARK    3  A    between atoms: C4_5  and  N1_7 
REMARK       I    between atoms: N1_7  and  C5_8 
REMARK    4  A    between atoms: C5_8  and  C6_10 
ROOT
HETATM    1  N1  UNL     1      -5.007   2.308  14.985  1.00  0.00    -0.333 NA
HETATM    2  C5  UNL     1      -5.199   1.998  16.284  1.00  0.00     0.302 C 
HETATM    3  O2  UNL     1      -4.416   1.283  16.993  1.00  0.00    -0.256 OA
ENDROOT
BRANCH   1   4
HETATM    4  C4  UNL     1      -4.813   2.621  13.676  1.00  0.00     0.292 C 
HETATM    5  S1  UNL     1      -4.697   4.287  13.386  1.00  0.00    -0.017 SA
BRANCH   4   6
HETATM    6  O1  UNL     1      -4.700   1.799  12.607  1.00  0.00    -0.311 OA
BRANCH   6   7
HETATM    7  C2  UNL     1      -3.737   0.828  12.351  1.00  0.00     0.124 C 
HETATM    8  C1  UNL     1      -4.246  -0.430  11.702  1.00  0.00     0.040 C 
HETATM    9  C3  UNL     1      -2.682   1.448  11.449  1.00  0.00     0.040 C 
ENDBRANCH   6   7
ENDBRANCH   4   6
ENDBRANCH   1   4
BRANCH   2  10
HETATM   10  C6  UNL     1      -6.412   2.476  17.069  1.00  0.00     0.044 C 
HETATM   11  C7  UNL     1      -5.987   2.417  18.535  1.00  0.00     0.026 C 
HETATM   12  C8  UNL     1      -6.730   3.886  16.694  1.00  0.00     0.026 C 
HETATM   13  C9  UNL     1      -7.620   1.634  16.810  1.00  0.00     0.026 C 
ENDBRANCH   2  10
TORSDOF 4
ENDMDL
MODEL 5
REMARK VINA RESULT: -6.159001859      1.059      1.326
REMARK  4 active torsions:
REMARK  status: ('A' for Active; 'I' for Inactive)
REMARK    1  A    between atoms: C2_2  and  O1_4 
REMARK    2  A    between atoms: O1_4  and  C4_5 
REMARK    3  A    between atoms: C4_5  and  N1_7 
REMARK       I    between atoms: N1_7  and  C5_8 
REMARK    4  A    between atoms: C5_8  and  C6_10 
ROOT
HETATM    1  N1  UNL     1      -4.639   2.823  15.587  1.00  0.00    -0.333 NA
HETATM    2  C5  UNL     1      -5.167   2.200  16.660  1.00  0.00     0.302 C 
HETATM    3  O2  UNL     1      -4.686   1.158  17.216  1.00  0.00    -0.256 OA
ENDROOT
BRANCH   1   4
HETATM    4  C4  UNL     1      -4.106   3.452  14.505  1.00  0.00     0.292 C 
HETATM    5  S1  UNL     1      -3.795   5.098  14.760  1.00  0.00    -0.017 SA
BRANCH   4   6
HETATM    6  O1  UNL     1      -3.798   2.948  13.288  1.00  0.00    -0.311 OA
BRANCH   6   7
HETATM    7  C2  UNL     1      -4.588   2.185  12.433  1.00  0.00     0.124 C 
HETATM    8  C1  UNL     1      -4.520   2.566  10.980  1.00  0.00     0.040 C 
HETATM    9  C3  UNL     1      -4.159   0.734  12.576  1.00  0.00     0.040 C 
ENDBRANCH   6   7
ENDBRANCH   4   6
ENDBRANCH   1   4
BRANCH   2  10
HETATM   10  C6  UNL     1      -6.438   2.683  17.344  1.00  0.00     0.044 C 
HETATM   11  C7  UNL     1      -7.507   1.660  16.969  1.00  0.00     0.026 C 
HETATM   12  C8  UNL     1      -6.241   2.685  18.825  1.00  0.00     0.026 C 
HETATM   13  C9  UNL     1      -6.820   4.064  16.916  1.00  0.00     0.026 C 
ENDBRANCH   2  10
TORSDOF 4
ENDMDL
