MODEL 1
REMARK VINA RESULT: -6.151017725      0.000      0.000
REMARK  2 active torsions:
REMARK  status: ('A' for Active; 'I' for Inactive)
REMARK    1  A    between atoms: C8_10  and  N2_11 
REMARK    2  A    between atoms: N2_11  and  C9_13 
ROOT
HETATM    1  C1  UNL     1      -4.984   1.780  11.567  1.00  0.00     0.097 C 
HETATM    2  C2  UNL     1      -4.805   2.672  12.771  1.00  0.00     0.113 C 
HETATM    3  N1  UNL     1      -3.747   2.733  13.489  1.00  0.00    -0.365 N 
ATOM      4  H1  UNL     1      -2.902   2.186  13.327  1.00  0.00     0.161 HD
HETATM    5  C3  UNL     1      -3.922   3.690  14.563  1.00  0.00     0.139 C 
HETATM    6  C4  UNL     1      -3.286   4.968  14.181  1.00  0.00     0.030 C 
HETATM    7  C5  UNL     1      -4.174   6.174  14.178  1.00  0.00     0.002 C 
HETATM    8  C6  UNL     1      -5.048   6.068  15.416  1.00  0.00     0.005 C 
HETATM    9  C7  UNL     1      -6.033   4.958  15.106  1.00  0.00     0.063 C 
HETATM   10  C8  UNL     1      -5.412   3.699  14.687  1.00  0.00     0.158 C 
HETATM   11  O1  UNL     1      -5.734   3.544  13.279  1.00  0.00    -0.307 OA
ENDROOT
BRANCH  10  12
HETATM   12  N2  UNL     1      -5.948   2.561  15.305  1.00  0.00    -0.386 N 
ATOM     13  H2  UNL     1      -5.892   1.666  14.820  1.00  0.00     0.156 HD
BRANCH  12  14
HETATM   14  C9  UNL     1      -6.559   2.610  16.565  1.00  0.00     0.071 C 
HETATM   15  C10 UNL     1      -7.630   1.591  16.860  1.00  0.00     0.031 C 
HETATM   16  C11 UNL     1      -5.441   2.306  17.590  1.00  0.00     0.031 C 
ENDBRANCH  12  14
ENDBRANCH  10  12
TORSDOF 2
ENDMDL
MODEL 2
REMARK VINA RESULT: -6.086070729      1.366      3.743
REMARK  2 active torsions:
REMARK  status: ('A' for Active; 'I' for Inactive)
REMARK    1  A    between atoms: C8_10  and  N2_11 
REMARK    2  A    between atoms: N2_11  and  C9_13 
ROOT
HETATM    1  C1  UNL     1      -6.078   1.369  17.652  1.00  0.00     0.097 C 
HETATM    2  C2  UNL     1      -5.708   2.350  16.566  1.00  0.00     0.113 C 
HETATM    3  N1  UNL     1      -6.489   2.737  15.629  1.00  0.00    -0.365 N 
ATOM      4  H1  UNL     1      -7.453   2.427  15.508  1.00  0.00     0.161 HD
HETATM    5  C3  UNL     1      -5.807   3.678  14.762  1.00  0.00     0.139 C 
HETATM    6  C4  UNL     1      -6.194   5.053  15.142  1.00  0.00     0.030 C 
HETATM    7  C5  UNL     1      -5.074   5.975  15.516  1.00  0.00     0.002 C 
HETATM    8  C6  UNL     1      -3.955   5.718  14.523  1.00  0.00     0.005 C 
HETATM    9  C7  UNL     1      -3.387   4.368  14.915  1.00  0.00     0.063 C 
HETATM   10  C8  UNL     1      -4.382   3.296  15.004  1.00  0.00     0.158 C 
HETATM   11  O1  UNL     1      -4.496   2.973  16.416  1.00  0.00    -0.307 OA
ENDROOT
BRANCH  10  12
HETATM   12  N2  UNL     1      -3.992   2.098  14.391  1.00  0.00    -0.386 N 
ATOM     13  H2  UNL     1      -3.446   1.426  14.931  1.00  0.00     0.156 HD
BRANCH  12  14
HETATM   14  C9  UNL     1      -4.322   1.791  13.065  1.00  0.00     0.071 C 
HETATM   15  C10 UNL     1      -3.417   2.318  11.981  1.00  0.00     0.031 C 
HETATM   16  C11 UNL     1      -4.216   0.252  12.946  1.00  0.00     0.031 C 
ENDBRANCH  12  14
ENDBRANCH  10  12
TORSDOF 2
ENDMDL
MODEL 3
REMARK VINA RESULT: -6.063022721      1.641      3.362
REMARK  2 active torsions:
REMARK  status: ('A' for Active; 'I' for Inactive)
REMARK    1  A    between atoms: C8_10  and  N2_11 
REMARK    2  A    between atoms: N2_11  and  C9_13 
ROOT
HETATM    1  C1  UNL     1      -3.622   6.171  15.007  1.00  0.00     0.097 C 
HETATM    2  C2  UNL     1      -4.186   4.793  14.756  1.00  0.00     0.113 C 
HETATM    3  N1  UNL     1      -5.194   4.536  14.011  1.00  0.00    -0.365 N 
ATOM      4  H1  UNL     1      -5.731   5.235  13.498  1.00  0.00     0.161 HD
HETATM    5  C3  UNL     1      -5.461   3.112  13.999  1.00  0.00     0.139 C 
HETATM    6  C4  UNL     1      -4.879   2.520  12.776  1.00  0.00     0.030 C 
HETATM    7  C5  UNL     1      -3.890   1.415  12.982  1.00  0.00     0.002 C 
HETATM    8  C6  UNL     1      -4.446   0.541  14.093  1.00  0.00     0.005 C 
HETATM    9  C7  UNL     1      -4.269   1.356  15.359  1.00  0.00     0.063 C 
HETATM   10  C8  UNL     1      -4.842   2.703  15.296  1.00  0.00     0.158 C 
HETATM   11  O1  UNL     1      -3.714   3.617  15.280  1.00  0.00    -0.307 OA
ENDROOT
BRANCH  10  12
HETATM   12  N2  UNL     1      -5.581   3.065  16.431  1.00  0.00    -0.386 N 
ATOM     13  H2  UNL     1      -5.816   4.047  16.571  1.00  0.00     0.156 HD
BRANCH  12  14
HETATM   14  C9  UNL     1      -6.008   2.126  17.379  1.00  0.00     0.071 C 
HETATM   15  C10 UNL     1      -6.171   2.597  18.802  1.00  0.00     0.031 C 
HETATM   16  C11 UNL     1      -7.431   1.700  16.945  1.00  0.00     0.031 C 
ENDBRANCH  12  14
ENDBRANCH  10  12
TORSDOF 2
ENDMDL
MODEL 4
REMARK VINA RESULT: -5.819435514      1.288      3.755
REMARK  2 active torsions:
REMARK  status: ('A' for Active; 'I' for Inactive)
REMARK    1  A    between atoms: C8_10  and  N2_11 
REMARK    2  A    between atoms: N2_11  and  C9_13 
ROOT
HETATM    1  C1  UNL     1      -5.787   1.889  17.795  1.00  0.00     0.097 C 
HETATM    2  C2  UNL     1      -5.553   2.743  16.572  1.00  0.00     0.113 C 
HETATM    3  N1  UNL     1      -6.469   3.348  15.913  1.00  0.00    -0.365 N 
ATOM      4  H1  UNL     1      -7.463   3.324  16.141  1.00  0.00     0.161 HD
HETATM    5  C3  UNL     1      -5.892   4.072  14.798  1.00  0.00     0.139 C 
HETATM    6  C4  UNL     1      -5.740   5.494  15.170  1.00  0.00     0.030 C 
HETATM    7  C5  UNL     1      -4.356   6.057  15.081  1.00  0.00     0.002 C 
HETATM    8  C6  UNL     1      -3.750   5.509  13.800  1.00  0.00     0.005 C 
HETATM    9  C7  UNL     1      -3.471   4.048  14.093  1.00  0.00     0.063 C 
HETATM   10  C8  UNL     1      -4.629   3.300  14.590  1.00  0.00     0.158 C 
HETATM   11  O1  UNL     1      -4.343   3.000  15.983  1.00  0.00    -0.307 OA
ENDROOT
BRANCH  10  12
HETATM   12  N2  UNL     1      -4.807   2.049  13.983  1.00  0.00    -0.386 N 
ATOM     13  H2  UNL     1      -5.422   1.369  14.431  1.00  0.00     0.156 HD
BRANCH  12  14
HETATM   14  C9  UNL     1      -4.172   1.700  12.785  1.00  0.00     0.071 C 
HETATM   15  C10 UNL     1      -3.971   0.232  12.505  1.00  0.00     0.031 C 
HETATM   16  C11 UNL     1      -5.105   2.187  11.651  1.00  0.00     0.031 C 
ENDBRANCH  12  14
ENDBRANCH  10  12
TORSDOF 2
ENDMDL
MODEL 5
REMARK VINA RESULT: -5.498910057      2.000      4.329
REMARK  2 active torsions:
REMARK  status: ('A' for Active; 'I' for Inactive)
REMARK    1  A    between atoms: C8_10  and  N2_11 
REMARK    2  A    between atoms: N2_11  and  C9_13 
ROOT
HETATM    1  C1  UNL     1      -2.475   4.840  11.366  1.00  0.00     0.097 C 
HETATM    2  C2  UNL     1      -3.282   3.574  11.522  1.00  0.00     0.113 C 
HETATM    3  N1  UNL     1      -4.311   3.269  10.824  1.00  0.00    -0.365 N 
ATOM      4  H1  UNL     1      -4.702   3.846  10.081  1.00  0.00     0.161 HD
HETATM    5  C3  UNL     1      -4.839   1.985  11.242  1.00  0.00     0.139 C 
HETATM    6  C4  UNL     1      -4.362   0.940  10.313  1.00  0.00     0.030 C 
HETATM    7  C5  UNL     1      -3.599  -0.193  10.927  1.00  0.00     0.002 C 
HETATM    8  C6  UNL     1      -4.323  -0.552  12.213  1.00  0.00     0.005 C 
HETATM    9  C7  UNL     1      -4.013   0.584  13.168  1.00  0.00     0.063 C 
HETATM   10  C8  UNL     1      -4.324   1.916  12.644  1.00  0.00     0.158 C 
HETATM   11  O1  UNL     1      -3.045   2.568  12.422  1.00  0.00    -0.307 OA
ENDROOT
BRANCH  10  12
HETATM   12  N2  UNL     1      -4.997   2.746  13.550  1.00  0.00    -0.386 N 
ATOM     13  H2  UNL     1      -5.746   3.347  13.204  1.00  0.00     0.156 HD
BRANCH  12  14
HETATM   14  C9  UNL     1      -4.679   2.781  14.914  1.00  0.00     0.071 C 
HETATM   15  C10 UNL     1      -3.857   3.945  15.407  1.00  0.00     0.031 C 
HETATM   16  C11 UNL     1      -6.027   2.913  15.662  1.00  0.00     0.031 C 
ENDBRANCH  12  14
ENDBRANCH  10  12
TORSDOF 2
ENDMDL
