MODEL 1
REMARK VINA RESULT: -6.570822598      0.000      0.000
REMARK  2 active torsions:
REMARK  status: ('A' for Active; 'I' for Inactive)
REMARK    1  A    between atoms: C2_2  and  C3_4 
REMARK    2  A    between atoms: C3_4  and  O2_5 
ROOT
HETATM    1  C3  UNL     1      -4.327   2.712  13.263  1.00  0.00     0.121 C 
HETATM    2  C4  UNL     1      -4.188   1.829  14.475  1.00  0.00     0.052 C 
HETATM    3  C5  UNL     1      -4.365   2.647  15.737  1.00  0.00     0.006 C 
HETATM    4  C6  UNL     1      -3.527   3.901  15.585  1.00  0.00     0.006 C 
HETATM    5  C7  UNL     1      -4.154   4.784  14.504  1.00  0.00     0.008 C 
HETATM    6  C8  UNL     1      -5.115   3.923  13.676  1.00  0.00     0.029 C 
HETATM    7  C9  UNL     1      -6.284   3.557  14.542  1.00  0.00     0.027 C 
HETATM    8  C10 UNL     1      -5.801   3.096  15.892  1.00  0.00     0.097 C 
HETATM    9  C11 UNL     1      -6.643   1.996  16.329  1.00  0.00     0.064 C 
HETATM   10  N1  UNL     1      -7.320   1.124  16.696  1.00  0.00    -0.197 NA
ENDROOT
BRANCH   1  11
HETATM   11  C2  UNL     1      -4.902   1.975  12.114  1.00  0.00     0.157 C 
HETATM   12  C1  UNL     1      -4.503   0.588  11.774  1.00  0.00     0.094 C 
HETATM   13  O1  UNL     1      -5.733   2.531  11.425  1.00  0.00    -0.295 OA
ENDBRANCH   1  11
BRANCH   1  14
HETATM   14  O2  UNL     1      -3.057   3.184  12.873  1.00  0.00    -0.382 OA
ATOM     15  H2  UNL     1      -2.596   3.452  13.659  1.00  0.00     0.211 HD
ENDBRANCH   1  14
TORSDOF 2
ENDMDL
MODEL 2
REMARK VINA RESULT: -6.422204437      1.709      2.030
REMARK  2 active torsions:
REMARK  status: ('A' for Active; 'I' for Inactive)
REMARK    1  A    between atoms: C2_2  and  C3_4 
REMARK    2  A    between atoms: C3_4  and  O2_5 
ROOT
HETATM    1  C3  UNL     1      -4.498   4.264  12.706  1.00  0.00     0.121 C 
HETATM    2  C4  UNL     1      -3.326   4.007  13.614  1.00  0.00     0.052 C 
HETATM    3  C5  UNL     1      -3.634   4.498  15.013  1.00  0.00     0.006 C 
HETATM    4  C6  UNL     1      -4.233   5.885  14.885  1.00  0.00     0.006 C 
HETATM    5  C7  UNL     1      -5.616   5.767  14.241  1.00  0.00     0.008 C 
HETATM    6  C8  UNL     1      -5.719   4.391  13.571  1.00  0.00     0.029 C 
HETATM    7  C9  UNL     1      -5.750   3.345  14.647  1.00  0.00     0.027 C 
HETATM    8  C10 UNL     1      -4.683   3.627  15.671  1.00  0.00     0.097 C 
HETATM    9  C11 UNL     1      -4.112   2.363  16.098  1.00  0.00     0.064 C 
HETATM   10  N1  UNL     1      -3.656   1.355  16.460  1.00  0.00    -0.197 NA
ENDROOT
BRANCH   1  11
HETATM   11  C2  UNL     1      -4.606   3.231  11.649  1.00  0.00     0.157 C 
HETATM   12  C1  UNL     1      -4.219   1.817  11.871  1.00  0.00     0.094 C 
HETATM   13  O1  UNL     1      -5.028   3.558  10.559  1.00  0.00    -0.295 OA
ENDBRANCH   1  11
BRANCH   1  14
HETATM   14  O2  UNL     1      -4.338   5.511  12.067  1.00  0.00    -0.382 OA
ATOM     15  H2  UNL     1      -3.536   5.901  12.395  1.00  0.00     0.211 HD
ENDBRANCH   1  14
TORSDOF 2
ENDMDL
MODEL 3
REMARK VINA RESULT: -6.229732782      1.262      1.432
REMARK  2 active torsions:
REMARK  status: ('A' for Active; 'I' for Inactive)
REMARK    1  A    between atoms: C2_2  and  C3_4 
REMARK    2  A    between atoms: C3_4  and  O2_5 
ROOT
HETATM    1  C3  UNL     1      -4.783   3.613  13.195  1.00  0.00     0.121 C 
HETATM    2  C4  UNL     1      -3.799   3.343  14.303  1.00  0.00     0.052 C 
HETATM    3  C5  UNL     1      -4.167   4.147  15.532  1.00  0.00     0.006 C 
HETATM    4  C6  UNL     1      -4.461   5.563  15.076  1.00  0.00     0.006 C 
HETATM    5  C7  UNL     1      -5.754   5.559  14.258  1.00  0.00     0.008 C 
HETATM    6  C8  UNL     1      -6.048   4.116  13.829  1.00  0.00     0.029 C 
HETATM    7  C9  UNL     1      -6.411   3.326  15.052  1.00  0.00     0.027 C 
HETATM    8  C10 UNL     1      -5.437   3.618  16.162  1.00  0.00     0.097 C 
HETATM    9  C11 UNL     1      -5.182   2.384  16.884  1.00  0.00     0.064 C 
HETATM   10  N1  UNL     1      -4.980   1.405  17.479  1.00  0.00    -0.197 NA
ENDROOT
BRANCH   1  11
HETATM   11  C2  UNL     1      -4.967   2.425  12.329  1.00  0.00     0.157 C 
HETATM   12  C1  UNL     1      -4.292   1.131  12.592  1.00  0.00     0.094 C 
HETATM   13  O1  UNL     1      -5.700   2.517  11.366  1.00  0.00    -0.295 OA
ENDBRANCH   1  11
BRANCH   1  14
HETATM   14  O2  UNL     1      -4.305   4.662  12.382  1.00  0.00    -0.382 OA
ATOM     15  H2  UNL     1      -3.627   5.116  12.869  1.00  0.00     0.211 HD
ENDBRANCH   1  14
TORSDOF 2
ENDMDL
MODEL 4
REMARK VINA RESULT: -6.186557529      2.745      3.674
REMARK  2 active torsions:
REMARK  status: ('A' for Active; 'I' for Inactive)
REMARK    1  A    between atoms: C2_2  and  C3_4 
REMARK    2  A    between atoms: C3_4  and  O2_5 
ROOT
HETATM    1  C3  UNL     1      -5.368   1.845  15.402  1.00  0.00     0.121 C 
HETATM    2  C4  UNL     1      -6.051   2.847  14.512  1.00  0.00     0.052 C 
HETATM    3  C5  UNL     1      -6.138   4.189  15.210  1.00  0.00     0.006 C 
HETATM    4  C6  UNL     1      -6.631   3.934  16.621  1.00  0.00     0.006 C 
HETATM    5  C7  UNL     1      -5.537   3.202  17.400  1.00  0.00     0.008 C 
HETATM    6  C8  UNL     1      -4.541   2.612  16.394  1.00  0.00     0.029 C 
HETATM    7  C9  UNL     1      -3.802   3.745  15.744  1.00  0.00     0.027 C 
HETATM    8  C10 UNL     1      -4.770   4.822  15.332  1.00  0.00     0.097 C 
HETATM    9  C11 UNL     1      -4.335   5.366  14.058  1.00  0.00     0.064 C 
HETATM   10  N1  UNL     1      -3.989   5.819  13.044  1.00  0.00    -0.197 NA
ENDROOT
BRANCH   1  11
HETATM   11  C2  UNL     1      -4.604   0.848  14.616  1.00  0.00     0.157 C 
HETATM   12  C1  UNL     1      -4.185   1.087  13.214  1.00  0.00     0.094 C 
HETATM   13  O1  UNL     1      -4.311  -0.206  15.142  1.00  0.00    -0.295 OA
ENDBRANCH   1  11
BRANCH   1  14
HETATM   14  O2  UNL     1      -6.333   1.143  16.155  1.00  0.00    -0.382 OA
ATOM     15  H2  UNL     1      -6.921   1.785  16.536  1.00  0.00     0.211 HD
ENDBRANCH   1  14
TORSDOF 2
ENDMDL
MODEL 5
REMARK VINA RESULT: -5.913476456      2.972      4.049
REMARK  2 active torsions:
REMARK  status: ('A' for Active; 'I' for Inactive)
REMARK    1  A    between atoms: C2_2  and  C3_4 
REMARK    2  A    between atoms: C3_4  and  O2_5 
ROOT
HETATM    1  C3  UNL     1      -4.973   2.874  15.028  1.00  0.00     0.121 C 
HETATM    2  C4  UNL     1      -4.974   3.154  13.549  1.00  0.00     0.052 C 
HETATM    3  C5  UNL     1      -4.894   4.646  13.301  1.00  0.00     0.006 C 
HETATM    4  C6  UNL     1      -5.898   5.312  14.223  1.00  0.00     0.006 C 
HETATM    5  C7  UNL     1      -5.412   5.167  15.667  1.00  0.00     0.008 C 
HETATM    6  C8  UNL     1      -4.353   4.059  15.711  1.00  0.00     0.029 C 
HETATM    7  C9  UNL     1      -3.133   4.545  14.984  1.00  0.00     0.027 C 
HETATM    8  C10 UNL     1      -3.531   5.182  13.679  1.00  0.00     0.097 C 
HETATM    9  C11 UNL     1      -2.540   4.830  12.677  1.00  0.00     0.064 C 
HETATM   10  N1  UNL     1      -1.746   4.567  11.869  1.00  0.00    -0.197 NA
ENDROOT
BRANCH   1  11
HETATM   11  C2  UNL     1      -4.318   1.582  15.338  1.00  0.00     0.157 C 
HETATM   12  C1  UNL     1      -4.353   0.425  14.411  1.00  0.00     0.094 C 
HETATM   13  O1  UNL     1      -3.730   1.468  16.394  1.00  0.00    -0.295 OA
ENDBRANCH   1  11
BRANCH   1  14
HETATM   14  O2  UNL     1      -6.302   2.800  15.496  1.00  0.00    -0.382 OA
ATOM     15  H2  UNL     1      -6.334   3.242  16.337  1.00  0.00     0.211 HD
ENDBRANCH   1  14
TORSDOF 2
ENDMDL
