MODEL 1
REMARK VINA RESULT: -6.691770933      0.000      0.000
REMARK  1 active torsions:
REMARK  status: ('A' for Active; 'I' for Inactive)
REMARK    1  A    between atoms: C2_2  and  C3_3 
ROOT
HETATM    1  C1  UNL     1      -3.622   3.757  15.366  1.00  0.00     0.047 C 
HETATM    2  C2  UNL     1      -4.612   2.607  15.198  1.00  0.00     0.087 C 
HETATM    3  C6  UNL     1      -4.414   1.680  16.349  1.00  0.00     0.039 C 
HETATM    4  C7  UNL     1      -5.676   1.364  17.105  1.00  0.00     0.003 C 
HETATM    5  C8  UNL     1      -6.171   2.538  17.922  1.00  0.00     0.000 C 
HETATM    6  C9  UNL     1      -7.277   3.288  17.204  1.00  0.00     0.002 C 
HETATM    7  C10 UNL     1      -6.687   4.595  16.723  1.00  0.00     0.019 C 
HETATM    8  C11 UNL     1      -6.165   4.448  15.289  1.00  0.00     0.115 C 
HETATM    9  N2  UNL     1      -5.960   3.067  15.037  1.00  0.00    -0.406 N 
ATOM     10  H2  UNL     1      -6.720   2.444  14.761  1.00  0.00     0.154 HD
ENDROOT
BRANCH   2  11
HETATM   11  C3  UNL     1      -4.223   1.909  13.943  1.00  0.00     0.142 C 
HETATM   12  N1  UNL     1      -3.648   2.426  12.920  1.00  0.00    -0.370 N 
HETATM   13  C4  UNL     1      -3.438   1.401  11.893  1.00  0.00     0.148 C 
ATOM     14  H1  UNL     1      -3.377   3.406  12.833  1.00  0.00     0.161 HD
HETATM   15  C5  UNL     1      -4.224   0.205  12.396  1.00  0.00     0.197 C 
HETATM   16  O1  UNL     1      -4.456   0.552  13.740  1.00  0.00    -0.336 OA
ENDBRANCH   2  11
TORSDOF 1
ENDMDL
MODEL 2
REMARK VINA RESULT: -6.627334361      1.019      1.130
REMARK  1 active torsions:
REMARK  status: ('A' for Active; 'I' for Inactive)
REMARK    1  A    between atoms: C2_2  and  C3_3 
ROOT
HETATM    1  C1  UNL     1      -3.747   3.869  15.009  1.00  0.00     0.047 C 
HETATM    2  C2  UNL     1      -4.777   2.763  14.799  1.00  0.00     0.087 C 
HETATM    3  C6  UNL     1      -4.444   1.660  15.746  1.00  0.00     0.039 C 
HETATM    4  C7  UNL     1      -5.596   1.226  16.611  1.00  0.00     0.003 C 
HETATM    5  C8  UNL     1      -5.945   2.252  17.668  1.00  0.00     0.000 C 
HETATM    6  C9  UNL     1      -7.122   3.110  17.243  1.00  0.00     0.002 C 
HETATM    7  C10 UNL     1      -6.574   4.477  16.901  1.00  0.00     0.019 C 
HETATM    8  C11 UNL     1      -6.259   4.565  15.403  1.00  0.00     0.115 C 
HETATM    9  N2  UNL     1      -6.123   3.244  14.905  1.00  0.00    -0.406 N 
ATOM     10  H2  UNL     1      -6.928   2.675  14.642  1.00  0.00     0.154 HD
ENDROOT
BRANCH   2  11
HETATM   11  C3  UNL     1      -4.583   2.278  13.406  1.00  0.00     0.142 C 
HETATM   12  N1  UNL     1      -3.790   1.348  13.017  1.00  0.00    -0.370 N 
HETATM   13  C4  UNL     1      -3.896   1.175  11.565  1.00  0.00     0.148 C 
ATOM     14  H1  UNL     1      -3.175   0.809  13.627  1.00  0.00     0.161 HD
HETATM   15  C5  UNL     1      -4.733   2.356  11.111  1.00  0.00     0.197 C 
HETATM   16  O1  UNL     1      -5.278   2.812  12.325  1.00  0.00    -0.336 OA
ENDBRANCH   2  11
TORSDOF 1
ENDMDL
MODEL 3
REMARK VINA RESULT: -6.234427784      2.119      3.600
REMARK  1 active torsions:
REMARK  status: ('A' for Active; 'I' for Inactive)
REMARK    1  A    between atoms: C2_2  and  C3_3 
ROOT
HETATM    1  C1  UNL     1      -5.015   2.996  13.877  1.00  0.00     0.047 C 
HETATM    2  C2  UNL     1      -4.806   3.828  15.139  1.00  0.00     0.087 C 
HETATM    3  C6  UNL     1      -6.087   4.540  15.418  1.00  0.00     0.039 C 
HETATM    4  C7  UNL     1      -6.609   4.338  16.814  1.00  0.00     0.003 C 
HETATM    5  C8  UNL     1      -7.148   2.940  17.033  1.00  0.00     0.000 C 
HETATM    6  C9  UNL     1      -6.129   2.055  17.728  1.00  0.00     0.002 C 
HETATM    7  C10 UNL     1      -5.607   1.084  16.693  1.00  0.00     0.019 C 
HETATM    8  C11 UNL     1      -4.339   1.638  16.033  1.00  0.00     0.115 C 
HETATM    9  N2  UNL     1      -4.319   3.042  16.235  1.00  0.00    -0.406 N 
ATOM     10  H2  UNL     1      -3.982   3.464  17.100  1.00  0.00     0.154 HD
ENDROOT
BRANCH   2  11
HETATM   11  C3  UNL     1      -3.759   4.829  14.804  1.00  0.00     0.142 C 
HETATM   12  N1  UNL     1      -3.903   6.102  14.736  1.00  0.00    -0.370 N 
HETATM   13  C4  UNL     1      -2.629   6.731  14.377  1.00  0.00     0.148 C 
ATOM     14  H1  UNL     1      -4.775   6.603  14.906  1.00  0.00     0.161 HD
HETATM   15  C5  UNL     1      -1.734   5.566  13.997  1.00  0.00     0.197 C 
HETATM   16  O1  UNL     1      -2.446   4.470  14.516  1.00  0.00    -0.336 OA
ENDBRANCH   2  11
TORSDOF 1
ENDMDL
MODEL 4
REMARK VINA RESULT: -6.126003366      2.206      3.622
REMARK  1 active torsions:
REMARK  status: ('A' for Active; 'I' for Inactive)
REMARK    1  A    between atoms: C2_2  and  C3_3 
ROOT
HETATM    1  C1  UNL     1      -4.944   2.836  13.802  1.00  0.00     0.047 C 
HETATM    2  C2  UNL     1      -4.719   3.782  14.978  1.00  0.00     0.087 C 
HETATM    3  C6  UNL     1      -5.981   4.552  15.175  1.00  0.00     0.039 C 
HETATM    4  C7  UNL     1      -6.516   4.502  16.580  1.00  0.00     0.003 C 
HETATM    5  C8  UNL     1      -7.094   3.148  16.932  1.00  0.00     0.000 C 
HETATM    6  C9  UNL     1      -6.104   2.308  17.718  1.00  0.00     0.002 C 
HETATM    7  C10 UNL     1      -5.603   1.226  16.787  1.00  0.00     0.019 C 
HETATM    8  C11 UNL     1      -4.317   1.679  16.086  1.00  0.00     0.115 C 
HETATM    9  N2  UNL     1      -4.259   3.095  16.149  1.00  0.00    -0.406 N 
ATOM     10  H2  UNL     1      -3.915   3.590  16.972  1.00  0.00     0.154 HD
ENDROOT
BRANCH   2  11
HETATM   11  C3  UNL     1      -3.643   4.716  14.555  1.00  0.00     0.142 C 
HETATM   12  N1  UNL     1      -2.488   4.404  14.091  1.00  0.00    -0.370 N 
HETATM   13  C4  UNL     1      -1.723   5.618  13.793  1.00  0.00     0.148 C 
ATOM     14  H1  UNL     1      -2.152   3.451  13.950  1.00  0.00     0.161 HD
HETATM   15  C5  UNL     1      -2.549   6.736  14.401  1.00  0.00     0.197 C 
HETATM   16  O1  UNL     1      -3.784   6.100  14.621  1.00  0.00    -0.336 OA
ENDBRANCH   2  11
TORSDOF 1
ENDMDL
MODEL 5
REMARK VINA RESULT: -5.955068670      2.456      5.549
REMARK  1 active torsions:
REMARK  status: ('A' for Active; 'I' for Inactive)
REMARK    1  A    between atoms: C2_2  and  C3_3 
ROOT
HETATM    1  C1  UNL     1      -4.313   4.207  10.910  1.00  0.00     0.047 C 
HETATM    2  C2  UNL     1      -4.317   3.165  12.026  1.00  0.00     0.087 C 
HETATM    3  C6  UNL     1      -5.121   2.004  11.546  1.00  0.00     0.039 C 
HETATM    4  C7  UNL     1      -4.409   0.683  11.646  1.00  0.00     0.003 C 
HETATM    5  C8  UNL     1      -3.298   0.546  10.627  1.00  0.00     0.000 C 
HETATM    6  C9  UNL     1      -1.943   0.855  11.236  1.00  0.00     0.002 C 
HETATM    7  C10 UNL     1      -1.510   2.199  10.695  1.00  0.00     0.019 C 
HETATM    8  C11 UNL     1      -1.942   3.321  11.646  1.00  0.00     0.115 C 
HETATM    9  N2  UNL     1      -2.993   2.826  12.459  1.00  0.00    -0.406 N 
ATOM     10  H2  UNL     1      -2.819   2.266  13.294  1.00  0.00     0.154 HD
ENDROOT
BRANCH   2  11
HETATM   11  C3  UNL     1      -5.017   3.796  13.176  1.00  0.00     0.142 C 
HETATM   12  N1  UNL     1      -5.388   3.222  14.262  1.00  0.00    -0.370 N 
HETATM   13  C4  UNL     1      -6.045   4.193  15.142  1.00  0.00     0.148 C 
ATOM     14  H1  UNL     1      -5.246   2.236  14.481  1.00  0.00     0.161 HD
HETATM   15  C5  UNL     1      -6.222   5.422  14.272  1.00  0.00     0.197 C 
HETATM   16  O1  UNL     1      -5.361   5.145  13.195  1.00  0.00    -0.336 OA
ENDBRANCH   2  11
TORSDOF 1
ENDMDL
