MODEL 1
REMARK VINA RESULT: -6.120641806      0.000      0.000
REMARK  3 active torsions:
REMARK  status: ('A' for Active; 'I' for Inactive)
REMARK    1  A    between atoms: C2_2  and  C5_5 
REMARK    2  A    between atoms: C5_5  and  N1_8 
REMARK    3  A    between atoms: N1_8  and  N2_10 
ROOT
HETATM    1  N2  UNL     1      -5.195   2.824  13.404  1.00  0.00    -0.286 N 
ATOM      2  H2  UNL     1      -5.411   3.819  13.343  1.00  0.00     0.188 HD
HETATM    3  C8  UNL     1      -4.729   2.221  12.358  1.00  0.00     0.209 C 
HETATM    4  C9  UNL     1      -4.397   0.831  12.353  1.00  0.00     0.130 C 
HETATM    5  N3  UNL     1      -4.120  -0.295  12.335  1.00  0.00    -0.189 NA
HETATM    6  C10 UNL     1      -4.524   2.956  11.142  1.00  0.00     0.130 C 
HETATM    7  N4  UNL     1      -4.346   3.567  10.156  1.00  0.00    -0.189 NA
ENDROOT
BRANCH   1   8
HETATM    8  N1  UNL     1      -5.413   2.162  14.609  1.00  0.00    -0.325 N 
ATOM      9  H1  UNL     1      -5.770   1.206  14.624  1.00  0.00     0.181 HD
BRANCH   8  10
HETATM   10  C5  UNL     1      -5.122   2.862  15.832  1.00  0.00     0.045 C 
HETATM   11  C6  UNL     1      -3.916   2.221  16.457  1.00  0.00     0.040 C 
HETATM   12  C7  UNL     1      -4.768   4.283  15.486  1.00  0.00     0.040 C 
BRANCH  10  13
HETATM   13  C2  UNL     1      -6.256   2.796  16.822  1.00  0.00    -0.025 C 
HETATM   14  C1  UNL     1      -6.900   4.147  16.950  1.00  0.00     0.017 C 
HETATM   15  C3  UNL     1      -7.226   1.735  16.431  1.00  0.00     0.017 C 
HETATM   16  C4  UNL     1      -5.753   2.425  18.216  1.00  0.00     0.017 C 
ENDBRANCH  10  13
ENDBRANCH   8  10
ENDBRANCH   1   8
TORSDOF 3
ENDMDL
MODEL 2
REMARK VINA RESULT: -6.096606204      1.996      2.863
REMARK  3 active torsions:
REMARK  status: ('A' for Active; 'I' for Inactive)
REMARK    1  A    between atoms: C2_2  and  C5_5 
REMARK    2  A    between atoms: C5_5  and  N1_8 
REMARK    3  A    between atoms: N1_8  and  N2_10 
ROOT
HETATM    1  N2  UNL     1      -3.334   2.772  12.525  1.00  0.00    -0.286 N 
ATOM      2  H2  UNL     1      -3.021   3.278  11.697  1.00  0.00     0.188 HD
HETATM    3  C8  UNL     1      -3.814   1.579  12.383  1.00  0.00     0.209 C 
HETATM    4  C9  UNL     1      -4.275   0.796  13.487  1.00  0.00     0.130 C 
HETATM    5  N3  UNL     1      -4.648   0.147  14.373  1.00  0.00    -0.189 NA
HETATM    6  C10 UNL     1      -3.897   0.994  11.075  1.00  0.00     0.130 C 
HETATM    7  N4  UNL     1      -3.947   0.516  10.004  1.00  0.00    -0.189 NA
ENDROOT
BRANCH   1   8
HETATM    8  N1  UNL     1      -3.231   3.389  13.769  1.00  0.00    -0.325 N 
ATOM      9  H1  UNL     1      -2.637   2.997  14.501  1.00  0.00     0.181 HD
BRANCH   8  10
HETATM   10  C5  UNL     1      -3.984   4.593  13.996  1.00  0.00     0.045 C 
HETATM   11  C6  UNL     1      -3.055   5.617  14.585  1.00  0.00     0.040 C 
HETATM   12  C7  UNL     1      -4.458   5.107  12.663  1.00  0.00     0.040 C 
BRANCH  10  13
HETATM   13  C2  UNL     1      -5.129   4.391  14.954  1.00  0.00    -0.025 C 
HETATM   14  C1  UNL     1      -4.723   3.433  16.038  1.00  0.00     0.017 C 
HETATM   15  C3  UNL     1      -5.595   5.699  15.491  1.00  0.00     0.017 C 
HETATM   16  C4  UNL     1      -6.333   3.761  14.254  1.00  0.00     0.017 C 
ENDBRANCH  10  13
ENDBRANCH   8  10
ENDBRANCH   1   8
TORSDOF 3
ENDMDL
MODEL 3
REMARK VINA RESULT: -6.040859134      0.051      1.134
REMARK  3 active torsions:
REMARK  status: ('A' for Active; 'I' for Inactive)
REMARK    1  A    between atoms: C2_2  and  C5_5 
REMARK    2  A    between atoms: C5_5  and  N1_8 
REMARK    3  A    between atoms: N1_8  and  N2_10 
ROOT
HETATM    1  N2  UNL     1      -5.205   2.834  13.400  1.00  0.00    -0.286 N 
ATOM      2  H2  UNL     1      -5.428   3.827  13.337  1.00  0.00     0.188 HD
HETATM    3  C8  UNL     1      -4.723   2.235  12.360  1.00  0.00     0.209 C 
HETATM    4  C9  UNL     1      -4.381   0.847  12.359  1.00  0.00     0.130 C 
HETATM    5  N3  UNL     1      -4.095  -0.277  12.343  1.00  0.00    -0.189 NA
HETATM    6  C10 UNL     1      -4.512   2.971  11.146  1.00  0.00     0.130 C 
HETATM    7  N4  UNL     1      -4.328   3.584  10.161  1.00  0.00    -0.189 NA
ENDROOT
BRANCH   1   8
HETATM    8  N1  UNL     1      -5.431   2.170  14.603  1.00  0.00    -0.325 N 
ATOM      9  H1  UNL     1      -5.824   1.228  14.616  1.00  0.00     0.181 HD
BRANCH   8  10
HETATM   10  C5  UNL     1      -5.096   2.848  15.827  1.00  0.00     0.045 C 
HETATM   11  C6  UNL     1      -3.907   2.155  16.430  1.00  0.00     0.040 C 
HETATM   12  C7  UNL     1      -4.693   4.257  15.488  1.00  0.00     0.040 C 
BRANCH  10  13
HETATM   13  C2  UNL     1      -6.218   2.817  16.833  1.00  0.00    -0.025 C 
HETATM   14  C1  UNL     1      -5.689   2.390  18.173  1.00  0.00     0.017 C 
HETATM   15  C3  UNL     1      -6.906   4.137  16.884  1.00  0.00     0.017 C 
HETATM   16  C4  UNL     1      -7.283   1.792  16.445  1.00  0.00     0.017 C 
ENDBRANCH  10  13
ENDBRANCH   8  10
ENDBRANCH   1   8
TORSDOF 3
ENDMDL
MODEL 4
REMARK VINA RESULT: -5.984223806      2.081      5.222
REMARK  3 active torsions:
REMARK  status: ('A' for Active; 'I' for Inactive)
REMARK    1  A    between atoms: C2_2  and  C5_5 
REMARK    2  A    between atoms: C5_5  and  N1_8 
REMARK    3  A    between atoms: N1_8  and  N2_10 
ROOT
HETATM    1  N2  UNL     1      -4.183   3.391  13.519  1.00  0.00    -0.286 N 
ATOM      2  H2  UNL     1      -4.550   4.122  12.911  1.00  0.00     0.188 HD
HETATM    3  C8  UNL     1      -4.572   3.353  14.753  1.00  0.00     0.209 C 
HETATM    4  C9  UNL     1      -4.112   2.363  15.676  1.00  0.00     0.130 C 
HETATM    5  N3  UNL     1      -3.752   1.565  16.436  1.00  0.00    -0.189 NA
HETATM    6  C10 UNL     1      -5.503   4.331  15.238  1.00  0.00     0.130 C 
HETATM    7  N4  UNL     1      -6.277   5.126  15.624  1.00  0.00    -0.189 NA
ENDROOT
BRANCH   1   8
HETATM    8  N1  UNL     1      -3.282   2.468  12.995  1.00  0.00    -0.325 N 
ATOM      9  H1  UNL     1      -2.548   2.064  13.576  1.00  0.00     0.181 HD
BRANCH   8  10
HETATM   10  C5  UNL     1      -3.413   2.102  11.610  1.00  0.00     0.045 C 
HETATM   11  C6  UNL     1      -4.438   3.006  10.986  1.00  0.00     0.040 C 
HETATM   12  C7  UNL     1      -2.094   2.355  10.931  1.00  0.00     0.040 C 
BRANCH  10  13
HETATM   13  C2  UNL     1      -3.869   0.677  11.427  1.00  0.00    -0.025 C 
HETATM   14  C1  UNL     1      -4.188   0.069  12.763  1.00  0.00     0.017 C 
HETATM   15  C3  UNL     1      -5.019   0.617  10.482  1.00  0.00     0.017 C 
HETATM   16  C4  UNL     1      -2.765  -0.184  10.815  1.00  0.00     0.017 C 
ENDBRANCH  10  13
ENDBRANCH   8  10
ENDBRANCH   1   8
TORSDOF 3
ENDMDL
MODEL 5
REMARK VINA RESULT: -5.970002502      2.387      3.531
REMARK  3 active torsions:
REMARK  status: ('A' for Active; 'I' for Inactive)
REMARK    1  A    between atoms: C2_2  and  C5_5 
REMARK    2  A    between atoms: C5_5  and  N1_8 
REMARK    3  A    between atoms: N1_8  and  N2_10 
ROOT
HETATM    1  N2  UNL     1      -4.452   2.323  12.648  1.00  0.00    -0.286 N 
ATOM      2  H2  UNL     1      -4.261   2.636  11.696  1.00  0.00     0.188 HD
HETATM    3  C8  UNL     1      -4.252   1.080  12.947  1.00  0.00     0.209 C 
HETATM    4  C9  UNL     1      -4.491   0.554  14.255  1.00  0.00     0.130 C 
HETATM    5  N3  UNL     1      -4.676   0.113  15.311  1.00  0.00    -0.189 NA
HETATM    6  C10 UNL     1      -3.769   0.173  11.945  1.00  0.00     0.130 C 
HETATM    7  N4  UNL     1      -3.359  -0.559  11.124  1.00  0.00    -0.189 NA
ENDROOT
BRANCH   1   8
HETATM    8  N1  UNL     1      -4.920   3.246  13.578  1.00  0.00    -0.325 N 
ATOM      9  H1  UNL     1      -5.868   3.182  13.950  1.00  0.00     0.181 HD
BRANCH   8  10
HETATM   10  C5  UNL     1      -4.031   4.295  14.002  1.00  0.00     0.045 C 
HETATM   11  C6  UNL     1      -3.493   3.927  15.356  1.00  0.00     0.040 C 
HETATM   12  C7  UNL     1      -2.875   4.346  13.041  1.00  0.00     0.040 C 
BRANCH  10  13
HETATM   13  C2  UNL     1      -4.720   5.630  14.116  1.00  0.00    -0.025 C 
HETATM   14  C1  UNL     1      -6.115   5.440  14.640  1.00  0.00     0.017 C 
HETATM   15  C3  UNL     1      -3.915   6.560  14.957  1.00  0.00     0.017 C 
HETATM   16  C4  UNL     1      -4.861   6.299  12.750  1.00  0.00     0.017 C 
ENDBRANCH  10  13
ENDBRANCH   8  10
ENDBRANCH   1   8
TORSDOF 3
ENDMDL
