MODEL 1
REMARK VINA RESULT: -9.446581386      0.000      0.000
REMARK  11 active torsions:
REMARK  status: ('A' for Active; 'I' for Inactive)
REMARK    1  A    between atoms: C2_2  and  O1_3 
REMARK    2  A    between atoms: O1_3  and  C3_4 
REMARK    3  A    between atoms: C3_4  and  C4_6 
REMARK    4  A    between atoms: C4_6  and  C5_7 
REMARK    5  A    between atoms: N1_12  and  C8_13 
REMARK    6  A    between atoms: C8_13  and  C9_14 
REMARK    7  A    between atoms: C8_13  and  C15_28 
REMARK    8  A    between atoms: C9_14  and  S1_15 
REMARK    9  A    between atoms: S1_15  and  C10_16 
REMARK   10  A    between atoms: C10_16  and  C11_17 
REMARK   11  A    between atoms: C12_19  and  C13_20 
ROOT
HETATM    1  C8  UNL     1      66.858  34.768  40.922  1.00  0.00     0.200 C 
ENDROOT
BRANCH   1   2
HETATM    2  N1  UNL     1      67.432  35.747  40.127  1.00  0.00    -0.380 N 
HETATM    3  C7  UNL     1      67.055  37.108  40.324  1.00  0.00     0.124 C 
HETATM    4  C6  UNL     1      67.738  38.011  39.391  1.00  0.00     0.051 C 
HETATM    5  C4  UNL     1      67.906  37.502  37.993  1.00  0.00     0.141 C 
HETATM    6  C17 UNL     1      68.156  36.013  37.900  1.00  0.00     0.075 C 
HETATM    7  C16 UNL     1      68.499  35.466  39.265  1.00  0.00     0.060 C 
BRANCH   5   8
HETATM    8  C3  UNL     1      69.166  38.211  37.507  1.00  0.00     0.278 C 
HETATM    9  O2  UNL     1      69.693  38.002  36.453  1.00  0.00    -0.264 OA
BRANCH   8  10
HETATM   10  O1  UNL     1      69.751  39.133  38.380  1.00  0.00    -0.321 OA
BRANCH  10  11
HETATM   11  C2  UNL     1      71.066  39.384  38.612  1.00  0.00     0.174 C 
HETATM   12  C1  UNL     1      71.879  38.325  39.313  1.00  0.00     0.034 C 
ENDBRANCH  10  11
ENDBRANCH   8  10
ENDBRANCH   5   8
BRANCH   5  13
HETATM   13  C5  UNL     1      66.749  37.904  37.173  1.00  0.00     0.192 C 
HETATM   14  O3  UNL     1      66.510  37.368  36.062  1.00  0.00    -0.647 OA
HETATM   15  O4  UNL     1      65.867  38.903  37.617  1.00  0.00    -0.647 OA
ENDBRANCH   5  13
ENDBRANCH   1   2
BRANCH   1  16
HETATM   16  C9  UNL     1      65.332  34.720  41.014  1.00  0.00     0.108 C 
BRANCH  16  17
HETATM   17  S1  UNL     1      64.865  34.949  42.729  1.00  0.00    -0.162 SA
BRANCH  17  18
HETATM   18  C10 UNL     1      63.360  34.235  43.274  1.00  0.00     0.123 C 
BRANCH  18  19
HETATM   19  C11 UNL     1      63.554  32.769  43.604  1.00  0.00     0.032 A 
HETATM   20  S2  UNL     1      64.063  32.130  45.150  1.00  0.00    -0.068 SA
HETATM   21  C12 UNL     1      64.221  30.497  44.709  1.00  0.00     0.160 A 
HETATM   22  N2  UNL     1      63.881  30.520  43.435  1.00  0.00    -0.336 N 
HETATM   23  C14 UNL     1      63.551  31.645  42.874  1.00  0.00     0.118 A 
ATOM     24  H2  UNL     1      63.877  29.657  42.891  1.00  0.00     0.167 HD
HETATM   25 CL1  UNL     1      63.155  31.686  41.111  1.00  0.00    -0.063 Cl
BRANCH  21  26
HETATM   26  C13 UNL     1      64.698  29.274  45.446  1.00  0.00     0.439 C 
HETATM   27  F1  UNL     1      65.565  28.597  44.640  1.00  0.00    -0.164 F 
HETATM   28  F2  UNL     1      63.643  28.511  45.827  1.00  0.00    -0.164 F 
HETATM   29  F3  UNL     1      65.374  29.808  46.537  1.00  0.00    -0.164 F 
ENDBRANCH  21  26
ENDBRANCH  18  19
ENDBRANCH  17  18
ENDBRANCH  16  17
ENDBRANCH   1  16
BRANCH   1  30
HETATM   30  C15 UNL     1      67.340  33.342  40.726  1.00  0.00     0.408 C 
HETATM   31  F4  UNL     1      68.491  33.100  41.436  1.00  0.00    -0.169 F 
HETATM   32  F5  UNL     1      66.369  32.498  41.372  1.00  0.00    -0.169 F 
HETATM   33  F6  UNL     1      67.331  32.975  39.419  1.00  0.00    -0.169 F 
ENDBRANCH   1  30
TORSDOF 11
ENDMDL
MODEL 2
REMARK VINA RESULT: -9.415347637      5.011      9.504
REMARK  11 active torsions:
REMARK  status: ('A' for Active; 'I' for Inactive)
REMARK    1  A    between atoms: C2_2  and  O1_3 
REMARK    2  A    between atoms: O1_3  and  C3_4 
REMARK    3  A    between atoms: C3_4  and  C4_6 
REMARK    4  A    between atoms: C4_6  and  C5_7 
REMARK    5  A    between atoms: N1_12  and  C8_13 
REMARK    6  A    between atoms: C8_13  and  C9_14 
REMARK    7  A    between atoms: C8_13  and  C15_28 
REMARK    8  A    between atoms: C9_14  and  S1_15 
REMARK    9  A    between atoms: S1_15  and  C10_16 
REMARK   10  A    between atoms: C10_16  and  C11_17 
REMARK   11  A    between atoms: C12_19  and  C13_20 
ROOT
HETATM    1  C8  UNL     1      66.423  33.388  41.544  1.00  0.00     0.200 C 
ENDROOT
BRANCH   1   2
HETATM    2  N1  UNL     1      65.421  32.645  42.149  1.00  0.00    -0.380 N 
HETATM    3  C7  UNL     1      64.593  31.813  41.341  1.00  0.00     0.124 C 
HETATM    4  C6  UNL     1      63.574  31.113  42.131  1.00  0.00     0.051 C 
HETATM    5  C4  UNL     1      62.945  31.905  43.236  1.00  0.00     0.141 C 
HETATM    6  C17 UNL     1      63.889  32.865  43.926  1.00  0.00     0.075 C 
HETATM    7  C16 UNL     1      65.315  32.546  43.541  1.00  0.00     0.060 C 
BRANCH   5   8
HETATM    8  C3  UNL     1      62.548  30.840  44.253  1.00  0.00     0.278 C 
HETATM    9  O2  UNL     1      61.623  30.939  45.006  1.00  0.00    -0.264 OA
BRANCH   8  10
HETATM   10  O1  UNL     1      63.352  29.699  44.322  1.00  0.00    -0.321 OA
BRANCH  10  11
HETATM   11  C2  UNL     1      64.066  29.211  45.370  1.00  0.00     0.174 C 
HETATM   12  C1  UNL     1      65.412  28.593  45.087  1.00  0.00     0.034 C 
ENDBRANCH  10  11
ENDBRANCH   8  10
ENDBRANCH   5   8
BRANCH   5  13
HETATM   13  C5  UNL     1      61.747  32.600  42.733  1.00  0.00     0.192 C 
HETATM   14  O3  UNL     1      61.650  33.852  42.763  1.00  0.00    -0.647 OA
HETATM   15  O4  UNL     1      60.670  31.876  42.196  1.00  0.00    -0.647 OA
ENDBRANCH   5  13
ENDBRANCH   1   2
BRANCH   1  16
HETATM   16  C9  UNL     1      66.140  34.858  41.236  1.00  0.00     0.108 C 
BRANCH  16  17
HETATM   17  S1  UNL     1      66.826  35.237  39.624  1.00  0.00    -0.162 SA
BRANCH  17  18
HETATM   18  C10 UNL     1      66.582  36.850  38.985  1.00  0.00     0.123 C 
BRANCH  18  19
HETATM   19  C11 UNL     1      67.907  37.562  38.811  1.00  0.00     0.032 A 
HETATM   20  S2  UNL     1      69.488  36.848  39.038  1.00  0.00    -0.068 SA
HETATM   21  C12 UNL     1      70.428  38.251  38.853  1.00  0.00     0.160 A 
HETATM   22  N2  UNL     1      69.511  39.172  38.628  1.00  0.00    -0.336 N 
HETATM   23  C14 UNL     1      68.254  38.842  38.609  1.00  0.00     0.118 A 
ATOM     24  H2  UNL     1      69.788  40.141  38.469  1.00  0.00     0.167 HD
HETATM   25 CL1  UNL     1      66.995  40.117  38.373  1.00  0.00    -0.063 Cl
BRANCH  21  26
HETATM   26  C13 UNL     1      71.903  38.524  38.978  1.00  0.00     0.439 C 
HETATM   27  F1  UNL     1      72.482  37.472  39.622  1.00  0.00    -0.164 F 
HETATM   28  F2  UNL     1      72.112  39.701  39.619  1.00  0.00    -0.164 F 
HETATM   29  F3  UNL     1      72.328  38.571  37.655  1.00  0.00    -0.164 F 
ENDBRANCH  21  26
ENDBRANCH  18  19
ENDBRANCH  17  18
ENDBRANCH  16  17
ENDBRANCH   1  16
BRANCH   1  30
HETATM   30  C15 UNL     1      67.809  33.317  42.160  1.00  0.00     0.408 C 
HETATM   31  F4  UNL     1      68.190  32.017  42.389  1.00  0.00    -0.169 F 
HETATM   32  F5  UNL     1      68.724  33.755  41.139  1.00  0.00    -0.169 F 
HETATM   33  F6  UNL     1      67.958  34.195  43.185  1.00  0.00    -0.169 F 
ENDBRANCH   1  30
TORSDOF 11
ENDMDL
MODEL 3
REMARK VINA RESULT: -9.396718125      5.126      9.703
REMARK  11 active torsions:
REMARK  status: ('A' for Active; 'I' for Inactive)
REMARK    1  A    between atoms: C2_2  and  O1_3 
REMARK    2  A    between atoms: O1_3  and  C3_4 
REMARK    3  A    between atoms: C3_4  and  C4_6 
REMARK    4  A    between atoms: C4_6  and  C5_7 
REMARK    5  A    between atoms: N1_12  and  C8_13 
REMARK    6  A    between atoms: C8_13  and  C9_14 
REMARK    7  A    between atoms: C8_13  and  C15_28 
REMARK    8  A    between atoms: C9_14  and  S1_15 
REMARK    9  A    between atoms: S1_15  and  C10_16 
REMARK   10  A    between atoms: C10_16  and  C11_17 
REMARK   11  A    between atoms: C12_19  and  C13_20 
ROOT
HETATM    1  C8  UNL     1      66.305  33.643  41.315  1.00  0.00     0.200 C 
ENDROOT
BRANCH   1   2
HETATM    2  N1  UNL     1      65.381  32.822  41.942  1.00  0.00    -0.380 N 
HETATM    3  C7  UNL     1      64.555  31.975  41.147  1.00  0.00     0.124 C 
HETATM    4  C6  UNL     1      63.622  31.189  41.962  1.00  0.00     0.051 C 
HETATM    5  C4  UNL     1      63.014  31.903  43.130  1.00  0.00     0.141 C 
HETATM    6  C17 UNL     1      63.941  32.888  43.807  1.00  0.00     0.075 C 
HETATM    7  C16 UNL     1      65.358  32.666  43.333  1.00  0.00     0.060 C 
BRANCH   5   8
HETATM    8  C3  UNL     1      62.733  30.780  44.123  1.00  0.00     0.278 C 
HETATM    9  O2  UNL     1      61.882  30.820  44.964  1.00  0.00    -0.264 OA
BRANCH   8  10
HETATM   10  O1  UNL     1      63.560  29.654  44.057  1.00  0.00    -0.321 OA
BRANCH  10  11
HETATM   11  C2  UNL     1      64.298  29.070  45.037  1.00  0.00     0.174 C 
HETATM   12  C1  UNL     1      65.257  29.935  45.816  1.00  0.00     0.034 C 
ENDBRANCH  10  11
ENDBRANCH   8  10
ENDBRANCH   5   8
BRANCH   5  13
HETATM   13  C5  UNL     1      61.753  32.547  42.722  1.00  0.00     0.192 C 
HETATM   14  O3  UNL     1      61.595  33.791  42.794  1.00  0.00    -0.647 OA
HETATM   15  O4  UNL     1      60.683  31.781  42.229  1.00  0.00    -0.647 OA
ENDBRANCH   5  13
ENDBRANCH   1   2
BRANCH   1  16
HETATM   16  C9  UNL     1      66.063  35.152  41.346  1.00  0.00     0.108 C 
BRANCH  16  17
HETATM   17  S1  UNL     1      66.776  35.868  39.866  1.00  0.00    -0.162 SA
BRANCH  17  18
HETATM   18  C10 UNL     1      67.071  37.595  39.848  1.00  0.00     0.123 C 
BRANCH  18  19
HETATM   19  C11 UNL     1      68.286  37.920  39.004  1.00  0.00     0.032 A 
HETATM   20  S2  UNL     1      69.832  38.471  39.608  1.00  0.00    -0.068 SA
HETATM   21  C12 UNL     1      70.590  38.784  38.120  1.00  0.00     0.160 A 
HETATM   22  N2  UNL     1      69.648  38.454  37.256  1.00  0.00    -0.336 N 
HETATM   23  C14 UNL     1      68.498  38.028  37.684  1.00  0.00     0.118 A 
ATOM     24  H2  UNL     1      69.823  38.535  36.254  1.00  0.00     0.167 HD
HETATM   25 CL1  UNL     1      67.186  37.647  36.501  1.00  0.00    -0.063 Cl
BRANCH  21  26
HETATM   26  C13 UNL     1      71.927  39.364  37.748  1.00  0.00     0.439 C 
HETATM   27  F1  UNL     1      71.718  40.480  36.994  1.00  0.00    -0.164 F 
HETATM   28  F2  UNL     1      72.681  38.438  37.104  1.00  0.00    -0.164 F 
HETATM   29  F3  UNL     1      72.472  39.712  38.979  1.00  0.00    -0.164 F 
ENDBRANCH  21  26
ENDBRANCH  18  19
ENDBRANCH  17  18
ENDBRANCH  16  17
ENDBRANCH   1  16
BRANCH   1  30
HETATM   30  C15 UNL     1      67.770  33.417  41.641  1.00  0.00     0.408 C 
HETATM   31  F4  UNL     1      68.060  32.077  41.741  1.00  0.00    -0.169 F 
HETATM   32  F5  UNL     1      68.509  33.828  40.475  1.00  0.00    -0.169 F 
HETATM   33  F6  UNL     1      68.200  34.219  42.648  1.00  0.00    -0.169 F 
ENDBRANCH   1  30
TORSDOF 11
ENDMDL
MODEL 4
REMARK VINA RESULT: -9.324264568      1.754      2.184
REMARK  11 active torsions:
REMARK  status: ('A' for Active; 'I' for Inactive)
REMARK    1  A    between atoms: C2_2  and  O1_3 
REMARK    2  A    between atoms: O1_3  and  C3_4 
REMARK    3  A    between atoms: C3_4  and  C4_6 
REMARK    4  A    between atoms: C4_6  and  C5_7 
REMARK    5  A    between atoms: N1_12  and  C8_13 
REMARK    6  A    between atoms: C8_13  and  C9_14 
REMARK    7  A    between atoms: C8_13  and  C15_28 
REMARK    8  A    between atoms: C9_14  and  S1_15 
REMARK    9  A    between atoms: S1_15  and  C10_16 
REMARK   10  A    between atoms: C10_16  and  C11_17 
REMARK   11  A    between atoms: C12_19  and  C13_20 
ROOT
HETATM    1  C8  UNL     1      66.193  34.682  40.869  1.00  0.00     0.200 C 
ENDROOT
BRANCH   1   2
HETATM    2  N1  UNL     1      66.993  35.523  40.112  1.00  0.00    -0.380 N 
HETATM    3  C7  UNL     1      67.060  36.906  40.449  1.00  0.00     0.124 C 
HETATM    4  C6  UNL     1      67.933  37.655  39.539  1.00  0.00     0.051 C 
HETATM    5  C4  UNL     1      67.861  37.266  38.095  1.00  0.00     0.141 C 
HETATM    6  C17 UNL     1      67.641  35.788  37.861  1.00  0.00     0.075 C 
HETATM    7  C16 UNL     1      67.875  35.026  39.144  1.00  0.00     0.060 C 
BRANCH   5   8
HETATM    8  C3  UNL     1      69.248  37.613  37.565  1.00  0.00     0.278 C 
HETATM    9  O2  UNL     1      69.508  37.773  36.408  1.00  0.00    -0.264 OA
BRANCH   8  10
HETATM   10  O1  UNL     1      70.280  37.708  38.504  1.00  0.00    -0.321 OA
BRANCH  10  11
HETATM   11  C2  UNL     1      71.443  38.406  38.437  1.00  0.00     0.174 C 
HETATM   12  C1  UNL     1      71.884  39.172  39.659  1.00  0.00     0.034 C 
ENDBRANCH  10  11
ENDBRANCH   8  10
ENDBRANCH   5   8
BRANCH   5  13
HETATM   13  C5  UNL     1      66.838  38.076  37.409  1.00  0.00     0.192 C 
HETATM   14  O3  UNL     1      66.210  37.639  36.413  1.00  0.00    -0.647 OA
HETATM   15  O4  UNL     1      66.528  39.371  37.858  1.00  0.00    -0.647 OA
ENDBRANCH   5  13
ENDBRANCH   1   2
BRANCH   1  16
HETATM   16  C9  UNL     1      66.851  33.887  41.997  1.00  0.00     0.108 C 
BRANCH  16  17
HETATM   17  S1  UNL     1      66.854  32.155  41.537  1.00  0.00    -0.162 SA
BRANCH  17  18
HETATM   18  C10 UNL     1      65.318  31.404  41.153  1.00  0.00     0.123 C 
BRANCH  18  19
HETATM   19  C11 UNL     1      64.546  31.092  42.418  1.00  0.00     0.032 A 
HETATM   20  S2  UNL     1      65.193  30.315  43.845  1.00  0.00    -0.068 SA
HETATM   21  C12 UNL     1      63.748  30.152  44.723  1.00  0.00     0.160 A 
HETATM   22  N2  UNL     1      62.864  30.691  43.904  1.00  0.00    -0.336 N 
HETATM   23  C14 UNL     1      63.249  31.158  42.754  1.00  0.00     0.118 A 
ATOM     24  H2  UNL     1      61.882  30.741  44.173  1.00  0.00     0.167 HD
HETATM   25 CL1  UNL     1      62.028  31.829  41.604  1.00  0.00    -0.063 Cl
BRANCH  21  26
HETATM   26  C13 UNL     1      63.412  29.509  46.041  1.00  0.00     0.439 C 
HETATM   27  F1  UNL     1      62.055  29.464  46.164  1.00  0.00    -0.164 F 
HETATM   28  F2  UNL     1      64.002  30.183  47.060  1.00  0.00    -0.164 F 
HETATM   29  F3  UNL     1      63.924  28.223  45.903  1.00  0.00    -0.164 F 
ENDBRANCH  21  26
ENDBRANCH  18  19
ENDBRANCH  17  18
ENDBRANCH  16  17
ENDBRANCH   1  16
BRANCH   1  30
HETATM   30  C15 UNL     1      64.904  35.261  41.423  1.00  0.00     0.408 C 
HETATM   31  F4  UNL     1      64.393  36.231  40.593  1.00  0.00    -0.169 F 
HETATM   32  F5  UNL     1      63.924  34.209  41.343  1.00  0.00    -0.169 F 
HETATM   33  F6  UNL     1      65.005  35.567  42.741  1.00  0.00    -0.169 F 
ENDBRANCH   1  30
TORSDOF 11
ENDMDL
MODEL 5
REMARK VINA RESULT: -9.260346454      1.887      2.639
REMARK  11 active torsions:
REMARK  status: ('A' for Active; 'I' for Inactive)
REMARK    1  A    between atoms: C2_2  and  O1_3 
REMARK    2  A    between atoms: O1_3  and  C3_4 
REMARK    3  A    between atoms: C3_4  and  C4_6 
REMARK    4  A    between atoms: C4_6  and  C5_7 
REMARK    5  A    between atoms: N1_12  and  C8_13 
REMARK    6  A    between atoms: C8_13  and  C9_14 
REMARK    7  A    between atoms: C8_13  and  C15_28 
REMARK    8  A    between atoms: C9_14  and  S1_15 
REMARK    9  A    between atoms: S1_15  and  C10_16 
REMARK   10  A    between atoms: C10_16  and  C11_17 
REMARK   11  A    between atoms: C12_19  and  C13_20 
ROOT
HETATM    1  C8  UNL     1      66.591  34.547  40.619  1.00  0.00     0.200 C 
ENDROOT
BRANCH   1   2
HETATM    2  N1  UNL     1      67.252  35.398  39.747  1.00  0.00    -0.380 N 
HETATM    3  C7  UNL     1      68.661  35.562  39.875  1.00  0.00     0.124 C 
HETATM    4  C6  UNL     1      69.199  36.508  38.890  1.00  0.00     0.051 C 
HETATM    5  C4  UNL     1      68.353  37.712  38.610  1.00  0.00     0.141 C 
HETATM    6  C17 UNL     1      66.864  37.446  38.647  1.00  0.00     0.075 C 
HETATM    7  C16 UNL     1      66.610  35.957  38.635  1.00  0.00     0.060 C 
BRANCH   5   8
HETATM    8  C3  UNL     1      68.720  38.076  37.176  1.00  0.00     0.278 C 
HETATM    9  O2  UNL     1      68.201  37.604  36.206  1.00  0.00    -0.264 OA
BRANCH   8  10
HETATM   10  O1  UNL     1      69.760  38.994  37.001  1.00  0.00    -0.321 OA
BRANCH  10  11
HETATM   11  C2  UNL     1      71.019  38.789  36.534  1.00  0.00     0.174 C 
HETATM   12  C1  UNL     1      72.176  39.074  37.459  1.00  0.00     0.034 C 
ENDBRANCH  10  11
ENDBRANCH   8  10
ENDBRANCH   5   8
BRANCH   5  13
HETATM   13  C5  UNL     1      68.724  38.808  39.524  1.00  0.00     0.192 C 
HETATM   14  O3  UNL     1      67.968  39.792  39.713  1.00  0.00    -0.647 OA
HETATM   15  O4  UNL     1      69.944  38.779  40.220  1.00  0.00    -0.647 OA
ENDBRANCH   5  13
ENDBRANCH   1   2
BRANCH   1  16
HETATM   16  C9  UNL     1      67.432  33.720  41.592  1.00  0.00     0.108 C 
BRANCH  16  17
HETATM   17  S1  UNL     1      67.094  31.986  41.295  1.00  0.00    -0.162 SA
BRANCH  17  18
HETATM   18  C10 UNL     1      65.452  31.526  40.888  1.00  0.00     0.123 C 
BRANCH  18  19
HETATM   19  C11 UNL     1      64.649  31.249  42.142  1.00  0.00     0.032 A 
HETATM   20  S2  UNL     1      65.251  30.473  43.589  1.00  0.00    -0.068 SA
HETATM   21  C12 UNL     1      63.786  30.357  44.442  1.00  0.00     0.160 A 
HETATM   22  N2  UNL     1      62.931  30.908  43.601  1.00  0.00    -0.336 N 
HETATM   23  C14 UNL     1      63.349  31.351  42.452  1.00  0.00     0.118 A 
ATOM     24  H2  UNL     1      61.945  30.985  43.851  1.00  0.00     0.167 HD
HETATM   25 CL1  UNL     1      62.165  32.038  41.272  1.00  0.00    -0.063 Cl
BRANCH  21  26
HETATM   26  C13 UNL     1      63.410  29.738  45.761  1.00  0.00     0.439 C 
HETATM   27  F1  UNL     1      62.050  29.680  45.837  1.00  0.00    -0.164 F 
HETATM   28  F2  UNL     1      63.955  30.440  46.785  1.00  0.00    -0.164 F 
HETATM   29  F3  UNL     1      63.941  28.456  45.670  1.00  0.00    -0.164 F 
ENDBRANCH  21  26
ENDBRANCH  18  19
ENDBRANCH  17  18
ENDBRANCH  16  17
ENDBRANCH   1  16
BRANCH   1  30
HETATM   30  C15 UNL     1      65.431  35.125  41.409  1.00  0.00     0.408 C 
HETATM   31  F4  UNL     1      64.247  34.504  41.087  1.00  0.00    -0.169 F 
HETATM   32  F5  UNL     1      65.645  34.737  42.779  1.00  0.00    -0.169 F 
HETATM   33  F6  UNL     1      65.437  36.482  41.408  1.00  0.00    -0.169 F 
ENDBRANCH   1  30
TORSDOF 11
ENDMDL
