MODEL 1
REMARK VINA RESULT: -9.704621788      0.000      0.000
REMARK  13 active torsions:
REMARK  status: ('A' for Active; 'I' for Inactive)
REMARK    1  A    between atoms: C2_2  and  C5_5 
REMARK    2  A    between atoms: C5_5  and  O2_7 
REMARK    3  A    between atoms: O2_7  and  C6_8 
REMARK    4  A    between atoms: C6_8  and  C7_9 
REMARK    5  A    between atoms: C7_9  and  O3_10 
REMARK    6  A    between atoms: O3_10  and  C8_11 
REMARK    7  A    between atoms: C8_11  and  C9_13 
REMARK    8  A    between atoms: C14_21  and  C15_22 
REMARK    9  A    between atoms: C15_22  and  O5_23 
REMARK   10  A    between atoms: C15_22  and  C16_25 
REMARK   11  A    between atoms: C16_25  and  C17_26 
REMARK   12  A    between atoms: C17_26  and  N1_27 
REMARK   13  A    between atoms: C20_32  and  C21_33 
ROOT
HETATM    1  C9  UNL     1      66.756  34.563  40.952  1.00  0.00     0.202 C 
HETATM    2  F1  UNL     1      67.696  34.838  41.964  1.00  0.00    -0.231 F 
HETATM    3  C10 UNL     1      67.264  33.300  40.280  1.00  0.00     0.133 C 
HETATM    4  C11 UNL     1      66.863  32.017  40.891  1.00  0.00     0.247 C 
HETATM    5  F2  UNL     1      67.047  31.043  39.887  1.00  0.00    -0.206 F 
HETATM    6  F3  UNL     1      67.726  31.603  41.902  1.00  0.00    -0.206 F 
HETATM    7  C12 UNL     1      65.447  31.930  41.349  1.00  0.00     0.080 C 
HETATM    8  C13 UNL     1      64.651  33.187  41.246  1.00  0.00     0.017 C 
HETATM    9  C14 UNL     1      65.391  34.465  41.478  1.00  0.00     0.065 C 
ENDROOT
BRANCH   9  10
HETATM   10  C15 UNL     1      65.353  34.841  42.996  1.00  0.00     0.127 C 
BRANCH  10  11
HETATM   11  O5  UNL     1      64.355  35.719  43.223  1.00  0.00    -0.395 OA
ATOM     12  H5  UNL     1      64.345  35.964  44.141  1.00  0.00     0.210 HD
ENDBRANCH  10  11
BRANCH  10  13
HETATM   13  C16 UNL     1      65.432  33.664  43.844  1.00  0.00     0.052 C 
BRANCH  13  14
HETATM   14  C17 UNL     1      64.337  33.428  44.813  1.00  0.00     0.132 C 
BRANCH  14  15
HETATM   15  N1  UNL     1      63.794  32.100  44.751  1.00  0.00    -0.338 N 
HETATM   16  C18 UNL     1      64.381  31.130  45.529  1.00  0.00     0.109 A 
HETATM   17  C19 UNL     1      63.772  29.953  45.250  1.00  0.00     0.107 A 
HETATM   18  N2  UNL     1      62.837  30.195  44.332  1.00  0.00    -0.347 N 
HETATM   19  C20 UNL     1      62.858  31.516  44.033  1.00  0.00     0.192 A 
ATOM     20  H2  UNL     1      62.211  29.501  43.922  1.00  0.00     0.166 HD
BRANCH  19  21
HETATM   21  C21 UNL     1      61.867  32.078  43.078  1.00  0.00     0.449 C 
HETATM   22  F4  UNL     1      61.959  31.455  41.827  1.00  0.00    -0.163 F 
HETATM   23  F5  UNL     1      61.825  33.421  42.986  1.00  0.00    -0.163 F 
HETATM   24  F6  UNL     1      60.609  31.646  43.570  1.00  0.00    -0.163 F 
ENDBRANCH  19  21
ENDBRANCH  14  15
ENDBRANCH  13  14
ENDBRANCH  10  13
ENDBRANCH   9  10
BRANCH   1  25
HETATM   25  C8  UNL     1      67.016  35.635  39.927  1.00  0.00     0.299 C 
HETATM   26  O4  UNL     1      66.160  36.468  39.600  1.00  0.00    -0.261 OA
BRANCH  25  27
HETATM   27  O3  UNL     1      68.223  35.692  39.336  1.00  0.00    -0.317 OA
BRANCH  27  28
HETATM   28  C7  UNL     1      69.060  36.524  38.715  1.00  0.00     0.205 C 
BRANCH  28  29
HETATM   29  C6  UNL     1      68.643  37.246  37.464  1.00  0.00     0.205 C 
BRANCH  29  30
HETATM   30  O2  UNL     1      69.656  38.108  37.042  1.00  0.00    -0.319 OA
BRANCH  30  31
HETATM   31  C5  UNL     1      70.089  39.277  37.585  1.00  0.00     0.266 C 
HETATM   32  O1  UNL     1      69.278  40.207  37.793  1.00  0.00    -0.264 OA
BRANCH  31  33
HETATM   33  C2  UNL     1      71.520  39.461  37.933  1.00  0.00     0.037 C 
HETATM   34  C1  UNL     1      71.921  38.853  39.233  1.00  0.00     0.025 C 
HETATM   35  C3  UNL     1      72.374  38.813  36.845  1.00  0.00     0.025 C 
HETATM   36  C4  UNL     1      71.887  40.942  37.956  1.00  0.00     0.025 C 
ENDBRANCH  31  33
ENDBRANCH  30  31
ENDBRANCH  29  30
ENDBRANCH  28  29
ENDBRANCH  27  28
ENDBRANCH  25  27
ENDBRANCH   1  25
TORSDOF 13
ENDMDL
MODEL 2
REMARK VINA RESULT: -9.672972367      2.028      3.199
REMARK  13 active torsions:
REMARK  status: ('A' for Active; 'I' for Inactive)
REMARK    1  A    between atoms: C2_2  and  C5_5 
REMARK    2  A    between atoms: C5_5  and  O2_7 
REMARK    3  A    between atoms: O2_7  and  C6_8 
REMARK    4  A    between atoms: C6_8  and  C7_9 
REMARK    5  A    between atoms: C7_9  and  O3_10 
REMARK    6  A    between atoms: O3_10  and  C8_11 
REMARK    7  A    between atoms: C8_11  and  C9_13 
REMARK    8  A    between atoms: C14_21  and  C15_22 
REMARK    9  A    between atoms: C15_22  and  O5_23 
REMARK   10  A    between atoms: C15_22  and  C16_25 
REMARK   11  A    between atoms: C16_25  and  C17_26 
REMARK   12  A    between atoms: C17_26  and  N1_27 
REMARK   13  A    between atoms: C20_32  and  C21_33 
ROOT
HETATM    1  C9  UNL     1      66.289  34.457  41.122  1.00  0.00     0.202 C 
HETATM    2  F1  UNL     1      65.743  33.653  40.102  1.00  0.00    -0.231 F 
HETATM    3  C10 UNL     1      65.275  35.568  41.327  1.00  0.00     0.133 C 
HETATM    4  C11 UNL     1      64.162  35.286  42.255  1.00  0.00     0.247 C 
HETATM    5  F2  UNL     1      63.646  36.546  42.626  1.00  0.00    -0.206 F 
HETATM    6  F3  UNL     1      63.080  34.667  41.634  1.00  0.00    -0.206 F 
HETATM    7  C12 UNL     1      64.525  34.561  43.506  1.00  0.00     0.080 C 
HETATM    8  C13 UNL     1      65.942  34.105  43.605  1.00  0.00     0.017 C 
HETATM    9  C14 UNL     1      66.598  33.685  42.329  1.00  0.00     0.065 C 
ENDROOT
BRANCH   9  10
HETATM   10  C15 UNL     1      66.367  32.157  42.084  1.00  0.00     0.127 C 
BRANCH  10  11
HETATM   11  O5  UNL     1      67.491  31.601  41.584  1.00  0.00    -0.395 OA
ATOM     12  H5  UNL     1      67.516  31.720  40.642  1.00  0.00     0.210 HD
ENDBRANCH  10  11
BRANCH  10  13
HETATM   13  C16 UNL     1      65.740  31.517  43.227  1.00  0.00     0.052 C 
BRANCH  13  14
HETATM   14  C17 UNL     1      64.749  30.446  42.970  1.00  0.00     0.132 C 
BRANCH  14  15
HETATM   15  N1  UNL     1      63.387  30.891  43.071  1.00  0.00    -0.338 N 
HETATM   16  C18 UNL     1      62.816  31.467  41.961  1.00  0.00     0.109 A 
HETATM   17  C19 UNL     1      61.574  31.885  42.305  1.00  0.00     0.107 A 
HETATM   18  N2  UNL     1      61.389  31.570  43.586  1.00  0.00    -0.347 N 
HETATM   19  C20 UNL     1      62.506  30.959  44.047  1.00  0.00     0.192 A 
ATOM     20  H2  UNL     1      60.546  31.758  44.129  1.00  0.00     0.166 HD
BRANCH  19  21
HETATM   21  C21 UNL     1      62.550  30.439  45.440  1.00  0.00     0.449 C 
HETATM   22  F4  UNL     1      63.222  29.212  45.502  1.00  0.00    -0.163 F 
HETATM   23  F5  UNL     1      61.379  30.424  46.105  1.00  0.00    -0.163 F 
HETATM   24  F6  UNL     1      63.417  31.326  46.127  1.00  0.00    -0.163 F 
ENDBRANCH  19  21
ENDBRANCH  14  15
ENDBRANCH  13  14
ENDBRANCH  10  13
ENDBRANCH   9  10
BRANCH   1  25
HETATM   25  C8  UNL     1      67.440  35.154  40.446  1.00  0.00     0.299 C 
HETATM   26  O4  UNL     1      68.515  34.587  40.204  1.00  0.00    -0.261 OA
BRANCH  25  27
HETATM   27  O3  UNL     1      67.303  36.444  40.092  1.00  0.00    -0.317 OA
BRANCH  27  28
HETATM   28  C7  UNL     1      67.644  37.327  39.151  1.00  0.00     0.205 C 
BRANCH  28  29
HETATM   29  C6  UNL     1      67.981  38.747  39.512  1.00  0.00     0.205 C 
BRANCH  29  30
HETATM   30  O2  UNL     1      69.355  38.961  39.400  1.00  0.00    -0.319 OA
BRANCH  30  31
HETATM   31  C5  UNL     1      70.061  39.618  38.442  1.00  0.00     0.266 C 
HETATM   32  O1  UNL     1      69.489  40.456  37.709  1.00  0.00    -0.264 OA
BRANCH  31  33
HETATM   33  C2  UNL     1      71.509  39.351  38.256  1.00  0.00     0.037 C 
HETATM   34  C1  UNL     1      72.389  40.529  38.498  1.00  0.00     0.025 C 
HETATM   35  C3  UNL     1      71.933  38.257  39.235  1.00  0.00     0.025 C 
HETATM   36  C4  UNL     1      71.788  38.817  36.854  1.00  0.00     0.025 C 
ENDBRANCH  31  33
ENDBRANCH  30  31
ENDBRANCH  29  30
ENDBRANCH  28  29
ENDBRANCH  27  28
ENDBRANCH  25  27
ENDBRANCH   1  25
TORSDOF 13
ENDMDL
MODEL 3
REMARK VINA RESULT: -9.660483053      2.178      3.390
REMARK  13 active torsions:
REMARK  status: ('A' for Active; 'I' for Inactive)
REMARK    1  A    between atoms: C2_2  and  C5_5 
REMARK    2  A    between atoms: C5_5  and  O2_7 
REMARK    3  A    between atoms: O2_7  and  C6_8 
REMARK    4  A    between atoms: C6_8  and  C7_9 
REMARK    5  A    between atoms: C7_9  and  O3_10 
REMARK    6  A    between atoms: O3_10  and  C8_11 
REMARK    7  A    between atoms: C8_11  and  C9_13 
REMARK    8  A    between atoms: C14_21  and  C15_22 
REMARK    9  A    between atoms: C15_22  and  O5_23 
REMARK   10  A    between atoms: C15_22  and  C16_25 
REMARK   11  A    between atoms: C16_25  and  C17_26 
REMARK   12  A    between atoms: C17_26  and  N1_27 
REMARK   13  A    between atoms: C20_32  and  C21_33 
ROOT
HETATM    1  C9  UNL     1      65.999  34.212  41.377  1.00  0.00     0.202 C 
HETATM    2  F1  UNL     1      65.384  33.366  40.434  1.00  0.00    -0.231 F 
HETATM    3  C10 UNL     1      64.962  35.280  41.677  1.00  0.00     0.133 C 
HETATM    4  C11 UNL     1      63.971  34.965  42.725  1.00  0.00     0.247 C 
HETATM    5  F2  UNL     1      63.440  36.206  43.134  1.00  0.00    -0.206 F 
HETATM    6  F3  UNL     1      62.858  34.286  42.234  1.00  0.00    -0.206 F 
HETATM    7  C12 UNL     1      64.502  34.280  43.938  1.00  0.00     0.080 C 
HETATM    8  C13 UNL     1      65.941  33.890  43.888  1.00  0.00     0.017 C 
HETATM    9  C14 UNL     1      66.473  33.477  42.553  1.00  0.00     0.065 C 
ENDROOT
BRANCH   9  10
HETATM   10  C15 UNL     1      66.289  31.936  42.355  1.00  0.00     0.127 C 
BRANCH  10  11
HETATM   11  O5  UNL     1      67.329  31.440  41.652  1.00  0.00    -0.395 OA
ATOM     12  H5  UNL     1      67.008  30.861  40.971  1.00  0.00     0.210 HD
ENDBRANCH  10  11
BRANCH  10  13
HETATM   13  C16 UNL     1      65.927  31.273  43.595  1.00  0.00     0.052 C 
BRANCH  13  14
HETATM   14  C17 UNL     1      64.988  30.130  43.527  1.00  0.00     0.132 C 
BRANCH  14  15
HETATM   15  N1  UNL     1      63.648  30.466  43.924  1.00  0.00    -0.338 N 
HETATM   16  C18 UNL     1      62.869  31.161  43.030  1.00  0.00     0.109 A 
HETATM   17  C19 UNL     1      61.692  31.442  43.639  1.00  0.00     0.107 A 
HETATM   18  N2  UNL     1      61.747  30.930  44.868  1.00  0.00    -0.347 N 
HETATM   19  C20 UNL     1      62.952  30.332  45.033  1.00  0.00     0.192 A 
ATOM     20  H2  UNL     1      61.007  30.981  45.568  1.00  0.00     0.166 HD
BRANCH  19  21
HETATM   21  C21 UNL     1      63.259  29.616  46.299  1.00  0.00     0.449 C 
HETATM   22  F4  UNL     1      62.088  29.184  46.934  1.00  0.00    -0.163 F 
HETATM   23  F5  UNL     1      64.107  30.235  47.141  1.00  0.00    -0.163 F 
HETATM   24  F6  UNL     1      63.876  28.407  45.887  1.00  0.00    -0.163 F 
ENDBRANCH  19  21
ENDBRANCH  14  15
ENDBRANCH  13  14
ENDBRANCH  10  13
ENDBRANCH   9  10
BRANCH   1  25
HETATM   25  C8  UNL     1      67.036  34.948  40.570  1.00  0.00     0.299 C 
HETATM   26  O4  UNL     1      68.201  34.544  40.452  1.00  0.00    -0.261 OA
BRANCH  25  27
HETATM   27  O3  UNL     1      66.690  36.092  39.953  1.00  0.00    -0.317 OA
BRANCH  27  28
HETATM   28  C7  UNL     1      67.067  36.930  38.986  1.00  0.00     0.205 C 
BRANCH  28  29
HETATM   29  C6  UNL     1      68.049  38.035  39.263  1.00  0.00     0.205 C 
BRANCH  29  30
HETATM   30  O2  UNL     1      69.280  37.746  38.674  1.00  0.00    -0.319 OA
BRANCH  30  31
HETATM   31  C5  UNL     1      69.897  38.325  37.610  1.00  0.00     0.266 C 
HETATM   32  O1  UNL     1      69.449  38.146  36.455  1.00  0.00    -0.264 OA
BRANCH  31  33
HETATM   33  C2  UNL     1      71.100  39.172  37.805  1.00  0.00     0.037 C 
HETATM   34  C1  UNL     1      72.206  38.903  36.844  1.00  0.00     0.025 C 
HETATM   35  C3  UNL     1      70.699  40.636  37.639  1.00  0.00     0.025 C 
HETATM   36  C4  UNL     1      71.643  39.024  39.224  1.00  0.00     0.025 C 
ENDBRANCH  31  33
ENDBRANCH  30  31
ENDBRANCH  29  30
ENDBRANCH  28  29
ENDBRANCH  27  28
ENDBRANCH  25  27
ENDBRANCH   1  25
TORSDOF 13
ENDMDL
MODEL 4
REMARK VINA RESULT: -9.611658742      2.121      3.100
REMARK  13 active torsions:
REMARK  status: ('A' for Active; 'I' for Inactive)
REMARK    1  A    between atoms: C2_2  and  C5_5 
REMARK    2  A    between atoms: C5_5  and  O2_7 
REMARK    3  A    between atoms: O2_7  and  C6_8 
REMARK    4  A    between atoms: C6_8  and  C7_9 
REMARK    5  A    between atoms: C7_9  and  O3_10 
REMARK    6  A    between atoms: O3_10  and  C8_11 
REMARK    7  A    between atoms: C8_11  and  C9_13 
REMARK    8  A    between atoms: C14_21  and  C15_22 
REMARK    9  A    between atoms: C15_22  and  O5_23 
REMARK   10  A    between atoms: C15_22  and  C16_25 
REMARK   11  A    between atoms: C16_25  and  C17_26 
REMARK   12  A    between atoms: C17_26  and  N1_27 
REMARK   13  A    between atoms: C20_32  and  C21_33 
ROOT
HETATM    1  C9  UNL     1      64.720  33.987  41.844  1.00  0.00     0.202 C 
HETATM    2  F1  UNL     1      64.956  34.250  43.208  1.00  0.00    -0.231 F 
HETATM    3  C10 UNL     1      65.930  33.194  41.385  1.00  0.00     0.133 C 
HETATM    4  C11 UNL     1      65.883  31.733  41.593  1.00  0.00     0.247 C 
HETATM    5  F2  UNL     1      66.847  31.192  40.716  1.00  0.00    -0.206 F 
HETATM    6  F3  UNL     1      66.341  31.348  42.850  1.00  0.00    -0.206 F 
HETATM    7  C12 UNL     1      64.580  31.075  41.291  1.00  0.00     0.080 C 
HETATM    8  C13 UNL     1      63.455  31.990  40.938  1.00  0.00     0.017 C 
HETATM    9  C14 UNL     1      63.435  33.317  41.625  1.00  0.00     0.065 C 
ENDROOT
BRANCH   9  10
HETATM   10  C15 UNL     1      62.626  33.218  42.961  1.00  0.00     0.127 C 
BRANCH  10  11
HETATM   11  O5  UNL     1      61.395  33.744  42.788  1.00  0.00    -0.395 OA
ATOM     12  H5  UNL     1      61.318  34.549  43.286  1.00  0.00     0.210 HD
ENDBRANCH  10  11
BRANCH  10  13
HETATM   13  C16 UNL     1      62.725  31.896  43.553  1.00  0.00     0.052 C 
BRANCH  13  14
HETATM   14  C17 UNL     1      63.434  31.762  44.846  1.00  0.00     0.132 C 
BRANCH  14  15
HETATM   15  N1  UNL     1      63.222  30.494  45.487  1.00  0.00    -0.338 N 
HETATM   16  C18 UNL     1      62.042  30.309  46.168  1.00  0.00     0.109 A 
HETATM   17  C19 UNL     1      62.093  29.090  46.758  1.00  0.00     0.107 A 
HETATM   18  N2  UNL     1      63.267  28.544  46.444  1.00  0.00    -0.347 N 
HETATM   19  C20 UNL     1      63.952  29.413  45.662  1.00  0.00     0.192 A 
ATOM     20  H2  UNL     1      63.595  27.625  46.742  1.00  0.00     0.166 HD
BRANCH  19  21
HETATM   21  C21 UNL     1      65.278  29.028  45.108  1.00  0.00     0.449 C 
HETATM   22  F4  UNL     1      65.550  27.674  45.337  1.00  0.00    -0.163 F 
HETATM   23  F5  UNL     1      66.311  29.827  45.432  1.00  0.00    -0.163 F 
HETATM   24  F6  UNL     1      65.112  29.097  43.701  1.00  0.00    -0.163 F 
ENDBRANCH  19  21
ENDBRANCH  14  15
ENDBRANCH  13  14
ENDBRANCH  10  13
ENDBRANCH   9  10
BRANCH   1  25
HETATM   25  C8  UNL     1      64.910  35.329  41.187  1.00  0.00     0.299 C 
HETATM   26  O4  UNL     1      64.062  36.230  41.251  1.00  0.00    -0.261 OA
BRANCH  25  27
HETATM   27  O3  UNL     1      66.041  35.562  40.499  1.00  0.00    -0.317 OA
BRANCH  27  28
HETATM   28  C7  UNL     1      66.657  36.481  39.753  1.00  0.00     0.205 C 
BRANCH  28  29
HETATM   29  C6  UNL     1      67.142  36.152  38.368  1.00  0.00     0.205 C 
BRANCH  29  30
HETATM   30  O2  UNL     1      68.429  36.656  38.174  1.00  0.00    -0.319 OA
BRANCH  30  31
HETATM   31  C5  UNL     1      68.836  37.796  37.556  1.00  0.00     0.266 C 
HETATM   32  O1  UNL     1      68.862  37.854  36.306  1.00  0.00    -0.264 OA
BRANCH  31  33
HETATM   33  C2  UNL     1      69.249  38.978  38.352  1.00  0.00     0.037 C 
HETATM   34  C1  UNL     1      70.231  39.869  37.670  1.00  0.00     0.025 C 
HETATM   35  C3  UNL     1      68.010  39.817  38.661  1.00  0.00     0.025 C 
HETATM   36  C4  UNL     1      69.835  38.551  39.696  1.00  0.00     0.025 C 
ENDBRANCH  31  33
ENDBRANCH  30  31
ENDBRANCH  29  30
ENDBRANCH  28  29
ENDBRANCH  27  28
ENDBRANCH  25  27
ENDBRANCH   1  25
TORSDOF 13
ENDMDL
MODEL 5
REMARK VINA RESULT: -9.569270347      2.288      3.370
REMARK  13 active torsions:
REMARK  status: ('A' for Active; 'I' for Inactive)
REMARK    1  A    between atoms: C2_2  and  C5_5 
REMARK    2  A    between atoms: C5_5  and  O2_7 
REMARK    3  A    between atoms: O2_7  and  C6_8 
REMARK    4  A    between atoms: C6_8  and  C7_9 
REMARK    5  A    between atoms: C7_9  and  O3_10 
REMARK    6  A    between atoms: O3_10  and  C8_11 
REMARK    7  A    between atoms: C8_11  and  C9_13 
REMARK    8  A    between atoms: C14_21  and  C15_22 
REMARK    9  A    between atoms: C15_22  and  O5_23 
REMARK   10  A    between atoms: C15_22  and  C16_25 
REMARK   11  A    between atoms: C16_25  and  C17_26 
REMARK   12  A    between atoms: C17_26  and  N1_27 
REMARK   13  A    between atoms: C20_32  and  C21_33 
ROOT
HETATM    1  C9  UNL     1      66.145  34.194  41.189  1.00  0.00     0.202 C 
HETATM    2  F1  UNL     1      65.567  33.328  40.241  1.00  0.00    -0.231 F 
HETATM    3  C10 UNL     1      65.111  35.286  41.401  1.00  0.00     0.133 C 
HETATM    4  C11 UNL     1      64.061  35.019  42.403  1.00  0.00     0.247 C 
HETATM    5  F2  UNL     1      63.530  36.280  42.744  1.00  0.00    -0.206 F 
HETATM    6  F3  UNL     1      62.965  34.342  41.874  1.00  0.00    -0.206 F 
HETATM    7  C12 UNL     1      64.516  34.365  43.663  1.00  0.00     0.080 C 
HETATM    8  C13 UNL     1      65.950  33.952  43.702  1.00  0.00     0.017 C 
HETATM    9  C14 UNL     1      66.544  33.490  42.411  1.00  0.00     0.065 C 
ENDROOT
BRANCH   9  10
HETATM   10  C15 UNL     1      66.346  31.946  42.250  1.00  0.00     0.127 C 
BRANCH  10  11
HETATM   11  O5  UNL     1      67.395  31.419  41.586  1.00  0.00    -0.395 OA
ATOM     12  H5  UNL     1      67.470  30.493  41.788  1.00  0.00     0.210 HD
ENDBRANCH  10  11
BRANCH  10  13
HETATM   13  C16 UNL     1      65.946  31.322  43.499  1.00  0.00     0.052 C 
BRANCH  13  14
HETATM   14  C17 UNL     1      65.022  30.167  43.437  1.00  0.00     0.132 C 
BRANCH  14  15
HETATM   15  N1  UNL     1      63.687  30.479  43.868  1.00  0.00    -0.338 N 
HETATM   16  C18 UNL     1      62.900  31.229  43.027  1.00  0.00     0.109 A 
HETATM   17  C19 UNL     1      61.730  31.473  43.665  1.00  0.00     0.107 A 
HETATM   18  N2  UNL     1      61.796  30.885  44.859  1.00  0.00    -0.347 N 
HETATM   19  C20 UNL     1      63.001  30.276  44.974  1.00  0.00     0.192 A 
ATOM     20  H2  UNL     1      61.063  30.893  45.568  1.00  0.00     0.166 HD
BRANCH  19  21
HETATM   21  C21 UNL     1      63.320  29.482  46.190  1.00  0.00     0.449 C 
HETATM   22  F4  UNL     1      64.002  30.257  47.136  1.00  0.00    -0.163 F 
HETATM   23  F5  UNL     1      63.901  28.286  45.983  1.00  0.00    -0.163 F 
HETATM   24  F6  UNL     1      62.064  29.244  46.803  1.00  0.00    -0.163 F 
ENDBRANCH  19  21
ENDBRANCH  14  15
ENDBRANCH  13  14
ENDBRANCH  10  13
ENDBRANCH   9  10
BRANCH   1  25
HETATM   25  C8  UNL     1      67.235  34.889  40.416  1.00  0.00     0.299 C 
HETATM   26  O4  UNL     1      68.434  34.612  40.557  1.00  0.00    -0.261 OA
BRANCH  25  27
HETATM   27  O3  UNL     1      66.900  35.851  39.539  1.00  0.00    -0.317 OA
BRANCH  27  28
HETATM   28  C7  UNL     1      67.179  36.319  38.321  1.00  0.00     0.205 C 
BRANCH  28  29
HETATM   29  C6  UNL     1      66.455  37.517  37.770  1.00  0.00     0.205 C 
BRANCH  29  30
HETATM   30  O2  UNL     1      67.350  38.567  37.559  1.00  0.00    -0.319 OA
BRANCH  30  31
HETATM   31  C5  UNL     1      68.279  39.104  38.394  1.00  0.00     0.266 C 
HETATM   32  O1  UNL     1      67.919  39.635  39.469  1.00  0.00    -0.264 OA
BRANCH  31  33
HETATM   33  C2  UNL     1      69.719  39.065  38.043  1.00  0.00     0.037 C 
HETATM   34  C1  UNL     1      70.588  38.423  39.069  1.00  0.00     0.025 C 
HETATM   35  C3  UNL     1      69.885  38.274  36.746  1.00  0.00     0.025 C 
HETATM   36  C4  UNL     1      70.250  40.470  37.769  1.00  0.00     0.025 C 
ENDBRANCH  31  33
ENDBRANCH  30  31
ENDBRANCH  29  30
ENDBRANCH  28  29
ENDBRANCH  27  28
ENDBRANCH  25  27
ENDBRANCH   1  25
TORSDOF 13
ENDMDL
