MODEL 1
REMARK VINA RESULT: -9.895412111      0.000      0.000
REMARK  9 active torsions:
REMARK  status: ('A' for Active; 'I' for Inactive)
REMARK       I    between atoms: C1_2  and  N1_3 
REMARK    1  A    between atoms: C1_2  and  O2_8 
REMARK    2  A    between atoms: N1_3  and  C2_5 
REMARK    3  A    between atoms: C2_5  and  C3_6 
REMARK    4  A    between atoms: O2_8  and  C4_9 
REMARK    5  A    between atoms: C9_14  and  O3_15 
REMARK    6  A    between atoms: O3_15  and  C10_16 
REMARK    7  A    between atoms: C10_16  and  C11_17 
REMARK    8  A    between atoms: N3_21  and  C13_22 
REMARK    9  A    between atoms: C19_33  and  N4_34 
ROOT
HETATM    1  C11 UNL     1      68.354  37.187  39.282  1.00  0.00     0.085 A 
HETATM    2  N2  UNL     1      68.930  37.711  40.365  1.00  0.00    -0.350 N 
ATOM      3  H2  UNL     1      68.784  37.394  41.324  1.00  0.00     0.166 HD
HETATM    4  C12 UNL     1      69.731  38.721  39.995  1.00  0.00     0.191 A 
HETATM    5  N3  UNL     1      69.677  38.858  38.658  1.00  0.00    -0.281 N 
HETATM    6  C19 UNL     1      68.842  37.932  38.198  1.00  0.00     0.206 A 
ENDROOT
BRANCH   1   7
HETATM    7  C10 UNL     1      67.410  36.079  39.181  1.00  0.00     0.229 C 
BRANCH   7   8
HETATM    8  O3  UNL     1      66.629  35.831  40.275  1.00  0.00    -0.377 OA
BRANCH   8   9
HETATM    9  C9  UNL     1      67.089  34.911  41.178  1.00  0.00     0.151 C 
HETATM   10  C4  UNL     1      65.933  34.320  41.989  1.00  0.00     0.162 C 
HETATM   11  C5  UNL     1      66.296  32.993  42.587  1.00  0.00     0.035 C 
HETATM   12  C6  UNL     1      66.462  31.955  41.521  1.00  0.00     0.003 C 
HETATM   13  C7  UNL     1      67.043  32.610  40.306  1.00  0.00     0.003 C 
HETATM   14  C8  UNL     1      67.927  33.812  40.635  1.00  0.00     0.034 C 
BRANCH  10  15
HETATM   15  O2  UNL     1      64.763  34.157  41.219  1.00  0.00    -0.296 OA
BRANCH  15  16
HETATM   16  C1  UNL     1      63.548  33.862  41.859  1.00  0.00     0.361 C 
HETATM   17  O1  UNL     1      63.173  34.677  42.739  1.00  0.00    -0.239 OA
HETATM   18  N1  UNL     1      62.800  32.707  41.522  1.00  0.00    -0.336 N 
ATOM     19  H1  UNL     1      63.158  32.083  40.799  1.00  0.00     0.164 HD
BRANCH  18  20
HETATM   20  C2  UNL     1      61.557  32.384  42.161  1.00  0.00     0.140 C 
BRANCH  20  21
HETATM   21  C3  UNL     1      61.719  31.552  43.409  1.00  0.00     0.134 C 
HETATM   22 CL1  UNL     1      63.223  30.595  43.355  1.00  0.00    -0.129 Cl
ENDBRANCH  20  21
ENDBRANCH  18  20
ENDBRANCH  15  16
ENDBRANCH  10  15
ENDBRANCH   8   9
ENDBRANCH   7   8
ENDBRANCH   1   7
BRANCH   6  23
HETATM   23  N4  UNL     1      68.486  37.712  36.820  1.00  0.00    -0.095 N 
HETATM   24  O4  UNL     1      69.320  37.301  35.997  1.00  0.00    -0.530 OA
HETATM   25  O5  UNL     1      67.194  37.971  36.439  1.00  0.00    -0.530 OA
ENDBRANCH   6  23
BRANCH   5  26
HETATM   26  C13 UNL     1      70.406  39.835  37.923  1.00  0.00     0.126 A 
HETATM   27  C14 UNL     1      69.870  41.080  37.627  1.00  0.00     0.188 A 
HETATM   28  F1  UNL     1      68.618  41.377  38.049  1.00  0.00    -0.200 F 
HETATM   29  C15 UNL     1      70.648  41.968  36.909  1.00  0.00     0.199 A 
HETATM   30  F2  UNL     1      70.123  43.181  36.623  1.00  0.00    -0.199 F 
HETATM   31  C16 UNL     1      71.924  41.677  36.475  1.00  0.00     0.199 A 
HETATM   32  F3  UNL     1      72.677  42.572  35.763  1.00  0.00    -0.199 F 
HETATM   33  C17 UNL     1      72.459  40.432  36.770  1.00  0.00     0.199 A 
HETATM   34  F4  UNL     1      73.725  40.107  36.355  1.00  0.00    -0.199 F 
HETATM   35  C18 UNL     1      71.698  39.531  37.487  1.00  0.00     0.188 A 
HETATM   36  F5  UNL     1      72.237  38.305  37.773  1.00  0.00    -0.200 F 
ENDBRANCH   5  26
TORSDOF 9
ENDMDL
MODEL 2
REMARK VINA RESULT: -9.870699328      0.070      1.825
REMARK  9 active torsions:
REMARK  status: ('A' for Active; 'I' for Inactive)
REMARK       I    between atoms: C1_2  and  N1_3 
REMARK    1  A    between atoms: C1_2  and  O2_8 
REMARK    2  A    between atoms: N1_3  and  C2_5 
REMARK    3  A    between atoms: C2_5  and  C3_6 
REMARK    4  A    between atoms: O2_8  and  C4_9 
REMARK    5  A    between atoms: C9_14  and  O3_15 
REMARK    6  A    between atoms: O3_15  and  C10_16 
REMARK    7  A    between atoms: C10_16  and  C11_17 
REMARK    8  A    between atoms: N3_21  and  C13_22 
REMARK    9  A    between atoms: C19_33  and  N4_34 
ROOT
HETATM    1  C11 UNL     1      68.322  37.212  39.244  1.00  0.00     0.085 A 
HETATM    2  N2  UNL     1      68.870  37.748  40.337  1.00  0.00    -0.350 N 
ATOM      3  H2  UNL     1      68.678  37.458  41.296  1.00  0.00     0.166 HD
HETATM    4  C12 UNL     1      69.710  38.728  39.975  1.00  0.00     0.191 A 
HETATM    5  N3  UNL     1      69.712  38.834  38.635  1.00  0.00    -0.281 N 
HETATM    6  C19 UNL     1      68.871  37.918  38.164  1.00  0.00     0.206 A 
ENDROOT
BRANCH   1   7
HETATM    7  C10 UNL     1      67.355  36.126  39.132  1.00  0.00     0.229 C 
BRANCH   7   8
HETATM    8  O3  UNL     1      66.588  35.865  40.233  1.00  0.00    -0.377 OA
BRANCH   8   9
HETATM    9  C9  UNL     1      67.069  34.947  41.128  1.00  0.00     0.151 C 
HETATM   10  C4  UNL     1      65.927  34.331  41.941  1.00  0.00     0.162 C 
HETATM   11  C5  UNL     1      66.317  33.007  42.529  1.00  0.00     0.035 C 
HETATM   12  C6  UNL     1      66.496  31.979  41.455  1.00  0.00     0.003 C 
HETATM   13  C7  UNL     1      67.059  32.652  40.242  1.00  0.00     0.003 C 
HETATM   14  C8  UNL     1      67.923  33.867  40.575  1.00  0.00     0.034 C 
BRANCH  10  15
HETATM   15  O2  UNL     1      64.756  34.153  41.175  1.00  0.00    -0.296 OA
BRANCH  15  16
HETATM   16  C1  UNL     1      63.546  33.852  41.821  1.00  0.00     0.361 C 
HETATM   17  O1  UNL     1      63.172  34.666  42.703  1.00  0.00    -0.239 OA
HETATM   18  N1  UNL     1      62.800  32.695  41.487  1.00  0.00    -0.336 N 
ATOM     19  H1  UNL     1      63.157  32.073  40.761  1.00  0.00     0.164 HD
BRANCH  18  20
HETATM   20  C2  UNL     1      61.561  32.367  42.131  1.00  0.00     0.140 C 
BRANCH  20  21
HETATM   21  C3  UNL     1      61.735  31.581  43.407  1.00  0.00     0.134 C 
HETATM   22 CL1  UNL     1      63.231  30.610  43.367  1.00  0.00    -0.129 Cl
ENDBRANCH  20  21
ENDBRANCH  18  20
ENDBRANCH  15  16
ENDBRANCH  10  15
ENDBRANCH   8   9
ENDBRANCH   7   8
ENDBRANCH   1   7
BRANCH   6  23
HETATM   23  N4  UNL     1      68.563  37.675  36.778  1.00  0.00    -0.095 N 
HETATM   24  O4  UNL     1      69.431  37.270  35.987  1.00  0.00    -0.530 OA
HETATM   25  O5  UNL     1      67.279  37.903  36.354  1.00  0.00    -0.530 OA
ENDBRANCH   6  23
BRANCH   5  26
HETATM   26  C13 UNL     1      70.494  39.774  37.907  1.00  0.00     0.126 A 
HETATM   27  C14 UNL     1      71.784  39.485  37.484  1.00  0.00     0.188 A 
HETATM   28  F1  UNL     1      72.316  38.272  37.771  1.00  0.00    -0.200 F 
HETATM   29  C15 UNL     1      72.471  40.457  36.783  1.00  0.00     0.199 A 
HETATM   30  F2  UNL     1      73.727  40.171  36.372  1.00  0.00    -0.199 F 
HETATM   31  C16 UNL     1      71.939  41.694  36.485  1.00  0.00     0.199 A 
HETATM   32  F3  UNL     1      72.639  42.642  35.790  1.00  0.00    -0.199 F 
HETATM   33  C17 UNL     1      70.651  41.983  36.908  1.00  0.00     0.199 A 
HETATM   34  F4  UNL     1      70.089  43.203  36.631  1.00  0.00    -0.199 F 
HETATM   35  C18 UNL     1      69.947  41.026  37.610  1.00  0.00     0.188 A 
HETATM   36  F5  UNL     1      68.676  41.322  38.022  1.00  0.00    -0.200 F 
ENDBRANCH   5  26
TORSDOF 9
ENDMDL
MODEL 3
REMARK VINA RESULT: -9.785696256      5.922     10.666
REMARK  9 active torsions:
REMARK  status: ('A' for Active; 'I' for Inactive)
REMARK       I    between atoms: C1_2  and  N1_3 
REMARK    1  A    between atoms: C1_2  and  O2_8 
REMARK    2  A    between atoms: N1_3  and  C2_5 
REMARK    3  A    between atoms: C2_5  and  C3_6 
REMARK    4  A    between atoms: O2_8  and  C4_9 
REMARK    5  A    between atoms: C9_14  and  O3_15 
REMARK    6  A    between atoms: O3_15  and  C10_16 
REMARK    7  A    between atoms: C10_16  and  C11_17 
REMARK    8  A    between atoms: N3_21  and  C13_22 
REMARK    9  A    between atoms: C19_33  and  N4_34 
ROOT
HETATM    1  C11 UNL     1      67.103  33.225  40.846  1.00  0.00     0.085 A 
HETATM    2  N2  UNL     1      66.888  32.077  40.201  1.00  0.00    -0.350 N 
ATOM      3  H2  UNL     1      67.395  31.761  39.374  1.00  0.00     0.166 HD
HETATM    4  C12 UNL     1      65.901  31.406  40.810  1.00  0.00     0.191 A 
HETATM    5  N3  UNL     1      65.466  32.121  41.863  1.00  0.00    -0.281 N 
HETATM    6  C19 UNL     1      66.186  33.238  41.907  1.00  0.00     0.206 A 
ENDROOT
BRANCH   1   7
HETATM    7  C10 UNL     1      68.069  34.280  40.559  1.00  0.00     0.229 C 
BRANCH   7   8
HETATM    8  O3  UNL     1      67.797  35.095  39.497  1.00  0.00    -0.377 OA
BRANCH   8   9
HETATM    9  C9  UNL     1      67.286  36.335  39.773  1.00  0.00     0.151 C 
HETATM   10  C4  UNL     1      68.372  37.408  39.659  1.00  0.00     0.162 C 
HETATM   11  C5  UNL     1      67.784  38.771  39.438  1.00  0.00     0.035 C 
HETATM   12  C6  UNL     1      67.142  38.862  38.089  1.00  0.00     0.003 C 
HETATM   13  C7  UNL     1      66.540  37.532  37.758  1.00  0.00     0.003 C 
HETATM   14  C8  UNL     1      66.094  36.750  38.991  1.00  0.00     0.034 C 
BRANCH  10  15
HETATM   15  O2  UNL     1      69.285  37.142  38.617  1.00  0.00    -0.296 OA
BRANCH  15  16
HETATM   16  C1  UNL     1      70.410  37.966  38.455  1.00  0.00     0.361 C 
HETATM   17  O1  UNL     1      71.165  38.076  39.455  1.00  0.00    -0.239 OA
HETATM   18  N1  UNL     1      70.667  38.629  37.231  1.00  0.00    -0.336 N 
ATOM     19  H1  UNL     1      70.015  38.501  36.456  1.00  0.00     0.164 HD
BRANCH  18  20
HETATM   20  C2  UNL     1      71.809  39.476  37.040  1.00  0.00     0.140 C 
BRANCH  20  21
HETATM   21  C3  UNL     1      71.454  40.888  36.644  1.00  0.00     0.134 C 
HETATM   22 CL1  UNL     1      69.985  41.445  37.488  1.00  0.00    -0.129 Cl
ENDBRANCH  20  21
ENDBRANCH  18  20
ENDBRANCH  15  16
ENDBRANCH  10  15
ENDBRANCH   8   9
ENDBRANCH   7   8
ENDBRANCH   1   7
BRANCH   6  23
HETATM   23  N4  UNL     1      66.060  34.296  42.875  1.00  0.00    -0.095 N 
HETATM   24  O4  UNL     1      66.752  34.312  43.906  1.00  0.00    -0.530 OA
HETATM   25  O5  UNL     1      65.150  35.292  42.627  1.00  0.00    -0.530 OA
ENDBRANCH   6  23
BRANCH   5  26
HETATM   26  C13 UNL     1      64.423  31.706  42.737  1.00  0.00     0.126 A 
HETATM   27  C14 UNL     1      63.084  31.911  42.431  1.00  0.00     0.188 A 
HETATM   28  F1  UNL     1      62.760  32.521  41.266  1.00  0.00    -0.200 F 
HETATM   29  C15 UNL     1      62.137  31.476  43.337  1.00  0.00     0.199 A 
HETATM   30  F2  UNL     1      60.834  31.676  43.035  1.00  0.00    -0.199 F 
HETATM   31  C16 UNL     1      62.455  30.853  44.525  1.00  0.00     0.199 A 
HETATM   32  F3  UNL     1      61.499  30.431  45.409  1.00  0.00    -0.199 F 
HETATM   33  C17 UNL     1      63.793  30.649  44.831  1.00  0.00     0.199 A 
HETATM   34  F4  UNL     1      64.148  30.033  46.004  1.00  0.00    -0.199 F 
HETATM   35  C18 UNL     1      64.754  31.076  43.939  1.00  0.00     0.188 A 
HETATM   36  F5  UNL     1      66.072  30.870  44.252  1.00  0.00    -0.200 F 
ENDBRANCH   5  26
TORSDOF 9
ENDMDL
MODEL 4
REMARK VINA RESULT: -9.674636727      6.050     10.852
REMARK  9 active torsions:
REMARK  status: ('A' for Active; 'I' for Inactive)
REMARK       I    between atoms: C1_2  and  N1_3 
REMARK    1  A    between atoms: C1_2  and  O2_8 
REMARK    2  A    between atoms: N1_3  and  C2_5 
REMARK    3  A    between atoms: C2_5  and  C3_6 
REMARK    4  A    between atoms: O2_8  and  C4_9 
REMARK    5  A    between atoms: C9_14  and  O3_15 
REMARK    6  A    between atoms: O3_15  and  C10_16 
REMARK    7  A    between atoms: C10_16  and  C11_17 
REMARK    8  A    between atoms: N3_21  and  C13_22 
REMARK    9  A    between atoms: C19_33  and  N4_34 
ROOT
HETATM    1  C11 UNL     1      67.122  33.172  40.910  1.00  0.00     0.085 A 
HETATM    2  N2  UNL     1      66.908  32.031  40.252  1.00  0.00    -0.350 N 
ATOM      3  H2  UNL     1      67.421  31.719  39.428  1.00  0.00     0.166 HD
HETATM    4  C12 UNL     1      65.910  31.359  40.846  1.00  0.00     0.191 A 
HETATM    5  N3  UNL     1      65.469  32.068  41.901  1.00  0.00    -0.281 N 
HETATM    6  C19 UNL     1      66.194  33.180  41.962  1.00  0.00     0.206 A 
ENDROOT
BRANCH   1   7
HETATM    7  C10 UNL     1      68.096  34.224  40.642  1.00  0.00     0.229 C 
BRANCH   7   8
HETATM    8  O3  UNL     1      67.850  35.036  39.570  1.00  0.00    -0.377 OA
BRANCH   8   9
HETATM    9  C9  UNL     1      67.301  36.263  39.826  1.00  0.00     0.151 C 
HETATM   10  C4  UNL     1      68.348  37.370  39.678  1.00  0.00     0.162 C 
HETATM   11  C5  UNL     1      67.712  38.707  39.435  1.00  0.00     0.035 C 
HETATM   12  C6  UNL     1      67.054  38.748  38.092  1.00  0.00     0.003 C 
HETATM   13  C7  UNL     1      66.494  37.391  37.794  1.00  0.00     0.003 C 
HETATM   14  C8  UNL     1      66.087  36.621  39.049  1.00  0.00     0.034 C 
BRANCH  10  15
HETATM   15  O2  UNL     1      69.259  37.112  38.632  1.00  0.00    -0.296 OA
BRANCH  15  16
HETATM   16  C1  UNL     1      70.322  38.001  38.406  1.00  0.00     0.361 C 
HETATM   17  O1  UNL     1      71.135  38.146  39.355  1.00  0.00    -0.239 OA
HETATM   18  N1  UNL     1      70.459  38.688  37.176  1.00  0.00    -0.336 N 
ATOM     19  H1  UNL     1      69.766  38.529  36.444  1.00  0.00     0.164 HD
BRANCH  18  20
HETATM   20  C2  UNL     1      71.537  39.600  36.920  1.00  0.00     0.140 C 
BRANCH  20  21
HETATM   21  C3  UNL     1      71.191  41.039  37.214  1.00  0.00     0.134 C 
HETATM   22 CL1  UNL     1      71.267  42.035  35.736  1.00  0.00    -0.129 Cl
ENDBRANCH  20  21
ENDBRANCH  18  20
ENDBRANCH  15  16
ENDBRANCH  10  15
ENDBRANCH   8   9
ENDBRANCH   7   8
ENDBRANCH   1   7
BRANCH   6  23
HETATM   23  N4  UNL     1      66.064  34.231  42.938  1.00  0.00    -0.095 N 
HETATM   24  O4  UNL     1      66.746  34.234  43.976  1.00  0.00    -0.530 OA
HETATM   25  O5  UNL     1      65.163  35.234  42.689  1.00  0.00    -0.530 OA
ENDBRANCH   6  23
BRANCH   5  26
HETATM   26  C13 UNL     1      64.415  31.651  42.761  1.00  0.00     0.126 A 
HETATM   27  C14 UNL     1      64.636  30.793  43.830  1.00  0.00     0.188 A 
HETATM   28  F1  UNL     1      65.891  30.340  44.064  1.00  0.00    -0.200 F 
HETATM   29  C15 UNL     1      63.555  30.440  44.614  1.00  0.00     0.199 A 
HETATM   30  F2  UNL     1      63.774  29.606  45.655  1.00  0.00    -0.199 F 
HETATM   31  C16 UNL     1      62.273  30.896  44.386  1.00  0.00     0.199 A 
HETATM   32  F3  UNL     1      61.216  30.532  45.175  1.00  0.00    -0.199 F 
HETATM   33  C17 UNL     1      62.053  31.752  43.317  1.00  0.00     0.199 A 
HETATM   34  F4  UNL     1      60.792  32.226  43.059  1.00  0.00    -0.199 F 
HETATM   35  C18 UNL     1      63.119  32.117  42.522  1.00  0.00     0.188 A 
HETATM   36  F5  UNL     1      62.889  32.963  41.470  1.00  0.00    -0.200 F 
ENDBRANCH   5  26
TORSDOF 9
ENDMDL
MODEL 5
REMARK VINA RESULT: -9.587095121      6.098     10.912
REMARK  9 active torsions:
REMARK  status: ('A' for Active; 'I' for Inactive)
REMARK       I    between atoms: C1_2  and  N1_3 
REMARK    1  A    between atoms: C1_2  and  O2_8 
REMARK    2  A    between atoms: N1_3  and  C2_5 
REMARK    3  A    between atoms: C2_5  and  C3_6 
REMARK    4  A    between atoms: O2_8  and  C4_9 
REMARK    5  A    between atoms: C9_14  and  O3_15 
REMARK    6  A    between atoms: O3_15  and  C10_16 
REMARK    7  A    between atoms: C10_16  and  C11_17 
REMARK    8  A    between atoms: N3_21  and  C13_22 
REMARK    9  A    between atoms: C19_33  and  N4_34 
ROOT
HETATM    1  C11 UNL     1      66.798  33.806  41.486  1.00  0.00     0.085 A 
HETATM    2  N2  UNL     1      66.804  34.599  42.559  1.00  0.00    -0.350 N 
ATOM      3  H2  UNL     1      67.297  35.489  42.633  1.00  0.00     0.166 HD
HETATM    4  C12 UNL     1      66.060  34.041  43.525  1.00  0.00     0.191 A 
HETATM    5  N3  UNL     1      65.563  32.873  43.079  1.00  0.00    -0.281 N 
HETATM    6  C19 UNL     1      65.999  32.707  41.835  1.00  0.00     0.206 A 
ENDROOT
BRANCH   1   7
HETATM    7  C10 UNL     1      67.459  33.987  40.198  1.00  0.00     0.229 C 
BRANCH   7   8
HETATM    8  O3  UNL     1      68.202  35.123  40.040  1.00  0.00    -0.377 OA
BRANCH   8   9
HETATM    9  C9  UNL     1      67.533  36.317  40.050  1.00  0.00     0.151 C 
HETATM   10  C4  UNL     1      68.493  37.480  39.785  1.00  0.00     0.162 C 
HETATM   11  C5  UNL     1      67.767  38.693  39.281  1.00  0.00     0.035 C 
HETATM   12  C6  UNL     1      67.215  38.453  37.910  1.00  0.00     0.003 C 
HETATM   13  C7  UNL     1      66.796  37.019  37.811  1.00  0.00     0.003 C 
HETATM   14  C8  UNL     1      66.359  36.426  39.148  1.00  0.00     0.034 C 
BRANCH  10  15
HETATM   15  O2  UNL     1      69.500  37.146  38.857  1.00  0.00    -0.296 OA
BRANCH  15  16
HETATM   16  C1  UNL     1      70.570  38.031  38.648  1.00  0.00     0.361 C 
HETATM   17  O1  UNL     1      71.286  38.282  39.650  1.00  0.00    -0.239 OA
HETATM   18  N1  UNL     1      70.815  38.602  37.375  1.00  0.00    -0.336 N 
ATOM     19  H1  UNL     1      70.197  38.360  36.600  1.00  0.00     0.164 HD
BRANCH  18  20
HETATM   20  C2  UNL     1      71.901  39.508  37.136  1.00  0.00     0.140 C 
BRANCH  20  21
HETATM   21  C3  UNL     1      71.465  40.835  36.566  1.00  0.00     0.134 C 
HETATM   22 CL1  UNL     1      70.076  41.499  37.467  1.00  0.00    -0.129 Cl
ENDBRANCH  20  21
ENDBRANCH  18  20
ENDBRANCH  15  16
ENDBRANCH  10  15
ENDBRANCH   8   9
ENDBRANCH   7   8
ENDBRANCH   1   7
BRANCH   6  23
HETATM   23  N4  UNL     1      65.711  31.590  40.972  1.00  0.00    -0.095 N 
HETATM   24  O4  UNL     1      64.629  31.506  40.367  1.00  0.00    -0.530 OA
HETATM   25  O5  UNL     1      66.668  30.617  40.835  1.00  0.00    -0.530 OA
ENDBRANCH   6  23
BRANCH   5  26
HETATM   26  C13 UNL     1      64.726  32.015  43.846  1.00  0.00     0.126 A 
HETATM   27  C14 UNL     1      65.235  31.188  44.838  1.00  0.00     0.188 A 
HETATM   28  F1  UNL     1      66.567  31.199  45.086  1.00  0.00    -0.200 F 
HETATM   29  C15 UNL     1      64.351  30.387  45.533  1.00  0.00     0.199 A 
HETATM   30  F2  UNL     1      64.850  29.584  46.500  1.00  0.00    -0.199 F 
HETATM   31  C16 UNL     1      62.994  30.368  45.289  1.00  0.00     0.199 A 
HETATM   32  F3  UNL     1      62.135  29.565  45.990  1.00  0.00    -0.199 F 
HETATM   33  C17 UNL     1      62.485  31.194  44.297  1.00  0.00     0.199 A 
HETATM   34  F4  UNL     1      61.141  31.202  44.026  1.00  0.00    -0.199 F 
HETATM   35  C18 UNL     1      63.352  32.002  43.591  1.00  0.00     0.188 A 
HETATM   36  F5  UNL     1      62.839  32.812  42.614  1.00  0.00    -0.200 F 
ENDBRANCH   5  26
TORSDOF 9
ENDMDL
