MODEL 1
REMARK VINA RESULT: -9.238254949      0.000      0.000
REMARK  8 active torsions:
REMARK  status: ('A' for Active; 'I' for Inactive)
REMARK    1  A    between atoms: O1_2  and  C2_3 
REMARK    2  A    between atoms: C3_6  and  C4_7 
REMARK    3  A    between atoms: C5_9  and  C6_10 
REMARK    4  A    between atoms: C6_10  and  C7_12 
REMARK    5  A    between atoms: C7_12  and  C8_13 
REMARK    6  A    between atoms: C9_16  and  C10_17 
REMARK    7  A    between atoms: C10_17  and  C11_18 
REMARK    8  A    between atoms: C13_21  and  C14_22 
ROOT
HETATM    1  C2  UNL     1      63.646  34.965  42.490  1.00  0.00     0.223 A 
HETATM    2  N1  UNL     1      62.935  33.918  42.944  1.00  0.00    -0.324 N 
ATOM      3  H1  UNL     1      61.933  34.033  43.100  1.00  0.00     0.169 HD
HETATM    4  C3  UNL     1      63.510  32.705  43.203  1.00  0.00     0.042 A 
HETATM    5  C5  UNL     1      64.872  32.599  42.976  1.00  0.00     0.057 A 
HETATM    6  C9  UNL     1      65.612  33.667  42.512  1.00  0.00     0.034 A 
HETATM    7  N3  UNL     1      64.970  34.839  42.278  1.00  0.00    -0.325 N 
ATOM      8  H3  UNL     1      65.500  35.641  41.935  1.00  0.00     0.169 HD
ENDROOT
BRANCH   6   9
HETATM    9  C10 UNL     1      67.072  33.524  42.308  1.00  0.00     0.115 C 
BRANCH   9  10
HETATM   10  C11 UNL     1      67.417  34.104  40.946  1.00  0.00     0.022 A 
HETATM   11  C12 UNL     1      67.428  33.288  39.842  1.00  0.00     0.077 A 
HETATM   12  S1  UNL     1      67.860  34.389  38.607  1.00  0.00    -0.081 SA
HETATM   13  C13 UNL     1      68.001  35.815  39.568  1.00  0.00     0.090 A 
HETATM   14  N2  UNL     1      67.706  35.352  40.773  1.00  0.00    -0.352 N 
ATOM     15  H2  UNL     1      67.708  35.986  41.573  1.00  0.00     0.166 HD
BRANCH  13  16
HETATM   16  C14 UNL     1      68.351  37.163  39.141  1.00  0.00     0.081 A 
HETATM   17  C15 UNL     1      69.656  37.532  39.076  1.00  0.00     0.174 A 
HETATM   18  F1  UNL     1      70.657  36.681  39.396  1.00  0.00    -0.202 F 
HETATM   19  C16 UNL     1      70.007  38.830  38.667  1.00  0.00     0.197 A 
HETATM   20  F2  UNL     1      71.291  39.241  38.587  1.00  0.00    -0.199 F 
HETATM   21  C17 UNL     1      69.004  39.713  38.335  1.00  0.00     0.199 A 
HETATM   22  F3  UNL     1      69.318  40.970  37.936  1.00  0.00    -0.199 F 
HETATM   23  C18 UNL     1      67.664  39.318  38.408  1.00  0.00     0.197 A 
HETATM   24  F4  UNL     1      66.715  40.228  38.071  1.00  0.00    -0.199 F 
HETATM   25  C19 UNL     1      67.355  38.039  38.813  1.00  0.00     0.174 A 
HETATM   26  F5  UNL     1      66.072  37.635  38.891  1.00  0.00    -0.202 F 
ENDBRANCH  13  16
ENDBRANCH   9  10
ENDBRANCH   6   9
BRANCH   5  27
HETATM   27  C6  UNL     1      65.518  31.337  43.234  1.00  0.00     0.173 C 
HETATM   28  O2  UNL     1      65.633  30.495  42.271  1.00  0.00    -0.292 OA
BRANCH  27  29
HETATM   29  C7  UNL     1      66.058  30.946  44.539  1.00  0.00     0.197 C 
BRANCH  29  30
HETATM   30  C8  UNL     1      65.425  29.796  45.192  1.00  0.00     0.180 C 
HETATM   31  O3  UNL     1      64.647  29.960  46.154  1.00  0.00    -0.648 OA
HETATM   32  O4  UNL     1      65.625  28.458  44.812  1.00  0.00    -0.648 OA
ENDBRANCH  29  30
ENDBRANCH  27  29
ENDBRANCH   5  27
BRANCH   4  33
HETATM   33  C4  UNL     1      62.693  31.609  43.724  1.00  0.00     0.172 C 
HETATM   34 CL1  UNL     1      60.985  31.753  43.225  1.00  0.00    -0.124 Cl
ENDBRANCH   4  33
BRANCH   1  35
HETATM   35  O1  UNL     1      63.010  36.180  42.241  1.00  0.00    -0.327 OA
HETATM   36  C1  UNL     1      63.001  37.200  43.215  1.00  0.00     0.213 C 
ENDBRANCH   1  35
TORSDOF 8
ENDMDL
MODEL 2
REMARK VINA RESULT: -9.170972420      0.106      1.840
REMARK  8 active torsions:
REMARK  status: ('A' for Active; 'I' for Inactive)
REMARK    1  A    between atoms: O1_2  and  C2_3 
REMARK    2  A    between atoms: C3_6  and  C4_7 
REMARK    3  A    between atoms: C5_9  and  C6_10 
REMARK    4  A    between atoms: C6_10  and  C7_12 
REMARK    5  A    between atoms: C7_12  and  C8_13 
REMARK    6  A    between atoms: C9_16  and  C10_17 
REMARK    7  A    between atoms: C10_17  and  C11_18 
REMARK    8  A    between atoms: C13_21  and  C14_22 
ROOT
HETATM    1  C2  UNL     1      63.669  35.008  42.548  1.00  0.00     0.223 A 
HETATM    2  N1  UNL     1      62.946  33.964  42.990  1.00  0.00    -0.324 N 
ATOM      3  H1  UNL     1      61.945  34.089  43.149  1.00  0.00     0.169 HD
HETATM    4  C3  UNL     1      63.507  32.742  43.235  1.00  0.00     0.042 A 
HETATM    5  C5  UNL     1      64.868  32.623  43.005  1.00  0.00     0.057 A 
HETATM    6  C9  UNL     1      65.619  33.687  42.553  1.00  0.00     0.034 A 
HETATM    7  N3  UNL     1      64.991  34.870  42.334  1.00  0.00    -0.325 N 
ATOM      8  H3  UNL     1      65.530  35.669  41.999  1.00  0.00     0.169 HD
ENDROOT
BRANCH   6   9
HETATM    9  C10 UNL     1      67.077  33.529  42.345  1.00  0.00     0.115 C 
BRANCH   9  10
HETATM   10  C11 UNL     1      67.423  34.093  40.977  1.00  0.00     0.022 A 
HETATM   11  C12 UNL     1      67.404  33.270  39.878  1.00  0.00     0.077 A 
HETATM   12  S1  UNL     1      67.850  34.353  38.632  1.00  0.00    -0.081 SA
HETATM   13  C13 UNL     1      68.033  35.781  39.582  1.00  0.00     0.090 A 
HETATM   14  N2  UNL     1      67.739  35.333  40.793  1.00  0.00    -0.352 N 
ATOM     15  H2  UNL     1      67.763  35.971  41.588  1.00  0.00     0.166 HD
BRANCH  13  16
HETATM   16  C14 UNL     1      68.411  37.118  39.143  1.00  0.00     0.081 A 
HETATM   17  C15 UNL     1      67.447  38.027  38.844  1.00  0.00     0.174 A 
HETATM   18  F1  UNL     1      66.131  37.732  38.942  1.00  0.00    -0.202 F 
HETATM   19  C16 UNL     1      67.799  39.318  38.417  1.00  0.00     0.197 A 
HETATM   20  F2  UNL     1      66.875  40.255  38.109  1.00  0.00    -0.199 F 
HETATM   21  C17 UNL     1      69.133  39.641  38.312  1.00  0.00     0.199 A 
HETATM   22  F3  UNL     1      69.496  40.881  37.904  1.00  0.00    -0.199 F 
HETATM   23  C18 UNL     1      70.114  38.693  38.623  1.00  0.00     0.197 A 
HETATM   24  F4  UNL     1      71.415  39.062  38.501  1.00  0.00    -0.199 F 
HETATM   25  C19 UNL     1      69.735  37.436  39.038  1.00  0.00     0.174 A 
HETATM   26  F5  UNL     1      70.662  36.506  39.344  1.00  0.00    -0.202 F 
ENDBRANCH  13  16
ENDBRANCH   9  10
ENDBRANCH   6   9
BRANCH   5  27
HETATM   27  C6  UNL     1      65.499  31.350  43.248  1.00  0.00     0.173 C 
HETATM   28  O2  UNL     1      65.588  30.512  42.279  1.00  0.00    -0.292 OA
BRANCH  27  29
HETATM   29  C7  UNL     1      66.052  30.945  44.543  1.00  0.00     0.197 C 
BRANCH  29  30
HETATM   30  C8  UNL     1      65.416  29.795  45.195  1.00  0.00     0.180 C 
HETATM   31  O3  UNL     1      64.607  29.963  46.130  1.00  0.00    -0.648 OA
HETATM   32  O4  UNL     1      65.648  28.455  44.844  1.00  0.00    -0.648 OA
ENDBRANCH  29  30
ENDBRANCH  27  29
ENDBRANCH   5  27
BRANCH   4  33
HETATM   33  C4  UNL     1      62.678  31.649  43.744  1.00  0.00     0.172 C 
HETATM   34 CL1  UNL     1      60.992  31.765  43.168  1.00  0.00    -0.124 Cl
ENDBRANCH   4  33
BRANCH   1  35
HETATM   35  O1  UNL     1      63.046  36.233  42.314  1.00  0.00    -0.327 OA
HETATM   36  C1  UNL     1      63.171  37.291  43.239  1.00  0.00     0.213 C 
ENDBRANCH   1  35
TORSDOF 8
ENDMDL
MODEL 3
REMARK VINA RESULT: -9.047762364      1.013      2.111
REMARK  8 active torsions:
REMARK  status: ('A' for Active; 'I' for Inactive)
REMARK    1  A    between atoms: O1_2  and  C2_3 
REMARK    2  A    between atoms: C3_6  and  C4_7 
REMARK    3  A    between atoms: C5_9  and  C6_10 
REMARK    4  A    between atoms: C6_10  and  C7_12 
REMARK    5  A    between atoms: C7_12  and  C8_13 
REMARK    6  A    between atoms: C9_16  and  C10_17 
REMARK    7  A    between atoms: C10_17  and  C11_18 
REMARK    8  A    between atoms: C13_21  and  C14_22 
ROOT
HETATM    1  C2  UNL     1      63.141  34.488  43.082  1.00  0.00     0.223 A 
HETATM    2  N1  UNL     1      62.447  33.375  43.377  1.00  0.00    -0.324 N 
ATOM      3  H1  UNL     1      61.435  33.441  43.495  1.00  0.00     0.169 HD
HETATM    4  C3  UNL     1      63.053  32.158  43.526  1.00  0.00     0.042 A 
HETATM    5  C5  UNL     1      64.427  32.121  43.357  1.00  0.00     0.057 A 
HETATM    6  C9  UNL     1      65.148  33.257  43.055  1.00  0.00     0.034 A 
HETATM    7  N3  UNL     1      64.477  34.428  42.924  1.00  0.00    -0.325 N 
ATOM      8  H3  UNL     1      64.993  35.279  42.701  1.00  0.00     0.169 HD
ENDROOT
BRANCH   6   9
HETATM    9  C10 UNL     1      66.621  33.182  42.910  1.00  0.00     0.115 C 
BRANCH   9  10
HETATM   10  C11 UNL     1      66.973  33.554  41.479  1.00  0.00     0.022 A 
HETATM   11  C12 UNL     1      66.946  32.592  40.500  1.00  0.00     0.077 A 
HETATM   12  S1  UNL     1      67.404  33.494  39.121  1.00  0.00    -0.081 SA
HETATM   13  C13 UNL     1      67.601  35.035  39.872  1.00  0.00     0.090 A 
HETATM   14  N2  UNL     1      67.302  34.755  41.132  1.00  0.00    -0.352 N 
ATOM     15  H2  UNL     1      67.333  35.493  41.835  1.00  0.00     0.166 HD
BRANCH  13  16
HETATM   16  C14 UNL     1      67.993  36.297  39.259  1.00  0.00     0.081 A 
HETATM   17  C15 UNL     1      67.042  37.201  38.911  1.00  0.00     0.174 A 
HETATM   18  F1  UNL     1      65.726  36.970  39.117  1.00  0.00    -0.202 F 
HETATM   19  C16 UNL     1      67.407  38.421  38.317  1.00  0.00     0.197 A 
HETATM   20  F2  UNL     1      66.497  39.351  37.954  1.00  0.00    -0.199 F 
HETATM   21  C17 UNL     1      68.742  38.678  38.099  1.00  0.00     0.199 A 
HETATM   22  F3  UNL     1      69.119  39.849  37.529  1.00  0.00    -0.199 F 
HETATM   23  C18 UNL     1      69.711  37.736  38.463  1.00  0.00     0.197 A 
HETATM   24  F4  UNL     1      71.012  38.039  38.224  1.00  0.00    -0.199 F 
HETATM   25  C19 UNL     1      69.318  36.550  39.043  1.00  0.00     0.174 A 
HETATM   26  F5  UNL     1      70.232  35.627  39.402  1.00  0.00    -0.202 F 
ENDBRANCH  13  16
ENDBRANCH   9  10
ENDBRANCH   6   9
BRANCH   5  27
HETATM   27  C6  UNL     1      65.105  30.857  43.502  1.00  0.00     0.173 C 
HETATM   28  O2  UNL     1      65.313  30.145  42.454  1.00  0.00    -0.292 OA
BRANCH  27  29
HETATM   29  C7  UNL     1      65.578  30.325  44.784  1.00  0.00     0.197 C 
BRANCH  29  30
HETATM   30  C8  UNL     1      65.196  28.945  45.100  1.00  0.00     0.180 C 
HETATM   31  O3  UNL     1      64.114  28.700  45.672  1.00  0.00    -0.648 OA
HETATM   32  O4  UNL     1      65.978  27.817  44.803  1.00  0.00    -0.648 OA
ENDBRANCH  29  30
ENDBRANCH  27  29
ENDBRANCH   5  27
BRANCH   4  33
HETATM   33  C4  UNL     1      62.252  30.985  43.877  1.00  0.00     0.172 C 
HETATM   34 CL1  UNL     1      62.016  30.841  45.641  1.00  0.00    -0.124 Cl
ENDBRANCH   4  33
BRANCH   1  35
HETATM   35  O1  UNL     1      62.474  35.704  42.941  1.00  0.00    -0.327 OA
HETATM   36  C1  UNL     1      63.155  36.924  43.132  1.00  0.00     0.213 C 
ENDBRANCH   1  35
TORSDOF 8
ENDMDL
MODEL 4
REMARK VINA RESULT: -8.757392219      1.617      4.333
REMARK  8 active torsions:
REMARK  status: ('A' for Active; 'I' for Inactive)
REMARK    1  A    between atoms: O1_2  and  C2_3 
REMARK    2  A    between atoms: C3_6  and  C4_7 
REMARK    3  A    between atoms: C5_9  and  C6_10 
REMARK    4  A    between atoms: C6_10  and  C7_12 
REMARK    5  A    between atoms: C7_12  and  C8_13 
REMARK    6  A    between atoms: C9_16  and  C10_17 
REMARK    7  A    between atoms: C10_17  and  C11_18 
REMARK    8  A    between atoms: C13_21  and  C14_22 
ROOT
HETATM    1  C2  UNL     1      64.758  30.088  43.871  1.00  0.00     0.223 A 
HETATM    2  N1  UNL     1      63.477  30.423  43.634  1.00  0.00    -0.324 N 
ATOM      3  H1  UNL     1      62.761  29.697  43.678  1.00  0.00     0.169 HD
HETATM    4  C3  UNL     1      63.104  31.704  43.334  1.00  0.00     0.042 A 
HETATM    5  C5  UNL     1      64.113  32.652  43.286  1.00  0.00     0.057 A 
HETATM    6  C9  UNL     1      65.429  32.319  43.527  1.00  0.00     0.034 A 
HETATM    7  N3  UNL     1      65.721  31.026  43.817  1.00  0.00    -0.325 N 
ATOM      8  H3  UNL     1      66.690  30.761  43.998  1.00  0.00     0.169 HD
ENDROOT
BRANCH   6   9
HETATM    9  C10 UNL     1      66.484  33.356  43.439  1.00  0.00     0.115 C 
BRANCH   9  10
HETATM   10  C11 UNL     1      66.839  33.544  41.973  1.00  0.00     0.022 A 
HETATM   11  C12 UNL     1      66.894  32.454  41.141  1.00  0.00     0.077 A 
HETATM   12  S1  UNL     1      67.320  33.180  39.653  1.00  0.00    -0.081 SA
HETATM   13  C13 UNL     1      67.402  34.821  40.178  1.00  0.00     0.090 A 
HETATM   14  N2  UNL     1      67.097  34.703  41.462  1.00  0.00    -0.352 N 
ATOM     15  H2  UNL     1      67.065  35.534  42.052  1.00  0.00     0.166 HD
BRANCH  13  16
HETATM   16  C14 UNL     1      67.723  36.007  39.396  1.00  0.00     0.081 A 
HETATM   17  C15 UNL     1      66.726  36.823  38.968  1.00  0.00     0.174 A 
HETATM   18  F1  UNL     1      65.427  36.572  39.247  1.00  0.00    -0.202 F 
HETATM   19  C16 UNL     1      67.023  37.969  38.211  1.00  0.00     0.197 A 
HETATM   20  F2  UNL     1      66.065  38.809  37.763  1.00  0.00    -0.199 F 
HETATM   21  C17 UNL     1      68.339  38.245  37.915  1.00  0.00     0.199 A 
HETATM   22  F3  UNL     1      68.650  39.345  37.188  1.00  0.00    -0.199 F 
HETATM   23  C18 UNL     1      69.356  37.394  38.363  1.00  0.00     0.197 A 
HETATM   24  F4  UNL     1      70.636  37.711  38.043  1.00  0.00    -0.199 F 
HETATM   25  C19 UNL     1      69.030  36.279  39.103  1.00  0.00     0.174 A 
HETATM   26  F5  UNL     1      69.991  35.445  39.546  1.00  0.00    -0.202 F 
ENDBRANCH  13  16
ENDBRANCH   9  10
ENDBRANCH   6   9
BRANCH   5  27
HETATM   27  C6  UNL     1      63.762  34.016  42.976  1.00  0.00     0.173 C 
HETATM   28  O2  UNL     1      63.831  34.406  41.755  1.00  0.00    -0.292 OA
BRANCH  27  29
HETATM   29  C7  UNL     1      63.330  34.997  43.975  1.00  0.00     0.197 C 
BRANCH  29  30
HETATM   30  C8  UNL     1      62.632  36.183  43.469  1.00  0.00     0.180 C 
HETATM   31  O3  UNL     1      61.413  36.138  43.204  1.00  0.00    -0.648 OA
HETATM   32  O4  UNL     1      63.242  37.427  43.243  1.00  0.00    -0.648 OA
ENDBRANCH  29  30
ENDBRANCH  27  29
ENDBRANCH   5  27
BRANCH   4  33
HETATM   33  C4  UNL     1      61.701  32.006  43.055  1.00  0.00     0.172 C 
HETATM   34 CL1  UNL     1      61.396  32.212  41.308  1.00  0.00    -0.124 Cl
ENDBRANCH   4  33
BRANCH   1  35
HETATM   35  O1  UNL     1      65.084  28.766  44.173  1.00  0.00    -0.327 OA
HETATM   36  C1  UNL     1      64.770  28.219  45.433  1.00  0.00     0.213 C 
ENDBRANCH   1  35
TORSDOF 8
ENDMDL
MODEL 5
REMARK VINA RESULT: -8.754541893      1.622      3.929
REMARK  8 active torsions:
REMARK  status: ('A' for Active; 'I' for Inactive)
REMARK    1  A    between atoms: O1_2  and  C2_3 
REMARK    2  A    between atoms: C3_6  and  C4_7 
REMARK    3  A    between atoms: C5_9  and  C6_10 
REMARK    4  A    between atoms: C6_10  and  C7_12 
REMARK    5  A    between atoms: C7_12  and  C8_13 
REMARK    6  A    between atoms: C9_16  and  C10_17 
REMARK    7  A    between atoms: C10_17  and  C11_18 
REMARK    8  A    between atoms: C13_21  and  C14_22 
ROOT
HETATM    1  C2  UNL     1      64.764  30.075  43.887  1.00  0.00     0.223 A 
HETATM    2  N1  UNL     1      63.482  30.401  43.648  1.00  0.00    -0.324 N 
ATOM      3  H1  UNL     1      62.771  29.670  43.692  1.00  0.00     0.169 HD
HETATM    4  C3  UNL     1      63.101  31.679  43.348  1.00  0.00     0.042 A 
HETATM    5  C5  UNL     1      64.102  32.634  43.301  1.00  0.00     0.057 A 
HETATM    6  C9  UNL     1      65.421  32.310  43.542  1.00  0.00     0.034 A 
HETATM    7  N3  UNL     1      65.722  31.020  43.833  1.00  0.00    -0.325 N 
ATOM      8  H3  UNL     1      66.692  30.760  44.015  1.00  0.00     0.169 HD
ENDROOT
BRANCH   6   9
HETATM    9  C10 UNL     1      66.469  33.354  43.455  1.00  0.00     0.115 C 
BRANCH   9  10
HETATM   10  C11 UNL     1      66.829  33.539  41.990  1.00  0.00     0.022 A 
HETATM   11  C12 UNL     1      66.889  32.447  41.161  1.00  0.00     0.077 A 
HETATM   12  S1  UNL     1      67.319  33.170  39.672  1.00  0.00    -0.081 SA
HETATM   13  C13 UNL     1      67.397  34.813  40.195  1.00  0.00     0.090 A 
HETATM   14  N2  UNL     1      67.087  34.697  41.477  1.00  0.00    -0.352 N 
ATOM     15  H2  UNL     1      67.052  35.530  42.065  1.00  0.00     0.166 HD
BRANCH  13  16
HETATM   16  C14 UNL     1      67.719  35.998  39.410  1.00  0.00     0.081 A 
HETATM   17  C15 UNL     1      69.013  36.273  39.105  1.00  0.00     0.174 A 
HETATM   18  F1  UNL     1      70.027  35.475  39.507  1.00  0.00    -0.202 F 
HETATM   19  C16 UNL     1      69.336  37.413  38.350  1.00  0.00     0.197 A 
HETATM   20  F2  UNL     1      70.609  37.727  38.022  1.00  0.00    -0.199 F 
HETATM   21  C17 UNL     1      68.318  38.239  37.929  1.00  0.00     0.199 A 
HETATM   22  F3  UNL     1      68.606  39.344  37.199  1.00  0.00    -0.199 F 
HETATM   23  C18 UNL     1      66.990  37.942  38.253  1.00  0.00     0.197 A 
HETATM   24  F4  UNL     1      66.025  38.791  37.814  1.00  0.00    -0.199 F 
HETATM   25  C19 UNL     1      66.708  36.817  38.994  1.00  0.00     0.174 A 
HETATM   26  F5  UNL     1      65.436  36.510  39.318  1.00  0.00    -0.202 F 
ENDBRANCH  13  16
ENDBRANCH   9  10
ENDBRANCH   6   9
BRANCH   5  27
HETATM   27  C6  UNL     1      63.743  33.996  42.990  1.00  0.00     0.173 C 
HETATM   28  O2  UNL     1      63.816  34.388  41.770  1.00  0.00    -0.292 OA
BRANCH  27  29
HETATM   29  C7  UNL     1      63.297  34.972  43.988  1.00  0.00     0.197 C 
BRANCH  29  30
HETATM   30  C8  UNL     1      62.620  36.168  43.476  1.00  0.00     0.180 C 
HETATM   31  O3  UNL     1      61.401  36.143  43.211  1.00  0.00    -0.648 OA
HETATM   32  O4  UNL     1      63.252  37.400  43.246  1.00  0.00    -0.648 OA
ENDBRANCH  29  30
ENDBRANCH  27  29
ENDBRANCH   5  27
BRANCH   4  33
HETATM   33  C4  UNL     1      61.695  31.972  43.068  1.00  0.00     0.172 C 
HETATM   34 CL1  UNL     1      61.393  32.190  41.322  1.00  0.00    -0.124 Cl
ENDBRANCH   4  33
BRANCH   1  35
HETATM   35  O1  UNL     1      65.100  28.755  44.189  1.00  0.00    -0.327 OA
HETATM   36  C1  UNL     1      64.766  28.198  45.440  1.00  0.00     0.213 C 
ENDBRANCH   1  35
TORSDOF 8
ENDMDL
