MODEL 1
REMARK VINA RESULT: -7.028453636      0.000      0.000
REMARK  3 active torsions:
REMARK  status: ('A' for Active; 'I' for Inactive)
REMARK    1  A    between atoms: S1_2  and  N1_4 
REMARK    2  A    between atoms: S1_2  and  C7_12 
REMARK    3  A    between atoms: N1_4  and  C1_6 
ROOT
HETATM    1  O1  UNL     1      -4.768   0.175  15.093  1.00  0.00    -0.200 OA
HETATM    2  S1  UNL     1      -4.072   1.510  15.225  1.00  0.00     0.268 S 
HETATM    3  O2  UNL     1      -3.087   1.397  16.392  1.00  0.00    -0.200 OA
ENDROOT
BRANCH   2   4
HETATM    4  N1  UNL     1      -3.273   1.866  13.793  1.00  0.00    -0.310 N 
ATOM      5  H1  UNL     1      -2.500   2.529  13.750  1.00  0.00     0.172 HD
BRANCH   4   6
HETATM    6  C1  UNL     1      -3.753   1.178  12.646  1.00  0.00     0.093 C 
HETATM    7  C2  UNL     1      -2.690   0.812  11.665  1.00  0.00     0.026 C 
HETATM    8  C3  UNL     1      -3.293  -0.263  10.753  1.00  0.00     0.002 C 
HETATM    9  C4  UNL     1      -4.483   0.322  10.079  1.00  0.00     0.000 C 
HETATM   10  C5  UNL     1      -4.836   1.714  10.454  1.00  0.00     0.002 C 
HETATM   11  C6  UNL     1      -4.817   2.013  11.909  1.00  0.00     0.026 C 
ENDBRANCH   4   6
ENDBRANCH   2   4
BRANCH   2  12
HETATM   12  C7  UNL     1      -5.279   2.657  15.745  1.00  0.00     0.154 A 
HETATM   13  C8  UNL     1      -5.690   3.861  15.242  1.00  0.00     0.142 A 
HETATM   14  N2  UNL     1      -6.649   4.478  15.876  1.00  0.00    -0.304 N 
HETATM   15  N3  UNL     1      -7.175   3.953  16.933  1.00  0.00    -0.269 N 
ATOM     16  H2  UNL     1      -6.985   5.379  15.535  1.00  0.00     0.186 HD
HETATM   17  S2  UNL     1      -6.334   2.513  17.118  1.00  0.00     0.017 SA
ATOM     18  H3  UNL     1      -7.924   4.326  17.517  1.00  0.00     0.195 HD
ENDBRANCH   2  12
TORSDOF 3
ENDMDL
MODEL 2
REMARK VINA RESULT: -6.727572629      2.846      5.584
REMARK  3 active torsions:
REMARK  status: ('A' for Active; 'I' for Inactive)
REMARK    1  A    between atoms: S1_2  and  N1_4 
REMARK    2  A    between atoms: S1_2  and  C7_12 
REMARK    3  A    between atoms: N1_4  and  C1_6 
ROOT
HETATM    1  O1  UNL     1      -5.488   4.596  13.265  1.00  0.00    -0.200 OA
HETATM    2  S1  UNL     1      -4.314   3.668  13.478  1.00  0.00     0.268 S 
HETATM    3  O2  UNL     1      -3.061   4.399  12.989  1.00  0.00    -0.200 OA
ENDROOT
BRANCH   2   4
HETATM    4  N1  UNL     1      -4.193   3.287  15.107  1.00  0.00    -0.310 N 
ATOM      5  H1  UNL     1      -3.372   3.523  15.664  1.00  0.00     0.172 HD
BRANCH   4   6
HETATM    6  C1  UNL     1      -5.318   2.611  15.655  1.00  0.00     0.093 C 
HETATM    7  C2  UNL     1      -6.228   3.487  16.449  1.00  0.00     0.026 C 
HETATM    8  C3  UNL     1      -7.554   2.727  16.581  1.00  0.00     0.002 C 
HETATM    9  C4  UNL     1      -7.279   1.443  17.281  1.00  0.00     0.000 C 
HETATM   10  C5  UNL     1      -5.863   1.171  17.629  1.00  0.00     0.002 C 
HETATM   11  C6  UNL     1      -4.873   1.443  16.555  1.00  0.00     0.026 C 
ENDBRANCH   4   6
ENDBRANCH   2   4
BRANCH   2  12
HETATM   12  C7  UNL     1      -4.528   2.327  12.383  1.00  0.00     0.154 A 
HETATM   13  C8  UNL     1      -5.112   2.222  11.151  1.00  0.00     0.142 A 
HETATM   14  N2  UNL     1      -5.093   1.049  10.578  1.00  0.00    -0.304 N 
HETATM   15  N3  UNL     1      -4.538   0.044  11.169  1.00  0.00    -0.269 N 
ATOM     16  H2  UNL     1      -5.518   0.927   9.659  1.00  0.00     0.186 HD
HETATM   17  S2  UNL     1      -3.987   0.693  12.615  1.00  0.00     0.017 SA
ATOM     18  H3  UNL     1      -4.453  -0.917  10.836  1.00  0.00     0.195 HD
ENDBRANCH   2  12
TORSDOF 3
ENDMDL
MODEL 3
REMARK VINA RESULT: -6.442991282      1.321      2.050
REMARK  3 active torsions:
REMARK  status: ('A' for Active; 'I' for Inactive)
REMARK    1  A    between atoms: S1_2  and  N1_4 
REMARK    2  A    between atoms: S1_2  and  C7_12 
REMARK    3  A    between atoms: N1_4  and  C1_6 
ROOT
HETATM    1  O1  UNL     1      -4.948   0.062  15.755  1.00  0.00    -0.200 OA
HETATM    2  S1  UNL     1      -4.415   1.328  15.124  1.00  0.00     0.268 S 
HETATM    3  O2  UNL     1      -3.054   1.617  15.761  1.00  0.00    -0.200 OA
ENDROOT
BRANCH   2   4
HETATM    4  N1  UNL     1      -4.272   1.108  13.467  1.00  0.00    -0.310 N 
ATOM      5  H1  UNL     1      -4.933   0.546  12.931  1.00  0.00     0.172 HD
BRANCH   4   6
HETATM    6  C1  UNL     1      -3.163   1.761  12.864  1.00  0.00     0.093 C 
HETATM    7  C2  UNL     1      -3.461   3.134  12.362  1.00  0.00     0.026 C 
HETATM    8  C3  UNL     1      -2.108   3.825  12.158  1.00  0.00     0.002 C 
HETATM    9  C4  UNL     1      -1.333   3.034  11.164  1.00  0.00     0.000 C 
HETATM   10  C5  UNL     1      -1.978   1.796  10.659  1.00  0.00     0.002 C 
HETATM   11  C6  UNL     1      -2.608   0.932  11.690  1.00  0.00     0.026 C 
ENDBRANCH   4   6
ENDBRANCH   2   4
BRANCH   2  12
HETATM   12  C7  UNL     1      -5.458   2.627  15.645  1.00  0.00     0.154 A 
HETATM   13  C8  UNL     1      -5.733   3.860  15.122  1.00  0.00     0.142 A 
HETATM   14  N2  UNL     1      -6.591   4.604  15.765  1.00  0.00    -0.304 N 
HETATM   15  N3  UNL     1      -7.146   4.172  16.849  1.00  0.00    -0.269 N 
ATOM     16  H2  UNL     1      -6.825   5.531  15.410  1.00  0.00     0.186 HD
HETATM   17  S2  UNL     1      -6.482   2.644  17.048  1.00  0.00     0.017 SA
ATOM     18  H3  UNL     1      -7.826   4.647  17.442  1.00  0.00     0.195 HD
ENDBRANCH   2  12
TORSDOF 3
ENDMDL
MODEL 4
REMARK VINA RESULT: -6.438410524      3.688      5.794
REMARK  3 active torsions:
REMARK  status: ('A' for Active; 'I' for Inactive)
REMARK    1  A    between atoms: S1_2  and  N1_4 
REMARK    2  A    between atoms: S1_2  and  C7_12 
REMARK    3  A    between atoms: N1_4  and  C1_6 
ROOT
HETATM    1  O1  UNL     1      -5.560   3.354  12.763  1.00  0.00    -0.200 OA
HETATM    2  S1  UNL     1      -4.924   4.541  13.448  1.00  0.00     0.268 S 
HETATM    3  O2  UNL     1      -5.354   5.794  12.682  1.00  0.00    -0.200 OA
ENDROOT
BRANCH   2   4
HETATM    4  N1  UNL     1      -5.437   4.603  15.045  1.00  0.00    -0.310 N 
ATOM      5  H1  UNL     1      -5.420   5.464  15.590  1.00  0.00     0.172 HD
BRANCH   4   6
HETATM    6  C1  UNL     1      -5.895   3.369  15.581  1.00  0.00     0.093 C 
HETATM    7  C2  UNL     1      -6.912   3.515  16.663  1.00  0.00     0.026 C 
HETATM    8  C3  UNL     1      -7.591   2.147  16.806  1.00  0.00     0.002 C 
HETATM    9  C4  UNL     1      -6.545   1.152  17.167  1.00  0.00     0.000 C 
HETATM   10  C5  UNL     1      -5.153   1.658  17.251  1.00  0.00     0.002 C 
HETATM   11  C6  UNL     1      -4.721   2.541  16.136  1.00  0.00     0.026 C 
ENDBRANCH   4   6
ENDBRANCH   2   4
BRANCH   2  12
HETATM   12  C7  UNL     1      -3.203   4.407  13.193  1.00  0.00     0.154 A 
HETATM   13  C8  UNL     1      -2.124   4.834  13.915  1.00  0.00     0.142 A 
HETATM   14  N2  UNL     1      -0.939   4.555  13.443  1.00  0.00    -0.304 N 
HETATM   15  N3  UNL     1      -0.817   3.899  12.337  1.00  0.00    -0.269 N 
ATOM     16  H2  UNL     1      -0.107   4.855  13.950  1.00  0.00     0.186 HD
HETATM   17  S2  UNL     1      -2.403   3.621  11.867  1.00  0.00     0.017 SA
ATOM     18  H3  UNL     1       0.041   3.617  11.862  1.00  0.00     0.195 HD
ENDBRANCH   2  12
TORSDOF 3
ENDMDL
MODEL 5
REMARK VINA RESULT: -6.374536349      2.120      2.592
REMARK  3 active torsions:
REMARK  status: ('A' for Active; 'I' for Inactive)
REMARK    1  A    between atoms: S1_2  and  N1_4 
REMARK    2  A    between atoms: S1_2  and  C7_12 
REMARK    3  A    between atoms: N1_4  and  C1_6 
ROOT
HETATM    1  O1  UNL     1      -4.356   4.775  15.177  1.00  0.00    -0.200 OA
HETATM    2  S1  UNL     1      -4.688   3.451  14.529  1.00  0.00     0.268 S 
HETATM    3  O2  UNL     1      -5.817   3.704  13.526  1.00  0.00    -0.200 OA
ENDROOT
BRANCH   2   4
HETATM    4  N1  UNL     1      -3.323   2.848  13.761  1.00  0.00    -0.310 N 
ATOM      5  H1  UNL     1      -2.384   2.978  14.136  1.00  0.00     0.172 HD
BRANCH   4   6
HETATM    6  C1  UNL     1      -3.571   2.144  12.552  1.00  0.00     0.093 C 
HETATM    7  C2  UNL     1      -3.890   0.699  12.742  1.00  0.00     0.026 C 
HETATM    8  C3  UNL     1      -4.537   0.223  11.435  1.00  0.00     0.002 C 
HETATM    9  C4  UNL     1      -3.556   0.428  10.336  1.00  0.00     0.000 C 
HETATM   10  C5  UNL     1      -2.266   1.059  10.711  1.00  0.00     0.002 C 
HETATM   11  C6  UNL     1      -2.366   2.247  11.599  1.00  0.00     0.026 C 
ENDBRANCH   4   6
ENDBRANCH   2   4
BRANCH   2  12
HETATM   12  C7  UNL     1      -5.386   2.444  15.771  1.00  0.00     0.154 A 
HETATM   13  C8  UNL     1      -4.971   1.285  16.365  1.00  0.00     0.142 A 
HETATM   14  N2  UNL     1      -5.737   0.780  17.294  1.00  0.00    -0.304 N 
HETATM   15  N3  UNL     1      -6.838   1.371  17.622  1.00  0.00    -0.269 N 
ATOM     16  H2  UNL     1      -5.465  -0.084  17.762  1.00  0.00     0.186 HD
HETATM   17  S2  UNL     1      -6.876   2.717  16.620  1.00  0.00     0.017 SA
ATOM     18  H3  UNL     1      -7.521   1.087  18.324  1.00  0.00     0.195 HD
ENDBRANCH   2  12
TORSDOF 3
ENDMDL
