MODEL 1
REMARK VINA RESULT: -6.540371191      0.000      0.000
REMARK  2 active torsions:
REMARK  status: ('A' for Active; 'I' for Inactive)
REMARK    1  A    between atoms: C2_2  and  C3_3 
REMARK    2  A    between atoms: C3_3  and  N1_4 
ROOT
HETATM    1  N1  UNL     1      -3.923   3.076  12.807  1.00  0.00    -0.323 N 
HETATM    2  C4  UNL     1      -4.261   4.110  11.831  1.00  0.00     0.191 C 
HETATM    3  N2  UNL     1      -4.674   3.931  10.482  1.00  0.00    -0.063 NA
HETATM    4  N3  UNL     1      -4.120   5.267  12.380  1.00  0.00    -0.353 N 
ATOM      5  H3  UNL     1      -4.289   6.165  11.926  1.00  0.00     0.163 HD
HETATM    6  C5  UNL     1      -3.693   5.089  13.713  1.00  0.00     0.058 A 
HETATM    7  C6  UNL     1      -3.194   6.084  14.618  1.00  0.00     0.036 A 
HETATM    8  C7  UNL     1      -2.182   5.212  13.917  1.00  0.00     0.036 A 
HETATM    9  C8  UNL     1      -4.245   3.731  14.042  1.00  0.00     0.064 C 
HETATM   10  C9  UNL     1      -3.816   3.150  15.309  1.00  0.00     0.034 C 
HETATM   11  C10 UNL     1      -5.031   2.540  16.020  1.00  0.00     0.002 C 
HETATM   12  C11 UNL     1      -6.039   3.612  16.370  1.00  0.00     0.000 C 
HETATM   13  C12 UNL     1      -6.281   4.547  15.205  1.00  0.00     0.002 C 
HETATM   14  C13 UNL     1      -5.796   3.845  13.970  1.00  0.00     0.034 C 
ENDROOT
BRANCH   1  15
HETATM   15  C3  UNL     1      -3.386   1.821  12.469  1.00  0.00     0.067 C 
BRANCH  15  16
HETATM   16  C2  UNL     1      -4.312   0.654  12.395  1.00  0.00     0.040 C 
HETATM   17  C1  UNL     1      -4.658   0.327  10.956  1.00  0.00     0.010 C 
ENDBRANCH  15  16
ENDBRANCH   1  15
TORSDOF 2
ENDMDL
MODEL 2
REMARK VINA RESULT: -6.370556007      1.602      3.605
REMARK  2 active torsions:
REMARK  status: ('A' for Active; 'I' for Inactive)
REMARK    1  A    between atoms: C2_2  and  C3_3 
REMARK    2  A    between atoms: C3_3  and  N1_4 
ROOT
HETATM    1  N1  UNL     1      -4.055   2.713  13.892  1.00  0.00    -0.323 N 
HETATM    2  C4  UNL     1      -3.994   2.499  15.336  1.00  0.00     0.191 C 
HETATM    3  N2  UNL     1      -3.442   1.385  16.027  1.00  0.00    -0.063 NA
HETATM    4  N3  UNL     1      -4.544   3.500  15.932  1.00  0.00    -0.353 N 
ATOM      5  H3  UNL     1      -4.639   3.611  16.942  1.00  0.00     0.163 HD
HETATM    6  C5  UNL     1      -4.993   4.418  14.959  1.00  0.00     0.058 A 
HETATM    7  C6  UNL     1      -5.856   5.549  15.148  1.00  0.00     0.036 A 
HETATM    8  C7  UNL     1      -6.473   4.287  14.598  1.00  0.00     0.036 A 
HETATM    9  C8  UNL     1      -4.059   4.146  13.815  1.00  0.00     0.064 C 
HETATM   10  C9  UNL     1      -4.374   4.807  12.554  1.00  0.00     0.034 C 
HETATM   11  C10 UNL     1      -3.086   5.386  11.953  1.00  0.00     0.002 C 
HETATM   12  C11 UNL     1      -2.510   6.455  12.854  1.00  0.00     0.000 C 
HETATM   13  C12 UNL     1      -2.494   6.010  14.301  1.00  0.00     0.002 C 
HETATM   14  C13 UNL     1      -2.627   4.516  14.303  1.00  0.00     0.034 C 
ENDROOT
BRANCH   1  15
HETATM   15  C3  UNL     1      -4.129   1.676  12.945  1.00  0.00     0.067 C 
BRANCH  15  16
HETATM   16  C2  UNL     1      -3.021   1.543  11.955  1.00  0.00     0.040 C 
HETATM   17  C1  UNL     1      -3.154   0.256  11.164  1.00  0.00     0.010 C 
ENDBRANCH  15  16
ENDBRANCH   1  15
TORSDOF 2
ENDMDL
MODEL 3
REMARK VINA RESULT: -6.243372980      2.281      3.759
REMARK  2 active torsions:
REMARK  status: ('A' for Active; 'I' for Inactive)
REMARK    1  A    between atoms: C2_2  and  C3_3 
REMARK    2  A    between atoms: C3_3  and  N1_4 
ROOT
HETATM    1  N1  UNL     1      -4.863   2.635  15.923  1.00  0.00    -0.323 N 
HETATM    2  C4  UNL     1      -4.397   1.644  14.955  1.00  0.00     0.191 C 
HETATM    3  N2  UNL     1      -4.712   0.258  14.910  1.00  0.00    -0.063 NA
HETATM    4  N3  UNL     1      -3.616   2.221  14.108  1.00  0.00    -0.353 N 
ATOM      5  H3  UNL     1      -3.149   1.763  13.325  1.00  0.00     0.163 HD
HETATM    6  C5  UNL     1      -3.511   3.588  14.443  1.00  0.00     0.058 A 
HETATM    7  C6  UNL     1      -2.582   4.552  13.926  1.00  0.00     0.036 A 
HETATM    8  C7  UNL     1      -2.277   3.945  15.273  1.00  0.00     0.036 A 
HETATM    9  C8  UNL     1      -4.814   3.841  15.146  1.00  0.00     0.064 C 
HETATM   10  C9  UNL     1      -4.953   5.136  15.801  1.00  0.00     0.034 C 
HETATM   11  C10 UNL     1      -6.340   5.713  15.487  1.00  0.00     0.002 C 
HETATM   12  C11 UNL     1      -6.487   5.973  14.005  1.00  0.00     0.000 C 
HETATM   13  C12 UNL     1      -5.992   4.802  13.185  1.00  0.00     0.002 C 
HETATM   14  C13 UNL     1      -5.943   3.614  14.098  1.00  0.00     0.034 C 
ENDROOT
BRANCH   1  15
HETATM   15  C3  UNL     1      -5.196   2.336  17.257  1.00  0.00     0.067 C 
BRANCH  15  16
HETATM   16  C2  UNL     1      -6.606   2.549  17.696  1.00  0.00     0.040 C 
HETATM   17  C1  UNL     1      -7.548   1.612  16.966  1.00  0.00     0.010 C 
ENDBRANCH  15  16
ENDBRANCH   1  15
TORSDOF 2
ENDMDL
MODEL 4
REMARK VINA RESULT: -6.184783797      1.174      1.348
REMARK  2 active torsions:
REMARK  status: ('A' for Active; 'I' for Inactive)
REMARK    1  A    between atoms: C2_2  and  C3_3 
REMARK    2  A    between atoms: C3_3  and  N1_4 
ROOT
HETATM    1  N1  UNL     1      -3.607   4.209  12.649  1.00  0.00    -0.323 N 
HETATM    2  C4  UNL     1      -4.433   5.166  11.915  1.00  0.00     0.191 C 
HETATM    3  N2  UNL     1      -4.866   5.082  10.563  1.00  0.00    -0.063 NA
HETATM    4  N3  UNL     1      -4.726   6.150  12.693  1.00  0.00    -0.353 N 
ATOM      5  H3  UNL     1      -5.292   6.960  12.438  1.00  0.00     0.163 HD
HETATM    6  C5  UNL     1      -4.136   5.925  13.954  1.00  0.00     0.058 A 
HETATM    7  C6  UNL     1      -4.002   6.851  15.042  1.00  0.00     0.036 A 
HETATM    8  C7  UNL     1      -2.796   6.633  14.163  1.00  0.00     0.036 A 
HETATM    9  C8  UNL     1      -4.047   4.426  13.998  1.00  0.00     0.064 C 
HETATM   10  C9  UNL     1      -3.296   3.856  15.110  1.00  0.00     0.034 C 
HETATM   11  C10 UNL     1      -4.078   2.671  15.691  1.00  0.00     0.002 C 
HETATM   12  C11 UNL     1      -5.397   3.132  16.268  1.00  0.00     0.000 C 
HETATM   13  C12 UNL     1      -6.114   4.077  15.327  1.00  0.00     0.002 C 
HETATM   14  C13 UNL     1      -5.508   3.887  13.968  1.00  0.00     0.034 C 
ENDROOT
BRANCH   1  15
HETATM   15  C3  UNL     1      -2.638   3.384  12.050  1.00  0.00     0.067 C 
BRANCH  15  16
HETATM   16  C2  UNL     1      -2.979   1.951  11.815  1.00  0.00     0.040 C 
HETATM   17  C1  UNL     1      -1.848   1.236  11.102  1.00  0.00     0.010 C 
ENDBRANCH  15  16
ENDBRANCH   1  15
TORSDOF 2
ENDMDL
MODEL 5
REMARK VINA RESULT: -6.144182020      1.327      3.865
REMARK  2 active torsions:
REMARK  status: ('A' for Active; 'I' for Inactive)
REMARK    1  A    between atoms: C2_2  and  C3_3 
REMARK    2  A    between atoms: C3_3  and  N1_4 
ROOT
HETATM    1  N1  UNL     1      -3.797   4.759  13.081  1.00  0.00    -0.323 N 
HETATM    2  C4  UNL     1      -2.491   4.235  12.690  1.00  0.00     0.191 C 
HETATM    3  N2  UNL     1      -1.300   4.970  12.433  1.00  0.00    -0.063 NA
HETATM    4  N3  UNL     1      -2.565   2.952  12.596  1.00  0.00    -0.353 N 
ATOM      5  H3  UNL     1      -1.798   2.330  12.338  1.00  0.00     0.163 HD
HETATM    6  C5  UNL     1      -3.880   2.548  12.907  1.00  0.00     0.058 A 
HETATM    7  C6  UNL     1      -4.474   1.257  12.710  1.00  0.00     0.036 A 
HETATM    8  C7  UNL     1      -4.780   2.325  11.690  1.00  0.00     0.036 A 
HETATM    9  C8  UNL     1      -4.343   3.652  13.813  1.00  0.00     0.064 C 
HETATM   10  C9  UNL     1      -5.756   3.642  14.174  1.00  0.00     0.034 C 
HETATM   11  C10 UNL     1      -5.895   3.918  15.676  1.00  0.00     0.002 C 
HETATM   12  C11 UNL     1      -5.248   2.817  16.484  1.00  0.00     0.000 C 
HETATM   13  C12 UNL     1      -3.881   2.460  15.941  1.00  0.00     0.002 C 
HETATM   14  C13 UNL     1      -3.438   3.605  15.080  1.00  0.00     0.034 C 
ENDROOT
BRANCH   1  15
HETATM   15  C3  UNL     1      -4.275   6.031  12.718  1.00  0.00     0.067 C 
BRANCH  15  16
HETATM   16  C2  UNL     1      -3.615   7.229  13.312  1.00  0.00     0.040 C 
HETATM   17  C1  UNL     1      -3.565   7.124  14.824  1.00  0.00     0.010 C 
ENDBRANCH  15  16
ENDBRANCH   1  15
TORSDOF 2
ENDMDL
