MODEL 1
REMARK VINA RESULT: -6.784191239      0.000      0.000
REMARK  2 active torsions:
REMARK  status: ('A' for Active; 'I' for Inactive)
REMARK    1  A    between atoms: C2_2  and  C3_3 
REMARK    2  A    between atoms: C8_10  and  C9_11 
ROOT
HETATM    1  C3  UNL     1      -5.496   3.426  15.254  1.00  0.00     0.045 C 
HETATM    2  C4  UNL     1      -4.178   3.982  15.748  1.00  0.00     0.014 C 
HETATM    3  C5  UNL     1      -3.813   2.521  16.066  1.00  0.00     0.043 C 
HETATM    4  C6  UNL     1      -4.728   2.195  14.892  1.00  0.00     0.111 C 
HETATM    5  O1  UNL     1      -5.373   0.998  14.929  1.00  0.00    -0.228 OA
HETATM    6  O2  UNL     1      -4.662   0.105  14.350  1.00  0.00    -0.232 OA
HETATM    7  C7  UNL     1      -3.818   0.684  13.409  1.00  0.00     0.204 C 
HETATM    8  C8  UNL     1      -4.336   0.436  12.032  1.00  0.00     0.246 C 
HETATM    9  N1  UNL     1      -5.301   1.494  11.780  1.00  0.00    -0.064 N 
ATOM     10  H11 UNL     1      -6.251   1.289  12.089  1.00  0.00     0.278 HD
ATOM     11  H12 UNL     1      -5.540   1.627  10.798  1.00  0.00     0.278 HD
HETATM   12  C12 UNL     1      -4.691   2.640  12.415  1.00  0.00     0.243 C 
HETATM   13  C13 UNL     1      -3.948   2.201  13.621  1.00  0.00     0.084 C 
ENDROOT
BRANCH   1  14
HETATM   14  C2  UNL     1      -6.486   3.211  16.315  1.00  0.00    -0.029 C 
HETATM   15  C1  UNL     1      -6.883   4.105  17.201  1.00  0.00     0.007 C 
ENDBRANCH   1  14
BRANCH   8  16
HETATM   16  C9  UNL     1      -3.333   0.489  10.956  1.00  0.00    -0.060 C 
HETATM   17  C10 UNL     1      -2.038   0.709  11.117  1.00  0.00     0.016 C 
HETATM   18  C11 UNL     1      -3.847   0.275   9.557  1.00  0.00     0.044 C 
ENDBRANCH   8  16
TORSDOF 2
ENDMDL
MODEL 2
REMARK VINA RESULT: -6.547109009      1.899      5.218
REMARK  2 active torsions:
REMARK  status: ('A' for Active; 'I' for Inactive)
REMARK    1  A    between atoms: C2_2  and  C3_3 
REMARK    2  A    between atoms: C8_10  and  C9_11 
ROOT
HETATM    1  C3  UNL     1      -4.021   2.975  11.687  1.00  0.00     0.045 C 
HETATM    2  C4  UNL     1      -5.013   2.010  11.072  1.00  0.00     0.014 C 
HETATM    3  C5  UNL     1      -4.473   0.988  12.088  1.00  0.00     0.043 C 
HETATM    4  C6  UNL     1      -4.220   2.213  12.958  1.00  0.00     0.111 C 
HETATM    5  O1  UNL     1      -3.182   2.141  13.836  1.00  0.00    -0.228 OA
HETATM    6  O2  UNL     1      -3.597   1.689  14.960  1.00  0.00    -0.232 OA
HETATM    7  C7  UNL     1      -4.949   1.964  15.131  1.00  0.00     0.204 C 
HETATM    8  C8  UNL     1      -5.127   3.088  16.095  1.00  0.00     0.246 C 
HETATM    9  N1  UNL     1      -5.007   4.304  15.308  1.00  0.00    -0.064 N 
ATOM     10  H11 UNL     1      -4.054   4.651  15.200  1.00  0.00     0.278 HD
ATOM     11  H12 UNL     1      -5.370   5.143  15.759  1.00  0.00     0.278 HD
HETATM   12  C12 UNL     1      -5.664   3.949  14.070  1.00  0.00     0.243 C 
HETATM   13  C13 UNL     1      -5.429   2.514  13.778  1.00  0.00     0.084 C 
ENDROOT
BRANCH   1  14
HETATM   14  C2  UNL     1      -2.665   2.864  11.140  1.00  0.00    -0.029 C 
HETATM   15  C1  UNL     1      -1.949   3.849  10.632  1.00  0.00     0.007 C 
ENDBRANCH   1  14
BRANCH   8  16
HETATM   16  C9  UNL     1      -6.429   3.136  16.782  1.00  0.00    -0.060 C 
HETATM   17  C10 UNL     1      -6.993   4.218  17.295  1.00  0.00     0.016 C 
HETATM   18  C11 UNL     1      -7.164   1.827  16.903  1.00  0.00     0.044 C 
ENDBRANCH   8  16
TORSDOF 2
ENDMDL
MODEL 3
REMARK VINA RESULT: -6.482427245      2.115      5.225
REMARK  2 active torsions:
REMARK  status: ('A' for Active; 'I' for Inactive)
REMARK    1  A    between atoms: C2_2  and  C3_3 
REMARK    2  A    between atoms: C8_10  and  C9_11 
ROOT
HETATM    1  C3  UNL     1      -4.217   3.115  12.524  1.00  0.00     0.045 C 
HETATM    2  C4  UNL     1      -5.035   2.061  11.808  1.00  0.00     0.014 C 
HETATM    3  C5  UNL     1      -4.263   1.044  12.666  1.00  0.00     0.043 C 
HETATM    4  C6  UNL     1      -4.206   2.174  13.686  1.00  0.00     0.111 C 
HETATM    5  O1  UNL     1      -3.132   2.194  14.522  1.00  0.00    -0.228 OA
HETATM    6  O2  UNL     1      -3.399   1.531  15.584  1.00  0.00    -0.232 OA
HETATM    7  C7  UNL     1      -4.769   1.512  15.821  1.00  0.00     0.204 C 
HETATM    8  C8  UNL     1      -5.110   2.449  16.932  1.00  0.00     0.246 C 
HETATM    9  N1  UNL     1      -5.261   3.755  16.312  1.00  0.00    -0.064 N 
ATOM     10  H11 UNL     1      -4.398   4.292  16.230  1.00  0.00     0.278 HD
ATOM     11  H12 UNL     1      -5.755   4.442  16.880  1.00  0.00     0.278 HD
HETATM   12  C12 UNL     1      -5.898   3.439  15.053  1.00  0.00     0.243 C 
HETATM   13  C13 UNL     1      -5.409   2.127  14.566  1.00  0.00     0.084 C 
ENDROOT
BRANCH   1  14
HETATM   14  C2  UNL     1      -2.892   3.340  11.937  1.00  0.00    -0.029 C 
HETATM   15  C1  UNL     1      -2.219   4.475  11.951  1.00  0.00     0.007 C 
ENDBRANCH   1  14
BRANCH   8  16
HETATM   16  C9  UNL     1      -6.363   2.155  17.648  1.00  0.00    -0.060 C 
HETATM   17  C10 UNL     1      -7.313   1.330  17.237  1.00  0.00     0.016 C 
HETATM   18  C11 UNL     1      -6.561   2.868  18.959  1.00  0.00     0.044 C 
ENDBRANCH   8  16
TORSDOF 2
ENDMDL
MODEL 4
REMARK VINA RESULT: -6.480945715      2.839      5.268
REMARK  2 active torsions:
REMARK  status: ('A' for Active; 'I' for Inactive)
REMARK    1  A    between atoms: C2_2  and  C3_3 
REMARK    2  A    between atoms: C8_10  and  C9_11 
ROOT
HETATM    1  C3  UNL     1      -2.933   4.686  13.336  1.00  0.00     0.045 C 
HETATM    2  C4  UNL     1      -2.598   5.920  14.145  1.00  0.00     0.014 C 
HETATM    3  C5  UNL     1      -4.086   6.282  13.997  1.00  0.00     0.043 C 
HETATM    4  C6  UNL     1      -4.293   4.773  13.953  1.00  0.00     0.111 C 
HETATM    5  O1  UNL     1      -5.357   4.318  13.238  1.00  0.00    -0.228 OA
HETATM    6  O2  UNL     1      -6.382   4.225  13.998  1.00  0.00    -0.232 OA
HETATM    7  C7  UNL     1      -5.997   4.040  15.321  1.00  0.00     0.204 C 
HETATM    8  C8  UNL     1      -6.204   2.618  15.722  1.00  0.00     0.246 C 
HETATM    9  N1  UNL     1      -5.005   1.912  15.302  1.00  0.00    -0.064 N 
ATOM     10  H11 UNL     1      -5.028   1.563  14.344  1.00  0.00     0.278 HD
ATOM     11  H12 UNL     1      -4.871   1.001  15.739  1.00  0.00     0.278 HD
HETATM   12  C12 UNL     1      -3.959   2.873  15.570  1.00  0.00     0.243 C 
HETATM   13  C13 UNL     1      -4.474   4.244  15.336  1.00  0.00     0.084 C 
ENDROOT
BRANCH   1  14
HETATM   14  C2  UNL     1      -2.931   4.905  11.886  1.00  0.00    -0.029 C 
HETATM   15  C1  UNL     1      -2.614   4.013  10.966  1.00  0.00     0.007 C 
ENDBRANCH   1  14
BRANCH   8  16
HETATM   16  C9  UNL     1      -6.369   2.383  17.167  1.00  0.00    -0.060 C 
HETATM   17  C10 UNL     1      -6.626   3.309  18.076  1.00  0.00     0.016 C 
HETATM   18  C11 UNL     1      -6.226   0.956  17.628  1.00  0.00     0.044 C 
ENDBRANCH   8  16
TORSDOF 2
ENDMDL
MODEL 5
REMARK VINA RESULT: -6.285045880      1.912      5.294
REMARK  2 active torsions:
REMARK  status: ('A' for Active; 'I' for Inactive)
REMARK    1  A    between atoms: C2_2  and  C3_3 
REMARK    2  A    between atoms: C8_10  and  C9_11 
ROOT
HETATM    1  C3  UNL     1      -2.873   0.524  11.902  1.00  0.00     0.045 C 
HETATM    2  C4  UNL     1      -1.802   1.419  11.315  1.00  0.00     0.014 C 
HETATM    3  C5  UNL     1      -2.951   2.097  10.549  1.00  0.00     0.043 C 
HETATM    4  C6  UNL     1      -3.792   1.695  11.754  1.00  0.00     0.111 C 
HETATM    5  O1  UNL     1      -5.112   1.455  11.531  1.00  0.00    -0.228 OA
HETATM    6  O2  UNL     1      -5.781   2.535  11.689  1.00  0.00    -0.232 OA
HETATM    7  C7  UNL     1      -5.121   3.399  12.556  1.00  0.00     0.204 C 
HETATM    8  C8  UNL     1      -5.786   3.392  13.892  1.00  0.00     0.246 C 
HETATM    9  N1  UNL     1      -5.208   2.270  14.613  1.00  0.00    -0.064 N 
ATOM     10  H11 UNL     1      -5.679   1.377  14.462  1.00  0.00     0.278 HD
ATOM     11  H12 UNL     1      -5.351   2.291  15.622  1.00  0.00     0.278 HD
HETATM   12  C12 UNL     1      -3.824   2.302  14.197  1.00  0.00     0.243 C 
HETATM   13  C13 UNL     1      -3.740   2.766  12.791  1.00  0.00     0.084 C 
ENDROOT
BRANCH   1  14
HETATM   14  C2  UNL     1      -3.230  -0.615  11.050  1.00  0.00    -0.029 C 
HETATM   15  C1  UNL     1      -3.060  -1.889  11.346  1.00  0.00     0.007 C 
ENDBRANCH   1  14
BRANCH   8  16
HETATM   16  C9  UNL     1      -5.575   4.597  14.712  1.00  0.00    -0.060 C 
HETATM   17  C10 UNL     1      -4.910   5.679  14.339  1.00  0.00     0.016 C 
HETATM   18  C11 UNL     1      -6.173   4.573  16.094  1.00  0.00     0.044 C 
ENDBRANCH   8  16
TORSDOF 2
ENDMDL
