MODEL 1
REMARK VINA RESULT: -6.587198957      0.000      0.000
REMARK  6 active torsions:
REMARK  status: ('A' for Active; 'I' for Inactive)
REMARK    1  A    between atoms: C2_2  and  O1_3 
REMARK    2  A    between atoms: C2_2  and  C8_10 
REMARK    3  A    between atoms: O1_3  and  C3_4 
REMARK    4  A    between atoms: C3_4  and  C4_6 
REMARK    5  A    between atoms: C8_10  and  N1_11 
REMARK    6  A    between atoms: C8_10  and  C9_15 
ROOT
HETATM    1  C1  UNL     1      -3.242   4.093  15.011  1.00  0.00     0.042 C 
HETATM    2  C2  UNL     1      -3.898   2.797  14.506  1.00  0.00     0.159 C 
ENDROOT
BRANCH   2   3
HETATM    3  O1  UNL     1      -5.129   2.573  15.116  1.00  0.00    -0.314 OA
BRANCH   3   4
HETATM    4  C3  UNL     1      -5.327   2.140  16.397  1.00  0.00     0.267 C 
HETATM    5  O2  UNL     1      -4.484   1.290  16.846  1.00  0.00    -0.264 OA
BRANCH   4   6
HETATM    6  C4  UNL     1      -6.403   2.551  17.304  1.00  0.00     0.037 C 
HETATM    7  C5  UNL     1      -7.600   1.636  16.998  1.00  0.00     0.025 C 
HETATM    8  C6  UNL     1      -6.113   2.409  18.758  1.00  0.00     0.025 C 
HETATM    9  C7  UNL     1      -6.891   3.958  17.025  1.00  0.00     0.025 C 
ENDBRANCH   4   6
ENDBRANCH   3   4
ENDBRANCH   2   3
BRANCH   2  10
HETATM   10  C8  UNL     1      -3.876   2.860  13.026  1.00  0.00     0.219 C 
BRANCH  10  11
HETATM   11  N1  UNL     1      -2.621   3.542  12.658  1.00  0.00    -0.072 N 
ATOM     12  H13 UNL     1      -2.759   4.507  12.356  1.00  0.00     0.274 HD
ATOM     13  H12 UNL     1      -2.021   3.745  13.458  1.00  0.00     0.274 HD
ATOM     14  H11 UNL     1      -2.172   2.957  11.954  1.00  0.00     0.274 HD
ENDBRANCH  10  11
BRANCH  10  15
HETATM   15  C9  UNL     1      -3.850   1.556  12.300  1.00  0.00    -0.021 C 
HETATM   16  C10 UNL     1      -4.979   1.632  11.255  1.00  0.00     0.016 C 
HETATM   17  C11 UNL     1      -4.152   0.357  13.140  1.00  0.00     0.016 C 
HETATM   18  C12 UNL     1      -2.575   1.375  11.485  1.00  0.00     0.016 C 
ENDBRANCH  10  15
ENDBRANCH   2  10
TORSDOF 6
ENDMDL
MODEL 2
REMARK VINA RESULT: -6.514851129      0.073      1.094
REMARK  6 active torsions:
REMARK  status: ('A' for Active; 'I' for Inactive)
REMARK    1  A    between atoms: C2_2  and  O1_3 
REMARK    2  A    between atoms: C2_2  and  C8_10 
REMARK    3  A    between atoms: O1_3  and  C3_4 
REMARK    4  A    between atoms: C3_4  and  C4_6 
REMARK    5  A    between atoms: C8_10  and  N1_11 
REMARK    6  A    between atoms: C8_10  and  C9_15 
ROOT
HETATM    1  C1  UNL     1      -3.218   4.025  15.021  1.00  0.00     0.042 C 
HETATM    2  C2  UNL     1      -3.934   2.772  14.491  1.00  0.00     0.159 C 
ENDROOT
BRANCH   2   3
HETATM    3  O1  UNL     1      -5.160   2.576  15.119  1.00  0.00    -0.314 OA
BRANCH   3   4
HETATM    4  C3  UNL     1      -5.350   2.137  16.399  1.00  0.00     0.267 C 
HETATM    5  O2  UNL     1      -4.504   1.285  16.838  1.00  0.00    -0.264 OA
BRANCH   4   6
HETATM    6  C4  UNL     1      -6.421   2.543  17.314  1.00  0.00     0.037 C 
HETATM    7  C5  UNL     1      -7.615   1.622  17.019  1.00  0.00     0.025 C 
HETATM    8  C6  UNL     1      -6.118   2.403  18.766  1.00  0.00     0.025 C 
HETATM    9  C7  UNL     1      -6.918   3.947  17.039  1.00  0.00     0.025 C 
ENDBRANCH   4   6
ENDBRANCH   3   4
ENDBRANCH   2   3
BRANCH   2  10
HETATM   10  C8  UNL     1      -3.937   2.879  13.014  1.00  0.00     0.219 C 
BRANCH  10  11
HETATM   11  N1  UNL     1      -2.652   3.498  12.639  1.00  0.00    -0.072 N 
ATOM     12  H13 UNL     1      -2.597   4.489  12.874  1.00  0.00     0.274 HD
ATOM     13  H12 UNL     1      -1.870   3.188  13.216  1.00  0.00     0.274 HD
ATOM     14  H11 UNL     1      -2.521   3.310  11.645  1.00  0.00     0.274 HD
ENDBRANCH  10  11
BRANCH  10  15
HETATM   15  C9  UNL     1      -4.003   1.599  12.248  1.00  0.00    -0.021 C 
HETATM   16  C10 UNL     1      -2.637   1.452  11.551  1.00  0.00     0.016 C 
HETATM   17  C11 UNL     1      -5.022   1.567  11.155  1.00  0.00     0.016 C 
HETATM   18  C12 UNL     1      -4.108   0.385  13.162  1.00  0.00     0.016 C 
ENDBRANCH  10  15
ENDBRANCH   2  10
TORSDOF 6
ENDMDL
MODEL 3
REMARK VINA RESULT: -6.511982847      0.114      1.092
REMARK  6 active torsions:
REMARK  status: ('A' for Active; 'I' for Inactive)
REMARK    1  A    between atoms: C2_2  and  O1_3 
REMARK    2  A    between atoms: C2_2  and  C8_10 
REMARK    3  A    between atoms: O1_3  and  C3_4 
REMARK    4  A    between atoms: C3_4  and  C4_6 
REMARK    5  A    between atoms: C8_10  and  N1_11 
REMARK    6  A    between atoms: C8_10  and  C9_15 
ROOT
HETATM    1  C1  UNL     1      -3.184   4.236  14.949  1.00  0.00     0.042 C 
HETATM    2  C2  UNL     1      -3.867   2.938  14.485  1.00  0.00     0.159 C 
ENDROOT
BRANCH   2   3
HETATM    3  O1  UNL     1      -5.096   2.751  15.110  1.00  0.00    -0.314 OA
BRANCH   3   4
HETATM    4  C3  UNL     1      -5.296   2.205  16.346  1.00  0.00     0.267 C 
HETATM    5  O2  UNL     1      -4.396   1.399  16.764  1.00  0.00    -0.264 OA
BRANCH   4   6
HETATM    6  C4  UNL     1      -6.435   2.449  17.237  1.00  0.00     0.037 C 
HETATM    7  C5  UNL     1      -6.872   3.902  16.994  1.00  0.00     0.025 C 
HETATM    8  C6  UNL     1      -7.632   1.594  17.005  1.00  0.00     0.025 C 
HETATM    9  C7  UNL     1      -6.050   2.384  18.701  1.00  0.00     0.025 C 
ENDBRANCH   4   6
ENDBRANCH   3   4
ENDBRANCH   2   3
BRANCH   2  10
HETATM   10  C8  UNL     1      -3.856   2.960  13.003  1.00  0.00     0.219 C 
BRANCH  10  11
HETATM   11  N1  UNL     1      -2.595   3.615  12.607  1.00  0.00    -0.072 N 
ATOM     12  H13 UNL     1      -1.769   3.045  12.787  1.00  0.00     0.274 HD
ATOM     13  H12 UNL     1      -2.478   3.692  11.597  1.00  0.00     0.274 HD
ATOM     14  H11 UNL     1      -2.577   4.517  13.086  1.00  0.00     0.274 HD
ENDBRANCH  10  11
BRANCH  10  15
HETATM   15  C9  UNL     1      -3.854   1.637  12.312  1.00  0.00    -0.021 C 
HETATM   16  C10 UNL     1      -4.995   1.698  11.279  1.00  0.00     0.016 C 
HETATM   17  C11 UNL     1      -4.158   0.465  13.188  1.00  0.00     0.016 C 
HETATM   18  C12 UNL     1      -2.591   1.420  11.487  1.00  0.00     0.016 C 
ENDBRANCH  10  15
ENDBRANCH   2  10
TORSDOF 6
ENDMDL
MODEL 4
REMARK VINA RESULT: -6.445294529      0.130      1.096
REMARK  6 active torsions:
REMARK  status: ('A' for Active; 'I' for Inactive)
REMARK    1  A    between atoms: C2_2  and  O1_3 
REMARK    2  A    between atoms: C2_2  and  C8_10 
REMARK    3  A    between atoms: O1_3  and  C3_4 
REMARK    4  A    between atoms: C3_4  and  C4_6 
REMARK    5  A    between atoms: C8_10  and  N1_11 
REMARK    6  A    between atoms: C8_10  and  C9_15 
ROOT
HETATM    1  C1  UNL     1      -3.432   4.088  15.033  1.00  0.00     0.042 C 
HETATM    2  C2  UNL     1      -3.911   2.741  14.466  1.00  0.00     0.159 C 
ENDROOT
BRANCH   2   3
HETATM    3  O1  UNL     1      -5.130   2.356  15.014  1.00  0.00    -0.314 OA
BRANCH   3   4
HETATM    4  C3  UNL     1      -5.359   2.034  16.323  1.00  0.00     0.267 C 
HETATM    5  O2  UNL     1      -4.510   1.253  16.873  1.00  0.00    -0.264 OA
BRANCH   4   6
HETATM    6  C4  UNL     1      -6.476   2.492  17.154  1.00  0.00     0.037 C 
HETATM    7  C5  UNL     1      -6.020   2.342  18.614  1.00  0.00     0.025 C 
HETATM    8  C6  UNL     1      -6.877   3.915  16.973  1.00  0.00     0.025 C 
HETATM    9  C7  UNL     1      -7.699   1.608  17.022  1.00  0.00     0.025 C 
ENDBRANCH   4   6
ENDBRANCH   3   4
ENDBRANCH   2   3
BRANCH   2  10
HETATM   10  C8  UNL     1      -3.836   2.852  12.990  1.00  0.00     0.219 C 
BRANCH  10  11
HETATM   11  N1  UNL     1      -2.550   3.510  12.688  1.00  0.00    -0.072 N 
ATOM     12  H13 UNL     1      -1.754   3.076  13.157  1.00  0.00     0.274 HD
ATOM     13  H12 UNL     1      -2.232   3.357  11.731  1.00  0.00     0.274 HD
ATOM     14  H11 UNL     1      -2.670   4.496  12.922  1.00  0.00     0.274 HD
ENDBRANCH  10  11
BRANCH  10  15
HETATM   15  C9  UNL     1      -3.822   1.574  12.220  1.00  0.00    -0.021 C 
HETATM   16  C10 UNL     1      -4.957   1.690  11.186  1.00  0.00     0.016 C 
HETATM   17  C11 UNL     1      -4.125   0.349  13.022  1.00  0.00     0.016 C 
HETATM   18  C12 UNL     1      -2.553   1.414  11.392  1.00  0.00     0.016 C 
ENDBRANCH  10  15
ENDBRANCH   2  10
TORSDOF 6
ENDMDL
MODEL 5
REMARK VINA RESULT: -6.420519796      1.803      3.294
REMARK  6 active torsions:
REMARK  status: ('A' for Active; 'I' for Inactive)
REMARK    1  A    between atoms: C2_2  and  O1_3 
REMARK    2  A    between atoms: C2_2  and  C8_10 
REMARK    3  A    between atoms: O1_3  and  C3_4 
REMARK    4  A    between atoms: C3_4  and  C4_6 
REMARK    5  A    between atoms: C8_10  and  N1_11 
REMARK    6  A    between atoms: C8_10  and  C9_15 
ROOT
HETATM    1  C1  UNL     1      -4.379   2.015  13.634  1.00  0.00     0.042 C 
HETATM    2  C2  UNL     1      -4.761   3.284  14.414  1.00  0.00     0.159 C 
ENDROOT
BRANCH   2   3
HETATM    3  O1  UNL     1      -4.470   3.162  15.769  1.00  0.00    -0.314 OA
BRANCH   3   4
HETATM    4  C3  UNL     1      -5.125   2.366  16.666  1.00  0.00     0.267 C 
HETATM    5  O2  UNL     1      -4.565   1.254  16.954  1.00  0.00    -0.264 OA
BRANCH   4   6
HETATM    6  C4  UNL     1      -6.400   2.659  17.329  1.00  0.00     0.037 C 
HETATM    7  C5  UNL     1      -6.167   2.443  18.832  1.00  0.00     0.025 C 
HETATM    8  C6  UNL     1      -6.908   4.050  17.168  1.00  0.00     0.025 C 
HETATM    9  C7  UNL     1      -7.491   1.680  16.945  1.00  0.00     0.025 C 
ENDBRANCH   4   6
ENDBRANCH   3   4
ENDBRANCH   2   3
BRANCH   2  10
HETATM   10  C8  UNL     1      -4.154   4.425  13.690  1.00  0.00     0.219 C 
BRANCH  10  11
HETATM   11  N1  UNL     1      -4.342   4.152  12.253  1.00  0.00    -0.072 N 
ATOM     12  H13 UNL     1      -4.743   3.233  12.065  1.00  0.00     0.274 HD
ATOM     13  H12 UNL     1      -5.087   4.704  11.829  1.00  0.00     0.274 HD
ATOM     14  H11 UNL     1      -3.432   4.294  11.812  1.00  0.00     0.274 HD
ENDBRANCH  10  11
BRANCH  10  15
HETATM   15  C9  UNL     1      -4.760   5.769  13.924  1.00  0.00    -0.021 C 
HETATM   16  C10 UNL     1      -4.522   6.571  12.632  1.00  0.00     0.016 C 
HETATM   17  C11 UNL     1      -4.129   6.566  15.020  1.00  0.00     0.016 C 
HETATM   18  C12 UNL     1      -6.275   5.700  14.068  1.00  0.00     0.016 C 
ENDBRANCH  10  15
ENDBRANCH   2  10
TORSDOF 6
ENDMDL
