MODEL 1
REMARK VINA RESULT: -7.639289502      0.000      0.000
REMARK  5 active torsions:
REMARK  status: ('A' for Active; 'I' for Inactive)
REMARK    1  A    between atoms: C5_6  and  O1_7 
REMARK    2  A    between atoms: N2_9  and  C6_10 
REMARK    3  A    between atoms: C6_10  and  C7_11 
REMARK    4  A    between atoms: C7_11  and  C8_12 
REMARK    5  A    between atoms: C8_12  and  N3_13 
ROOT
HETATM    1  N1  UNL     1      14.516   5.797  13.670  1.00  0.00    -0.190 NA
HETATM    2  C1  UNL     1      15.054   4.968  14.292  1.00  0.00     0.118 C 
HETATM    3  C2  UNL     1      15.741   3.958  15.060  1.00  0.00     0.125 A 
HETATM    4  C3  UNL     1      15.144   3.114  15.953  1.00  0.00    -0.010 A 
HETATM    5  C4  UNL     1      16.134   2.321  16.460  1.00  0.00     0.002 A 
HETATM    6  C5  UNL     1      17.323   2.672  15.887  1.00  0.00     0.150 A 
HETATM    7  N2  UNL     1      17.077   3.683  15.024  1.00  0.00    -0.318 N 
HETATM    8  C13 UNL     1      15.835   1.273  17.468  1.00  0.00     0.043 C 
HETATM    9  C14 UNL     1      14.433   1.339  17.986  1.00  0.00     0.005 C 
HETATM   10  C15 UNL     1      13.489   1.592  16.845  1.00  0.00     0.005 C 
HETATM   11  C16 UNL     1      13.705   3.002  16.360  1.00  0.00     0.042 C 
ENDROOT
BRANCH   7  12
HETATM   12  C6  UNL     1      17.978   4.399  14.179  1.00  0.00     0.134 C 
BRANCH  12  13
HETATM   13  C7  UNL     1      17.687   4.184  12.705  1.00  0.00     0.050 C 
BRANCH  13  14
HETATM   14  C8  UNL     1      18.359   2.875  12.340  1.00  0.00     0.274 C 
BRANCH  14  15
HETATM   15  N3  UNL     1      17.606   2.161  11.327  1.00  0.00     0.092 N 
HETATM   16  C9  UNL     1      18.432   1.089  10.817  1.00  0.00     0.298 C 
HETATM   17  C10 UNL     1      17.740  -0.258  10.959  1.00  0.00     0.198 C 
HETATM   18  O2  UNL     1      17.531  -0.566  12.284  1.00  0.00    -0.388 OA
HETATM   19  C11 UNL     1      16.810   0.435  12.891  1.00  0.00     0.198 C 
HETATM   20  C12 UNL     1      16.447   1.585  11.988  1.00  0.00     0.298 C 
ENDBRANCH  14  15
ENDBRANCH  13  14
ENDBRANCH  12  13
ENDBRANCH   7  12
BRANCH   6  21
HETATM   21  O1  UNL     1      18.564   2.114  16.127  1.00  0.00    -0.345 OA
ATOM     22  H1  UNL     1      19.053   2.128  16.941  1.00  0.00     0.219 HD
ENDBRANCH   6  21
TORSDOF 5
ENDMDL
MODEL 2
REMARK VINA RESULT: -7.066136618      2.170      3.062
REMARK  5 active torsions:
REMARK  status: ('A' for Active; 'I' for Inactive)
REMARK    1  A    between atoms: C5_6  and  O1_7 
REMARK    2  A    between atoms: N2_9  and  C6_10 
REMARK    3  A    between atoms: C6_10  and  C7_11 
REMARK    4  A    between atoms: C7_11  and  C8_12 
REMARK    5  A    between atoms: C8_12  and  N3_13 
ROOT
HETATM    1  N1  UNL     1      15.435   5.332  13.046  1.00  0.00    -0.190 NA
HETATM    2  C1  UNL     1      15.540   4.355  13.677  1.00  0.00     0.118 C 
HETATM    3  C2  UNL     1      15.691   3.141  14.441  1.00  0.00     0.125 A 
HETATM    4  C3  UNL     1      15.357   2.999  15.758  1.00  0.00    -0.010 A 
HETATM    5  C4  UNL     1      15.653   1.710  16.099  1.00  0.00     0.002 A 
HETATM    6  C5  UNL     1      16.161   1.067  15.006  1.00  0.00     0.150 A 
HETATM    7  N2  UNL     1      16.184   1.953  13.986  1.00  0.00    -0.318 N 
HETATM    8  C13 UNL     1      15.408   1.204  17.473  1.00  0.00     0.043 C 
HETATM    9  C14 UNL     1      15.024   2.284  18.435  1.00  0.00     0.005 C 
HETATM   10  C15 UNL     1      14.045   3.215  17.779  1.00  0.00     0.005 C 
HETATM   11  C16 UNL     1      14.776   3.995  16.718  1.00  0.00     0.042 C 
ENDROOT
BRANCH   7  12
HETATM   12  C6  UNL     1      16.621   1.779  12.638  1.00  0.00     0.134 C 
BRANCH  12  13
HETATM   13  C7  UNL     1      18.067   2.194  12.436  1.00  0.00     0.050 C 
BRANCH  13  14
HETATM   14  C8  UNL     1      18.133   2.793  11.045  1.00  0.00     0.274 C 
BRANCH  14  15
HETATM   15  N3  UNL     1      18.555   4.180  11.088  1.00  0.00     0.092 N 
HETATM   16  C9  UNL     1      19.207   4.419  12.356  1.00  0.00     0.298 C 
HETATM   17  C10 UNL     1      20.614   4.962  12.161  1.00  0.00     0.198 C 
HETATM   18  O2  UNL     1      21.410   4.043  11.517  1.00  0.00    -0.388 OA
HETATM   19  C11 UNL     1      20.840   3.686  10.317  1.00  0.00     0.198 C 
HETATM   20  C12 UNL     1      19.525   4.360  10.021  1.00  0.00     0.298 C 
ENDBRANCH  14  15
ENDBRANCH  13  14
ENDBRANCH  12  13
ENDBRANCH   7  12
BRANCH   6  21
HETATM   21  O1  UNL     1      16.583  -0.247  14.930  1.00  0.00    -0.345 OA
ATOM     22  H1  UNL     1      16.137  -1.014  15.268  1.00  0.00     0.219 HD
ENDBRANCH   6  21
TORSDOF 5
ENDMDL
MODEL 3
REMARK VINA RESULT: -7.014469884      2.322      2.923
REMARK  5 active torsions:
REMARK  status: ('A' for Active; 'I' for Inactive)
REMARK    1  A    between atoms: C5_6  and  O1_7 
REMARK    2  A    between atoms: N2_9  and  C6_10 
REMARK    3  A    between atoms: C6_10  and  C7_11 
REMARK    4  A    between atoms: C7_11  and  C8_12 
REMARK    5  A    between atoms: C8_12  and  N3_13 
ROOT
HETATM    1  N1  UNL     1      15.377   5.387  13.080  1.00  0.00    -0.190 NA
HETATM    2  C1  UNL     1      15.479   4.420  13.727  1.00  0.00     0.118 C 
HETATM    3  C2  UNL     1      15.625   3.218  14.510  1.00  0.00     0.125 A 
HETATM    4  C3  UNL     1      15.299   3.101  15.832  1.00  0.00    -0.010 A 
HETATM    5  C4  UNL     1      15.587   1.815  16.192  1.00  0.00     0.002 A 
HETATM    6  C5  UNL     1      16.082   1.150  15.107  1.00  0.00     0.150 A 
HETATM    7  N2  UNL     1      16.105   2.018  14.072  1.00  0.00    -0.318 N 
HETATM    8  C13 UNL     1      15.348   1.335  17.577  1.00  0.00     0.043 C 
HETATM    9  C14 UNL     1      14.980   2.434  18.523  1.00  0.00     0.005 C 
HETATM   10  C15 UNL     1      14.004   3.362  17.858  1.00  0.00     0.005 C 
HETATM   11  C16 UNL     1      14.734   4.117  16.778  1.00  0.00     0.042 C 
ENDROOT
BRANCH   7  12
HETATM   12  C6  UNL     1      16.530   1.817  12.724  1.00  0.00     0.134 C 
BRANCH  12  13
HETATM   13  C7  UNL     1      18.041   1.855  12.578  1.00  0.00     0.050 C 
BRANCH  13  14
HETATM   14  C8  UNL     1      18.306   2.238  11.136  1.00  0.00     0.274 C 
BRANCH  14  15
HETATM   15  N3  UNL     1      19.259   3.328  11.047  1.00  0.00     0.092 N 
HETATM   16  C9  UNL     1      19.972   3.208   9.795  1.00  0.00     0.298 C 
HETATM   17  C10 UNL     1      19.850   4.476   8.964  1.00  0.00     0.198 C 
HETATM   18  O2  UNL     1      18.541   4.706   8.609  1.00  0.00    -0.388 OA
HETATM   19  C11 UNL     1      17.752   4.765   9.734  1.00  0.00     0.198 C 
HETATM   20  C12 UNL     1      18.491   4.562  11.031  1.00  0.00     0.298 C 
ENDBRANCH  14  15
ENDBRANCH  13  14
ENDBRANCH  12  13
ENDBRANCH   7  12
BRANCH   6  21
HETATM   21  O1  UNL     1      16.492  -0.169  15.050  1.00  0.00    -0.345 OA
ATOM     22  H1  UNL     1      15.979  -0.919  14.772  1.00  0.00     0.219 HD
ENDBRANCH   6  21
TORSDOF 5
ENDMDL
MODEL 4
REMARK VINA RESULT: -6.990727042      1.197      1.450
REMARK  5 active torsions:
REMARK  status: ('A' for Active; 'I' for Inactive)
REMARK    1  A    between atoms: C5_6  and  O1_7 
REMARK    2  A    between atoms: N2_9  and  C6_10 
REMARK    3  A    between atoms: C6_10  and  C7_11 
REMARK    4  A    between atoms: C7_11  and  C8_12 
REMARK    5  A    between atoms: C8_12  and  N3_13 
ROOT
HETATM    1  N1  UNL     1      13.855   6.184  13.448  1.00  0.00    -0.190 NA
HETATM    2  C1  UNL     1      14.661   5.508  13.955  1.00  0.00     0.118 C 
HETATM    3  C2  UNL     1      15.675   4.695  14.580  1.00  0.00     0.125 A 
HETATM    4  C3  UNL     1      15.431   3.691  15.474  1.00  0.00    -0.010 A 
HETATM    5  C4  UNL     1      16.647   3.176  15.824  1.00  0.00     0.002 A 
HETATM    6  C5  UNL     1      17.625   3.852  15.152  1.00  0.00     0.150 A 
HETATM    7  N2  UNL     1      17.023   4.789  14.387  1.00  0.00    -0.318 N 
HETATM    8  C13 UNL     1      16.755   2.052  16.788  1.00  0.00     0.043 C 
HETATM    9  C14 UNL     1      15.456   1.723  17.453  1.00  0.00     0.005 C 
HETATM   10  C15 UNL     1      14.351   1.752  16.436  1.00  0.00     0.005 C 
HETATM   11  C16 UNL     1      14.130   3.184  16.022  1.00  0.00     0.042 C 
ENDROOT
BRANCH   7  12
HETATM   12  C6  UNL     1      17.597   5.748  13.500  1.00  0.00     0.134 C 
BRANCH  12  13
HETATM   13  C7  UNL     1      18.351   5.102  12.352  1.00  0.00     0.050 C 
BRANCH  13  14
HETATM   14  C8  UNL     1      17.292   4.658  11.363  1.00  0.00     0.274 C 
BRANCH  14  15
HETATM   15  N3  UNL     1      17.676   3.429  10.695  1.00  0.00     0.092 N 
HETATM   16  C9  UNL     1      18.773   2.836  11.428  1.00  0.00     0.298 C 
HETATM   17  C10 UNL     1      18.448   1.413  11.854  1.00  0.00     0.198 C 
HETATM   18  O2  UNL     1      17.383   1.392  12.725  1.00  0.00    -0.388 OA
HETATM   19  C11 UNL     1      16.294   2.004  12.150  1.00  0.00     0.198 C 
HETATM   20  C12 UNL     1      16.532   2.535  10.761  1.00  0.00     0.298 C 
ENDBRANCH  14  15
ENDBRANCH  13  14
ENDBRANCH  12  13
ENDBRANCH   7  12
BRANCH   6  21
HETATM   21  O1  UNL     1      18.989   3.640  15.224  1.00  0.00    -0.345 OA
ATOM     22  H1  UNL     1      19.678   4.279  15.091  1.00  0.00     0.219 HD
ENDBRANCH   6  21
TORSDOF 5
ENDMDL
MODEL 5
REMARK VINA RESULT: -6.902451233      2.340      2.995
REMARK  5 active torsions:
REMARK  status: ('A' for Active; 'I' for Inactive)
REMARK    1  A    between atoms: C5_6  and  O1_7 
REMARK    2  A    between atoms: N2_9  and  C6_10 
REMARK    3  A    between atoms: C6_10  and  C7_11 
REMARK    4  A    between atoms: C7_11  and  C8_12 
REMARK    5  A    between atoms: C8_12  and  N3_13 
ROOT
HETATM    1  N1  UNL     1      15.179   5.436  13.275  1.00  0.00    -0.190 NA
HETATM    2  C1  UNL     1      15.340   4.441  13.866  1.00  0.00     0.118 C 
HETATM    3  C2  UNL     1      15.561   3.207  14.579  1.00  0.00     0.125 A 
HETATM    4  C3  UNL     1      15.265   3.001  15.896  1.00  0.00    -0.010 A 
HETATM    5  C4  UNL     1      15.623   1.714  16.180  1.00  0.00     0.002 A 
HETATM    6  C5  UNL     1      16.131   1.136  15.053  1.00  0.00     0.150 A 
HETATM    7  N2  UNL     1      16.093   2.059  14.067  1.00  0.00    -0.318 N 
HETATM    8  C13 UNL     1      15.433   1.147  17.539  1.00  0.00     0.043 C 
HETATM    9  C14 UNL     1      15.027   2.172  18.551  1.00  0.00     0.005 C 
HETATM   10  C15 UNL     1      13.994   3.084  17.953  1.00  0.00     0.005 C 
HETATM   11  C16 UNL     1      14.666   3.934  16.907  1.00  0.00     0.042 C 
ENDROOT
BRANCH   7  12
HETATM   12  C6  UNL     1      16.504   1.955  12.704  1.00  0.00     0.134 C 
BRANCH  12  13
HETATM   13  C7  UNL     1      18.006   2.092  12.537  1.00  0.00     0.050 C 
BRANCH  13  14
HETATM   14  C8  UNL     1      18.218   3.380  11.767  1.00  0.00     0.274 C 
BRANCH  14  15
HETATM   15  N3  UNL     1      18.885   3.135  10.502  1.00  0.00     0.092 N 
HETATM   16  C9  UNL     1      19.020   4.396   9.807  1.00  0.00     0.298 C 
HETATM   17  C10 UNL     1      20.472   4.683   9.458  1.00  0.00     0.198 C 
HETATM   18  O2  UNL     1      21.233   4.819  10.596  1.00  0.00    -0.388 OA
HETATM   19  C11 UNL     1      21.118   3.692  11.376  1.00  0.00     0.198 C 
HETATM   20  C12 UNL     1      20.211   2.629  10.814  1.00  0.00     0.298 C 
ENDBRANCH  14  15
ENDBRANCH  13  14
ENDBRANCH  12  13
ENDBRANCH   7  12
BRANCH   6  21
HETATM   21  O1  UNL     1      16.606  -0.155  14.916  1.00  0.00    -0.345 OA
ATOM     22  H1  UNL     1      17.354  -0.441  14.404  1.00  0.00     0.219 HD
ENDBRANCH   6  21
TORSDOF 5
ENDMDL
