MODEL 1
REMARK VINA RESULT: -7.279053448      0.000      0.000
REMARK  4 active torsions:
REMARK  status: ('A' for Active; 'I' for Inactive)
REMARK       I    between atoms: C1_2  and  N1_3 
REMARK    1  A    between atoms: C1_2  and  C11_19 
REMARK    2  A    between atoms: N1_3  and  C2_5 
REMARK    3  A    between atoms: N2_7  and  C4_8 
REMARK    4  A    between atoms: C4_8  and  C5_9 
ROOT
HETATM    1  C2  UNL     1      19.211   4.496  13.392  1.00  0.00     0.141 A 
HETATM    2  C3  UNL     1      17.892   4.126  13.202  1.00  0.00     0.161 A 
HETATM    3  N2  UNL     1      17.379   3.625  14.343  1.00  0.00    -0.285 N 
HETATM    4  N3  UNL     1      18.369   3.686  15.231  1.00  0.00    -0.239 N 
ATOM      5  H3  UNL     1      18.294   3.379  16.201  1.00  0.00     0.208 HD
HETATM    6  N4  UNL     1      19.459   4.196  14.692  1.00  0.00    -0.270 N 
ATOM      7  H4  UNL     1      20.346   4.342  15.175  1.00  0.00     0.190 HD
ENDROOT
BRANCH   1   8
HETATM    8  N1  UNL     1      20.113   5.062  12.456  1.00  0.00    -0.310 N 
HETATM    9  C1  UNL     1      20.956   4.200  11.716  1.00  0.00     0.229 C 
HETATM   10  O1  UNL     1      20.916   2.963  11.879  1.00  0.00    -0.273 OA
ATOM     11  H1  UNL     1      20.153   6.072  12.319  1.00  0.00     0.170 HD
BRANCH   9  12
HETATM   12  C11 UNL     1      21.898   4.772  10.740  1.00  0.00     0.104 C 
HETATM   13  C12 UNL     1      21.916   3.972   9.432  1.00  0.00     0.042 C 
HETATM   14  C13 UNL     1      23.344   4.257   8.968  1.00  0.00     0.168 C 
HETATM   15  O2  UNL     1      24.069   4.183  10.128  1.00  0.00    -0.390 OA
HETATM   16  C14 UNL     1      23.326   4.678  11.168  1.00  0.00     0.181 C 
ENDBRANCH   9  12
ENDBRANCH   1   8
BRANCH   3  17
HETATM   17  C4  UNL     1      16.060   3.130  14.584  1.00  0.00     0.154 C 
BRANCH  17  18
HETATM   18  C5  UNL     1      15.775   2.836  16.020  1.00  0.00     0.005 C 
HETATM   19  C6  UNL     1      15.414   1.357  16.171  1.00  0.00     0.006 C 
HETATM   20  C7  UNL     1      15.175   0.995  17.608  1.00  0.00     0.000 C 
HETATM   21  C8  UNL     1      15.023   2.131  18.536  1.00  0.00     0.000 C 
HETATM   22  C9  UNL     1      14.481   3.390  18.002  1.00  0.00     0.000 C 
HETATM   23  C10 UNL     1      14.543   3.574  16.528  1.00  0.00     0.006 C 
ENDBRANCH  17  18
ENDBRANCH   3  17
TORSDOF 4
ENDMDL
MODEL 2
REMARK VINA RESULT: -7.163497979      2.494      8.426
REMARK  4 active torsions:
REMARK  status: ('A' for Active; 'I' for Inactive)
REMARK       I    between atoms: C1_2  and  N1_3 
REMARK    1  A    between atoms: C1_2  and  C11_19 
REMARK    2  A    between atoms: N1_3  and  C2_5 
REMARK    3  A    between atoms: N2_7  and  C4_8 
REMARK    4  A    between atoms: C4_8  and  C5_9 
ROOT
HETATM    1  C2  UNL     1      18.148   3.935  14.389  1.00  0.00     0.141 A 
HETATM    2  C3  UNL     1      18.138   3.962  13.006  1.00  0.00     0.161 A 
HETATM    3  N2  UNL     1      19.374   4.221  12.537  1.00  0.00    -0.285 N 
HETATM    4  N3  UNL     1      20.142   4.351  13.617  1.00  0.00    -0.239 N 
ATOM      5  H3  UNL     1      21.142   4.552  13.593  1.00  0.00     0.208 HD
HETATM    6  N4  UNL     1      19.439   4.187  14.720  1.00  0.00    -0.270 N 
ATOM      7  H4  UNL     1      19.808   4.241  15.670  1.00  0.00     0.190 HD
ENDROOT
BRANCH   1   8
HETATM    8  N1  UNL     1      17.067   3.700  15.275  1.00  0.00    -0.310 N 
HETATM    9  C1  UNL     1      17.108   2.561  16.113  1.00  0.00     0.229 C 
HETATM   10  O1  UNL     1      18.074   1.771  16.080  1.00  0.00    -0.273 OA
ATOM     11  H1  UNL     1      16.272   4.339  15.307  1.00  0.00     0.170 HD
BRANCH   9  12
HETATM   12  C11 UNL     1      15.992   2.302  17.039  1.00  0.00     0.104 C 
HETATM   13  C12 UNL     1      15.418   0.892  16.856  1.00  0.00     0.042 C 
HETATM   14  C13 UNL     1      13.978   1.134  17.306  1.00  0.00     0.168 C 
HETATM   15  O2  UNL     1      13.679   2.351  16.753  1.00  0.00    -0.390 OA
HETATM   16  C14 UNL     1      14.792   3.151  16.771  1.00  0.00     0.181 C 
ENDBRANCH   9  12
ENDBRANCH   1   8
BRANCH   3  17
HETATM   17  C4  UNL     1      19.804   4.334  11.178  1.00  0.00     0.154 C 
BRANCH  17  18
HETATM   18  C5  UNL     1      21.279   4.511  11.021  1.00  0.00     0.005 C 
HETATM   19  C6  UNL     1      21.607   6.004  10.971  1.00  0.00     0.006 C 
HETATM   20  C7  UNL     1      23.085   6.238  10.873  1.00  0.00     0.000 C 
HETATM   21  C8  UNL     1      23.899   5.055  10.536  1.00  0.00     0.000 C 
HETATM   22  C9  UNL     1      23.273   3.996   9.730  1.00  0.00     0.000 C 
HETATM   23  C10 UNL     1      21.788   3.974   9.690  1.00  0.00     0.006 C 
ENDBRANCH  17  18
ENDBRANCH   3  17
TORSDOF 4
ENDMDL
MODEL 3
REMARK VINA RESULT: -7.063128715      2.757      8.325
REMARK  4 active torsions:
REMARK  status: ('A' for Active; 'I' for Inactive)
REMARK       I    between atoms: C1_2  and  N1_3 
REMARK    1  A    between atoms: C1_2  and  C11_19 
REMARK    2  A    between atoms: N1_3  and  C2_5 
REMARK    3  A    between atoms: N2_7  and  C4_8 
REMARK    4  A    between atoms: C4_8  and  C5_9 
ROOT
HETATM    1  C2  UNL     1      17.430   2.450  13.343  1.00  0.00     0.141 A 
HETATM    2  C3  UNL     1      17.855   3.453  12.491  1.00  0.00     0.161 A 
HETATM    3  N2  UNL     1      18.737   2.964  11.597  1.00  0.00    -0.285 N 
HETATM    4  N3  UNL     1      18.856   1.670  11.892  1.00  0.00    -0.239 N 
ATOM      5  H3  UNL     1      19.458   1.017  11.390  1.00  0.00     0.208 HD
HETATM    6  N4  UNL     1      18.095   1.346  12.918  1.00  0.00    -0.270 N 
ATOM      7  H4  UNL     1      18.018   0.414  13.327  1.00  0.00     0.190 HD
ENDROOT
BRANCH   1   8
HETATM    8  N1  UNL     1      16.511   2.536  14.419  1.00  0.00    -0.310 N 
HETATM    9  C1  UNL     1      16.925   2.114  15.704  1.00  0.00     0.229 C 
HETATM   10  O1  UNL     1      18.076   1.670  15.897  1.00  0.00    -0.273 OA
ATOM     11  H1  UNL     1      15.568   2.895  14.269  1.00  0.00     0.170 HD
BRANCH   9  12
HETATM   12  C11 UNL     1      15.982   2.197  16.831  1.00  0.00     0.104 C 
HETATM   13  C12 UNL     1      15.360   0.833  17.154  1.00  0.00     0.042 C 
HETATM   14  C13 UNL     1      14.024   1.285  17.742  1.00  0.00     0.168 C 
HETATM   15  O2  UNL     1      13.655   2.317  16.920  1.00  0.00    -0.390 OA
HETATM   16  C14 UNL     1      14.769   3.015  16.530  1.00  0.00     0.181 C 
ENDBRANCH   9  12
ENDBRANCH   1   8
BRANCH   3  17
HETATM   17  C4  UNL     1      19.414   3.654  10.545  1.00  0.00     0.154 C 
BRANCH  17  18
HETATM   18  C5  UNL     1      20.846   3.958  10.842  1.00  0.00     0.005 C 
HETATM   19  C6  UNL     1      20.952   5.362  11.440  1.00  0.00     0.006 C 
HETATM   20  C7  UNL     1      22.367   5.695  11.811  1.00  0.00     0.000 C 
HETATM   21  C8  UNL     1      23.399   4.790  11.271  1.00  0.00     0.000 C 
HETATM   22  C9  UNL     1      23.120   4.109   9.998  1.00  0.00     0.000 C 
HETATM   23  C10 UNL     1      21.697   4.026   9.580  1.00  0.00     0.006 C 
ENDBRANCH  17  18
ENDBRANCH   3  17
TORSDOF 4
ENDMDL
MODEL 4
REMARK VINA RESULT: -7.008710738      2.537      8.466
REMARK  4 active torsions:
REMARK  status: ('A' for Active; 'I' for Inactive)
REMARK       I    between atoms: C1_2  and  N1_3 
REMARK    1  A    between atoms: C1_2  and  C11_19 
REMARK    2  A    between atoms: N1_3  and  C2_5 
REMARK    3  A    between atoms: N2_7  and  C4_8 
REMARK    4  A    between atoms: C4_8  and  C5_9 
ROOT
HETATM    1  C2  UNL     1      17.853   3.714  14.112  1.00  0.00     0.141 A 
HETATM    2  C3  UNL     1      18.625   4.845  13.916  1.00  0.00     0.161 A 
HETATM    3  N2  UNL     1      19.514   4.635  12.925  1.00  0.00    -0.285 N 
HETATM    4  N3  UNL     1      19.294   3.389  12.511  1.00  0.00    -0.239 N 
ATOM      5  H3  UNL     1      19.811   2.930  11.761  1.00  0.00     0.208 HD
HETATM    6  N4  UNL     1      18.319   2.827  13.198  1.00  0.00    -0.270 N 
ATOM      7  H4  UNL     1      17.971   1.877  13.063  1.00  0.00     0.190 HD
ENDROOT
BRANCH   1   8
HETATM    8  N1  UNL     1      16.809   3.511  15.049  1.00  0.00    -0.310 N 
HETATM    9  C1  UNL     1      16.983   2.539  16.063  1.00  0.00     0.229 C 
HETATM   10  O1  UNL     1      18.032   1.867  16.138  1.00  0.00    -0.273 OA
ATOM     11  H1  UNL     1      15.948   4.054  14.994  1.00  0.00     0.170 HD
BRANCH   9  12
HETATM   12  C11 UNL     1      15.908   2.316  17.044  1.00  0.00     0.104 C 
HETATM   13  C12 UNL     1      15.410   0.866  17.021  1.00  0.00     0.042 C 
HETATM   14  C13 UNL     1      13.971   1.074  17.490  1.00  0.00     0.168 C 
HETATM   15  O2  UNL     1      13.589   2.210  16.827  1.00  0.00    -0.390 OA
HETATM   16  C14 UNL     1      14.655   3.067  16.730  1.00  0.00     0.181 C 
ENDBRANCH   9  12
ENDBRANCH   1   8
BRANCH   3  17
HETATM   17  C4  UNL     1      20.493   5.536  12.403  1.00  0.00     0.154 C 
BRANCH  17  18
HETATM   18  C5  UNL     1      21.451   4.904  11.447  1.00  0.00     0.005 C 
HETATM   19  C6  UNL     1      22.824   5.561  11.598  1.00  0.00     0.006 C 
HETATM   20  C7  UNL     1      23.841   4.921  10.699  1.00  0.00     0.000 C 
HETATM   21  C8  UNL     1      23.299   4.033   9.652  1.00  0.00     0.000 C 
HETATM   22  C9  UNL     1      21.949   4.314   9.142  1.00  0.00     0.000 C 
HETATM   23  C10 UNL     1      21.073   5.160   9.994  1.00  0.00     0.006 C 
ENDBRANCH  17  18
ENDBRANCH   3  17
TORSDOF 4
ENDMDL
MODEL 5
REMARK VINA RESULT: -6.951026229      3.763      7.990
REMARK  4 active torsions:
REMARK  status: ('A' for Active; 'I' for Inactive)
REMARK       I    between atoms: C1_2  and  N1_3 
REMARK    1  A    between atoms: C1_2  and  C11_19 
REMARK    2  A    between atoms: N1_3  and  C2_5 
REMARK    3  A    between atoms: N2_7  and  C4_8 
REMARK    4  A    between atoms: C4_8  and  C5_9 
ROOT
HETATM    1  C2  UNL     1      17.780   4.041  14.989  1.00  0.00     0.141 A 
HETATM    2  C3  UNL     1      17.751   5.110  14.112  1.00  0.00     0.161 A 
HETATM    3  N2  UNL     1      19.005   5.522  13.840  1.00  0.00    -0.285 N 
HETATM    4  N3  UNL     1      19.801   4.717  14.540  1.00  0.00    -0.239 N 
ATOM      5  H3  UNL     1      20.820   4.774  14.544  1.00  0.00     0.208 HD
HETATM    6  N4  UNL     1      19.100   3.836  15.225  1.00  0.00    -0.270 N 
ATOM      7  H4  UNL     1      19.488   3.116  15.834  1.00  0.00     0.190 HD
ENDROOT
BRANCH   1   8
HETATM    8  N1  UNL     1      16.690   3.313  15.529  1.00  0.00    -0.310 N 
HETATM    9  C1  UNL     1      16.939   2.054  16.123  1.00  0.00     0.229 C 
HETATM   10  O1  UNL     1      18.093   1.583  16.175  1.00  0.00    -0.273 OA
ATOM     11  H1  UNL     1      15.743   3.690  15.489  1.00  0.00     0.170 HD
BRANCH   9  12
HETATM   12  C11 UNL     1      15.816   1.286  16.688  1.00  0.00     0.104 C 
HETATM   13  C12 UNL     1      14.478   1.689  16.057  1.00  0.00     0.042 C 
HETATM   14  C13 UNL     1      13.534   1.367  17.215  1.00  0.00     0.168 C 
HETATM   15  O2  UNL     1      14.227   1.804  18.312  1.00  0.00    -0.390 OA
HETATM   16  C14 UNL     1      15.566   1.577  18.132  1.00  0.00     0.181 C 
ENDBRANCH   9  12
ENDBRANCH   1   8
BRANCH   3  17
HETATM   17  C4  UNL     1      19.425   6.589  12.986  1.00  0.00     0.154 C 
BRANCH  17  18
HETATM   18  C5  UNL     1      20.062   7.730  13.709  1.00  0.00     0.005 C 
HETATM   19  C6  UNL     1      19.158   8.166  14.863  1.00  0.00     0.006 C 
HETATM   20  C7  UNL     1      19.781   9.274  15.660  1.00  0.00     0.000 C 
HETATM   21  C8  UNL     1      20.944   9.933  15.037  1.00  0.00     0.000 C 
HETATM   22  C9  UNL     1      21.014   9.962  13.568  1.00  0.00     0.000 C 
HETATM   23  C10 UNL     1      20.178   8.974  12.838  1.00  0.00     0.006 C 
ENDBRANCH  17  18
ENDBRANCH   3  17
TORSDOF 4
ENDMDL
