MODEL 1
REMARK VINA RESULT: -6.998632974      0.000      0.000
REMARK  5 active torsions:
REMARK  status: ('A' for Active; 'I' for Inactive)
REMARK    1  A    between atoms: C4_4  and  N1_5 
REMARK    2  A    between atoms: C6_9  and  C7_10 
REMARK    3  A    between atoms: C7_10  and  N4_12 
REMARK    4  A    between atoms: N4_12  and  C8_14 
REMARK    5  A    between atoms: C8_14  and  C9_15 
ROOT
HETATM    1  C9  UNL     1      -7.177   1.630  17.102  1.00  0.00     0.143 C 
HETATM    2  C10 UNL     1      -6.937   3.063  16.978  1.00  0.00     0.060 C 
HETATM    3  N5  UNL     1      -6.724   4.208  16.874  1.00  0.00    -0.197 NA
ENDROOT
BRANCH   1   4
HETATM    4  C8  UNL     1      -5.898   0.874  17.432  1.00  0.00     0.135 C 
BRANCH   4   5
HETATM    5  N4  UNL     1      -4.824   1.487  16.718  1.00  0.00    -0.375 N 
ATOM      6  H4  UNL     1      -4.223   2.132  17.230  1.00  0.00     0.160 HD
BRANCH   5   7
HETATM    7  C7  UNL     1      -4.561   1.283  15.474  1.00  0.00     0.158 C 
HETATM    8  N3  UNL     1      -4.724   0.024  14.836  1.00  0.00    -0.079 NA
BRANCH   7   9
HETATM    9  C6  UNL     1      -4.070   2.396  14.662  1.00  0.00     0.162 A 
HETATM   10  N2  UNL     1      -3.858   2.403  13.319  1.00  0.00    -0.334 N 
HETATM   11  C5  UNL     1      -3.403   3.605  12.923  1.00  0.00     0.202 A 
ATOM     12  H2  UNL     1      -4.022   1.610  12.700  1.00  0.00     0.168 HD
HETATM   13  N1  UNL     1      -3.329   4.362  14.037  1.00  0.00    -0.280 N 
HETATM   14  N6  UNL     1      -3.729   3.633  15.065  1.00  0.00    -0.279 N 
ATOM     15  H6  UNL     1      -3.772   3.962  16.030  1.00  0.00     0.189 HD
BRANCH  13  16
HETATM   16  C4  UNL     1      -2.874   5.736  14.001  1.00  0.00     0.126 A 
HETATM   17  C2  UNL     1      -3.748   6.672  13.229  1.00  0.00    -0.015 A 
HETATM   18  C1  UNL     1      -3.015   7.572  12.269  1.00  0.00     0.018 C 
HETATM   19  C3  UNL     1      -5.129   6.241  12.797  1.00  0.00     0.018 C 
HETATM   20  C11 UNL     1      -3.562   6.815  14.697  1.00  0.00    -0.015 A 
HETATM   21  C12 UNL     1      -2.749   8.029  15.113  1.00  0.00     0.018 C 
HETATM   22  C13 UNL     1      -4.693   6.497  15.632  1.00  0.00     0.018 C 
ENDBRANCH  13  16
ENDBRANCH   7   9
ENDBRANCH   5   7
ENDBRANCH   4   5
ENDBRANCH   1   4
TORSDOF 5
ENDMDL
MODEL 2
REMARK VINA RESULT: -6.970885981      1.966      3.678
REMARK  5 active torsions:
REMARK  status: ('A' for Active; 'I' for Inactive)
REMARK    1  A    between atoms: C4_4  and  N1_5 
REMARK    2  A    between atoms: C6_9  and  C7_10 
REMARK    3  A    between atoms: C7_10  and  N4_12 
REMARK    4  A    between atoms: N4_12  and  C8_14 
REMARK    5  A    between atoms: C8_14  and  C9_15 
ROOT
HETATM    1  C9  UNL     1      -3.037  -0.106  10.767  1.00  0.00     0.143 C 
HETATM    2  C10 UNL     1      -2.185   1.022  11.126  1.00  0.00     0.060 C 
HETATM    3  N5  UNL     1      -1.506   1.922  11.433  1.00  0.00    -0.197 NA
ENDROOT
BRANCH   1   4
HETATM    4  C8  UNL     1      -4.035  -0.427  11.870  1.00  0.00     0.135 C 
BRANCH   4   5
HETATM    5  N4  UNL     1      -4.414   0.799  12.495  1.00  0.00    -0.375 N 
ATOM      6  H4  UNL     1      -4.738   1.557  11.893  1.00  0.00     0.160 HD
BRANCH   5   7
HETATM    7  C7  UNL     1      -4.376   1.017  13.764  1.00  0.00     0.158 C 
HETATM    8  N3  UNL     1      -4.688   0.030  14.737  1.00  0.00    -0.079 NA
BRANCH   7   9
HETATM    9  C6  UNL     1      -3.993   2.345  14.243  1.00  0.00     0.162 A 
HETATM   10  N2  UNL     1      -4.037   2.801  15.524  1.00  0.00    -0.334 N 
HETATM   11  C5  UNL     1      -3.607   4.074  15.582  1.00  0.00     0.202 A 
ATOM     12  H2  UNL     1      -4.351   2.255  16.325  1.00  0.00     0.168 HD
HETATM   13  N1  UNL     1      -3.290   4.420  14.318  1.00  0.00    -0.280 N 
HETATM   14  N6  UNL     1      -3.523   3.384  13.530  1.00  0.00    -0.279 N 
ATOM     15  H6  UNL     1      -3.369   3.374  12.521  1.00  0.00     0.189 HD
BRANCH  13  16
HETATM   16  C4  UNL     1      -2.785   5.735  13.987  1.00  0.00     0.126 A 
HETATM   17  C2  UNL     1      -3.686   6.560  13.125  1.00  0.00    -0.015 A 
HETATM   18  C1  UNL     1      -3.007   7.225  11.956  1.00  0.00     0.018 C 
HETATM   19  C3  UNL     1      -5.116   6.136  12.895  1.00  0.00     0.018 C 
HETATM   20  C11 UNL     1      -3.363   6.962  14.519  1.00  0.00    -0.015 A 
HETATM   21  C12 UNL     1      -2.467   8.183  14.632  1.00  0.00     0.018 C 
HETATM   22  C13 UNL     1      -4.417   6.886  15.586  1.00  0.00     0.018 C 
ENDBRANCH  13  16
ENDBRANCH   7   9
ENDBRANCH   5   7
ENDBRANCH   4   5
ENDBRANCH   1   4
TORSDOF 5
ENDMDL
MODEL 3
REMARK VINA RESULT: -6.821226725      0.857      1.868
REMARK  5 active torsions:
REMARK  status: ('A' for Active; 'I' for Inactive)
REMARK    1  A    between atoms: C4_4  and  N1_5 
REMARK    2  A    between atoms: C6_9  and  C7_10 
REMARK    3  A    between atoms: C7_10  and  N4_12 
REMARK    4  A    between atoms: N4_12  and  C8_14 
REMARK    5  A    between atoms: C8_14  and  C9_15 
ROOT
HETATM    1  C9  UNL     1      -7.216   1.612  17.126  1.00  0.00     0.143 C 
HETATM    2  C10 UNL     1      -6.965   3.047  17.043  1.00  0.00     0.060 C 
HETATM    3  N5  UNL     1      -6.744   4.192  16.973  1.00  0.00    -0.197 NA
ENDROOT
BRANCH   1   4
HETATM    4  C8  UNL     1      -5.938   0.835  17.402  1.00  0.00     0.135 C 
BRANCH   4   5
HETATM    5  N4  UNL     1      -4.893   1.407  16.616  1.00  0.00    -0.375 N 
ATOM      6  H4  UNL     1      -4.250   2.050  17.079  1.00  0.00     0.160 HD
BRANCH   5   7
HETATM    7  C7  UNL     1      -4.703   1.170  15.364  1.00  0.00     0.158 C 
HETATM    8  N3  UNL     1      -4.603  -0.139  14.822  1.00  0.00    -0.079 NA
BRANCH   7   9
HETATM    9  C6  UNL     1      -4.584   2.298  14.440  1.00  0.00     0.162 A 
HETATM   10  N2  UNL     1      -4.572   2.249  13.081  1.00  0.00    -0.334 N 
HETATM   11  C5  UNL     1      -4.447   3.486  12.569  1.00  0.00     0.202 A 
ATOM     12  H2  UNL     1      -4.647   1.395  12.529  1.00  0.00     0.168 HD
HETATM   13  N1  UNL     1      -4.381   4.323  13.626  1.00  0.00    -0.280 N 
HETATM   14  N6  UNL     1      -4.463   3.605  14.733  1.00  0.00    -0.279 N 
ATOM     15  H6  UNL     1      -4.438   3.988  15.678  1.00  0.00     0.189 HD
BRANCH  13  16
HETATM   16  C4  UNL     1      -4.242   5.754  13.462  1.00  0.00     0.126 A 
HETATM   17  C2  UNL     1      -2.939   6.320  13.928  1.00  0.00    -0.015 A 
HETATM   18  C1  UNL     1      -3.056   7.550  14.789  1.00  0.00     0.018 C 
HETATM   19  C3  UNL     1      -1.783   5.404  14.252  1.00  0.00     0.018 C 
HETATM   20  C11 UNL     1      -3.333   6.355  12.495  1.00  0.00    -0.015 A 
HETATM   21  C12 UNL     1      -3.667   7.740  11.967  1.00  0.00     0.018 C 
HETATM   22  C13 UNL     1      -2.624   5.484  11.498  1.00  0.00     0.018 C 
ENDBRANCH  13  16
ENDBRANCH   7   9
ENDBRANCH   5   7
ENDBRANCH   4   5
ENDBRANCH   1   4
TORSDOF 5
ENDMDL
MODEL 4
REMARK VINA RESULT: -6.811852280      1.951      3.713
REMARK  5 active torsions:
REMARK  status: ('A' for Active; 'I' for Inactive)
REMARK    1  A    between atoms: C4_4  and  N1_5 
REMARK    2  A    between atoms: C6_9  and  C7_10 
REMARK    3  A    between atoms: C7_10  and  N4_12 
REMARK    4  A    between atoms: N4_12  and  C8_14 
REMARK    5  A    between atoms: C8_14  and  C9_15 
ROOT
HETATM    1  C9  UNL     1      -4.370   0.312  10.774  1.00  0.00     0.143 C 
HETATM    2  C10 UNL     1      -4.789   1.709  10.795  1.00  0.00     0.060 C 
HETATM    3  N5  UNL     1      -5.119   2.829  10.832  1.00  0.00    -0.197 NA
ENDROOT
BRANCH   1   4
HETATM    4  C8  UNL     1      -4.268  -0.264  12.178  1.00  0.00     0.135 C 
BRANCH   4   5
HETATM    5  N4  UNL     1      -3.807   0.769  13.049  1.00  0.00    -0.375 N 
ATOM      6  H4  UNL     1      -2.979   1.292  12.765  1.00  0.00     0.160 HD
BRANCH   5   7
HETATM    7  C7  UNL     1      -4.363   1.087  14.167  1.00  0.00     0.158 C 
HETATM    8  N3  UNL     1      -4.752   0.135  15.146  1.00  0.00    -0.079 NA
BRANCH   7   9
HETATM    9  C6  UNL     1      -4.610   2.499  14.458  1.00  0.00     0.162 A 
HETATM   10  N2  UNL     1      -5.364   3.010  15.468  1.00  0.00    -0.334 N 
HETATM   11  C5  UNL     1      -5.362   4.354  15.420  1.00  0.00     0.202 A 
ATOM     12  H2  UNL     1      -5.860   2.453  16.163  1.00  0.00     0.168 HD
HETATM   13  N1  UNL     1      -4.594   4.689  14.362  1.00  0.00    -0.280 N 
HETATM   14  N6  UNL     1      -4.152   3.578  13.798  1.00  0.00    -0.279 N 
ATOM     15  H6  UNL     1      -3.548   3.543  12.976  1.00  0.00     0.189 HD
BRANCH  13  16
HETATM   16  C4  UNL     1      -4.357   6.068  13.993  1.00  0.00     0.126 A 
HETATM   17  C2  UNL     1      -2.964   6.557  14.234  1.00  0.00    -0.015 A 
HETATM   18  C1  UNL     1      -2.874   7.890  14.929  1.00  0.00     0.018 C 
HETATM   19  C3  UNL     1      -1.859   5.579  14.551  1.00  0.00     0.018 C 
HETATM   20  C11 UNL     1      -3.524   6.453  12.861  1.00  0.00    -0.015 A 
HETATM   21  C12 UNL     1      -3.803   7.787  12.191  1.00  0.00     0.018 C 
HETATM   22  C13 UNL     1      -3.016   5.399  11.920  1.00  0.00     0.018 C 
ENDBRANCH  13  16
ENDBRANCH   7   9
ENDBRANCH   5   7
ENDBRANCH   4   5
ENDBRANCH   1   4
TORSDOF 5
ENDMDL
MODEL 5
REMARK VINA RESULT: -6.773854451      1.383      1.875
REMARK  5 active torsions:
REMARK  status: ('A' for Active; 'I' for Inactive)
REMARK    1  A    between atoms: C4_4  and  N1_5 
REMARK    2  A    between atoms: C6_9  and  C7_10 
REMARK    3  A    between atoms: C7_10  and  N4_12 
REMARK    4  A    between atoms: N4_12  and  C8_14 
REMARK    5  A    between atoms: C8_14  and  C9_15 
ROOT
HETATM    1  C9  UNL     1      -6.952   2.738  17.376  1.00  0.00     0.143 C 
HETATM    2  C10 UNL     1      -6.605   1.321  17.336  1.00  0.00     0.060 C 
HETATM    3  N5  UNL     1      -6.311   0.191  17.292  1.00  0.00    -0.197 NA
ENDROOT
BRANCH   1   4
HETATM    4  C8  UNL     1      -6.303   3.505  16.233  1.00  0.00     0.135 C 
BRANCH   4   5
HETATM    5  N4  UNL     1      -5.484   2.597  15.497  1.00  0.00    -0.375 N 
ATOM      6  H4  UNL     1      -5.952   1.884  14.937  1.00  0.00     0.160 HD
BRANCH   5   7
HETATM    7  C7  UNL     1      -4.196   2.613  15.490  1.00  0.00     0.158 C 
HETATM    8  N3  UNL     1      -3.398   1.724  16.259  1.00  0.00    -0.079 NA
BRANCH   7   9
HETATM    9  C6  UNL     1      -3.504   3.590  14.650  1.00  0.00     0.162 A 
HETATM   10  N2  UNL     1      -3.153   3.450  13.344  1.00  0.00    -0.334 N 
HETATM   11  C5  UNL     1      -2.531   4.558  12.904  1.00  0.00     0.202 A 
ATOM     12  H2  UNL     1      -3.336   2.622  12.778  1.00  0.00     0.168 HD
HETATM   13  N1  UNL     1      -2.493   5.406  13.953  1.00  0.00    -0.280 N 
HETATM   14  N6  UNL     1      -3.075   4.820  14.986  1.00  0.00    -0.279 N 
ATOM     15  H6  UNL     1      -3.183   5.241  15.909  1.00  0.00     0.189 HD
BRANCH  13  16
HETATM   16  C4  UNL     1      -1.890   6.718  13.856  1.00  0.00     0.126 A 
HETATM   17  C2  UNL     1      -2.679   7.721  13.077  1.00  0.00    -0.015 A 
HETATM   18  C1  UNL     1      -1.884   8.502  12.065  1.00  0.00     0.018 C 
HETATM   19  C3  UNL     1      -4.113   7.434  12.700  1.00  0.00     0.018 C 
HETATM   20  C11 UNL     1      -2.431   7.889  14.532  1.00  0.00    -0.015 A 
HETATM   21  C12 UNL     1      -1.476   9.017  14.882  1.00  0.00     0.018 C 
HETATM   22  C13 UNL     1      -3.559   7.729  15.511  1.00  0.00     0.018 C 
ENDBRANCH  13  16
ENDBRANCH   7   9
ENDBRANCH   5   7
ENDBRANCH   4   5
ENDBRANCH   1   4
TORSDOF 5
ENDMDL
