MODEL 1
REMARK VINA RESULT: -7.364264400      0.000      0.000
REMARK  4 active torsions:
REMARK  status: ('A' for Active; 'I' for Inactive)
REMARK    1  A    between atoms: N2_6  and  C4_7 
REMARK    2  A    between atoms: C4_7  and  C5_8 
REMARK    3  A    between atoms: C5_8  and  C6_9 
REMARK       I    between atoms: C6_9  and  N3_11 
REMARK    4  A    between atoms: N3_11  and  C7_13 
ROOT
HETATM    1  C7  UNL     1      -4.758   2.374  15.739  1.00  0.00     0.122 C 
HETATM    2  C8  UNL     1      -4.709   0.985  15.261  1.00  0.00     0.091 C 
HETATM    3  N4  UNL     1      -4.669  -0.119  14.892  1.00  0.00    -0.195 NA
HETATM    4  C9  UNL     1      -4.825   2.334  17.253  1.00  0.00     0.046 C 
HETATM    5  C10 UNL     1      -5.976   1.461  17.717  1.00  0.00     0.004 C 
HETATM    6  C11 UNL     1      -7.252   1.799  16.971  1.00  0.00     0.000 C 
HETATM    7  C12 UNL     1      -7.116   3.115  16.227  1.00  0.00     0.004 C 
HETATM    8  C13 UNL     1      -6.045   2.968  15.192  1.00  0.00     0.046 C 
ENDROOT
BRANCH   1   9
HETATM    9  N3  UNL     1      -3.598   3.083  15.269  1.00  0.00    -0.339 N 
HETATM   10  C6  UNL     1      -3.542   4.472  15.064  1.00  0.00     0.220 C 
HETATM   11  O1  UNL     1      -4.558   5.175  15.296  1.00  0.00    -0.274 OA
ATOM     12  H3  UNL     1      -2.758   2.540  15.071  1.00  0.00     0.164 HD
BRANCH  10  13
HETATM   13  C5  UNL     1      -2.323   5.157  14.580  1.00  0.00     0.124 C 
BRANCH  13  14
HETATM   14  C4  UNL     1      -2.484   5.721  13.202  1.00  0.00     0.159 C 
BRANCH  14  15
HETATM   15  N2  UNL     1      -2.716   4.606  12.293  1.00  0.00    -0.286 N 
HETATM   16  C3  UNL     1      -3.703   4.424  11.401  1.00  0.00     0.201 A 
HETATM   17  N1  UNL     1      -3.483   3.234  10.799  1.00  0.00    -0.340 N 
HETATM   18  C2  UNL     1      -2.385   2.686  11.302  1.00  0.00     0.092 A 
ATOM     19  H1  UNL     1      -4.069   2.823  10.071  1.00  0.00     0.168 HD
HETATM   20  C1  UNL     1      -1.791   1.388  10.922  1.00  0.00     0.090 C 
HETATM   21  N5  UNL     1      -1.912   3.536  12.227  1.00  0.00    -0.286 N 
ATOM     22  H5  UNL     1      -1.073   3.390  12.789  1.00  0.00     0.188 HD
ENDBRANCH  14  15
ENDBRANCH  13  14
ENDBRANCH  10  13
ENDBRANCH   1   9
TORSDOF 4
ENDMDL
MODEL 2
REMARK VINA RESULT: -7.107814248      1.661      2.227
REMARK  4 active torsions:
REMARK  status: ('A' for Active; 'I' for Inactive)
REMARK    1  A    between atoms: N2_6  and  C4_7 
REMARK    2  A    between atoms: C4_7  and  C5_8 
REMARK    3  A    between atoms: C5_8  and  C6_9 
REMARK       I    between atoms: C6_9  and  N3_11 
REMARK    4  A    between atoms: N3_11  and  C7_13 
ROOT
HETATM    1  C7  UNL     1      -5.596   3.252  16.321  1.00  0.00     0.122 C 
HETATM    2  C8  UNL     1      -4.311   2.539  16.288  1.00  0.00     0.091 C 
HETATM    3  N4  UNL     1      -3.292   1.976  16.272  1.00  0.00    -0.195 NA
HETATM    4  C9  UNL     1      -5.979   3.438  17.776  1.00  0.00     0.046 C 
HETATM    5  C10 UNL     1      -5.969   2.109  18.508  1.00  0.00     0.004 C 
HETATM    6  C11 UNL     1      -6.714   1.048  17.722  1.00  0.00     0.000 C 
HETATM    7  C12 UNL     1      -7.538   1.672  16.609  1.00  0.00     0.004 C 
HETATM    8  C13 UNL     1      -6.606   2.339  15.646  1.00  0.00     0.046 C 
ENDROOT
BRANCH   1   9
HETATM    9  N3  UNL     1      -5.465   4.508  15.633  1.00  0.00    -0.339 N 
HETATM   10  C6  UNL     1      -5.421   4.651  14.236  1.00  0.00     0.220 C 
HETATM   11  O1  UNL     1      -5.500   3.631  13.505  1.00  0.00    -0.274 OA
ATOM     12  H3  UNL     1      -5.398   5.354  16.199  1.00  0.00     0.164 HD
BRANCH  10  13
HETATM   13  C5  UNL     1      -5.286   5.968  13.574  1.00  0.00     0.124 C 
BRANCH  13  14
HETATM   14  C4  UNL     1      -3.991   6.648  13.896  1.00  0.00     0.159 C 
BRANCH  14  15
HETATM   15  N2  UNL     1      -2.913   5.754  13.497  1.00  0.00    -0.286 N 
HETATM   16  C3  UNL     1      -1.812   5.390  14.176  1.00  0.00     0.201 A 
HETATM   17  N1  UNL     1      -1.116   4.543  13.385  1.00  0.00    -0.340 N 
HETATM   18  C2  UNL     1      -1.765   4.383  12.239  1.00  0.00     0.092 A 
ATOM     19  H1  UNL     1      -0.231   4.098  13.630  1.00  0.00     0.168 HD
HETATM   20  C1  UNL     1      -1.350   3.541  11.098  1.00  0.00     0.090 C 
HETATM   21  N5  UNL     1      -2.876   5.133  12.310  1.00  0.00    -0.286 N 
ATOM     22  H5  UNL     1      -3.581   5.216  11.577  1.00  0.00     0.188 HD
ENDBRANCH  14  15
ENDBRANCH  13  14
ENDBRANCH  10  13
ENDBRANCH   1   9
TORSDOF 4
ENDMDL
MODEL 3
REMARK VINA RESULT: -7.094822493      2.167      5.410
REMARK  4 active torsions:
REMARK  status: ('A' for Active; 'I' for Inactive)
REMARK    1  A    between atoms: N2_6  and  C4_7 
REMARK    2  A    between atoms: C4_7  and  C5_8 
REMARK    3  A    between atoms: C5_8  and  C6_9 
REMARK       I    between atoms: C6_9  and  N3_11 
REMARK    4  A    between atoms: N3_11  and  C7_13 
ROOT
HETATM    1  C7  UNL     1      -4.245   2.052  12.355  1.00  0.00     0.122 C 
HETATM    2  C8  UNL     1      -4.408   0.993  13.361  1.00  0.00     0.091 C 
HETATM    3  N4  UNL     1      -4.545   0.150  14.153  1.00  0.00    -0.195 NA
HETATM    4  C9  UNL     1      -5.022   1.635  11.122  1.00  0.00     0.046 C 
HETATM    5  C10 UNL     1      -4.600   0.251  10.664  1.00  0.00     0.004 C 
HETATM    6  C11 UNL     1      -3.089   0.133  10.609  1.00  0.00     0.000 C 
HETATM    7  C12 UNL     1      -2.431   1.498  10.696  1.00  0.00     0.004 C 
HETATM    8  C13 UNL     1      -2.763   2.102  12.025  1.00  0.00     0.046 C 
ENDROOT
BRANCH   1   9
HETATM    9  N3  UNL     1      -4.717   3.300  12.892  1.00  0.00    -0.339 N 
HETATM   10  C6  UNL     1      -4.193   3.924  14.038  1.00  0.00     0.220 C 
HETATM   11  O1  UNL     1      -3.246   3.381  14.662  1.00  0.00    -0.274 OA
ATOM     12  H3  UNL     1      -5.485   3.765  12.409  1.00  0.00     0.164 HD
BRANCH  10  13
HETATM   13  C5  UNL     1      -4.713   5.211  14.552  1.00  0.00     0.124 C 
BRANCH  13  14
HETATM   14  C4  UNL     1      -6.167   5.150  14.902  1.00  0.00     0.159 C 
BRANCH  14  15
HETATM   15  N2  UNL     1      -6.315   4.219  16.012  1.00  0.00    -0.286 N 
HETATM   16  C3  UNL     1      -6.571   4.470  17.307  1.00  0.00     0.201 A 
HETATM   17  N1  UNL     1      -6.613   3.278  17.944  1.00  0.00    -0.340 N 
HETATM   18  C2  UNL     1      -6.389   2.307  17.069  1.00  0.00     0.092 A 
ATOM     19  H1  UNL     1      -6.790   3.147  18.940  1.00  0.00     0.168 HD
HETATM   20  C1  UNL     1      -6.348   0.856  17.349  1.00  0.00     0.090 C 
HETATM   21  N5  UNL     1      -6.204   2.891  15.875  1.00  0.00    -0.286 N 
ATOM     22  H5  UNL     1      -6.011   2.401  15.001  1.00  0.00     0.188 HD
ENDBRANCH  14  15
ENDBRANCH  13  14
ENDBRANCH  10  13
ENDBRANCH   1   9
TORSDOF 4
ENDMDL
MODEL 4
REMARK VINA RESULT: -7.053915945      2.250      5.337
REMARK  4 active torsions:
REMARK  status: ('A' for Active; 'I' for Inactive)
REMARK    1  A    between atoms: N2_6  and  C4_7 
REMARK    2  A    between atoms: C4_7  and  C5_8 
REMARK    3  A    between atoms: C5_8  and  C6_9 
REMARK       I    between atoms: C6_9  and  N3_11 
REMARK    4  A    between atoms: N3_11  and  C7_13 
ROOT
HETATM    1  C7  UNL     1      -3.741   1.550  12.310  1.00  0.00     0.122 C 
HETATM    2  C8  UNL     1      -4.580   2.394  11.448  1.00  0.00     0.091 C 
HETATM    3  N4  UNL     1      -5.237   3.067  10.759  1.00  0.00    -0.195 NA
HETATM    4  C9  UNL     1      -2.333   1.582  11.751  1.00  0.00     0.046 C 
HETATM    5  C10 UNL     1      -2.329   1.195  10.284  1.00  0.00     0.004 C 
HETATM    6  C11 UNL     1      -3.144  -0.063  10.050  1.00  0.00     0.000 C 
HETATM    7  C12 UNL     1      -3.451  -0.765  11.360  1.00  0.00     0.004 C 
HETATM    8  C13 UNL     1      -4.298   0.141  12.198  1.00  0.00     0.046 C 
ENDROOT
BRANCH   1   9
HETATM    9  N3  UNL     1      -3.796   2.042  13.661  1.00  0.00    -0.339 N 
HETATM   10  C6  UNL     1      -4.318   1.324  14.750  1.00  0.00     0.220 C 
HETATM   11  O1  UNL     1      -4.778   0.168  14.569  1.00  0.00    -0.274 OA
ATOM     12  H3  UNL     1      -3.431   2.978  13.840  1.00  0.00     0.164 HD
BRANCH  10  13
HETATM   13  C5  UNL     1      -4.351   1.874  16.124  1.00  0.00     0.124 C 
BRANCH  13  14
HETATM   14  C4  UNL     1      -5.557   2.725  16.379  1.00  0.00     0.159 C 
BRANCH  14  15
HETATM   15  N2  UNL     1      -5.400   3.952  15.611  1.00  0.00    -0.286 N 
HETATM   16  C3  UNL     1      -6.239   4.519  14.728  1.00  0.00     0.201 A 
HETATM   17  N1  UNL     1      -5.646   5.649  14.282  1.00  0.00    -0.340 N 
HETATM   18  C2  UNL     1      -4.466   5.785  14.871  1.00  0.00     0.092 A 
ATOM     19  H1  UNL     1      -6.044   6.294  13.599  1.00  0.00     0.168 HD
HETATM   20  C1  UNL     1      -3.496   6.881  14.667  1.00  0.00     0.090 C 
HETATM   21  N5  UNL     1      -4.315   4.735  15.693  1.00  0.00    -0.286 N 
ATOM     22  H5  UNL     1      -3.504   4.560  16.287  1.00  0.00     0.188 HD
ENDBRANCH  14  15
ENDBRANCH  13  14
ENDBRANCH  10  13
ENDBRANCH   1   9
TORSDOF 4
ENDMDL
MODEL 5
REMARK VINA RESULT: -7.040212629      2.004      3.461
REMARK  4 active torsions:
REMARK  status: ('A' for Active; 'I' for Inactive)
REMARK    1  A    between atoms: N2_6  and  C4_7 
REMARK    2  A    between atoms: C4_7  and  C5_8 
REMARK    3  A    between atoms: C5_8  and  C6_9 
REMARK       I    between atoms: C6_9  and  N3_11 
REMARK    4  A    between atoms: N3_11  and  C7_13 
ROOT
HETATM    1  C7  UNL     1      -4.720   2.730  15.095  1.00  0.00     0.122 C 
HETATM    2  C8  UNL     1      -4.044   4.029  15.221  1.00  0.00     0.091 C 
HETATM    3  N4  UNL     1      -3.517   5.063  15.319  1.00  0.00    -0.195 NA
HETATM    4  C9  UNL     1      -6.213   2.983  15.165  1.00  0.00     0.046 C 
HETATM    5  C10 UNL     1      -6.567   3.767  16.416  1.00  0.00     0.004 C 
HETATM    6  C11 UNL     1      -5.903   3.167  17.641  1.00  0.00     0.000 C 
HETATM    7  C12 UNL     1      -5.356   1.783  17.342  1.00  0.00     0.004 C 
HETATM    8  C13 UNL     1      -4.290   1.908  16.299  1.00  0.00     0.046 C 
ENDROOT
BRANCH   1   9
HETATM    9  N3  UNL     1      -4.337   2.108  13.856  1.00  0.00    -0.339 N 
HETATM   10  C6  UNL     1      -4.384   0.725  13.611  1.00  0.00     0.220 C 
HETATM   11  O1  UNL     1      -4.784  -0.053  14.514  1.00  0.00    -0.274 OA
ATOM     12  H3  UNL     1      -4.007   2.713  13.104  1.00  0.00     0.164 HD
BRANCH  10  13
HETATM   13  C5  UNL     1      -3.979   0.132  12.317  1.00  0.00     0.124 C 
BRANCH  13  14
HETATM   14  C4  UNL     1      -4.279   1.024  11.151  1.00  0.00     0.159 C 
BRANCH  14  15
HETATM   15  N2  UNL     1      -3.100   1.845  10.910  1.00  0.00    -0.286 N 
HETATM   16  C3  UNL     1      -1.803   1.497  10.918  1.00  0.00     0.201 A 
HETATM   17  N1  UNL     1      -1.089   2.611  10.638  1.00  0.00    -0.340 N 
HETATM   18  C2  UNL     1      -1.920   3.629  10.460  1.00  0.00     0.092 A 
ATOM     19  H1  UNL     1      -0.072   2.659  10.573  1.00  0.00     0.168 HD
HETATM   20  C1  UNL     1      -1.553   5.024  10.138  1.00  0.00     0.090 C 
HETATM   21  N5  UNL     1      -3.164   3.154  10.629  1.00  0.00    -0.286 N 
ATOM     22  H5  UNL     1      -4.021   3.702  10.555  1.00  0.00     0.188 HD
ENDBRANCH  14  15
ENDBRANCH  13  14
ENDBRANCH  10  13
ENDBRANCH   1   9
TORSDOF 4
ENDMDL
