MODEL 1
REMARK VINA RESULT: -4.966727399      0.000      0.000
REMARK  3 active torsions:
REMARK  status: ('A' for Active; 'I' for Inactive)
REMARK    1  A    between atoms: C1_2  and  C2_3 
REMARK    2  A    between atoms: C3_4  and  O2_5 
REMARK    3  A    between atoms: C8_12  and  O4_13 
ROOT
HETATM    1  C2  UNL     1       4.945  -7.983  27.293  1.00  0.00     0.093 C 
HETATM    2  C3  UNL     1       5.888  -8.608  26.298  1.00  0.00     0.203 C 
HETATM    3  C4  UNL     1       6.713  -8.483  27.564  1.00  0.00     0.138 C 
HETATM    4  O3  UNL     1       7.897  -8.838  27.741  1.00  0.00    -0.299 OA
HETATM    5  C5  UNL     1       5.476  -8.986  28.272  1.00  0.00     0.075 C 
HETATM    6  C6  UNL     1       5.398  -8.304  29.596  1.00  0.00     0.017 C 
HETATM    7  C7  UNL     1       6.022  -6.947  29.211  1.00  0.00     0.048 C 
HETATM    8  C8  UNL     1       6.093  -7.129  27.721  1.00  0.00     0.131 C 
ENDROOT
BRANCH   1   9
HETATM    9  C1  UNL     1       3.653  -7.645  27.101  1.00  0.00     0.248 C 
HETATM   10  O1  UNL     1       3.286  -6.771  26.296  1.00  0.00    -0.306 OA
ENDBRANCH   1   9
BRANCH   2  11
HETATM   11  O2  UNL     1       6.314  -7.803  25.273  1.00  0.00    -0.387 OA
ATOM     12  H2  UNL     1       6.997  -8.156  24.715  1.00  0.00     0.210 HD
ENDBRANCH   2  11
BRANCH   8  13
HETATM   13  O4  UNL     1       6.495  -6.115  26.948  1.00  0.00    -0.381 OA
ATOM     14  H4  UNL     1       6.713  -6.271  26.036  1.00  0.00     0.211 HD
ENDBRANCH   8  13
TORSDOF 3
ENDMDL
MODEL 2
REMARK VINA RESULT: -4.907383208      1.806      3.517
REMARK  3 active torsions:
REMARK  status: ('A' for Active; 'I' for Inactive)
REMARK    1  A    between atoms: C1_2  and  C2_3 
REMARK    2  A    between atoms: C3_4  and  O2_5 
REMARK    3  A    between atoms: C8_12  and  O4_13 
ROOT
HETATM    1  C2  UNL     1       6.206  -8.736  28.409  1.00  0.00     0.093 C 
HETATM    2  C3  UNL     1       4.824  -9.070  28.906  1.00  0.00     0.203 C 
HETATM    3  C4  UNL     1       4.638  -7.780  28.131  1.00  0.00     0.138 C 
HETATM    4  O3  UNL     1       3.575  -7.154  27.936  1.00  0.00    -0.299 OA
HETATM    5  C5  UNL     1       5.548  -8.413  27.102  1.00  0.00     0.075 C 
HETATM    6  C6  UNL     1       6.387  -7.332  26.510  1.00  0.00     0.017 C 
HETATM    7  C7  UNL     1       6.520  -6.418  27.744  1.00  0.00     0.048 C 
HETATM    8  C8  UNL     1       5.907  -7.319  28.779  1.00  0.00     0.131 C 
ENDROOT
BRANCH   1   9
HETATM    9  C1  UNL     1       7.340  -9.445  28.591  1.00  0.00     0.248 C 
HETATM   10  O1  UNL     1       8.299  -9.416  27.800  1.00  0.00    -0.306 OA
ENDBRANCH   1   9
BRANCH   2  11
HETATM   11  O2  UNL     1       4.613  -8.945  30.255  1.00  0.00    -0.387 OA
ATOM     12  H2  UNL     1       5.347  -8.629  30.770  1.00  0.00     0.210 HD
ENDBRANCH   2  11
BRANCH   8  13
HETATM   13  O4  UNL     1       5.907  -6.950  30.064  1.00  0.00    -0.381 OA
ATOM     14  H4  UNL     1       5.280  -6.307  30.373  1.00  0.00     0.211 HD
ENDBRANCH   8  13
TORSDOF 3
ENDMDL
MODEL 3
REMARK VINA RESULT: -4.803899382      2.783      3.998
REMARK  3 active torsions:
REMARK  status: ('A' for Active; 'I' for Inactive)
REMARK    1  A    between atoms: C1_2  and  C2_3 
REMARK    2  A    between atoms: C3_4  and  O2_5 
REMARK    3  A    between atoms: C8_12  and  O4_13 
ROOT
HETATM    1  C2  UNL     1       4.681  -7.620  24.654  1.00  0.00     0.093 C 
HETATM    2  C3  UNL     1       5.556  -6.434  24.346  1.00  0.00     0.203 C 
HETATM    3  C4  UNL     1       6.128  -7.549  23.492  1.00  0.00     0.138 C 
HETATM    4  O3  UNL     1       7.092  -7.486  22.700  1.00  0.00    -0.299 OA
HETATM    5  C5  UNL     1       4.686  -7.879  23.178  1.00  0.00     0.075 C 
HETATM    6  C6  UNL     1       4.575  -9.360  23.050  1.00  0.00     0.017 C 
HETATM    7  C7  UNL     1       5.644  -9.778  24.079  1.00  0.00     0.048 C 
HETATM    8  C8  UNL     1       5.934  -8.434  24.685  1.00  0.00     0.131 C 
ENDROOT
BRANCH   1   9
HETATM    9  C1  UNL     1       3.614  -7.664  25.479  1.00  0.00     0.248 C 
HETATM   10  O1  UNL     1       3.404  -6.823  26.371  1.00  0.00    -0.306 OA
ENDBRANCH   1   9
BRANCH   2  11
HETATM   11  O2  UNL     1       6.393  -6.016  25.349  1.00  0.00    -0.387 OA
ATOM     12  H2  UNL     1       6.151  -6.268  26.233  1.00  0.00     0.210 HD
ENDBRANCH   2  11
BRANCH   8  13
HETATM   13  O4  UNL     1       6.764  -8.341  25.728  1.00  0.00    -0.381 OA
ATOM     14  H4  UNL     1       6.519  -7.822  26.485  1.00  0.00     0.211 HD
ENDBRANCH   8  13
TORSDOF 3
ENDMDL
MODEL 4
REMARK VINA RESULT: -4.737003811      3.386      4.800
REMARK  3 active torsions:
REMARK  status: ('A' for Active; 'I' for Inactive)
REMARK    1  A    between atoms: C1_2  and  C2_3 
REMARK    2  A    between atoms: C3_4  and  O2_5 
REMARK    3  A    between atoms: C8_12  and  O4_13 
ROOT
HETATM    1  C2  UNL     1       5.707  -6.119  23.516  1.00  0.00     0.093 C 
HETATM    2  C3  UNL     1       6.093  -6.467  22.102  1.00  0.00     0.203 C 
HETATM    3  C4  UNL     1       5.237  -7.635  22.550  1.00  0.00     0.138 C 
HETATM    4  O3  UNL     1       4.913  -8.641  21.886  1.00  0.00    -0.299 OA
HETATM    5  C5  UNL     1       4.330  -6.581  23.144  1.00  0.00     0.075 C 
HETATM    6  C6  UNL     1       3.759  -7.131  24.408  1.00  0.00     0.017 C 
HETATM    7  C7  UNL     1       4.950  -8.000  24.859  1.00  0.00     0.048 C 
HETATM    8  C8  UNL     1       5.971  -7.551  23.852  1.00  0.00     0.131 C 
ENDROOT
BRANCH   1   9
HETATM    9  C1  UNL     1       6.028  -5.006  24.207  1.00  0.00     0.248 C 
HETATM   10  O1  UNL     1       6.735  -5.016  25.231  1.00  0.00    -0.306 OA
ENDBRANCH   1   9
BRANCH   2  11
HETATM   11  O2  UNL     1       7.410  -6.789  21.891  1.00  0.00    -0.387 OA
ATOM     12  H2  UNL     1       8.020  -6.062  21.844  1.00  0.00     0.210 HD
ENDBRANCH   2  11
BRANCH   8  13
HETATM   13  O4  UNL     1       7.230  -7.995  23.941  1.00  0.00    -0.381 OA
ATOM     14  H4  UNL     1       7.663  -8.025  24.786  1.00  0.00     0.211 HD
ENDBRANCH   8  13
TORSDOF 3
ENDMDL
MODEL 5
REMARK VINA RESULT: -4.728605028      3.525      4.807
REMARK  3 active torsions:
REMARK  status: ('A' for Active; 'I' for Inactive)
REMARK    1  A    between atoms: C1_2  and  C2_3 
REMARK    2  A    between atoms: C3_4  and  O2_5 
REMARK    3  A    between atoms: C8_12  and  O4_13 
ROOT
HETATM    1  C2  UNL     1       5.002  -7.532  23.345  1.00  0.00     0.093 C 
HETATM    2  C3  UNL     1       6.044  -7.778  24.405  1.00  0.00     0.203 C 
HETATM    3  C4  UNL     1       5.889  -6.270  24.381  1.00  0.00     0.138 C 
HETATM    4  O3  UNL     1       6.478  -5.432  25.094  1.00  0.00    -0.299 OA
HETATM    5  C5  UNL     1       4.404  -6.549  24.306  1.00  0.00     0.075 C 
HETATM    6  C6  UNL     1       3.786  -5.502  23.444  1.00  0.00     0.017 C 
HETATM    7  C7  UNL     1       4.955  -5.265  22.466  1.00  0.00     0.048 C 
HETATM    8  C8  UNL     1       5.854  -6.393  22.888  1.00  0.00     0.131 C 
ENDROOT
BRANCH   1   9
HETATM    9  C1  UNL     1       4.340  -8.452  22.612  1.00  0.00     0.248 C 
HETATM   10  O1  UNL     1       4.667  -8.768  21.455  1.00  0.00    -0.306 OA
ENDBRANCH   1   9
BRANCH   2  11
HETATM   11  O2  UNL     1       7.267  -8.220  23.967  1.00  0.00    -0.387 OA
ATOM     12  H2  UNL     1       7.969  -8.222  24.607  1.00  0.00     0.210 HD
ENDBRANCH   2  11
BRANCH   8  13
HETATM   13  O4  UNL     1       6.981  -6.632  22.210  1.00  0.00    -0.381 OA
ATOM     14  H4  UNL     1       7.673  -5.982  22.196  1.00  0.00     0.211 HD
ENDBRANCH   8  13
TORSDOF 3
ENDMDL
