MODEL 1
REMARK VINA RESULT: -5.268300662      0.000      0.000
REMARK  2 active torsions:
REMARK  status: ('A' for Active; 'I' for Inactive)
REMARK    1  A    between atoms: C3_6  and  O3_7 
REMARK    2  A    between atoms: C4_9  and  O4_10 
ROOT
HETATM    1  O1  UNL     1       6.736  -8.724  26.626  1.00  0.00    -0.228 OA
HETATM    2  S1  UNL     1       5.779  -7.613  27.008  1.00  0.00     0.147 S 
HETATM    3  O2  UNL     1       6.498  -6.323  26.732  1.00  0.00    -0.228 OA
HETATM    4  C1  UNL     1       4.247  -7.738  26.183  1.00  0.00     0.143 C 
HETATM    5  C2  UNL     1       3.050  -7.949  27.029  1.00  0.00     0.049 C 
HETATM    6  C3  UNL     1       3.162  -8.590  28.327  1.00  0.00     0.148 C 
HETATM    7  C4  UNL     1       4.503  -8.823  28.921  1.00  0.00     0.160 C 
HETATM    8  C5  UNL     1       5.470  -7.685  28.746  1.00  0.00     0.174 C 
ENDROOT
BRANCH   7   9
HETATM    9  O4  UNL     1       4.364  -9.007  30.299  1.00  0.00    -0.392 OA
ATOM     10  H4  UNL     1       5.186  -8.789  30.723  1.00  0.00     0.210 HD
ENDBRANCH   7   9
BRANCH   6  11
HETATM   11  O3  UNL     1       2.548  -9.872  28.319  1.00  0.00    -0.393 OA
ATOM     12  H3  UNL     1       1.988  -9.987  29.077  1.00  0.00     0.210 HD
ENDBRANCH   6  11
TORSDOF 2
ENDMDL
MODEL 2
REMARK VINA RESULT: -4.705197875      1.890      3.377
REMARK  2 active torsions:
REMARK  status: ('A' for Active; 'I' for Inactive)
REMARK    1  A    between atoms: C3_6  and  O3_7 
REMARK    2  A    between atoms: C4_9  and  O4_10 
ROOT
HETATM    1  O1  UNL     1       2.428  -6.767  26.551  1.00  0.00    -0.228 OA
HETATM    2  S1  UNL     1       3.200  -8.071  26.537  1.00  0.00     0.147 S 
HETATM    3  O2  UNL     1       2.222  -9.136  26.132  1.00  0.00    -0.228 OA
HETATM    4  C1  UNL     1       4.608  -8.002  25.509  1.00  0.00     0.143 C 
HETATM    5  C2  UNL     1       5.923  -8.178  26.167  1.00  0.00     0.049 C 
HETATM    6  C3  UNL     1       6.103  -7.838  27.568  1.00  0.00     0.148 C 
HETATM    7  C4  UNL     1       4.918  -7.539  28.412  1.00  0.00     0.160 C 
HETATM    8  C5  UNL     1       3.741  -8.444  28.177  1.00  0.00     0.174 C 
ENDROOT
BRANCH   7   9
HETATM    9  O4  UNL     1       5.267  -7.697  29.756  1.00  0.00    -0.392 OA
ATOM     10  H4  UNL     1       5.869  -8.428  29.834  1.00  0.00     0.210 HD
ENDBRANCH   7   9
BRANCH   6  11
HETATM   11  O3  UNL     1       6.941  -6.699  27.715  1.00  0.00    -0.393 OA
ATOM     12  H3  UNL     1       6.430  -5.922  27.908  1.00  0.00     0.210 HD
ENDBRANCH   6  11
TORSDOF 2
ENDMDL
MODEL 3
REMARK VINA RESULT: -4.611684532      2.138      3.231
REMARK  2 active torsions:
REMARK  status: ('A' for Active; 'I' for Inactive)
REMARK    1  A    between atoms: C3_6  and  O3_7 
REMARK    2  A    between atoms: C4_9  and  O4_10 
ROOT
HETATM    1  O1  UNL     1       6.742  -7.616  24.959  1.00  0.00    -0.228 OA
HETATM    2  S1  UNL     1       6.166  -8.773  25.751  1.00  0.00     0.147 S 
HETATM    3  O2  UNL     1       5.758  -9.811  24.745  1.00  0.00    -0.228 OA
HETATM    4  C1  UNL     1       7.278  -9.377  26.953  1.00  0.00     0.143 C 
HETATM    5  C2  UNL     1       6.854  -9.266  28.367  1.00  0.00     0.049 C 
HETATM    6  C3  UNL     1       5.918  -8.237  28.783  1.00  0.00     0.148 C 
HETATM    7  C4  UNL     1       5.195  -7.441  27.759  1.00  0.00     0.160 C 
HETATM    8  C5  UNL     1       4.703  -8.237  26.582  1.00  0.00     0.174 C 
ENDROOT
BRANCH   7   9
HETATM    9  O4  UNL     1       4.061  -6.871  28.344  1.00  0.00    -0.392 OA
ATOM     10  H4  UNL     1       4.269  -5.986  28.621  1.00  0.00     0.210 HD
ENDBRANCH   7   9
BRANCH   6  11
HETATM   11  O3  UNL     1       6.555  -7.266  29.603  1.00  0.00    -0.393 OA
ATOM     12  H3  UNL     1       6.723  -7.610  30.472  1.00  0.00     0.210 HD
ENDBRANCH   6  11
TORSDOF 2
ENDMDL
MODEL 4
REMARK VINA RESULT: -4.450468973      1.733      2.151
REMARK  2 active torsions:
REMARK  status: ('A' for Active; 'I' for Inactive)
REMARK    1  A    between atoms: C3_6  and  O3_7 
REMARK    2  A    between atoms: C4_9  and  O4_10 
ROOT
HETATM    1  O1  UNL     1       5.617  -9.412  25.043  1.00  0.00    -0.228 OA
HETATM    2  S1  UNL     1       5.834  -8.165  25.877  1.00  0.00     0.147 S 
HETATM    3  O2  UNL     1       6.368  -7.120  24.940  1.00  0.00    -0.228 OA
HETATM    4  C1  UNL     1       4.389  -7.664  26.717  1.00  0.00     0.143 C 
HETATM    5  C2  UNL     1       4.443  -7.672  28.197  1.00  0.00     0.049 C 
HETATM    6  C3  UNL     1       5.350  -8.560  28.902  1.00  0.00     0.148 C 
HETATM    7  C4  UNL     1       6.398  -9.295  28.148  1.00  0.00     0.160 C 
HETATM    8  C5  UNL     1       7.084  -8.484  27.084  1.00  0.00     0.174 C 
ENDROOT
BRANCH   7   9
HETATM    9  O4  UNL     1       7.399  -9.697  29.036  1.00  0.00    -0.392 OA
ATOM     10  H4  UNL     1       7.615  -8.969  29.607  1.00  0.00     0.210 HD
ENDBRANCH   7   9
BRANCH   6  11
HETATM   11  O3  UNL     1       4.636  -9.574  29.597  1.00  0.00    -0.393 OA
ATOM     12  H3  UNL     1       4.790  -9.520  30.532  1.00  0.00     0.210 HD
ENDBRANCH   6  11
TORSDOF 2
ENDMDL
MODEL 5
REMARK VINA RESULT: -4.445784076      1.966      2.213
REMARK  2 active torsions:
REMARK  status: ('A' for Active; 'I' for Inactive)
REMARK    1  A    between atoms: C3_6  and  O3_7 
REMARK    2  A    between atoms: C4_9  and  O4_10 
ROOT
HETATM    1  O1  UNL     1       6.511  -9.716  25.707  1.00  0.00    -0.228 OA
HETATM    2  S1  UNL     1       5.917  -8.433  25.162  1.00  0.00     0.147 S 
HETATM    3  O2  UNL     1       6.977  -7.812  24.298  1.00  0.00    -0.228 OA
HETATM    4  C1  UNL     1       4.411  -8.698  24.322  1.00  0.00     0.143 C 
HETATM    5  C2  UNL     1       3.208  -8.051  24.892  1.00  0.00     0.049 C 
HETATM    6  C3  UNL     1       3.134  -7.734  26.307  1.00  0.00     0.148 C 
HETATM    7  C4  UNL     1       4.353  -7.838  27.150  1.00  0.00     0.160 C 
HETATM    8  C5  UNL     1       5.606  -7.322  26.500  1.00  0.00     0.174 C 
ENDROOT
BRANCH   7   9
HETATM    9  O4  UNL     1       4.172  -7.075  28.306  1.00  0.00    -0.392 OA
ATOM     10  H4  UNL     1       4.365  -6.166  28.109  1.00  0.00     0.210 HD
ENDBRANCH   7   9
BRANCH   6  11
HETATM   11  O3  UNL     1       2.176  -8.553  26.965  1.00  0.00    -0.393 OA
ATOM     12  H3  UNL     1       2.359  -9.474  26.824  1.00  0.00     0.210 HD
ENDBRANCH   6  11
TORSDOF 2
ENDMDL
