MODEL 1
REMARK VINA RESULT: -4.829422987      0.000      0.000
REMARK  2 active torsions:
REMARK  status: ('A' for Active; 'I' for Inactive)
REMARK    1  A    between atoms: O1_1  and  C1_3 
REMARK    2  A    between atoms: C7_13  and  O3_14 
ROOT
HETATM    1  C1  UNL     1       3.089  -2.620  22.892  1.00  0.00     0.285 C 
HETATM    2  O2  UNL     1       2.770  -3.896  22.517  1.00  0.00    -0.358 OA
HETATM    3  C2  UNL     1       2.091  -4.022  21.342  1.00  0.00     0.177 C 
HETATM    4  C3  UNL     1       2.992  -3.564  20.215  1.00  0.00     0.043 C 
HETATM    5  C4  UNL     1       2.214  -3.517  18.912  1.00  0.00     0.239 C 
HETATM    6  N1  UNL     1       1.385  -2.358  19.005  1.00  0.00    -0.074 N 
ATOM      7  H11 UNL     1       0.402  -2.591  19.142  1.00  0.00     0.277 HD
ATOM      8  H12 UNL     1       1.291  -1.872  18.113  1.00  0.00     0.277 HD
HETATM    9  C5  UNL     1       1.901  -1.508  20.045  1.00  0.00     0.240 C 
HETATM   10  C6  UNL     1       3.232  -2.076  20.443  1.00  0.00     0.052 C 
HETATM   11  C7  UNL     1       3.661  -1.761  21.821  1.00  0.00     0.179 C 
ENDROOT
BRANCH   1  12
HETATM   12  O1  UNL     1       2.017  -1.952  23.499  1.00  0.00    -0.369 OA
ATOM     13  H1  UNL     1       2.190  -1.027  23.631  1.00  0.00     0.212 HD
ENDBRANCH   1  12
BRANCH  11  14
HETATM   14  O3  UNL     1       3.381  -0.408  22.108  1.00  0.00    -0.390 OA
ATOM     15  H3  UNL     1       4.082  -0.048  22.639  1.00  0.00     0.210 HD
ENDBRANCH  11  14
TORSDOF 2
ENDMDL
MODEL 2
REMARK VINA RESULT: -4.753940898      7.733      9.085
REMARK  2 active torsions:
REMARK  status: ('A' for Active; 'I' for Inactive)
REMARK    1  A    between atoms: O1_1  and  C1_3 
REMARK    2  A    between atoms: C7_13  and  O3_14 
ROOT
HETATM    1  C1  UNL     1       4.271  -7.478  25.545  1.00  0.00     0.285 C 
HETATM    2  O2  UNL     1       3.442  -7.360  26.628  1.00  0.00    -0.358 OA
HETATM    3  C2  UNL     1       3.860  -7.976  27.770  1.00  0.00     0.177 C 
HETATM    4  C3  UNL     1       5.124  -7.293  28.249  1.00  0.00     0.043 C 
HETATM    5  C4  UNL     1       5.721  -8.061  29.414  1.00  0.00     0.239 C 
HETATM    6  N1  UNL     1       6.313  -9.226  28.840  1.00  0.00    -0.074 N 
ATOM      7  H11 UNL     1       5.786 -10.074  29.046  1.00  0.00     0.277 HD
ATOM      8  H12 UNL     1       7.186  -9.488  29.300  1.00  0.00     0.277 HD
HETATM    9  C5  UNL     1       6.478  -9.007  27.427  1.00  0.00     0.240 C 
HETATM   10  C6  UNL     1       6.178  -7.558  27.180  1.00  0.00     0.052 C 
HETATM   11  C7  UNL     1       5.714  -7.239  25.814  1.00  0.00     0.179 C 
ENDROOT
BRANCH   1  12
HETATM   12  O1  UNL     1       4.120  -8.703  24.881  1.00  0.00    -0.369 OA
ATOM     13  H1  UNL     1       4.295  -8.638  23.950  1.00  0.00     0.212 HD
ENDBRANCH   1  12
BRANCH  11  14
HETATM   14  O3  UNL     1       6.487  -7.947  24.871  1.00  0.00    -0.390 OA
ATOM     15  H3  UNL     1       7.282  -7.460  24.686  1.00  0.00     0.210 HD
ENDBRANCH  11  14
TORSDOF 2
ENDMDL
MODEL 3
REMARK VINA RESULT: -4.661088869      7.769      9.117
REMARK  2 active torsions:
REMARK  status: ('A' for Active; 'I' for Inactive)
REMARK    1  A    between atoms: O1_1  and  C1_3 
REMARK    2  A    between atoms: C7_13  and  O3_14 
ROOT
HETATM    1  C1  UNL     1       5.986  -8.620  25.195  1.00  0.00     0.285 C 
HETATM    2  O2  UNL     1       6.445  -9.588  26.046  1.00  0.00    -0.358 OA
HETATM    3  C2  UNL     1       6.829  -9.163  27.283  1.00  0.00     0.177 C 
HETATM    4  C3  UNL     1       5.610  -8.636  28.010  1.00  0.00     0.043 C 
HETATM    5  C4  UNL     1       6.024  -7.988  29.319  1.00  0.00     0.239 C 
HETATM    6  N1  UNL     1       6.612  -6.739  28.957  1.00  0.00    -0.074 N 
ATOM      7  H11 UNL     1       7.625  -6.734  29.074  1.00  0.00     0.277 HD
ATOM      8  H12 UNL     1       6.391  -5.996  29.620  1.00  0.00     0.277 HD
HETATM    9  C5  UNL     1       6.210  -6.416  27.613  1.00  0.00     0.240 C 
HETATM   10  C6  UNL     1       5.151  -7.409  27.232  1.00  0.00     0.052 C 
HETATM   11  C7  UNL     1       5.017  -7.656  25.782  1.00  0.00     0.179 C 
ENDROOT
BRANCH   1  12
HETATM   12  O1  UNL     1       7.025  -7.912  24.574  1.00  0.00    -0.369 OA
ATOM     13  H1  UNL     1       7.535  -7.397  25.189  1.00  0.00     0.212 HD
ENDBRANCH   1  12
BRANCH  11  14
HETATM   14  O3  UNL     1       5.092  -6.434  25.081  1.00  0.00    -0.390 OA
ATOM     15  H3  UNL     1       4.341  -5.897  25.305  1.00  0.00     0.210 HD
ENDBRANCH  11  14
TORSDOF 2
ENDMDL
MODEL 4
REMARK VINA RESULT: -4.555814591      2.353      3.640
REMARK  2 active torsions:
REMARK  status: ('A' for Active; 'I' for Inactive)
REMARK    1  A    between atoms: O1_1  and  C1_3 
REMARK    2  A    between atoms: C7_13  and  O3_14 
ROOT
HETATM    1  C1  UNL     1       2.532  -3.696  19.254  1.00  0.00     0.285 C 
HETATM    2  O2  UNL     1       2.404  -2.352  19.036  1.00  0.00    -0.358 OA
HETATM    3  C2  UNL     1       2.167  -1.588  20.140  1.00  0.00     0.177 C 
HETATM    4  C3  UNL     1       3.380  -1.659  21.044  1.00  0.00     0.043 C 
HETATM    5  C4  UNL     1       3.087  -0.971  22.365  1.00  0.00     0.239 C 
HETATM    6  N1  UNL     1       2.235  -1.866  23.080  1.00  0.00    -0.074 N 
ATOM      7  H11 UNL     1       1.272  -1.534  23.130  1.00  0.00     0.277 HD
ATOM      8  H12 UNL     1       2.432  -1.876  24.082  1.00  0.00     0.277 HD
HETATM    9  C5  UNL     1       2.339  -3.172  22.485  1.00  0.00     0.240 C 
HETATM   10  C6  UNL     1       3.476  -3.108  21.508  1.00  0.00     0.052 C 
HETATM   11  C7  UNL     1       3.403  -4.080  20.397  1.00  0.00     0.179 C 
ENDROOT
BRANCH   1  12
HETATM   12  O1  UNL     1       1.295  -4.344  19.375  1.00  0.00    -0.369 OA
ATOM     13  H1  UNL     1       1.383  -5.286  19.461  1.00  0.00     0.212 HD
ENDBRANCH   1  12
BRANCH  11  14
HETATM   14  O3  UNL     1       2.995  -5.337  20.892  1.00  0.00    -0.390 OA
ATOM     15  H3  UNL     1       2.399  -5.210  21.620  1.00  0.00     0.210 HD
ENDBRANCH  11  14
TORSDOF 2
ENDMDL
MODEL 5
REMARK VINA RESULT: -4.522054958      7.928      9.098
REMARK  2 active torsions:
REMARK  status: ('A' for Active; 'I' for Inactive)
REMARK    1  A    between atoms: O1_1  and  C1_3 
REMARK    2  A    between atoms: C7_13  and  O3_14 
ROOT
HETATM    1  C1  UNL     1       6.957  -8.682  28.303  1.00  0.00     0.285 C 
HETATM    2  O2  UNL     1       7.204  -8.911  26.977  1.00  0.00    -0.358 OA
HETATM    3  C2  UNL     1       6.121  -8.861  26.150  1.00  0.00     0.177 C 
HETATM    4  C3  UNL     1       5.587  -7.444  26.144  1.00  0.00     0.043 C 
HETATM    5  C4  UNL     1       4.276  -7.384  25.381  1.00  0.00     0.239 C 
HETATM    6  N1  UNL     1       3.304  -7.974  26.244  1.00  0.00    -0.074 N 
ATOM      7  H11 UNL     1       3.008  -8.896  25.927  1.00  0.00     0.277 HD
ATOM      8  H12 UNL     1       2.398  -7.509  26.189  1.00  0.00     0.277 HD
HETATM    9  C5  UNL     1       3.833  -7.994  27.583  1.00  0.00     0.240 C 
HETATM   10  C6  UNL     1       5.089  -7.174  27.559  1.00  0.00     0.052 C 
HETATM   11  C7  UNL     1       6.081  -7.517  28.600  1.00  0.00     0.179 C 
ENDROOT
BRANCH   1  12
HETATM   12  O1  UNL     1       6.463  -9.815  28.963  1.00  0.00    -0.369 OA
ATOM     13  H1  UNL     1       7.148 -10.431  29.194  1.00  0.00     0.212 HD
ENDBRANCH   1  12
BRANCH  11  14
HETATM   14  O3  UNL     1       5.425  -7.729  29.831  1.00  0.00    -0.390 OA
ATOM     15  H3  UNL     1       5.854  -8.437  30.297  1.00  0.00     0.210 HD
ENDBRANCH  11  14
TORSDOF 2
ENDMDL
