MODEL 1
REMARK VINA RESULT: -5.155453296      0.000      0.000
REMARK  3 active torsions:
REMARK  status: ('A' for Active; 'I' for Inactive)
REMARK    1  A    between atoms: O1_1  and  C1_3 
REMARK    2  A    between atoms: C1_3  and  C2_4 
REMARK    3  A    between atoms: C4_6  and  O2_7 
ROOT
HETATM    1  C2  UNL     1       4.539  -8.019  26.821  1.00  0.00     0.150 C 
HETATM    2  C3  UNL     1       3.846  -8.379  28.108  1.00  0.00     0.102 C 
HETATM    3  C4  UNL     1       4.941  -8.640  29.138  1.00  0.00     0.166 C 
HETATM    4  C5  UNL     1       5.645  -7.281  29.275  1.00  0.00     0.102 C 
HETATM    5  C6  UNL     1       6.429  -7.325  27.959  1.00  0.00     0.151 C 
HETATM    6  C7  UNL     1       6.821  -8.785  27.933  1.00  0.00     0.203 C 
HETATM    7  O3  UNL     1       5.844  -9.497  28.575  1.00  0.00    -0.353 OA
HETATM    8  O4  UNL     1       5.530  -7.092  26.951  1.00  0.00    -0.376 OA
ENDROOT
BRANCH   1   9
HETATM    9  C1  UNL     1       3.465  -7.375  25.931  1.00  0.00     0.196 C 
BRANCH   9  10
HETATM   10  O1  UNL     1       2.310  -7.297  26.727  1.00  0.00    -0.398 OA
ATOM     11  H1  UNL     1       1.841  -6.528  26.424  1.00  0.00     0.209 HD
ENDBRANCH   9  10
ENDBRANCH   1   9
BRANCH   3  12
HETATM   12  O2  UNL     1       4.460  -9.104  30.326  1.00  0.00    -0.365 OA
ATOM     13  H2  UNL     1       5.116  -9.123  31.012  1.00  0.00     0.213 HD
ENDBRANCH   3  12
TORSDOF 3
ENDMDL
MODEL 2
REMARK VINA RESULT: -4.969516690      1.497      2.958
REMARK  3 active torsions:
REMARK  status: ('A' for Active; 'I' for Inactive)
REMARK    1  A    between atoms: O1_1  and  C1_3 
REMARK    2  A    between atoms: C1_3  and  C2_4 
REMARK    3  A    between atoms: C4_6  and  O2_7 
ROOT
HETATM    1  C2  UNL     1       3.875  -7.947  27.407  1.00  0.00     0.150 C 
HETATM    2  C3  UNL     1       4.416  -7.804  26.009  1.00  0.00     0.102 C 
HETATM    3  C4  UNL     1       5.913  -7.541  26.142  1.00  0.00     0.166 C 
HETATM    4  C5  UNL     1       6.453  -8.823  26.794  1.00  0.00     0.102 C 
HETATM    5  C6  UNL     1       5.955  -8.553  28.217  1.00  0.00     0.151 C 
HETATM    6  C7  UNL     1       6.207  -7.065  28.309  1.00  0.00     0.203 C 
HETATM    7  O3  UNL     1       6.077  -6.536  27.053  1.00  0.00    -0.353 OA
HETATM    8  O4  UNL     1       4.601  -8.770  28.215  1.00  0.00    -0.376 OA
ENDROOT
BRANCH   1   9
HETATM    9  C1  UNL     1       2.494  -8.602  27.258  1.00  0.00     0.196 C 
BRANCH   9  10
HETATM   10  O1  UNL     1       2.468  -9.649  28.194  1.00  0.00    -0.398 OA
ATOM     11  H1  UNL     1       1.977 -10.350  27.782  1.00  0.00     0.209 HD
ENDBRANCH   9  10
ENDBRANCH   1   9
BRANCH   3  12
HETATM   12  O2  UNL     1       6.516  -7.263  24.952  1.00  0.00    -0.365 OA
ATOM     13  H2  UNL     1       6.485  -7.989  24.340  1.00  0.00     0.213 HD
ENDBRANCH   3  12
TORSDOF 3
ENDMDL
MODEL 3
REMARK VINA RESULT: -4.695601889      1.790      3.719
REMARK  3 active torsions:
REMARK  status: ('A' for Active; 'I' for Inactive)
REMARK    1  A    between atoms: O1_1  and  C1_3 
REMARK    2  A    between atoms: C1_3  and  C2_4 
REMARK    3  A    between atoms: C4_6  and  O2_7 
ROOT
HETATM    1  C2  UNL     1       7.202  -8.653  27.576  1.00  0.00     0.150 C 
HETATM    2  C3  UNL     1       6.180  -8.229  28.597  1.00  0.00     0.102 C 
HETATM    3  C4  UNL     1       5.135  -7.402  27.854  1.00  0.00     0.166 C 
HETATM    4  C5  UNL     1       4.515  -8.400  26.863  1.00  0.00     0.102 C 
HETATM    5  C6  UNL     1       5.670  -8.431  25.857  1.00  0.00     0.151 C 
HETATM    6  C7  UNL     1       6.069  -6.973  25.867  1.00  0.00     0.203 C 
HETATM    7  O3  UNL     1       5.798  -6.468  27.110  1.00  0.00    -0.353 OA
HETATM    8  O4  UNL     1       6.677  -9.166  26.427  1.00  0.00    -0.376 OA
ENDROOT
BRANCH   1   9
HETATM    9  C1  UNL     1       8.000  -9.793  28.228  1.00  0.00     0.196 C 
BRANCH   9  10
HETATM   10  O1  UNL     1       9.304  -9.298  28.392  1.00  0.00    -0.398 OA
ATOM     11  H1  UNL     1       9.815 -10.026  28.726  1.00  0.00     0.209 HD
ENDBRANCH   9  10
ENDBRANCH   1   9
BRANCH   3  12
HETATM   12  O2  UNL     1       4.209  -6.841  28.682  1.00  0.00    -0.365 OA
ATOM     13  H2  UNL     1       3.497  -7.430  28.898  1.00  0.00     0.213 HD
ENDBRANCH   3  12
TORSDOF 3
ENDMDL
MODEL 4
REMARK VINA RESULT: -4.653597161      1.505      3.707
REMARK  3 active torsions:
REMARK  status: ('A' for Active; 'I' for Inactive)
REMARK    1  A    between atoms: O1_1  and  C1_3 
REMARK    2  A    between atoms: C1_3  and  C2_4 
REMARK    3  A    between atoms: C4_6  and  O2_7 
ROOT
HETATM    1  C2  UNL     1       6.858  -9.358  27.898  1.00  0.00     0.150 C 
HETATM    2  C3  UNL     1       6.347  -8.576  26.717  1.00  0.00     0.102 C 
HETATM    3  C4  UNL     1       5.087  -7.852  27.182  1.00  0.00     0.166 C 
HETATM    4  C5  UNL     1       5.595  -6.897  28.273  1.00  0.00     0.102 C 
HETATM    5  C6  UNL     1       5.789  -7.939  29.380  1.00  0.00     0.151 C 
HETATM    6  C7  UNL     1       4.579  -8.811  29.138  1.00  0.00     0.203 C 
HETATM    7  O3  UNL     1       4.287  -8.769  27.801  1.00  0.00    -0.353 OA
HETATM    8  O4  UNL     1       6.916  -8.653  29.063  1.00  0.00    -0.376 OA
ENDROOT
BRANCH   1   9
HETATM    9  C1  UNL     1       8.306  -9.740  27.555  1.00  0.00     0.196 C 
BRANCH   9  10
HETATM   10  O1  UNL     1       9.006  -9.701  28.772  1.00  0.00    -0.398 OA
ATOM     11  H1  UNL     1       9.531 -10.492  28.792  1.00  0.00     0.209 HD
ENDBRANCH   9  10
ENDBRANCH   1   9
BRANCH   3  12
HETATM   12  O2  UNL     1       4.442  -7.200  26.173  1.00  0.00    -0.365 OA
ATOM     13  H2  UNL     1       3.504  -7.352  26.172  1.00  0.00     0.213 HD
ENDBRANCH   3  12
TORSDOF 3
ENDMDL
MODEL 5
REMARK VINA RESULT: -4.610144837      1.439      1.964
REMARK  3 active torsions:
REMARK  status: ('A' for Active; 'I' for Inactive)
REMARK    1  A    between atoms: O1_1  and  C1_3 
REMARK    2  A    between atoms: C1_3  and  C2_4 
REMARK    3  A    between atoms: C4_6  and  O2_7 
ROOT
HETATM    1  C2  UNL     1       5.801  -7.506  26.204  1.00  0.00     0.150 C 
HETATM    2  C3  UNL     1       4.436  -8.002  26.600  1.00  0.00     0.102 C 
HETATM    3  C4  UNL     1       4.534  -8.444  28.057  1.00  0.00     0.166 C 
HETATM    4  C5  UNL     1       4.867  -7.147  28.811  1.00  0.00     0.102 C 
HETATM    5  C6  UNL     1       6.342  -7.051  28.407  1.00  0.00     0.151 C 
HETATM    6  C7  UNL     1       6.731  -8.511  28.475  1.00  0.00     0.203 C 
HETATM    7  O3  UNL     1       5.625  -9.258  28.170  1.00  0.00    -0.353 OA
HETATM    8  O4  UNL     1       6.373  -6.648  27.097  1.00  0.00    -0.376 OA
ENDROOT
BRANCH   1   9
HETATM    9  C1  UNL     1       5.599  -6.703  24.910  1.00  0.00     0.196 C 
BRANCH   9  10
HETATM   10  O1  UNL     1       6.442  -5.586  25.021  1.00  0.00    -0.398 OA
ATOM     11  H1  UNL     1       5.937  -4.850  24.695  1.00  0.00     0.209 HD
ENDBRANCH   9  10
ENDBRANCH   1   9
BRANCH   3  12
HETATM   12  O2  UNL     1       3.396  -9.039  28.514  1.00  0.00    -0.365 OA
ATOM     13  H2  UNL     1       3.476  -9.982  28.595  1.00  0.00     0.213 HD
ENDBRANCH   3  12
TORSDOF 3
ENDMDL
