MODEL 1
REMARK VINA RESULT: -4.684704351      0.000      0.000
REMARK  9 active torsions:
REMARK  status: ('A' for Active; 'I' for Inactive)
REMARK    1  A    between atoms: C2_2  and  O1_4 
REMARK    2  A    between atoms: C2_2  and  C4_6 
REMARK    3  A    between atoms: C4_6  and  N1_7 
REMARK    4  A    between atoms: N1_7  and  N2_9 
REMARK    5  A    between atoms: N2_9  and  N3_10 
REMARK    6  A    between atoms: C5_14  and  C6_15 
REMARK    7  A    between atoms: C6_15  and  O2_16 
REMARK    8  A    between atoms: C7_18  and  O3_19 
REMARK    9  A    between atoms: C8_21  and  O4_22 
ROOT
HETATM    1  C4  UNL     1       1.299   0.173  19.800  1.00  0.00     0.166 C 
HETATM    2  S1  UNL     1       0.629  -1.427  20.403  1.00  0.00    -0.120 SA
HETATM    3  C5  UNL     1       2.001  -1.803  21.537  1.00  0.00     0.105 C 
HETATM    4  C7  UNL     1       2.398  -0.388  21.902  1.00  0.00     0.166 C 
HETATM    5  C8  UNL     1       2.471   0.402  20.652  1.00  0.00     0.192 C 
ENDROOT
BRANCH   1   6
HETATM    6  C2  UNL     1       0.267   1.229  19.748  1.00  0.00     0.090 C 
HETATM    7  C1  UNL     1      -0.849   1.008  18.786  1.00  0.00     0.049 C 
HETATM    8  C3  UNL     1      -0.240   1.482  21.152  1.00  0.00     0.049 C 
BRANCH   6   9
HETATM    9  O1  UNL     1       0.919   2.423  19.357  1.00  0.00    -0.387 OA
ATOM     10  H1  UNL     1       1.117   2.904  20.152  1.00  0.00     0.210 HD
ENDBRANCH   6   9
ENDBRANCH   1   6
BRANCH   1  11
HETATM   11  N1  UNL     1       1.700  -0.090  18.409  1.00  0.00    -0.227 N 
ATOM     12  H1  UNL     1       1.263  -0.815  17.839  1.00  0.00     0.199 HD
BRANCH  11  13
HETATM   13  N2  UNL     1       2.603   0.632  17.983  1.00  0.00    -0.247 NA
BRANCH  13  14
HETATM   14  N3  UNL     1       3.401   1.485  17.600  1.00  0.00    -0.261 N 
ATOM     15  H32 UNL     1       2.641   2.154  17.730  1.00  0.00     0.193 HD
ATOM     16  H31 UNL     1       4.157   2.084  17.270  1.00  0.00     0.193 HD
ENDBRANCH  13  14
ENDBRANCH  11  13
ENDBRANCH   1  11
BRANCH   5  17
HETATM   17  O4  UNL     1       2.714   1.729  20.981  1.00  0.00    -0.389 OA
ATOM     18  H4  UNL     1       2.721   1.920  21.911  1.00  0.00     0.210 HD
ENDBRANCH   5  17
BRANCH   3  19
HETATM   19  C6  UNL     1       1.526  -2.584  22.730  1.00  0.00     0.181 C 
BRANCH  19  20
HETATM   20  O2  UNL     1       1.085  -1.651  23.681  1.00  0.00    -0.400 OA
ATOM     21  H2  UNL     1       0.476  -2.103  24.252  1.00  0.00     0.209 HD
ENDBRANCH  19  20
ENDBRANCH   3  19
BRANCH   4  22
HETATM   22  O3  UNL     1       3.712  -0.484  22.421  1.00  0.00    -0.392 OA
ATOM     23  H3  UNL     1       4.124   0.350  22.230  1.00  0.00     0.210 HD
ENDBRANCH   4  22
TORSDOF 9
ENDMDL
MODEL 2
REMARK VINA RESULT: -4.673398561      3.388      4.458
REMARK  9 active torsions:
REMARK  status: ('A' for Active; 'I' for Inactive)
REMARK    1  A    between atoms: C2_2  and  O1_4 
REMARK    2  A    between atoms: C2_2  and  C4_6 
REMARK    3  A    between atoms: C4_6  and  N1_7 
REMARK    4  A    between atoms: N1_7  and  N2_9 
REMARK    5  A    between atoms: N2_9  and  N3_10 
REMARK    6  A    between atoms: C5_14  and  C6_15 
REMARK    7  A    between atoms: C6_15  and  O2_16 
REMARK    8  A    between atoms: C7_18  and  O3_19 
REMARK    9  A    between atoms: C8_21  and  O4_22 
ROOT
HETATM    1  C4  UNL     1       2.962  -1.087  22.135  1.00  0.00     0.166 C 
HETATM    2  S1  UNL     1       3.095  -1.394  20.330  1.00  0.00    -0.120 SA
HETATM    3  C5  UNL     1       2.680  -3.164  20.397  1.00  0.00     0.105 C 
HETATM    4  C7  UNL     1       1.768  -3.146  21.607  1.00  0.00     0.166 C 
HETATM    5  C8  UNL     1       2.430  -2.348  22.665  1.00  0.00     0.192 C 
ENDROOT
BRANCH   1   6
HETATM    6  C2  UNL     1       2.224   0.155  22.440  1.00  0.00     0.090 C 
HETATM    7  C1  UNL     1       2.930   1.430  22.131  1.00  0.00     0.049 C 
HETATM    8  C3  UNL     1       0.865   0.086  21.778  1.00  0.00     0.049 C 
BRANCH   6   9
HETATM    9  O1  UNL     1       1.970   0.152  23.833  1.00  0.00    -0.387 OA
ATOM     10  H1  UNL     1       1.033   0.265  23.944  1.00  0.00     0.210 HD
ENDBRANCH   6   9
ENDBRANCH   1   6
BRANCH   1  11
HETATM   11  N1  UNL     1       4.348  -0.871  22.581  1.00  0.00    -0.227 N 
ATOM     12  H1  UNL     1       5.006  -0.286  22.064  1.00  0.00     0.199 HD
BRANCH  11  13
HETATM   13  N2  UNL     1       4.655  -1.449  23.625  1.00  0.00    -0.247 NA
BRANCH  13  14
HETATM   14  N3  UNL     1       5.118  -1.952  24.646  1.00  0.00    -0.261 N 
ATOM     15  H32 UNL     1       6.031  -1.667  24.290  1.00  0.00     0.193 HD
ATOM     16  H31 UNL     1       5.365  -2.402  25.528  1.00  0.00     0.193 HD
ENDBRANCH  13  14
ENDBRANCH  11  13
ENDBRANCH   1  11
BRANCH   5  17
HETATM   17  O4  UNL     1       1.555  -2.219  23.734  1.00  0.00    -0.389 OA
ATOM     18  H4  UNL     1       1.001  -1.447  23.713  1.00  0.00     0.210 HD
ENDBRANCH   5  17
BRANCH   3  19
HETATM   19  C6  UNL     1       1.961  -3.605  19.153  1.00  0.00     0.181 C 
BRANCH  19  20
HETATM   20  O2  UNL     1       0.638  -3.888  19.523  1.00  0.00    -0.400 OA
ATOM     21  H2  UNL     1       0.537  -4.832  19.494  1.00  0.00     0.209 HD
ENDBRANCH  19  20
ENDBRANCH   3  19
BRANCH   4  22
HETATM   22  O3  UNL     1       1.710  -4.486  22.060  1.00  0.00    -0.392 OA
ATOM     23  H3  UNL     1       1.868  -4.447  22.995  1.00  0.00     0.210 HD
ENDBRANCH   4  22
TORSDOF 9
ENDMDL
MODEL 3
REMARK VINA RESULT: -4.633289430      2.921      4.838
REMARK  9 active torsions:
REMARK  status: ('A' for Active; 'I' for Inactive)
REMARK    1  A    between atoms: C2_2  and  O1_4 
REMARK    2  A    between atoms: C2_2  and  C4_6 
REMARK    3  A    between atoms: C4_6  and  N1_7 
REMARK    4  A    between atoms: N1_7  and  N2_9 
REMARK    5  A    between atoms: N2_9  and  N3_10 
REMARK    6  A    between atoms: C5_14  and  C6_15 
REMARK    7  A    between atoms: C6_15  and  O2_16 
REMARK    8  A    between atoms: C7_18  and  O3_19 
REMARK    9  A    between atoms: C8_21  and  O4_22 
ROOT
HETATM    1  C4  UNL     1       1.923  -1.234  21.925  1.00  0.00     0.166 C 
HETATM    2  S1  UNL     1       1.354  -0.920  20.209  1.00  0.00    -0.120 SA
HETATM    3  C5  UNL     1      -0.096   0.082  20.659  1.00  0.00     0.105 C 
HETATM    4  C7  UNL     1       0.430   0.693  21.941  1.00  0.00     0.166 C 
HETATM    5  C8  UNL     1       1.045  -0.389  22.743  1.00  0.00     0.192 C 
ENDROOT
BRANCH   1   6
HETATM    6  C2  UNL     1       3.382  -1.057  22.073  1.00  0.00     0.090 C 
HETATM    7  C1  UNL     1       4.237  -2.074  21.399  1.00  0.00     0.049 C 
HETATM    8  C3  UNL     1       3.745   0.352  21.656  1.00  0.00     0.049 C 
BRANCH   6   9
HETATM    9  O1  UNL     1       3.668  -1.131  23.458  1.00  0.00    -0.387 OA
ATOM     10  H1  UNL     1       2.982  -0.652  23.908  1.00  0.00     0.210 HD
ENDBRANCH   6   9
ENDBRANCH   1   6
BRANCH   1  11
HETATM   11  N1  UNL     1       1.649  -2.661  22.156  1.00  0.00    -0.227 N 
ATOM     12  H1  UNL     1       1.528  -3.327  21.393  1.00  0.00     0.199 HD
BRANCH  11  13
HETATM   13  N2  UNL     1       1.575  -2.991  23.341  1.00  0.00    -0.247 NA
BRANCH  13  14
HETATM   14  N3  UNL     1       1.654  -3.399  24.498  1.00  0.00    -0.261 N 
ATOM     15  H32 UNL     1       1.044  -4.160  24.198  1.00  0.00     0.193 HD
ATOM     16  H31 UNL     1       1.806  -3.623  25.481  1.00  0.00     0.193 HD
ENDBRANCH  13  14
ENDBRANCH  11  13
ENDBRANCH   1  11
BRANCH   5  17
HETATM   17  O4  UNL     1       1.640   0.173  23.864  1.00  0.00    -0.389 OA
ATOM     18  H4  UNL     1       1.417   1.082  24.028  1.00  0.00     0.210 HD
ENDBRANCH   5  17
BRANCH   3  19
HETATM   19  C6  UNL     1      -0.388   1.123  19.615  1.00  0.00     0.181 C 
BRANCH  19  20
HETATM   20  O2  UNL     1       0.431   2.227  19.896  1.00  0.00    -0.400 OA
ATOM     21  H2  UNL     1       0.970   1.990  20.641  1.00  0.00     0.209 HD
ENDBRANCH  19  20
ENDBRANCH   3  19
BRANCH   4  22
HETATM   22  O3  UNL     1      -0.713   1.145  22.645  1.00  0.00    -0.392 OA
ATOM     23  H3  UNL     1      -0.761   2.079  22.480  1.00  0.00     0.210 HD
ENDBRANCH   4  22
TORSDOF 9
ENDMDL
MODEL 4
REMARK VINA RESULT: -4.631560847      7.162      8.453
REMARK  9 active torsions:
REMARK  status: ('A' for Active; 'I' for Inactive)
REMARK    1  A    between atoms: C2_2  and  O1_4 
REMARK    2  A    between atoms: C2_2  and  C4_6 
REMARK    3  A    between atoms: C4_6  and  N1_7 
REMARK    4  A    between atoms: N1_7  and  N2_9 
REMARK    5  A    between atoms: N2_9  and  N3_10 
REMARK    6  A    between atoms: C5_14  and  C6_15 
REMARK    7  A    between atoms: C6_15  and  O2_16 
REMARK    8  A    between atoms: C7_18  and  O3_19 
REMARK    9  A    between atoms: C8_21  and  O4_22 
ROOT
HETATM    1  C4  UNL     1       4.267  -5.238  24.844  1.00  0.00     0.166 C 
HETATM    2  S1  UNL     1       5.836  -6.043  25.355  1.00  0.00    -0.120 SA
HETATM    3  C5  UNL     1       5.768  -5.525  27.098  1.00  0.00     0.105 C 
HETATM    4  C7  UNL     1       4.264  -5.478  27.270  1.00  0.00     0.166 C 
HETATM    5  C8  UNL     1       3.694  -4.760  26.108  1.00  0.00     0.192 C 
ENDROOT
BRANCH   1   6
HETATM    6  C2  UNL     1       3.435  -6.118  23.999  1.00  0.00     0.090 C 
HETATM    7  C1  UNL     1       2.311  -5.461  23.275  1.00  0.00     0.049 C 
HETATM    8  C3  UNL     1       4.340  -6.886  23.060  1.00  0.00     0.049 C 
BRANCH   6   9
HETATM    9  O1  UNL     1       2.862  -7.090  24.855  1.00  0.00    -0.387 OA
ATOM     10  H1  UNL     1       3.424  -7.855  24.822  1.00  0.00     0.210 HD
ENDBRANCH   6   9
ENDBRANCH   1   6
BRANCH   1  11
HETATM   11  N1  UNL     1       4.684  -4.112  23.993  1.00  0.00    -0.227 N 
ATOM     12  H1  UNL     1       4.669  -4.160  22.974  1.00  0.00     0.199 HD
BRANCH  11  13
HETATM   13  N2  UNL     1       5.052  -3.107  24.603  1.00  0.00    -0.247 NA
BRANCH  13  14
HETATM   14  N3  UNL     1       5.518  -2.071  25.072  1.00  0.00    -0.261 N 
ATOM     15  H32 UNL     1       5.763  -1.829  24.112  1.00  0.00     0.193 HD
ATOM     16  H31 UNL     1       5.863  -1.263  25.590  1.00  0.00     0.193 HD
ENDBRANCH  13  14
ENDBRANCH  11  13
ENDBRANCH   1  11
BRANCH   5  17
HETATM   17  O4  UNL     1       2.309  -4.815  26.188  1.00  0.00    -0.389 OA
ATOM     18  H4  UNL     1       1.957  -4.873  27.068  1.00  0.00     0.210 HD
ENDBRANCH   5  17
BRANCH   3  19
HETATM   19  C6  UNL     1       6.409  -6.544  27.998  1.00  0.00     0.181 C 
BRANCH  19  20
HETATM   20  O2  UNL     1       5.441  -6.925  28.940  1.00  0.00    -0.400 OA
ATOM     21  H2  UNL     1       5.850  -7.559  29.517  1.00  0.00     0.209 HD
ENDBRANCH  19  20
ENDBRANCH   3  19
BRANCH   4  22
HETATM   22  O3  UNL     1       4.037  -4.677  28.416  1.00  0.00    -0.392 OA
ATOM     23  H3  UNL     1       3.188  -4.273  28.282  1.00  0.00     0.210 HD
ENDBRANCH   4  22
TORSDOF 9
ENDMDL
MODEL 5
REMARK VINA RESULT: -4.554645789      7.304      9.073
REMARK  9 active torsions:
REMARK  status: ('A' for Active; 'I' for Inactive)
REMARK    1  A    between atoms: C2_2  and  O1_4 
REMARK    2  A    between atoms: C2_2  and  C4_6 
REMARK    3  A    between atoms: C4_6  and  N1_7 
REMARK    4  A    between atoms: N1_7  and  N2_9 
REMARK    5  A    between atoms: N2_9  and  N3_10 
REMARK    6  A    between atoms: C5_14  and  C6_15 
REMARK    7  A    between atoms: C6_15  and  O2_16 
REMARK    8  A    between atoms: C7_18  and  O3_19 
REMARK    9  A    between atoms: C8_21  and  O4_22 
ROOT
HETATM    1  C4  UNL     1       5.093  -4.974  26.332  1.00  0.00     0.166 C 
HETATM    2  S1  UNL     1       4.822  -6.041  24.864  1.00  0.00    -0.120 SA
HETATM    3  C5  UNL     1       5.144  -4.755  23.619  1.00  0.00     0.105 C 
HETATM    4  C7  UNL     1       6.136  -3.916  24.399  1.00  0.00     0.166 C 
HETATM    5  C8  UNL     1       5.592  -3.717  25.762  1.00  0.00     0.192 C 
ENDROOT
BRANCH   1   6
HETATM    6  C2  UNL     1       5.916  -5.637  27.364  1.00  0.00     0.090 C 
HETATM    7  C1  UNL     1       5.202  -6.059  28.601  1.00  0.00     0.049 C 
HETATM    8  C3  UNL     1       6.663  -6.787  26.722  1.00  0.00     0.049 C 
BRANCH   6   9
HETATM    9  O1  UNL     1       6.910  -4.709  27.757  1.00  0.00    -0.387 OA
ATOM     10  H1  UNL     1       7.413  -4.495  26.980  1.00  0.00     0.210 HD
ENDBRANCH   6   9
ENDBRANCH   1   6
BRANCH   1  11
HETATM   11  N1  UNL     1       3.754  -4.794  26.917  1.00  0.00    -0.227 N 
ATOM     12  H1  UNL     1       3.553  -4.992  27.898  1.00  0.00     0.199 HD
BRANCH  11  13
HETATM   13  N2  UNL     1       2.895  -4.388  26.133  1.00  0.00    -0.247 NA
BRANCH  13  14
HETATM   14  N3  UNL     1       1.975  -4.145  25.355  1.00  0.00    -0.261 N 
ATOM     15  H32 UNL     1       1.362  -4.553  26.061  1.00  0.00     0.193 HD
ATOM     16  H31 UNL     1       1.314  -3.890  24.621  1.00  0.00     0.193 HD
ENDBRANCH  13  14
ENDBRANCH  11  13
ENDBRANCH   1  11
BRANCH   5  17
HETATM   17  O4  UNL     1       6.543  -3.056  26.527  1.00  0.00    -0.389 OA
ATOM     18  H4  UNL     1       6.390  -2.126  26.647  1.00  0.00     0.210 HD
ENDBRANCH   5  17
BRANCH   3  19
HETATM   19  C6  UNL     1       5.752  -5.337  22.374  1.00  0.00     0.181 C 
BRANCH  19  20
HETATM   20  O2  UNL     1       7.144  -5.330  22.555  1.00  0.00    -0.400 OA
ATOM     21  H2  UNL     1       7.378  -4.466  22.871  1.00  0.00     0.209 HD
ENDBRANCH  19  20
ENDBRANCH   3  19
BRANCH   4  22
HETATM   22  O3  UNL     1       6.152  -2.653  23.760  1.00  0.00    -0.392 OA
ATOM     23  H3  UNL     1       5.312  -2.575  23.326  1.00  0.00     0.210 HD
ENDBRANCH   4  22
TORSDOF 9
ENDMDL
