MODEL 1
REMARK VINA RESULT: -4.987861310      0.000      0.000
REMARK  6 active torsions:
REMARK  status: ('A' for Active; 'I' for Inactive)
REMARK    1  A    between atoms: C2_2  and  O1_3 
REMARK    2  A    between atoms: O1_3  and  C3_4 
REMARK    3  A    between atoms: C3_4  and  C4_5 
REMARK    4  A    between atoms: C8_10  and  O2_11 
REMARK    5  A    between atoms: C9_13  and  O3_14 
REMARK    6  A    between atoms: C10_16  and  O4_17 
ROOT
HETATM    1  C4  UNL     1       1.777   0.591  19.648  1.00  0.00     0.046 C 
HETATM    2  C5  UNL     1       2.904   0.079  20.465  1.00  0.00     0.007 C 
HETATM    3  C6  UNL     1       3.797   1.183  20.986  1.00  0.00     0.012 C 
HETATM    4  C7  UNL     1       2.512  -0.789  21.615  1.00  0.00     0.094 C 
HETATM    5  S1  UNL     1       3.939  -1.221  22.602  1.00  0.00    -0.089 SA
HETATM    6  C8  UNL     1       1.466  -0.013  22.423  1.00  0.00     0.164 C 
HETATM    7  C9  UNL     1       0.258   0.051  21.487  1.00  0.00     0.177 C 
HETATM    8  C10 UNL     1       0.589   1.058  20.426  1.00  0.00     0.156 C 
ENDROOT
BRANCH   1   9
HETATM    9  C3  UNL     1       1.288  -0.416  18.622  1.00  0.00     0.175 C 
BRANCH   9  10
HETATM   10  O1  UNL     1       2.362  -1.160  18.149  1.00  0.00    -0.391 OA
BRANCH  10  11
HETATM   11  C2  UNL     1       2.067  -2.502  18.128  1.00  0.00     0.163 C 
HETATM   12  C1  UNL     1       3.065  -3.356  18.865  1.00  0.00     0.033 C 
ENDBRANCH  10  11
ENDBRANCH   9  10
ENDBRANCH   1   9
BRANCH   8  13
HETATM   13  O4  UNL     1       0.765   2.340  20.925  1.00  0.00    -0.392 OA
ATOM     14  H4  UNL     1       0.096   2.940  20.615  1.00  0.00     0.210 HD
ENDBRANCH   8  13
BRANCH   7  15
HETATM   15  O3  UNL     1      -0.904   0.350  22.184  1.00  0.00    -0.390 OA
ATOM     16  H3  UNL     1      -0.826   0.116  23.101  1.00  0.00     0.210 HD
ENDBRANCH   7  15
BRANCH   6  17
HETATM   17  O2  UNL     1       1.175  -0.638  23.613  1.00  0.00    -0.392 OA
ATOM     18  H2  UNL     1       0.273  -0.935  23.644  1.00  0.00     0.210 HD
ENDBRANCH   6  17
TORSDOF 6
ENDMDL
MODEL 2
REMARK VINA RESULT: -4.781318932      6.811      8.593
REMARK  6 active torsions:
REMARK  status: ('A' for Active; 'I' for Inactive)
REMARK    1  A    between atoms: C2_2  and  O1_3 
REMARK    2  A    between atoms: O1_3  and  C3_4 
REMARK    3  A    between atoms: C3_4  and  C4_5 
REMARK    4  A    between atoms: C8_10  and  O2_11 
REMARK    5  A    between atoms: C9_13  and  O3_14 
REMARK    6  A    between atoms: C10_16  and  O4_17 
ROOT
HETATM    1  C4  UNL     1       5.144  -5.687  26.265  1.00  0.00     0.046 C 
HETATM    2  C5  UNL     1       5.773  -5.642  24.923  1.00  0.00     0.007 C 
HETATM    3  C6  UNL     1       5.691  -6.966  24.195  1.00  0.00     0.012 C 
HETATM    4  C7  UNL     1       5.259  -4.575  24.015  1.00  0.00     0.094 C 
HETATM    5  S1  UNL     1       5.988  -4.717  22.388  1.00  0.00    -0.089 SA
HETATM    6  C8  UNL     1       3.734  -4.718  23.977  1.00  0.00     0.164 C 
HETATM    7  C9  UNL     1       3.298  -4.340  25.394  1.00  0.00     0.177 C 
HETATM    8  C10 UNL     1       3.662  -5.496  26.278  1.00  0.00     0.156 C 
ENDROOT
BRANCH   1   9
HETATM    9  C3  UNL     1       5.746  -4.683  27.232  1.00  0.00     0.175 C 
BRANCH   9  10
HETATM   10  O1  UNL     1       6.997  -5.124  27.646  1.00  0.00    -0.391 OA
BRANCH  10  11
HETATM   11  C2  UNL     1       6.915  -6.354  28.254  1.00  0.00     0.163 C 
HETATM   12  C1  UNL     1       8.084  -7.258  27.960  1.00  0.00     0.033 C 
ENDBRANCH  10  11
ENDBRANCH   9  10
ENDBRANCH   1   9
BRANCH   8  13
HETATM   13  O4  UNL     1       2.983  -6.663  25.959  1.00  0.00    -0.392 OA
ATOM     14  H4  UNL     1       2.177  -6.490  25.485  1.00  0.00     0.210 HD
ENDBRANCH   8  13
BRANCH   7  15
HETATM   15  O3  UNL     1       1.949  -4.019  25.437  1.00  0.00    -0.390 OA
ATOM     16  H3  UNL     1       1.808  -3.178  25.856  1.00  0.00     0.210 HD
ENDBRANCH   7  15
BRANCH   6  17
HETATM   17  O2  UNL     1       3.169  -3.907  23.021  1.00  0.00    -0.392 OA
ATOM     18  H2  UNL     1       2.265  -3.699  23.224  1.00  0.00     0.210 HD
ENDBRANCH   6  17
TORSDOF 6
ENDMDL
MODEL 3
REMARK VINA RESULT: -4.738226755      1.924      2.593
REMARK  6 active torsions:
REMARK  status: ('A' for Active; 'I' for Inactive)
REMARK    1  A    between atoms: C2_2  and  O1_3 
REMARK    2  A    between atoms: O1_3  and  C3_4 
REMARK    3  A    between atoms: C3_4  and  C4_5 
REMARK    4  A    between atoms: C8_10  and  O2_11 
REMARK    5  A    between atoms: C9_13  and  O3_14 
REMARK    6  A    between atoms: C10_16  and  O4_17 
ROOT
HETATM    1  C4  UNL     1       2.892   0.566  21.962  1.00  0.00     0.046 C 
HETATM    2  C5  UNL     1       3.706  -0.666  21.819  1.00  0.00     0.007 C 
HETATM    3  C6  UNL     1       4.693  -0.848  22.950  1.00  0.00     0.012 C 
HETATM    4  C7  UNL     1       2.925  -1.929  21.671  1.00  0.00     0.094 C 
HETATM    5  S1  UNL     1       4.011  -3.351  21.654  1.00  0.00    -0.089 SA
HETATM    6  C8  UNL     1       1.930  -1.979  22.835  1.00  0.00     0.164 C 
HETATM    7  C9  UNL     1       0.967  -0.828  22.539  1.00  0.00     0.177 C 
HETATM    8  C10 UNL     1       1.702   0.441  22.858  1.00  0.00     0.156 C 
ENDROOT
BRANCH   1   9
HETATM    9  C3  UNL     1       2.410   1.111  20.630  1.00  0.00     0.175 C 
BRANCH   9  10
HETATM   10  O1  UNL     1       3.400   0.942  19.670  1.00  0.00    -0.391 OA
BRANCH  10  11
HETATM   11  C2  UNL     1       2.857   0.679  18.436  1.00  0.00     0.163 C 
HETATM   12  C1  UNL     1       2.005  -0.563  18.397  1.00  0.00     0.033 C 
ENDBRANCH  10  11
ENDBRANCH   9  10
ENDBRANCH   1   9
BRANCH   8  13
HETATM   13  O4  UNL     1       2.044   0.552  24.198  1.00  0.00    -0.392 OA
ATOM     14  H4  UNL     1       1.531  -0.029  24.747  1.00  0.00     0.210 HD
ENDBRANCH   8  13
BRANCH   7  15
HETATM   15  O3  UNL     1      -0.218  -0.968  23.247  1.00  0.00    -0.390 OA
ATOM     16  H3  UNL     1      -0.673  -1.765  23.004  1.00  0.00     0.210 HD
ENDBRANCH   7  15
BRANCH   6  17
HETATM   17  O2  UNL     1       1.289  -3.193  22.908  1.00  0.00    -0.392 OA
ATOM     18  H2  UNL     1       1.191  -3.487  23.806  1.00  0.00     0.210 HD
ENDBRANCH   6  17
TORSDOF 6
ENDMDL
MODEL 4
REMARK VINA RESULT: -4.734048580      2.044      4.021
REMARK  6 active torsions:
REMARK  status: ('A' for Active; 'I' for Inactive)
REMARK    1  A    between atoms: C2_2  and  O1_3 
REMARK    2  A    between atoms: O1_3  and  C3_4 
REMARK    3  A    between atoms: C3_4  and  C4_5 
REMARK    4  A    between atoms: C8_10  and  O2_11 
REMARK    5  A    between atoms: C9_13  and  O3_14 
REMARK    6  A    between atoms: C10_16  and  O4_17 
ROOT
HETATM    1  C4  UNL     1       2.211   0.508  21.301  1.00  0.00     0.046 C 
HETATM    2  C5  UNL     1       1.504  -0.793  21.206  1.00  0.00     0.007 C 
HETATM    3  C6  UNL     1      -0.001  -0.645  21.245  1.00  0.00     0.012 C 
HETATM    4  C7  UNL     1       1.862  -1.626  20.021  1.00  0.00     0.094 C 
HETATM    5  S1  UNL     1       0.844  -3.095  19.943  1.00  0.00    -0.089 SA
HETATM    6  C8  UNL     1       1.690  -0.740  18.783  1.00  0.00     0.164 C 
HETATM    7  C9  UNL     1       2.792   0.311  18.933  1.00  0.00     0.177 C 
HETATM    8  C10 UNL     1       2.344   1.253  20.012  1.00  0.00     0.156 C 
ENDROOT
BRANCH   1   9
HETATM    9  C3  UNL     1       3.597   0.382  21.905  1.00  0.00     0.175 C 
BRANCH   9  10
HETATM   10  O1  UNL     1       3.564  -0.509  22.971  1.00  0.00    -0.391 OA
BRANCH  10  11
HETATM   11  C2  UNL     1       4.725  -1.239  23.046  1.00  0.00     0.163 C 
HETATM   12  C1  UNL     1       4.665  -2.556  22.317  1.00  0.00     0.033 C 
ENDBRANCH  10  11
ENDBRANCH   9  10
ENDBRANCH   1   9
BRANCH   8  13
HETATM   13  O4  UNL     1       1.186   1.944  19.688  1.00  0.00    -0.392 OA
ATOM     14  H4  UNL     1       1.136   2.785  20.128  1.00  0.00     0.210 HD
ENDBRANCH   8  13
BRANCH   7  15
HETATM   15  O3  UNL     1       3.052   0.944  17.726  1.00  0.00    -0.390 OA
ATOM     16  H3  UNL     1       2.270   1.353  17.376  1.00  0.00     0.210 HD
ENDBRANCH   7  15
BRANCH   6  17
HETATM   17  O2  UNL     1       1.809  -1.460  17.618  1.00  0.00    -0.392 OA
ATOM     18  H2  UNL     1       1.500  -0.969  16.866  1.00  0.00     0.210 HD
ENDBRANCH   6  17
TORSDOF 6
ENDMDL
MODEL 5
REMARK VINA RESULT: -4.713013624      2.376      3.498
REMARK  6 active torsions:
REMARK  status: ('A' for Active; 'I' for Inactive)
REMARK    1  A    between atoms: C2_2  and  O1_3 
REMARK    2  A    between atoms: O1_3  and  C3_4 
REMARK    3  A    between atoms: C3_4  and  C4_5 
REMARK    4  A    between atoms: C8_10  and  O2_11 
REMARK    5  A    between atoms: C9_13  and  O3_14 
REMARK    6  A    between atoms: C10_16  and  O4_17 
ROOT
HETATM    1  C4  UNL     1       3.230  -2.860  20.713  1.00  0.00     0.046 C 
HETATM    2  C5  UNL     1       3.396  -1.391  20.589  1.00  0.00     0.007 C 
HETATM    3  C6  UNL     1       2.438  -0.776  19.593  1.00  0.00     0.012 C 
HETATM    4  C7  UNL     1       3.293  -0.630  21.869  1.00  0.00     0.094 C 
HETATM    5  S1  UNL     1       3.365   1.132  21.570  1.00  0.00    -0.089 SA
HETATM    6  C8  UNL     1       1.977  -1.048  22.534  1.00  0.00     0.164 C 
HETATM    7  C9  UNL     1       2.209  -2.512  22.908  1.00  0.00     0.177 C 
HETATM    8  C10 UNL     1       2.137  -3.299  21.633  1.00  0.00     0.156 C 
ENDROOT
BRANCH   1   9
HETATM    9  C3  UNL     1       4.505  -3.562  21.143  1.00  0.00     0.175 C 
BRANCH   9  10
HETATM   10  O1  UNL     1       5.195  -4.007  20.022  1.00  0.00    -0.391 OA
BRANCH  10  11
HETATM   11  C2  UNL     1       4.331  -4.438  19.045  1.00  0.00     0.163 C 
HETATM   12  C1  UNL     1       4.225  -5.938  18.943  1.00  0.00     0.033 C 
ENDBRANCH  10  11
ENDBRANCH   9  10
ENDBRANCH   1   9
BRANCH   8  13
HETATM   13  O4  UNL     1       0.891  -3.244  21.026  1.00  0.00    -0.392 OA
ATOM     14  H4  UNL     1       0.365  -4.012  21.219  1.00  0.00     0.210 HD
ENDBRANCH   8  13
BRANCH   7  15
HETATM   15  O3  UNL     1       1.300  -2.937  23.867  1.00  0.00    -0.390 OA
ATOM     16  H3  UNL     1       1.523  -3.799  24.196  1.00  0.00     0.210 HD
ENDBRANCH   7  15
BRANCH   6  17
HETATM   17  O2  UNL     1       1.686  -0.266  23.626  1.00  0.00    -0.392 OA
ATOM     18  H2  UNL     1       0.781   0.021  23.624  1.00  0.00     0.210 HD
ENDBRANCH   6  17
TORSDOF 6
ENDMDL
