MODEL 1
REMARK VINA RESULT: -6.810000780      0.000      0.000
REMARK  5 active torsions:
REMARK  status: ('A' for Active; 'I' for Inactive)
REMARK       I    between atoms: N1_2  and  C2_4 
REMARK       I    between atoms: C2_4  and  N2_6 
REMARK    1  A    between atoms: N2_6  and  C3_8 
REMARK    2  A    between atoms: C6_11  and  C7_12 
REMARK    3  A    between atoms: C7_12  and  N3_13 
REMARK    4  A    between atoms: N3_13  and  C8_15 
REMARK    5  A    between atoms: C14_21  and  O2_22 
ROOT
HETATM    1  C3  UNL     1       6.425  -4.514  25.379  1.00  0.00     0.263 C 
HETATM    2  C4  UNL     1       5.286  -5.276  24.718  1.00  0.00     0.063 C 
HETATM    3  C5  UNL     1       4.599  -4.236  23.787  1.00  0.00     0.073 C 
HETATM    4  C6  UNL     1       5.550  -4.068  22.677  1.00  0.00     0.099 C 
HETATM    5  O3  UNL     1       6.874  -4.028  23.217  1.00  0.00    -0.199 OA
HETATM    6  O4  UNL     1       6.766  -3.506  24.449  1.00  0.00    -0.209 OA
ENDROOT
BRANCH   4   7
HETATM    7  C7  UNL     1       5.355  -3.149  21.527  1.00  0.00     0.119 C 
BRANCH   7   8
HETATM    8  N3  UNL     1       4.104  -2.536  21.581  1.00  0.00    -0.392 N 
ATOM      9  H3  UNL     1       3.268  -3.119  21.530  1.00  0.00     0.159 HD
BRANCH   8  10
HETATM   10  C8  UNL     1       3.958  -1.178  21.701  1.00  0.00     0.087 C 
HETATM   11  C9  UNL     1       3.634  -0.596  23.022  1.00  0.00     0.030 C 
HETATM   12  C10 UNL     1       3.170   0.854  22.864  1.00  0.00    -0.010 C 
HETATM   13  C11 UNL     1       1.707   0.762  22.457  1.00  0.00     0.005 C 
HETATM   14  C15 UNL     1       3.948   1.446  21.696  1.00  0.00     0.037 C 
HETATM   15  C12 UNL     1       1.594  -0.388  21.446  1.00  0.00     0.009 C 
HETATM   16  C13 UNL     1       2.911  -0.588  20.744  1.00  0.00     0.037 C 
HETATM   17  C14 UNL     1       3.425   0.828  20.439  1.00  0.00     0.124 C 
BRANCH  17  18
HETATM   18  O2  UNL     1       2.422   1.571  19.842  1.00  0.00    -0.395 OA
ATOM     19  H2  UNL     1       2.805   2.270  19.324  1.00  0.00     0.210 HD
ENDBRANCH  17  18
ENDBRANCH   8  10
ENDBRANCH   7   8
ENDBRANCH   4   7
BRANCH   1  20
HETATM   20  N2  UNL     1       6.000  -3.924  26.605  1.00  0.00    -0.314 N 
HETATM   21  C2  UNL     1       6.524  -4.432  27.864  1.00  0.00     0.317 C 
HETATM   22  N1  UNL     1       6.051  -3.858  29.045  1.00  0.00    -0.347 N 
HETATM   23  O1  UNL     1       7.342  -5.340  27.826  1.00  0.00    -0.247 OA
HETATM   24  C1  UNL     1       6.548  -4.315  30.333  1.00  0.00     0.151 C 
ATOM     25  H1  UNL     1       5.353  -3.115  29.005  1.00  0.00     0.163 HD
ATOM     26  H2  UNL     1       5.334  -3.151  26.599  1.00  0.00     0.167 HD
ENDBRANCH   1  20
TORSDOF 5
ENDMDL
MODEL 2
REMARK VINA RESULT: -6.673920703      1.591      1.965
REMARK  5 active torsions:
REMARK  status: ('A' for Active; 'I' for Inactive)
REMARK       I    between atoms: N1_2  and  C2_4 
REMARK       I    between atoms: C2_4  and  N2_6 
REMARK    1  A    between atoms: N2_6  and  C3_8 
REMARK    2  A    between atoms: C6_11  and  C7_12 
REMARK    3  A    between atoms: C7_12  and  N3_13 
REMARK    4  A    between atoms: N3_13  and  C8_15 
REMARK    5  A    between atoms: C14_21  and  O2_22 
ROOT
HETATM    1  C3  UNL     1       6.582  -6.015  26.027  1.00  0.00     0.263 C 
HETATM    2  C4  UNL     1       5.677  -6.800  25.088  1.00  0.00     0.063 C 
HETATM    3  C5  UNL     1       5.078  -5.734  24.126  1.00  0.00     0.073 C 
HETATM    4  C6  UNL     1       6.203  -5.373  23.249  1.00  0.00     0.099 C 
HETATM    5  O3  UNL     1       7.387  -5.274  24.047  1.00  0.00    -0.199 OA
HETATM    6  O4  UNL     1       6.989  -4.892  25.271  1.00  0.00    -0.209 OA
ENDROOT
BRANCH   4   7
HETATM    7  C7  UNL     1       6.139  -4.361  22.164  1.00  0.00     0.119 C 
BRANCH   7   8
HETATM    8  N3  UNL     1       6.416  -3.085  22.651  1.00  0.00    -0.392 N 
ATOM      9  H3  UNL     1       7.361  -2.876  22.974  1.00  0.00     0.159 HD
BRANCH   8  10
HETATM   10  C8  UNL     1       5.463  -2.101  22.710  1.00  0.00     0.087 C 
HETATM   11  C9  UNL     1       4.950  -1.665  24.028  1.00  0.00     0.030 C 
HETATM   12  C10 UNL     1       3.671  -0.843  23.854  1.00  0.00    -0.010 C 
HETATM   13  C11 UNL     1       2.561  -1.867  23.672  1.00  0.00     0.005 C 
HETATM   14  C15 UNL     1       3.814  -0.065  22.551  1.00  0.00     0.037 C 
HETATM   15  C12 UNL     1       3.113  -2.970  22.758  1.00  0.00     0.009 C 
HETATM   16  C13 UNL     1       4.207  -2.415  21.883  1.00  0.00     0.037 C 
HETATM   17  C14 UNL     1       3.697  -1.040  21.424  1.00  0.00     0.124 C 
BRANCH  17  18
HETATM   18  O2  UNL     1       2.407  -1.158  20.937  1.00  0.00    -0.395 OA
ATOM     19  H2  UNL     1       2.357  -0.780  20.066  1.00  0.00     0.210 HD
ENDBRANCH  17  18
ENDBRANCH   8  10
ENDBRANCH   7   8
ENDBRANCH   4   7
BRANCH   1  20
HETATM   20  N2  UNL     1       5.869  -5.590  27.185  1.00  0.00    -0.314 N 
HETATM   21  C2  UNL     1       6.608  -5.160  28.363  1.00  0.00     0.317 C 
HETATM   22  N1  UNL     1       5.876  -4.794  29.494  1.00  0.00    -0.347 N 
HETATM   23  O1  UNL     1       7.830  -5.150  28.307  1.00  0.00    -0.247 OA
HETATM   24  C1  UNL     1       6.559  -4.343  30.696  1.00  0.00     0.151 C 
ATOM     25  H1  UNL     1       4.857  -4.844  29.477  1.00  0.00     0.163 HD
ATOM     26  H2  UNL     1       4.849  -5.589  27.190  1.00  0.00     0.167 HD
ENDBRANCH   1  20
TORSDOF 5
ENDMDL
MODEL 3
REMARK VINA RESULT: -6.626151638      2.031      2.256
REMARK  5 active torsions:
REMARK  status: ('A' for Active; 'I' for Inactive)
REMARK       I    between atoms: N1_2  and  C2_4 
REMARK       I    between atoms: C2_4  and  N2_6 
REMARK    1  A    between atoms: N2_6  and  C3_8 
REMARK    2  A    between atoms: C6_11  and  C7_12 
REMARK    3  A    between atoms: C7_12  and  N3_13 
REMARK    4  A    between atoms: N3_13  and  C8_15 
REMARK    5  A    between atoms: C14_21  and  O2_22 
ROOT
HETATM    1  C3  UNL     1       3.217  -4.768  25.403  1.00  0.00     0.263 C 
HETATM    2  C4  UNL     1       1.724  -4.488  25.309  1.00  0.00     0.063 C 
HETATM    3  C5  UNL     1       1.600  -3.328  24.280  1.00  0.00     0.073 C 
HETATM    4  C6  UNL     1       1.882  -3.967  22.986  1.00  0.00     0.099 C 
HETATM    5  O3  UNL     1       2.971  -4.879  23.158  1.00  0.00    -0.199 OA
HETATM    6  O4  UNL     1       3.731  -4.380  24.145  1.00  0.00    -0.209 OA
ENDROOT
BRANCH   4   7
HETATM    7  C7  UNL     1       1.907  -3.260  21.680  1.00  0.00     0.119 C 
BRANCH   7   8
HETATM    8  N3  UNL     1       3.165  -2.713  21.430  1.00  0.00    -0.392 N 
ATOM      9  H3  UNL     1       3.961  -3.342  21.318  1.00  0.00     0.159 HD
BRANCH   8  10
HETATM   10  C8  UNL     1       3.369  -1.362  21.330  1.00  0.00     0.087 C 
HETATM   11  C9  UNL     1       4.189  -0.673  22.353  1.00  0.00     0.030 C 
HETATM   12  C10 UNL     1       3.993   0.842  22.258  1.00  0.00    -0.010 C 
HETATM   13  C11 UNL     1       2.694   1.122  22.997  1.00  0.00     0.005 C 
HETATM   14  C15 UNL     1       3.780   1.173  20.786  1.00  0.00     0.037 C 
HETATM   15  C12 UNL     1       1.708   0.010  22.610  1.00  0.00     0.009 C 
HETATM   16  C13 UNL     1       2.067  -0.549  21.259  1.00  0.00     0.037 C 
HETATM   17  C14 UNL     1       2.425   0.674  20.398  1.00  0.00     0.124 C 
BRANCH  17  18
HETATM   18  O2  UNL     1       1.436   1.633  20.515  1.00  0.00    -0.395 OA
ATOM     19  H2  UNL     1       1.104   1.859  19.653  1.00  0.00     0.210 HD
ENDBRANCH  17  18
ENDBRANCH   8  10
ENDBRANCH   7   8
ENDBRANCH   4   7
BRANCH   1  20
HETATM   20  N2  UNL     1       3.818  -3.991  26.436  1.00  0.00    -0.314 N 
HETATM   21  C2  UNL     1       4.841  -4.590  27.280  1.00  0.00     0.317 C 
HETATM   22  N1  UNL     1       5.374  -3.811  28.309  1.00  0.00    -0.347 N 
HETATM   23  O1  UNL     1       5.175  -5.744  27.053  1.00  0.00    -0.247 OA
HETATM   24  C1  UNL     1       6.409  -4.351  29.177  1.00  0.00     0.151 C 
ATOM     25  H1  UNL     1       5.035  -2.860  28.454  1.00  0.00     0.163 HD
ATOM     26  H2  UNL     1       3.532  -3.022  26.582  1.00  0.00     0.167 HD
ENDBRANCH   1  20
TORSDOF 5
ENDMDL
MODEL 4
REMARK VINA RESULT: -6.614399605      1.055      1.850
REMARK  5 active torsions:
REMARK  status: ('A' for Active; 'I' for Inactive)
REMARK       I    between atoms: N1_2  and  C2_4 
REMARK       I    between atoms: C2_4  and  N2_6 
REMARK    1  A    between atoms: N2_6  and  C3_8 
REMARK    2  A    between atoms: C6_11  and  C7_12 
REMARK    3  A    between atoms: C7_12  and  N3_13 
REMARK    4  A    between atoms: N3_13  and  C8_15 
REMARK    5  A    between atoms: C14_21  and  O2_22 
ROOT
HETATM    1  C3  UNL     1       6.459  -4.071  26.277  1.00  0.00     0.263 C 
HETATM    2  C4  UNL     1       5.180  -4.667  25.708  1.00  0.00     0.063 C 
HETATM    3  C5  UNL     1       4.581  -3.545  24.813  1.00  0.00     0.073 C 
HETATM    4  C6  UNL     1       5.465  -3.518  23.637  1.00  0.00     0.099 C 
HETATM    5  O3  UNL     1       6.817  -3.662  24.082  1.00  0.00    -0.199 OA
HETATM    6  O4  UNL     1       6.871  -3.125  25.311  1.00  0.00    -0.209 OA
ENDROOT
BRANCH   4   7
HETATM    7  C7  UNL     1       5.319  -2.585  22.490  1.00  0.00     0.119 C 
BRANCH   7   8
HETATM    8  N3  UNL     1       4.510  -1.501  22.825  1.00  0.00    -0.392 N 
ATOM      9  H3  UNL     1       4.667  -1.025  23.714  1.00  0.00     0.159 HD
BRANCH   8  10
HETATM   10  C8  UNL     1       3.510  -1.051  22.002  1.00  0.00     0.087 C 
HETATM   11  C9  UNL     1       3.602  -1.298  20.545  1.00  0.00     0.030 C 
HETATM   12  C10 UNL     1       2.596  -0.423  19.794  1.00  0.00    -0.010 C 
HETATM   13  C11 UNL     1       3.260   0.941  19.684  1.00  0.00     0.005 C 
HETATM   14  C15 UNL     1       1.371  -0.282  20.689  1.00  0.00     0.037 C 
HETATM   15  C12 UNL     1       3.941   1.219  21.032  1.00  0.00     0.009 C 
HETATM   16  C13 UNL     1       3.244   0.457  22.128  1.00  0.00     0.037 C 
HETATM   17  C14 UNL     1       1.743   0.607  21.833  1.00  0.00     0.124 C 
BRANCH  17  18
HETATM   18  O2  UNL     1       1.441   1.939  21.609  1.00  0.00    -0.395 OA
ATOM     19  H2  UNL     1       2.219   2.398  21.313  1.00  0.00     0.210 HD
ENDBRANCH  17  18
ENDBRANCH   8  10
ENDBRANCH   7   8
ENDBRANCH   4   7
BRANCH   1  20
HETATM   20  N2  UNL     1       6.210  -3.421  27.521  1.00  0.00    -0.314 N 
HETATM   21  C2  UNL     1       6.540  -4.103  28.764  1.00  0.00     0.317 C 
HETATM   22  N1  UNL     1       6.240  -3.452  29.962  1.00  0.00    -0.347 N 
HETATM   23  O1  UNL     1       7.053  -5.211  28.697  1.00  0.00    -0.247 OA
HETATM   24  C1  UNL     1       6.560  -4.078  31.236  1.00  0.00     0.151 C 
ATOM     25  H1  UNL     1       5.795  -2.535  29.945  1.00  0.00     0.163 HD
ATOM     26  H2  UNL     1       5.802  -2.486  27.540  1.00  0.00     0.167 HD
ENDBRANCH   1  20
TORSDOF 5
ENDMDL
MODEL 5
REMARK VINA RESULT: -6.535522798      2.168      2.573
REMARK  5 active torsions:
REMARK  status: ('A' for Active; 'I' for Inactive)
REMARK       I    between atoms: N1_2  and  C2_4 
REMARK       I    between atoms: C2_4  and  N2_6 
REMARK    1  A    between atoms: N2_6  and  C3_8 
REMARK    2  A    between atoms: C6_11  and  C7_12 
REMARK    3  A    between atoms: C7_12  and  N3_13 
REMARK    4  A    between atoms: N3_13  and  C8_15 
REMARK    5  A    between atoms: C14_21  and  O2_22 
ROOT
HETATM    1  C3  UNL     1       3.335  -4.853  25.426  1.00  0.00     0.263 C 
HETATM    2  C4  UNL     1       1.813  -4.857  25.460  1.00  0.00     0.063 C 
HETATM    3  C5  UNL     1       1.390  -3.692  24.521  1.00  0.00     0.073 C 
HETATM    4  C6  UNL     1       1.675  -4.201  23.170  1.00  0.00     0.099 C 
HETATM    5  O3  UNL     1       2.924  -4.897  23.203  1.00  0.00    -0.199 OA
HETATM    6  O4  UNL     1       3.660  -4.313  24.161  1.00  0.00    -0.209 OA
ENDROOT
BRANCH   4   7
HETATM    7  C7  UNL     1       1.459  -3.437  21.915  1.00  0.00     0.119 C 
BRANCH   7   8
HETATM    8  N3  UNL     1       2.548  -2.613  21.636  1.00  0.00    -0.392 N 
ATOM      9  H3  UNL     1       3.396  -3.031  21.253  1.00  0.00     0.159 HD
BRANCH   8  10
HETATM   10  C8  UNL     1       2.518  -1.260  21.857  1.00  0.00     0.087 C 
HETATM   11  C9  UNL     1       1.271  -0.507  21.593  1.00  0.00     0.030 C 
HETATM   12  C10 UNL     1       1.556   0.995  21.559  1.00  0.00    -0.010 C 
HETATM   13  C11 UNL     1       2.107   1.265  20.167  1.00  0.00     0.005 C 
HETATM   14  C15 UNL     1       2.667   1.262  22.566  1.00  0.00     0.037 C 
HETATM   15  C12 UNL     1       3.060   0.109  19.830  1.00  0.00     0.009 C 
HETATM   16  C13 UNL     1       3.610  -0.491  21.097  1.00  0.00     0.037 C 
HETATM   17  C14 UNL     1       3.936   0.707  22.003  1.00  0.00     0.124 C 
BRANCH  17  18
HETATM   18  O2  UNL     1       4.674   1.640  21.297  1.00  0.00    -0.395 OA
ATOM     19  H2  UNL     1       4.279   2.499  21.390  1.00  0.00     0.210 HD
ENDBRANCH  17  18
ENDBRANCH   8  10
ENDBRANCH   7   8
ENDBRANCH   4   7
BRANCH   1  20
HETATM   20  N2  UNL     1       3.866  -4.029  26.460  1.00  0.00    -0.314 N 
HETATM   21  C2  UNL     1       4.888  -4.563  27.348  1.00  0.00     0.317 C 
HETATM   22  N1  UNL     1       5.352  -3.741  28.377  1.00  0.00    -0.347 N 
HETATM   23  O1  UNL     1       5.281  -5.705  27.156  1.00  0.00    -0.247 OA
HETATM   24  C1  UNL     1       6.382  -4.215  29.287  1.00  0.00     0.151 C 
ATOM     25  H1  UNL     1       4.965  -2.803  28.490  1.00  0.00     0.163 HD
ATOM     26  H2  UNL     1       3.532  -3.072  26.578  1.00  0.00     0.167 HD
ENDBRANCH   1  20
TORSDOF 5
ENDMDL
