MODEL 1
REMARK VINA RESULT: -5.757578725      0.000      0.000
REMARK  6 active torsions:
REMARK  status: ('A' for Active; 'I' for Inactive)
REMARK    1  A    between atoms: O1_1  and  C1_3 
REMARK    2  A    between atoms: C1_3  and  C2_4 
REMARK    3  A    between atoms: C2_4  and  O2_5 
REMARK    4  A    between atoms: C2_4  and  C3_7 
REMARK    5  A    between atoms: C6_11  and  O4_12 
REMARK    6  A    between atoms: C10_18  and  O5_19 
ROOT
HETATM    1  C3  UNL     1       1.368  -2.081  19.252  1.00  0.00     0.182 C 
HETATM    2  O3  UNL     1       1.752  -2.784  20.352  1.00  0.00    -0.380 OA
HETATM    3  C4  UNL     1       2.888  -2.179  20.923  1.00  0.00     0.176 C 
HETATM    4  C5  UNL     1       2.309  -0.966  21.666  1.00  0.00     0.054 C 
HETATM    5  C6  UNL     1       3.360  -0.468  22.587  1.00  0.00     0.126 C 
HETATM    6  C7  UNL     1       4.461   0.309  21.949  1.00  0.00     0.042 C 
HETATM    7  C8  UNL     1       4.066   1.673  21.495  1.00  0.00     0.077 C 
HETATM    8  S1  UNL     1       2.583   1.533  20.505  1.00  0.00    -0.161 SA
HETATM    9  C9  UNL     1       1.733  -0.042  20.691  1.00  0.00     0.087 C 
HETATM   10  C10 UNL     1       1.598  -0.624  19.280  1.00  0.00     0.164 C 
ENDROOT
BRANCH   1  11
HETATM   11  C2  UNL     1       2.124  -2.664  18.050  1.00  0.00     0.173 C 
BRANCH  11  12
HETATM   12  C1  UNL     1       2.057  -4.158  18.091  1.00  0.00     0.198 C 
BRANCH  12  13
HETATM   13  O1  UNL     1       3.303  -4.681  18.419  1.00  0.00    -0.398 OA
ATOM     14  H1  UNL     1       3.605  -5.260  17.729  1.00  0.00     0.209 HD
ENDBRANCH  12  13
ENDBRANCH  11  12
BRANCH  11  15
HETATM   15  O2  UNL     1       1.588  -2.226  16.852  1.00  0.00    -0.391 OA
ATOM     16  H2  UNL     1       2.141  -1.537  16.503  1.00  0.00     0.210 HD
ENDBRANCH  11  15
ENDBRANCH   1  11
BRANCH  10  17
HETATM   17  O5  UNL     1       2.734  -0.269  18.548  1.00  0.00    -0.392 OA
ATOM     18  H5  UNL     1       3.460  -0.857  18.725  1.00  0.00     0.210 HD
ENDBRANCH  10  17
BRANCH   5  19
HETATM   19  O4  UNL     1       2.830   0.294  23.653  1.00  0.00    -0.395 OA
ATOM     20  H4  UNL     1       3.023  -0.085  24.503  1.00  0.00     0.210 HD
ENDBRANCH   5  19
TORSDOF 6
ENDMDL
MODEL 2
REMARK VINA RESULT: -5.662591788      1.737      2.690
REMARK  6 active torsions:
REMARK  status: ('A' for Active; 'I' for Inactive)
REMARK    1  A    between atoms: O1_1  and  C1_3 
REMARK    2  A    between atoms: C1_3  and  C2_4 
REMARK    3  A    between atoms: C2_4  and  O2_5 
REMARK    4  A    between atoms: C2_4  and  C3_7 
REMARK    5  A    between atoms: C6_11  and  O4_12 
REMARK    6  A    between atoms: C10_18  and  O5_19 
ROOT
HETATM    1  C3  UNL     1       2.404  -1.996  18.834  1.00  0.00     0.182 C 
HETATM    2  O3  UNL     1       2.226  -0.689  18.503  1.00  0.00    -0.380 OA
HETATM    3  C4  UNL     1       2.030   0.069  19.673  1.00  0.00     0.176 C 
HETATM    4  C5  UNL     1       3.447   0.211  20.247  1.00  0.00     0.054 C 
HETATM    5  C6  UNL     1       3.403   1.280  21.274  1.00  0.00     0.126 C 
HETATM    6  C7  UNL     1       2.794   0.897  22.579  1.00  0.00     0.042 C 
HETATM    7  C8  UNL     1       3.638  -0.009  23.408  1.00  0.00     0.077 C 
HETATM    8  S1  UNL     1       4.154  -1.389  22.394  1.00  0.00    -0.161 SA
HETATM    9  C9  UNL     1       3.938  -1.111  20.629  1.00  0.00     0.087 C 
HETATM   10  C10 UNL     1       3.080  -2.272  20.116  1.00  0.00     0.164 C 
ENDROOT
BRANCH   1  11
HETATM   11  C2  UNL     1       1.016  -2.652  18.870  1.00  0.00     0.173 C 
BRANCH  11  12
HETATM   12  C1  UNL     1       0.291  -2.367  17.593  1.00  0.00     0.198 C 
BRANCH  12  13
HETATM   13  O1  UNL     1       1.199  -2.252  16.546  1.00  0.00    -0.398 OA
ATOM     14  H1  UNL     1       1.944  -2.821  16.698  1.00  0.00     0.209 HD
ENDBRANCH  12  13
ENDBRANCH  11  12
BRANCH  11  15
HETATM   15  O2  UNL     1       1.106  -4.023  19.036  1.00  0.00    -0.391 OA
ATOM     16  H2  UNL     1       0.921  -4.234  19.944  1.00  0.00     0.210 HD
ENDBRANCH  11  15
ENDBRANCH   1  11
BRANCH  10  17
HETATM   17  O5  UNL     1       2.165  -2.616  21.114  1.00  0.00    -0.392 OA
ATOM     18  H5  UNL     1       1.973  -1.878  21.681  1.00  0.00     0.210 HD
ENDBRANCH  10  17
BRANCH   5  19
HETATM   19  O4  UNL     1       4.674   1.847  21.520  1.00  0.00    -0.395 OA
ATOM     20  H4  UNL     1       4.621   2.757  21.789  1.00  0.00     0.210 HD
ENDBRANCH   5  19
TORSDOF 6
ENDMDL
MODEL 3
REMARK VINA RESULT: -5.533080621      3.032      4.604
REMARK  6 active torsions:
REMARK  status: ('A' for Active; 'I' for Inactive)
REMARK    1  A    between atoms: O1_1  and  C1_3 
REMARK    2  A    between atoms: C1_3  and  C2_4 
REMARK    3  A    between atoms: C2_4  and  O2_5 
REMARK    4  A    between atoms: C2_4  and  C3_7 
REMARK    5  A    between atoms: C6_11  and  O4_12 
REMARK    6  A    between atoms: C10_18  and  O5_19 
ROOT
HETATM    1  C3  UNL     1       4.211  -2.468  23.427  1.00  0.00     0.182 C 
HETATM    2  O3  UNL     1       4.293  -1.395  24.260  1.00  0.00    -0.380 OA
HETATM    3  C4  UNL     1       4.622  -0.246  23.517  1.00  0.00     0.176 C 
HETATM    4  C5  UNL     1       3.294   0.137  22.847  1.00  0.00     0.054 C 
HETATM    5  C6  UNL     1       3.441   1.520  22.332  1.00  0.00     0.126 C 
HETATM    6  C7  UNL     1       4.239   1.662  21.082  1.00  0.00     0.042 C 
HETATM    7  C8  UNL     1       3.552   1.167  19.856  1.00  0.00     0.077 C 
HETATM    8  S1  UNL     1       2.951  -0.488  20.171  1.00  0.00    -0.161 SA
HETATM    9  C9  UNL     1       2.909  -0.923  21.917  1.00  0.00     0.087 C 
HETATM   10  C10 UNL     1       3.730  -2.209  22.056  1.00  0.00     0.164 C 
ENDROOT
BRANCH   1  11
HETATM   11  C2  UNL     1       5.613  -3.086  23.336  1.00  0.00     0.173 C 
BRANCH  11  12
HETATM   12  C1  UNL     1       6.165  -3.283  24.712  1.00  0.00     0.198 C 
BRANCH  12  13
HETATM   13  O1  UNL     1       7.111  -2.303  24.990  1.00  0.00    -0.398 OA
ATOM     14  H1  UNL     1       7.626  -2.118  24.213  1.00  0.00     0.209 HD
ENDBRANCH  12  13
ENDBRANCH  11  12
BRANCH  11  15
HETATM   15  O2  UNL     1       5.590  -4.307  22.686  1.00  0.00    -0.391 OA
ATOM     16  H2  UNL     1       5.443  -4.158  21.759  1.00  0.00     0.210 HD
ENDBRANCH  11  15
ENDBRANCH   1  11
BRANCH  10  17
HETATM   17  O5  UNL     1       4.786  -2.156  21.143  1.00  0.00    -0.392 OA
ATOM     18  H5  UNL     1       5.001  -3.019  20.809  1.00  0.00     0.210 HD
ENDBRANCH  10  17
BRANCH   5  19
HETATM   19  O4  UNL     1       2.196   2.164  22.147  1.00  0.00    -0.395 OA
ATOM     20  H4  UNL     1       2.203   2.766  21.412  1.00  0.00     0.210 HD
ENDBRANCH   5  19
TORSDOF 6
ENDMDL
MODEL 4
REMARK VINA RESULT: -5.524098686      1.243      1.296
REMARK  6 active torsions:
REMARK  status: ('A' for Active; 'I' for Inactive)
REMARK    1  A    between atoms: O1_1  and  C1_3 
REMARK    2  A    between atoms: C1_3  and  C2_4 
REMARK    3  A    between atoms: C2_4  and  O2_5 
REMARK    4  A    between atoms: C2_4  and  C3_7 
REMARK    5  A    between atoms: C6_11  and  O4_12 
REMARK    6  A    between atoms: C10_18  and  O5_19 
ROOT
HETATM    1  C3  UNL     1       2.445  -3.055  19.977  1.00  0.00     0.182 C 
HETATM    2  O3  UNL     1       3.181  -3.407  21.065  1.00  0.00    -0.380 OA
HETATM    3  C4  UNL     1       4.017  -2.336  21.435  1.00  0.00     0.176 C 
HETATM    4  C5  UNL     1       3.063  -1.372  22.155  1.00  0.00     0.054 C 
HETATM    5  C6  UNL     1       3.897  -0.390  22.888  1.00  0.00     0.126 C 
HETATM    6  C7  UNL     1       4.521   0.676  22.055  1.00  0.00     0.042 C 
HETATM    7  C8  UNL     1       3.564   1.705  21.557  1.00  0.00     0.077 C 
HETATM    8  S1  UNL     1       2.185   0.868  20.784  1.00  0.00    -0.161 SA
HETATM    9  C9  UNL     1       2.074  -0.880  21.199  1.00  0.00     0.087 C 
HETATM   10  C10 UNL     1       2.061  -1.634  19.865  1.00  0.00     0.164 C 
ENDROOT
BRANCH   1  11
HETATM   11  C2  UNL     1       3.261  -3.431  18.732  1.00  0.00     0.173 C 
BRANCH  11  12
HETATM   12  C1  UNL     1       3.886  -4.776  18.928  1.00  0.00     0.198 C 
BRANCH  12  13
HETATM   13  O1  UNL     1       5.271  -4.668  18.879  1.00  0.00    -0.398 OA
ATOM     14  H1  UNL     1       5.568  -4.007  19.492  1.00  0.00     0.209 HD
ENDBRANCH  12  13
ENDBRANCH  11  12
BRANCH  11  15
HETATM   15  O2  UNL     1       2.469  -3.469  17.597  1.00  0.00    -0.391 OA
ATOM     16  H2  UNL     1       2.478  -4.352  17.247  1.00  0.00     0.210 HD
ENDBRANCH  11  15
ENDBRANCH   1  11
BRANCH  10  17
HETATM   17  O5  UNL     1       2.881  -0.950  18.965  1.00  0.00    -0.392 OA
ATOM     18  H5  UNL     1       3.785  -0.935  19.259  1.00  0.00     0.210 HD
ENDBRANCH  10  17
BRANCH   5  19
HETATM   19  O4  UNL     1       3.201   0.223  23.956  1.00  0.00    -0.395 OA
ATOM     20  H4  UNL     1       3.393   1.150  24.032  1.00  0.00     0.210 HD
ENDBRANCH   5  19
TORSDOF 6
ENDMDL
MODEL 5
REMARK VINA RESULT: -5.470124995      4.862      7.046
REMARK  6 active torsions:
REMARK  status: ('A' for Active; 'I' for Inactive)
REMARK    1  A    between atoms: O1_1  and  C1_3 
REMARK    2  A    between atoms: C1_3  and  C2_4 
REMARK    3  A    between atoms: C2_4  and  O2_5 
REMARK    4  A    between atoms: C2_4  and  C3_7 
REMARK    5  A    between atoms: C6_11  and  O4_12 
REMARK    6  A    between atoms: C10_18  and  O5_19 
ROOT
HETATM    1  C3  UNL     1       6.164  -3.511  25.327  1.00  0.00     0.182 C 
HETATM    2  O3  UNL     1       6.989  -4.394  24.702  1.00  0.00    -0.380 OA
HETATM    3  C4  UNL     1       6.416  -4.790  23.479  1.00  0.00     0.176 C 
HETATM    4  C5  UNL     1       6.686  -3.594  22.555  1.00  0.00     0.054 C 
HETATM    5  C6  UNL     1       6.443  -4.045  21.164  1.00  0.00     0.126 C 
HETATM    6  C7  UNL     1       5.012  -4.169  20.767  1.00  0.00     0.042 C 
HETATM    7  C8  UNL     1       4.313  -2.866  20.577  1.00  0.00     0.077 C 
HETATM    8  S1  UNL     1       4.599  -1.854  22.023  1.00  0.00    -0.161 SA
HETATM    9  C9  UNL     1       5.955  -2.432  23.056  1.00  0.00     0.087 C 
HETATM   10  C10 UNL     1       5.372  -2.616  24.461  1.00  0.00     0.164 C 
ENDROOT
BRANCH   1  11
HETATM   11  C2  UNL     1       5.194  -4.325  26.194  1.00  0.00     0.173 C 
BRANCH  11  12
HETATM   12  C1  UNL     1       5.965  -5.272  27.058  1.00  0.00     0.198 C 
BRANCH  12  13
HETATM   13  O1  UNL     1       7.127  -4.661  27.514  1.00  0.00    -0.398 OA
ATOM     14  H1  UNL     1       7.532  -5.193  28.188  1.00  0.00     0.209 HD
ENDBRANCH  12  13
ENDBRANCH  11  12
BRANCH  11  15
HETATM   15  O2  UNL     1       4.426  -3.507  27.003  1.00  0.00    -0.391 OA
ATOM     16  H2  UNL     1       4.956  -2.772  27.287  1.00  0.00     0.210 HD
ENDBRANCH  11  15
ENDBRANCH   1  11
BRANCH  10  17
HETATM   17  O5  UNL     1       4.053  -3.060  24.335  1.00  0.00    -0.392 OA
ATOM     18  H5  UNL     1       3.524  -2.446  23.839  1.00  0.00     0.210 HD
ENDBRANCH  10  17
BRANCH   5  19
HETATM   19  O4  UNL     1       7.107  -3.242  20.209  1.00  0.00    -0.395 OA
ATOM     20  H4  UNL     1       7.200  -3.676  19.369  1.00  0.00     0.210 HD
ENDBRANCH   5  19
TORSDOF 6
ENDMDL
