MODEL 1
REMARK VINA RESULT: -7.356925368      0.000      0.000
REMARK  5 active torsions:
REMARK  status: ('A' for Active; 'I' for Inactive)
REMARK    1  A    between atoms: C5_5  and  C6_7 
REMARK    2  A    between atoms: C6_7  and  N1_8 
REMARK       I    between atoms: N1_8  and  C7_10 
REMARK    3  A    between atoms: C7_10  and  C8_12 
REMARK    4  A    between atoms: C10_14  and  O2_15 
REMARK    5  A    between atoms: N2_17  and  O3_18 
ROOT
HETATM    1  N1  UNL     1      -2.978  -8.067  69.347  1.00  0.00    -0.355 N 
ATOM      2  H1  UNL     1      -3.025  -7.568  70.235  1.00  0.00     0.162 HD
HETATM    3  C7  UNL     1      -3.316  -7.373  68.166  1.00  0.00     0.253 C 
HETATM    4  O1  UNL     1      -3.266  -7.967  67.071  1.00  0.00    -0.268 OA
ENDROOT
BRANCH   1   5
HETATM    5  C6  UNL     1      -2.568  -9.458  69.354  1.00  0.00     0.150 C 
BRANCH   5   6
HETATM    6  C5  UNL     1      -3.589 -10.337  69.990  1.00  0.00     0.074 C 
HETATM    7  C4  UNL     1      -2.915 -11.620  70.435  1.00  0.00     0.032 C 
HETATM    8  C3  UNL     1      -4.029 -12.497  71.014  1.00  0.00     0.033 C 
HETATM    9  C2  UNL     1      -4.602 -11.727  72.187  1.00  0.00     0.117 C 
HETATM   10  C1  UNL     1      -3.571 -11.697  73.288  1.00  0.00     0.039 C 
HETATM   11  O4  UNL     1      -5.100 -10.499  71.852  1.00  0.00    -0.384 OA
HETATM   12  C12 UNL     1      -4.230  -9.677  71.178  1.00  0.00     0.195 C 
HETATM   13 CL1  UNL     1      -4.881 -10.757  68.847  1.00  0.00    -0.115 Cl
ENDBRANCH   5   6
ENDBRANCH   1   5
BRANCH   3  14
HETATM   14  C8  UNL     1      -3.718  -5.976  68.236  1.00  0.00     0.054 A 
HETATM   15  C9  UNL     1      -3.986  -5.136  67.176  1.00  0.00     0.076 A 
HETATM   16  C10 UNL     1      -4.333  -3.895  67.656  1.00  0.00     0.167 A 
HETATM   17  N2  UNL     1      -4.279  -3.976  68.996  1.00  0.00    -0.212 N 
HETATM   18  C11 UNL     1      -3.914  -5.208  69.375  1.00  0.00     0.142 A 
BRANCH  16  19
HETATM   19  O2  UNL     1      -4.678  -2.763  66.887  1.00  0.00    -0.344 OA
ATOM     20  H2  UNL     1      -5.392  -2.161  67.057  1.00  0.00     0.219 HD
ENDBRANCH  16  19
BRANCH  17  21
HETATM   21  O3  UNL     1      -4.568  -2.913  69.827  1.00  0.00    -0.281 OA
ATOM     22  H3  UNL     1      -5.396  -2.449  69.806  1.00  0.00     0.245 HD
ENDBRANCH  17  21
ENDBRANCH   3  14
TORSDOF 5
ENDMDL
MODEL 2
REMARK VINA RESULT: -7.299318181      1.389      1.932
REMARK  5 active torsions:
REMARK  status: ('A' for Active; 'I' for Inactive)
REMARK    1  A    between atoms: C5_5  and  C6_7 
REMARK    2  A    between atoms: C6_7  and  N1_8 
REMARK       I    between atoms: N1_8  and  C7_10 
REMARK    3  A    between atoms: C7_10  and  C8_12 
REMARK    4  A    between atoms: C10_14  and  O2_15 
REMARK    5  A    between atoms: N2_17  and  O3_18 
ROOT
HETATM    1  N1  UNL     1      -3.159  -8.217  69.405  1.00  0.00    -0.355 N 
ATOM      2  H1  UNL     1      -3.404  -7.771  70.289  1.00  0.00     0.162 HD
HETATM    3  C7  UNL     1      -3.238  -7.454  68.221  1.00  0.00     0.253 C 
HETATM    4  O1  UNL     1      -2.945  -7.983  67.131  1.00  0.00    -0.268 OA
ENDROOT
BRANCH   1   5
HETATM    5  C6  UNL     1      -2.746  -9.607  69.421  1.00  0.00     0.150 C 
BRANCH   5   6
HETATM    6  C5  UNL     1      -3.801 -10.496  69.983  1.00  0.00     0.074 C 
HETATM    7  C4  UNL     1      -4.931 -10.602  68.979  1.00  0.00     0.032 C 
HETATM    8  C3  UNL     1      -6.002 -11.470  69.647  1.00  0.00     0.033 C 
HETATM    9  C2  UNL     1      -5.351 -12.815  69.904  1.00  0.00     0.117 C 
HETATM   10  C1  UNL     1      -5.123 -13.496  68.578  1.00  0.00     0.039 C 
HETATM   11  O4  UNL     1      -4.241 -12.748  70.698  1.00  0.00    -0.384 OA
HETATM   12  C12 UNL     1      -3.271 -11.871  70.278  1.00  0.00     0.195 C 
HETATM   13 CL1  UNL     1      -4.461  -9.839  71.494  1.00  0.00    -0.115 Cl
ENDBRANCH   5   6
ENDBRANCH   1   5
BRANCH   3  14
HETATM   14  C8  UNL     1      -3.661  -6.063  68.282  1.00  0.00     0.054 A 
HETATM   15  C9  UNL     1      -3.965  -5.240  67.217  1.00  0.00     0.076 A 
HETATM   16  C10 UNL     1      -4.321  -4.000  67.689  1.00  0.00     0.167 A 
HETATM   17  N2  UNL     1      -4.238  -4.062  69.028  1.00  0.00    -0.212 N 
HETATM   18  C11 UNL     1      -3.845  -5.283  69.415  1.00  0.00     0.142 A 
BRANCH  16  19
HETATM   19  O2  UNL     1      -4.700  -2.883  66.914  1.00  0.00    -0.344 OA
ATOM     20  H2  UNL     1      -4.135  -2.368  66.350  1.00  0.00     0.219 HD
ENDBRANCH  16  19
BRANCH  17  21
HETATM   21  O3  UNL     1      -4.525  -2.993  69.852  1.00  0.00    -0.281 OA
ATOM     22  H3  UNL     1      -5.393  -2.825  70.200  1.00  0.00     0.245 HD
ENDBRANCH  17  21
ENDBRANCH   3  14
TORSDOF 5
ENDMDL
MODEL 3
REMARK VINA RESULT: -7.247772138      1.450      2.312
REMARK  5 active torsions:
REMARK  status: ('A' for Active; 'I' for Inactive)
REMARK    1  A    between atoms: C5_5  and  C6_7 
REMARK    2  A    between atoms: C6_7  and  N1_8 
REMARK       I    between atoms: N1_8  and  C7_10 
REMARK    3  A    between atoms: C7_10  and  C8_12 
REMARK    4  A    between atoms: C10_14  and  O2_15 
REMARK    5  A    between atoms: N2_17  and  O3_18 
ROOT
HETATM    1  N1  UNL     1      -3.162  -8.195  69.361  1.00  0.00    -0.355 N 
ATOM      2  H1  UNL     1      -3.392  -7.750  70.250  1.00  0.00     0.162 HD
HETATM    3  C7  UNL     1      -3.263  -7.431  68.180  1.00  0.00     0.253 C 
HETATM    4  O1  UNL     1      -2.988  -7.958  67.085  1.00  0.00    -0.268 OA
ENDROOT
BRANCH   1   5
HETATM    5  C6  UNL     1      -2.747  -9.584  69.369  1.00  0.00     0.150 C 
BRANCH   5   6
HETATM    6  C5  UNL     1      -3.791 -10.475  69.947  1.00  0.00     0.074 C 
HETATM    7  C4  UNL     1      -4.935 -10.586  68.959  1.00  0.00     0.032 C 
HETATM    8  C3  UNL     1      -5.994 -11.456  69.643  1.00  0.00     0.033 C 
HETATM    9  C2  UNL     1      -5.336 -12.799  69.892  1.00  0.00     0.117 C 
HETATM   10  C1  UNL     1      -5.124 -13.481  68.564  1.00  0.00     0.039 C 
HETATM   11  O4  UNL     1      -4.215 -12.728  70.670  1.00  0.00    -0.384 OA
HETATM   12  C12 UNL     1      -3.253 -11.848  70.236  1.00  0.00     0.195 C 
HETATM   13 CL1  UNL     1      -4.432  -9.819  71.466  1.00  0.00    -0.115 Cl
ENDBRANCH   5   6
ENDBRANCH   1   5
BRANCH   3  14
HETATM   14  C8  UNL     1      -3.687  -6.040  68.249  1.00  0.00     0.054 A 
HETATM   15  C9  UNL     1      -3.818  -5.268  69.384  1.00  0.00     0.076 A 
HETATM   16  C10 UNL     1      -4.242  -4.009  69.030  1.00  0.00     0.167 A 
HETATM   17  N2  UNL     1      -4.370  -4.011  67.693  1.00  0.00    -0.212 N 
HETATM   18  C11 UNL     1      -4.045  -5.212  67.195  1.00  0.00     0.142 A 
BRANCH  16  19
HETATM   19  O2  UNL     1      -4.493  -2.930  69.905  1.00  0.00    -0.344 OA
ATOM     20  H2  UNL     1      -5.303  -2.439  69.979  1.00  0.00     0.219 HD
ENDBRANCH  16  19
BRANCH  17  21
HETATM   21  O3  UNL     1      -4.780  -2.908  66.974  1.00  0.00    -0.281 OA
ATOM     22  H3  UNL     1      -5.552  -2.907  66.422  1.00  0.00     0.245 HD
ENDBRANCH  17  21
ENDBRANCH   3  14
TORSDOF 5
ENDMDL
MODEL 4
REMARK VINA RESULT: -7.076434110      1.396      1.847
REMARK  5 active torsions:
REMARK  status: ('A' for Active; 'I' for Inactive)
REMARK    1  A    between atoms: C5_5  and  C6_7 
REMARK    2  A    between atoms: C6_7  and  N1_8 
REMARK       I    between atoms: N1_8  and  C7_10 
REMARK    3  A    between atoms: C7_10  and  C8_12 
REMARK    4  A    between atoms: C10_14  and  O2_15 
REMARK    5  A    between atoms: N2_17  and  O3_18 
ROOT
HETATM    1  N1  UNL     1      -2.842  -8.062  69.168  1.00  0.00    -0.355 N 
ATOM      2  H1  UNL     1      -2.898  -7.602  70.076  1.00  0.00     0.162 HD
HETATM    3  C7  UNL     1      -3.228  -7.337  68.021  1.00  0.00     0.253 C 
HETATM    4  O1  UNL     1      -3.166  -7.883  66.902  1.00  0.00    -0.268 OA
ENDROOT
BRANCH   1   5
HETATM    5  C6  UNL     1      -2.367  -9.431  69.113  1.00  0.00     0.150 C 
BRANCH   5   6
HETATM    6  C5  UNL     1      -3.131 -10.323  70.029  1.00  0.00     0.074 C 
HETATM    7  C4  UNL     1      -4.348  -9.572  70.534  1.00  0.00     0.032 C 
HETATM    8  C3  UNL     1      -5.043 -10.520  71.516  1.00  0.00     0.033 C 
HETATM    9  C2  UNL     1      -5.434 -11.744  70.712  1.00  0.00     0.117 C 
HETATM   10  C1  UNL     1      -6.534 -11.357  69.756  1.00  0.00     0.039 C 
HETATM   11  O4  UNL     1      -4.376 -12.377  70.122  1.00  0.00    -0.384 OA
HETATM   12  C12 UNL     1      -3.579 -11.580  69.338  1.00  0.00     0.195 C 
HETATM   13 CL1  UNL     1      -2.153 -10.800  71.431  1.00  0.00    -0.115 Cl
ENDBRANCH   5   6
ENDBRANCH   1   5
BRANCH   3  14
HETATM   14  C8  UNL     1      -3.694  -5.964  68.152  1.00  0.00     0.054 A 
HETATM   15  C9  UNL     1      -4.058  -5.110  67.133  1.00  0.00     0.076 A 
HETATM   16  C10 UNL     1      -4.439  -3.902  67.668  1.00  0.00     0.167 A 
HETATM   17  N2  UNL     1      -4.310  -4.016  69.000  1.00  0.00    -0.212 N 
HETATM   18  C11 UNL     1      -3.866  -5.238  69.322  1.00  0.00     0.142 A 
BRANCH  16  19
HETATM   19  O2  UNL     1      -4.879  -2.768  66.952  1.00  0.00    -0.344 OA
ATOM     20  H2  UNL     1      -5.640  -2.235  67.149  1.00  0.00     0.219 HD
ENDBRANCH  16  19
BRANCH  17  21
HETATM   21  O3  UNL     1      -4.606  -2.993  69.876  1.00  0.00    -0.281 OA
ATOM     22  H3  UNL     1      -5.059  -2.200  69.614  1.00  0.00     0.245 HD
ENDBRANCH  17  21
ENDBRANCH   3  14
TORSDOF 5
ENDMDL
MODEL 5
REMARK VINA RESULT: -7.036675014      1.461      2.239
REMARK  5 active torsions:
REMARK  status: ('A' for Active; 'I' for Inactive)
REMARK    1  A    between atoms: C5_5  and  C6_7 
REMARK    2  A    between atoms: C6_7  and  N1_8 
REMARK       I    between atoms: N1_8  and  C7_10 
REMARK    3  A    between atoms: C7_10  and  C8_12 
REMARK    4  A    between atoms: C10_14  and  O2_15 
REMARK    5  A    between atoms: N2_17  and  O3_18 
ROOT
HETATM    1  N1  UNL     1      -2.841  -8.065  69.144  1.00  0.00    -0.355 N 
ATOM      2  H1  UNL     1      -2.894  -7.603  70.051  1.00  0.00     0.162 HD
HETATM    3  C7  UNL     1      -3.230  -7.344  67.996  1.00  0.00     0.253 C 
HETATM    4  O1  UNL     1      -3.173  -7.893  66.879  1.00  0.00    -0.268 OA
ENDROOT
BRANCH   1   5
HETATM    5  C6  UNL     1      -2.368  -9.435  69.092  1.00  0.00     0.150 C 
BRANCH   5   6
HETATM    6  C5  UNL     1      -3.126 -10.322  70.017  1.00  0.00     0.074 C 
HETATM    7  C4  UNL     1      -4.340  -9.570  70.526  1.00  0.00     0.032 C 
HETATM    8  C3  UNL     1      -5.029 -10.512  71.517  1.00  0.00     0.033 C 
HETATM    9  C2  UNL     1      -5.423 -11.741  70.723  1.00  0.00     0.117 C 
HETATM   10  C1  UNL     1      -6.529 -11.361  69.771  1.00  0.00     0.039 C 
HETATM   11  O4  UNL     1      -4.368 -12.377  70.130  1.00  0.00    -0.384 OA
HETATM   12  C12 UNL     1      -3.576 -11.584  69.336  1.00  0.00     0.195 C 
HETATM   13 CL1  UNL     1      -2.138 -10.790  71.416  1.00  0.00    -0.115 Cl
ENDBRANCH   5   6
ENDBRANCH   1   5
BRANCH   3  14
HETATM   14  C8  UNL     1      -3.694  -5.970  68.125  1.00  0.00     0.054 A 
HETATM   15  C9  UNL     1      -3.827  -5.245  69.291  1.00  0.00     0.076 A 
HETATM   16  C10 UNL     1      -4.295  -3.988  68.992  1.00  0.00     0.167 A 
HETATM   17  N2  UNL     1      -4.447  -3.943  67.658  1.00  0.00    -0.212 N 
HETATM   18  C11 UNL     1      -4.097  -5.115  67.110  1.00  0.00     0.142 A 
BRANCH  16  19
HETATM   19  O2  UNL     1      -4.562  -2.950  69.911  1.00  0.00    -0.344 OA
ATOM     20  H2  UNL     1      -4.701  -3.045  70.846  1.00  0.00     0.219 HD
ENDBRANCH  16  19
BRANCH  17  21
HETATM   21  O3  UNL     1      -4.904  -2.828  66.988  1.00  0.00    -0.281 OA
ATOM     22  H3  UNL     1      -5.358  -2.114  67.419  1.00  0.00     0.245 HD
ENDBRANCH  17  21
ENDBRANCH   3  14
TORSDOF 5
ENDMDL
