MODEL 1
REMARK VINA RESULT: -6.308952945      0.000      0.000
REMARK  5 active torsions:
REMARK  status: ('A' for Active; 'I' for Inactive)
REMARK    1  A    between atoms: O1_1  and  C1_3 
REMARK    2  A    between atoms: C3_5  and  O2_6 
REMARK    3  A    between atoms: C4_8  and  C5_9 
REMARK    4  A    between atoms: N1_10  and  N2_12 
REMARK    5  A    between atoms: N2_12  and  C6_14 
ROOT
HETATM    1  C1  UNL     1      -3.910  -4.592  67.521  1.00  0.00     0.085 A 
HETATM    2  C2  UNL     1      -4.200  -5.575  66.601  1.00  0.00     0.075 A 
HETATM    3  C3  UNL     1      -4.003  -6.891  66.907  1.00  0.00     0.080 A 
HETATM    4  C4  UNL     1      -3.513  -7.267  68.136  1.00  0.00     0.015 A 
HETATM    5  C9  UNL     1      -3.225  -6.247  69.053  1.00  0.00     0.037 A 
HETATM    6  C10 UNL     1      -3.410  -4.912  68.783  1.00  0.00     0.045 A 
HETATM    7 BR1  UNL     1      -3.024  -3.518  70.018  1.00  0.00    -0.048 Br
ENDROOT
BRANCH   4   8
HETATM    8  C5  UNL     1      -3.280  -8.651  68.527  1.00  0.00     0.121 C 
HETATM    9  N1  UNL     1      -4.204  -9.509  68.273  1.00  0.00    -0.313 N 
ATOM     10  H1  UNL     1      -5.070  -9.227  67.813  1.00  0.00     0.185 HD
BRANCH   9  11
HETATM   11  N2  UNL     1      -3.991 -10.838  68.643  1.00  0.00    -0.308 N 
ATOM     12  H2  UNL     1      -3.050 -11.213  68.768  1.00  0.00     0.183 HD
BRANCH  11  13
HETATM   13  C6  UNL     1      -5.166 -11.664  68.844  1.00  0.00     0.237 C 
HETATM   14  C7  UNL     1      -5.084 -12.512  70.094  1.00  0.00     0.081 C 
HETATM   15  C8  UNL     1      -5.475 -11.152  70.682  1.00  0.00     0.175 C 
HETATM   16  O3  UNL     1      -6.160 -10.913  69.476  1.00  0.00    -0.365 OA
ENDBRANCH  11  13
ENDBRANCH   9  11
ENDBRANCH   4   8
BRANCH   3  17
HETATM   17  O2  UNL     1      -4.301  -7.845  65.973  1.00  0.00    -0.360 OA
ATOM     18  H2  UNL     1      -3.681  -8.019  65.274  1.00  0.00     0.217 HD
ENDBRANCH   3  17
BRANCH   1  19
HETATM   19  O1  UNL     1      -4.116  -3.265  67.194  1.00  0.00    -0.359 OA
ATOM     20  H1  UNL     1      -3.781  -2.582  67.763  1.00  0.00     0.217 HD
ENDBRANCH   1  19
TORSDOF 5
ENDMDL
MODEL 2
REMARK VINA RESULT: -6.207220315      0.861      1.055
REMARK  5 active torsions:
REMARK  status: ('A' for Active; 'I' for Inactive)
REMARK    1  A    between atoms: O1_1  and  C1_3 
REMARK    2  A    between atoms: C3_5  and  O2_6 
REMARK    3  A    between atoms: C4_8  and  C5_9 
REMARK    4  A    between atoms: N1_10  and  N2_12 
REMARK    5  A    between atoms: N2_12  and  C6_14 
ROOT
HETATM    1  C1  UNL     1      -4.124  -4.669  67.447  1.00  0.00     0.085 A 
HETATM    2  C2  UNL     1      -4.362  -5.669  66.529  1.00  0.00     0.075 A 
HETATM    3  C3  UNL     1      -4.058  -6.966  66.822  1.00  0.00     0.080 A 
HETATM    4  C4  UNL     1      -3.510  -7.309  68.036  1.00  0.00     0.015 A 
HETATM    5  C9  UNL     1      -3.278  -6.274  68.952  1.00  0.00     0.037 A 
HETATM    6  C10 UNL     1      -3.570  -4.956  68.694  1.00  0.00     0.045 A 
HETATM    7 BR1  UNL     1      -3.260  -3.541  69.927  1.00  0.00    -0.048 Br
ENDROOT
BRANCH   4   8
HETATM    8  C5  UNL     1      -3.163  -8.673  68.413  1.00  0.00     0.121 C 
HETATM    9  N1  UNL     1      -4.091  -9.563  68.363  1.00  0.00    -0.313 N 
ATOM     10  H1  UNL     1      -5.037  -9.319  68.067  1.00  0.00     0.185 HD
BRANCH   9  11
HETATM   11  N2  UNL     1      -3.769 -10.874  68.722  1.00  0.00    -0.308 N 
ATOM     12  H2  UNL     1      -3.022 -11.387  68.253  1.00  0.00     0.183 HD
BRANCH  11  13
HETATM   13  C6  UNL     1      -4.544 -11.473  69.792  1.00  0.00     0.237 C 
HETATM   14  C7  UNL     1      -5.982 -11.734  69.402  1.00  0.00     0.081 C 
HETATM   15  C8  UNL     1      -5.274 -12.921  68.741  1.00  0.00     0.175 C 
HETATM   16  O3  UNL     1      -4.343 -12.854  69.794  1.00  0.00    -0.365 OA
ENDBRANCH  11  13
ENDBRANCH   9  11
ENDBRANCH   4   8
BRANCH   3  17
HETATM   17  O2  UNL     1      -4.307  -7.937  65.890  1.00  0.00    -0.360 OA
ATOM     18  H2  UNL     1      -4.211  -8.850  66.135  1.00  0.00     0.217 HD
ENDBRANCH   3  17
BRANCH   1  19
HETATM   19  O1  UNL     1      -4.438  -3.361  67.133  1.00  0.00    -0.359 OA
ATOM     20  H1  UNL     1      -3.827  -2.665  67.345  1.00  0.00     0.217 HD
ENDBRANCH   1  19
TORSDOF 5
ENDMDL
MODEL 3
REMARK VINA RESULT: -6.196202209      2.254      2.480
REMARK  5 active torsions:
REMARK  status: ('A' for Active; 'I' for Inactive)
REMARK    1  A    between atoms: O1_1  and  C1_3 
REMARK    2  A    between atoms: C3_5  and  O2_6 
REMARK    3  A    between atoms: C4_8  and  C5_9 
REMARK    4  A    between atoms: N1_10  and  N2_12 
REMARK    5  A    between atoms: N2_12  and  C6_14 
ROOT
HETATM    1  C1  UNL     1      -4.055  -4.528  67.455  1.00  0.00     0.085 A 
HETATM    2  C2  UNL     1      -4.375  -5.471  66.503  1.00  0.00     0.075 A 
HETATM    3  C3  UNL     1      -4.148  -6.796  66.735  1.00  0.00     0.080 A 
HETATM    4  C4  UNL     1      -3.598  -7.224  67.921  1.00  0.00     0.015 A 
HETATM    5  C9  UNL     1      -3.281  -6.245  68.873  1.00  0.00     0.037 A 
HETATM    6  C10 UNL     1      -3.494  -4.902  68.676  1.00  0.00     0.045 A 
HETATM    7 BR1  UNL     1      -3.069  -3.562  69.959  1.00  0.00    -0.048 Br
ENDROOT
BRANCH   4   8
HETATM    8  C5  UNL     1      -3.331  -8.621  68.234  1.00  0.00     0.121 C 
HETATM    9  N1  UNL     1      -2.978  -8.909  69.437  1.00  0.00    -0.313 N 
ATOM     10  H1  UNL     1      -2.889  -8.181  70.146  1.00  0.00     0.185 HD
BRANCH   9  11
HETATM   11  N2  UNL     1      -2.719 -10.246  69.748  1.00  0.00    -0.308 N 
ATOM     12  H2  UNL     1      -3.472 -10.896  69.975  1.00  0.00     0.183 HD
BRANCH  11  13
HETATM   13  C6  UNL     1      -1.333 -10.670  69.733  1.00  0.00     0.237 C 
HETATM   14  C7  UNL     1      -0.467  -9.886  70.694  1.00  0.00     0.081 C 
HETATM   15  C8  UNL     1      -1.151 -10.873  71.646  1.00  0.00     0.175 C 
HETATM   16  O3  UNL     1      -1.175 -11.777  70.568  1.00  0.00    -0.365 OA
ENDBRANCH  11  13
ENDBRANCH   9  11
ENDBRANCH   4   8
BRANCH   3  17
HETATM   17  O2  UNL     1      -4.477  -7.708  65.770  1.00  0.00    -0.360 OA
ATOM     18  H2  UNL     1      -5.373  -7.748  65.456  1.00  0.00     0.217 HD
ENDBRANCH   3  17
BRANCH   1  19
HETATM   19  O1  UNL     1      -4.291  -3.191  67.202  1.00  0.00    -0.359 OA
ATOM     20  H1  UNL     1      -5.143  -2.913  66.886  1.00  0.00     0.217 HD
ENDBRANCH   1  19
TORSDOF 5
ENDMDL
MODEL 4
REMARK VINA RESULT: -6.147700812      7.249      8.087
REMARK  5 active torsions:
REMARK  status: ('A' for Active; 'I' for Inactive)
REMARK    1  A    between atoms: O1_1  and  C1_3 
REMARK    2  A    between atoms: C3_5  and  O2_6 
REMARK    3  A    between atoms: C4_8  and  C5_9 
REMARK    4  A    between atoms: N1_10  and  N2_12 
REMARK    5  A    between atoms: N2_12  and  C6_14 
ROOT
HETATM    1  C1  UNL     1       1.245 -10.637  73.530  1.00  0.00     0.085 A 
HETATM    2  C2  UNL     1       0.981 -11.458  74.604  1.00  0.00     0.075 A 
HETATM    3  C3  UNL     1      -0.218 -12.101  74.707  1.00  0.00     0.080 A 
HETATM    4  C4  UNL     1      -1.189 -11.950  73.745  1.00  0.00     0.015 A 
HETATM    5  C9  UNL     1      -0.896 -11.109  72.662  1.00  0.00     0.037 A 
HETATM    6  C10 UNL     1       0.299 -10.444  72.523  1.00  0.00     0.045 A 
HETATM    7 BR1  UNL     1       0.710  -9.301  71.059  1.00  0.00    -0.048 Br
ENDROOT
BRANCH   4   8
HETATM    8  C5  UNL     1      -2.488 -12.607  73.793  1.00  0.00     0.121 C 
HETATM    9  N1  UNL     1      -3.366 -12.142  74.611  1.00  0.00    -0.313 N 
ATOM     10  H1  UNL     1      -3.155 -11.339  75.205  1.00  0.00     0.185 HD
BRANCH   9  11
HETATM   11  N2  UNL     1      -4.614 -12.765  74.665  1.00  0.00    -0.308 N 
ATOM     12  H2  UNL     1      -5.405 -12.333  75.143  1.00  0.00     0.183 HD
BRANCH  11  13
HETATM   13  C6  UNL     1      -4.736 -14.053  74.012  1.00  0.00     0.237 C 
HETATM   14  C7  UNL     1      -5.246 -15.137  74.936  1.00  0.00     0.081 C 
HETATM   15  C8  UNL     1      -6.548 -14.411  74.581  1.00  0.00     0.175 C 
HETATM   16  O3  UNL     1      -5.957 -14.120  73.338  1.00  0.00    -0.365 OA
ENDBRANCH  11  13
ENDBRANCH   9  11
ENDBRANCH   4   8
BRANCH   3  17
HETATM   17  O2  UNL     1      -0.450 -12.910  75.786  1.00  0.00    -0.360 OA
ATOM     18  H2  UNL     1      -1.197 -13.497  75.773  1.00  0.00     0.217 HD
ENDBRANCH   3  17
BRANCH   1  19
HETATM   19  O1  UNL     1       2.464  -9.993  73.441  1.00  0.00    -0.359 OA
ATOM     20  H1  UNL     1       2.863  -9.629  74.223  1.00  0.00     0.217 HD
ENDBRANCH   1  19
TORSDOF 5
ENDMDL
MODEL 5
REMARK VINA RESULT: -6.052661052      2.980      6.351
REMARK  5 active torsions:
REMARK  status: ('A' for Active; 'I' for Inactive)
REMARK    1  A    between atoms: O1_1  and  C1_3 
REMARK    2  A    between atoms: C3_5  and  O2_6 
REMARK    3  A    between atoms: C4_8  and  C5_9 
REMARK    4  A    between atoms: N1_10  and  N2_12 
REMARK    5  A    between atoms: N2_12  and  C6_14 
ROOT
HETATM    1  C1  UNL     1      -3.336 -12.010  70.956  1.00  0.00     0.085 A 
HETATM    2  C2  UNL     1      -4.212 -11.737  69.929  1.00  0.00     0.075 A 
HETATM    3  C3  UNL     1      -4.201 -10.519  69.313  1.00  0.00     0.080 A 
HETATM    4  C4  UNL     1      -3.318  -9.537  69.700  1.00  0.00     0.015 A 
HETATM    5  C9  UNL     1      -2.438  -9.841  70.748  1.00  0.00     0.037 A 
HETATM    6  C10 UNL     1      -2.419 -11.054  71.392  1.00  0.00     0.045 A 
HETATM    7 BR1  UNL     1      -1.230 -11.479  72.815  1.00  0.00    -0.048 Br
ENDROOT
BRANCH   4   8
HETATM    8  C5  UNL     1      -3.253  -8.218  69.086  1.00  0.00     0.121 C 
HETATM    9  N1  UNL     1      -3.349  -8.148  67.804  1.00  0.00    -0.313 N 
ATOM     10  H1  UNL     1      -3.466  -8.990  67.241  1.00  0.00     0.185 HD
BRANCH   9  11
HETATM   11  N2  UNL     1      -3.287  -6.887  67.206  1.00  0.00    -0.308 N 
ATOM     12  H2  UNL     1      -2.675  -6.704  66.411  1.00  0.00     0.183 HD
BRANCH  11  13
HETATM   13  C6  UNL     1      -4.133  -5.850  67.765  1.00  0.00     0.237 C 
HETATM   14  C7  UNL     1      -3.417  -4.526  67.919  1.00  0.00     0.081 C 
HETATM   15  C8  UNL     1      -3.748  -4.514  66.423  1.00  0.00     0.175 C 
HETATM   16  O3  UNL     1      -4.891  -5.269  66.747  1.00  0.00    -0.365 OA
ENDBRANCH  11  13
ENDBRANCH   9  11
ENDBRANCH   4   8
BRANCH   3  17
HETATM   17  O2  UNL     1      -5.083 -10.278  68.295  1.00  0.00    -0.360 OA
ATOM     18  H2  UNL     1      -4.972 -10.732  67.468  1.00  0.00     0.217 HD
ENDBRANCH   3  17
BRANCH   1  19
HETATM   19  O1  UNL     1      -3.362 -13.248  71.568  1.00  0.00    -0.359 OA
ATOM     20  H1  UNL     1      -3.954 -13.920  71.250  1.00  0.00     0.217 HD
ENDBRANCH   1  19
TORSDOF 5
ENDMDL
