MODEL 1
REMARK VINA RESULT: -6.737894133      0.000      0.000
REMARK  6 active torsions:
REMARK  status: ('A' for Active; 'I' for Inactive)
REMARK    1  A    between atoms: C6_7  and  N1_8 
REMARK    2  A    between atoms: C8_10  and  C9_11 
REMARK    3  A    between atoms: C9_11  and  C10_13 
REMARK    4  A    between atoms: C10_13  and  N2_14 
REMARK    5  A    between atoms: C11_18  and  O2_19 
REMARK    6  A    between atoms: C12_21  and  O3_22 
ROOT
HETATM    1  N1  UNL     1      -3.306 -11.070  71.029  1.00  0.00    -0.328 N 
HETATM    2  C7  UNL     1      -3.408 -11.811  69.893  1.00  0.00     0.112 A 
HETATM    3  C8  UNL     1      -4.700 -11.842  69.458  1.00  0.00     0.065 A 
HETATM    4  C11 UNL     1      -5.444 -11.107  70.332  1.00  0.00     0.132 A 
HETATM    5  C12 UNL     1      -4.554 -10.647  71.284  1.00  0.00     0.177 A 
ENDROOT
BRANCH   1   6
HETATM    6  C6  UNL     1      -2.076 -10.860  71.710  1.00  0.00     0.110 C 
HETATM    7  C5  UNL     1      -1.695 -11.904  72.693  1.00  0.00     0.105 C 
HETATM    8  C4  UNL     1      -0.648 -11.231  73.598  1.00  0.00     0.022 C 
HETATM    9 CL1  UNL     1      -0.772 -13.253  71.940  1.00  0.00    -0.123 Cl
HETATM   10  C3  UNL     1       0.588 -11.004  72.779  1.00  0.00     0.006 C 
HETATM   11  C2  UNL     1       0.393 -10.487  71.421  1.00  0.00    -0.017 C 
HETATM   12  C1  UNL     1       0.739  -8.985  71.452  1.00  0.00     0.010 C 
HETATM   13  C13 UNL     1      -0.914 -10.634  70.775  1.00  0.00     0.031 C 
ENDBRANCH   1   6
BRANCH   5  14
HETATM   14  O3  UNL     1      -4.916  -9.863  72.345  1.00  0.00    -0.344 OA
ATOM     15  H3  UNL     1      -5.329 -10.179  73.139  1.00  0.00     0.219 HD
ENDBRANCH   5  14
BRANCH   3  16
HETATM   16  C9  UNL     1      -5.197 -12.531  68.282  1.00  0.00     0.189 C 
HETATM   17  O1  UNL     1      -5.328 -13.804  68.262  1.00  0.00    -0.290 OA
BRANCH  16  18
HETATM   18  C10 UNL     1      -5.561 -11.725  67.078  1.00  0.00     0.313 C 
BRANCH  18  19
HETATM   19  N2  UNL     1      -5.496 -12.494  65.872  1.00  0.00    -0.072 N 
ATOM     20  H23 UNL     1      -4.867 -13.289  65.975  1.00  0.00     0.274 HD
ATOM     21  H22 UNL     1      -6.368 -12.997  65.709  1.00  0.00     0.274 HD
ATOM     22  H21 UNL     1      -5.242 -11.925  65.065  1.00  0.00     0.274 HD
ENDBRANCH  18  19
ENDBRANCH  16  18
ENDBRANCH   3  16
BRANCH   4  23
HETATM   23  O2  UNL     1      -6.809 -10.900  70.228  1.00  0.00    -0.356 OA
ATOM     24  H2  UNL     1      -7.254 -10.589  69.448  1.00  0.00     0.218 HD
ENDBRANCH   4  23
TORSDOF 6
ENDMDL
MODEL 2
REMARK VINA RESULT: -6.683876902      3.091      4.546
REMARK  6 active torsions:
REMARK  status: ('A' for Active; 'I' for Inactive)
REMARK    1  A    between atoms: C6_7  and  N1_8 
REMARK    2  A    between atoms: C8_10  and  C9_11 
REMARK    3  A    between atoms: C9_11  and  C10_13 
REMARK    4  A    between atoms: C10_13  and  N2_14 
REMARK    5  A    between atoms: C11_18  and  O2_19 
REMARK    6  A    between atoms: C12_21  and  O3_22 
ROOT
HETATM    1  N1  UNL     1      -4.737 -12.956  71.556  1.00  0.00    -0.328 N 
HETATM    2  C7  UNL     1      -3.973 -11.929  71.096  1.00  0.00     0.112 A 
HETATM    3  C8  UNL     1      -4.530 -11.385  69.977  1.00  0.00     0.065 A 
HETATM    4  C11 UNL     1      -5.674 -12.075  69.712  1.00  0.00     0.132 A 
HETATM    5  C12 UNL     1      -5.770 -13.033  70.704  1.00  0.00     0.177 A 
ENDROOT
BRANCH   1   6
HETATM    6  C6  UNL     1      -4.404 -13.712  72.713  1.00  0.00     0.110 C 
HETATM    7  C5  UNL     1      -3.008 -13.572  73.197  1.00  0.00     0.105 C 
HETATM    8  C4  UNL     1      -2.777 -14.799  74.097  1.00  0.00     0.022 C 
HETATM    9 CL1  UNL     1      -2.810 -12.192  74.335  1.00  0.00    -0.123 Cl
HETATM   10  C3  UNL     1      -3.627 -14.636  75.322  1.00  0.00     0.006 C 
HETATM   11  C2  UNL     1      -4.999 -14.162  75.114  1.00  0.00    -0.017 C 
HETATM   12  C1  UNL     1      -5.927 -15.387  75.240  1.00  0.00     0.010 C 
HETATM   13  C13 UNL     1      -5.340 -13.466  73.871  1.00  0.00     0.031 C 
ENDBRANCH   1   6
BRANCH   5  14
HETATM   14  O3  UNL     1      -6.793 -13.936  70.790  1.00  0.00    -0.344 OA
ATOM     15  H3  UNL     1      -6.768 -14.822  70.447  1.00  0.00     0.219 HD
ENDBRANCH   5  14
BRANCH   3  16
HETATM   16  C9  UNL     1      -4.004 -10.274  69.205  1.00  0.00     0.189 C 
HETATM   17  O1  UNL     1      -4.658  -9.780  68.222  1.00  0.00    -0.290 OA
BRANCH  16  18
HETATM   18  C10 UNL     1      -2.673  -9.707  69.576  1.00  0.00     0.313 C 
BRANCH  18  19
HETATM   19  N2  UNL     1      -1.616 -10.231  68.764  1.00  0.00    -0.072 N 
ATOM     20  H23 UNL     1      -0.709  -9.881  69.069  1.00  0.00     0.274 HD
ATOM     21  H22 UNL     1      -1.474 -11.225  68.942  1.00  0.00     0.274 HD
ATOM     22  H21 UNL     1      -1.767 -10.051  67.772  1.00  0.00     0.274 HD
ENDBRANCH  18  19
ENDBRANCH  16  18
ENDBRANCH   3  16
BRANCH   4  23
HETATM   23  O2  UNL     1      -6.525 -11.818  68.650  1.00  0.00    -0.356 OA
ATOM     24  H2  UNL     1      -6.344 -11.207  67.945  1.00  0.00     0.218 HD
ENDBRANCH   4  23
TORSDOF 6
ENDMDL
MODEL 3
REMARK VINA RESULT: -6.679729300      2.236      2.576
REMARK  6 active torsions:
REMARK  status: ('A' for Active; 'I' for Inactive)
REMARK    1  A    between atoms: C6_7  and  N1_8 
REMARK    2  A    between atoms: C8_10  and  C9_11 
REMARK    3  A    between atoms: C9_11  and  C10_13 
REMARK    4  A    between atoms: C10_13  and  N2_14 
REMARK    5  A    between atoms: C11_18  and  O2_19 
REMARK    6  A    between atoms: C12_21  and  O3_22 
ROOT
HETATM    1  N1  UNL     1      -2.681 -10.945  72.352  1.00  0.00    -0.328 N 
HETATM    2  C7  UNL     1      -2.488 -10.449  71.100  1.00  0.00     0.112 A 
HETATM    3  C8  UNL     1      -3.684 -10.170  70.508  1.00  0.00     0.065 A 
HETATM    4  C11 UNL     1      -4.666 -10.493  71.396  1.00  0.00     0.132 A 
HETATM    5  C12 UNL     1      -4.012 -10.966  72.519  1.00  0.00     0.177 A 
ENDROOT
BRANCH   1   6
HETATM    6  C6  UNL     1      -1.612 -11.324  73.209  1.00  0.00     0.110 C 
HETATM    7  C5  UNL     1      -1.504 -12.774  73.505  1.00  0.00     0.105 C 
HETATM    8  C4  UNL     1      -0.634 -12.853  74.773  1.00  0.00     0.022 C 
HETATM    9 CL1  UNL     1      -0.519 -13.654  72.283  1.00  0.00    -0.123 Cl
HETATM   10  C3  UNL     1       0.757 -12.432  74.403  1.00  0.00     0.006 C 
HETATM   11  C2  UNL     1       0.880 -11.256  73.536  1.00  0.00    -0.017 C 
HETATM   12  C1  UNL     1       1.294 -10.072  74.433  1.00  0.00     0.010 C 
HETATM   13  C13 UNL     1      -0.268 -10.830  72.732  1.00  0.00     0.031 C 
ENDBRANCH   1   6
BRANCH   5  14
HETATM   14  O3  UNL     1      -4.655 -11.396  73.647  1.00  0.00    -0.344 OA
ATOM     15  H3  UNL     1      -4.509 -11.054  74.520  1.00  0.00     0.219 HD
ENDBRANCH   5  14
BRANCH   3  16
HETATM   16  C9  UNL     1      -3.882  -9.629  69.176  1.00  0.00     0.189 C 
HETATM   17  O1  UNL     1      -4.720 -10.153  68.364  1.00  0.00    -0.290 OA
BRANCH  16  18
HETATM   18  C10 UNL     1      -3.085  -8.435  68.760  1.00  0.00     0.313 C 
BRANCH  18  19
HETATM   19  N2  UNL     1      -3.474  -7.948  67.472  1.00  0.00    -0.072 N 
ATOM     20  H23 UNL     1      -2.740  -8.104  66.782  1.00  0.00     0.274 HD
ATOM     21  H22 UNL     1      -4.206  -8.529  67.063  1.00  0.00     0.274 HD
ATOM     22  H21 UNL     1      -3.752  -6.967  67.498  1.00  0.00     0.274 HD
ENDBRANCH  18  19
ENDBRANCH  16  18
ENDBRANCH   3  16
BRANCH   4  23
HETATM   23  O2  UNL     1      -6.023 -10.352  71.161  1.00  0.00    -0.356 OA
ATOM     24  H2  UNL     1      -6.459  -9.528  70.978  1.00  0.00     0.218 HD
ENDBRANCH   4  23
TORSDOF 6
ENDMDL
MODEL 4
REMARK VINA RESULT: -6.666145505      1.830      1.990
REMARK  6 active torsions:
REMARK  status: ('A' for Active; 'I' for Inactive)
REMARK    1  A    between atoms: C6_7  and  N1_8 
REMARK    2  A    between atoms: C8_10  and  C9_11 
REMARK    3  A    between atoms: C9_11  and  C10_13 
REMARK    4  A    between atoms: C10_13  and  N2_14 
REMARK    5  A    between atoms: C11_18  and  O2_19 
REMARK    6  A    between atoms: C12_21  and  O3_22 
ROOT
HETATM    1  N1  UNL     1      -2.697 -11.957  72.364  1.00  0.00    -0.328 N 
HETATM    2  C7  UNL     1      -3.133 -12.085  71.082  1.00  0.00     0.112 A 
HETATM    3  C8  UNL     1      -4.337 -12.724  71.049  1.00  0.00     0.065 A 
HETATM    4  C11 UNL     1      -4.682 -13.013  72.336  1.00  0.00     0.132 A 
HETATM    5  C12 UNL     1      -3.650 -12.527  73.116  1.00  0.00     0.177 A 
ENDROOT
BRANCH   1   6
HETATM    6  C6  UNL     1      -1.469 -11.328  72.705  1.00  0.00     0.110 C 
HETATM    7  C5  UNL     1      -0.640 -12.033  73.715  1.00  0.00     0.105 C 
HETATM    8  C4  UNL     1       0.329 -10.962  74.247  1.00  0.00     0.022 C 
HETATM    9 CL1  UNL     1       0.463 -13.246  72.973  1.00  0.00    -0.123 Cl
HETATM   10  C3  UNL     1       1.282 -10.616  73.141  1.00  0.00     0.006 C 
HETATM   11  C2  UNL     1       0.705 -10.444  71.804  1.00  0.00    -0.017 C 
HETATM   12  C1  UNL     1       0.624  -8.927  71.537  1.00  0.00     0.010 C 
HETATM   13  C13 UNL     1      -0.606 -11.023  71.505  1.00  0.00     0.031 C 
ENDBRANCH   1   6
BRANCH   5  14
HETATM   14  O3  UNL     1      -3.621 -12.622  74.481  1.00  0.00    -0.344 OA
ATOM     15  H3  UNL     1      -4.308 -12.319  75.063  1.00  0.00     0.219 HD
ENDBRANCH   5  14
BRANCH   3  16
HETATM   16  C9  UNL     1      -5.113 -13.041  69.865  1.00  0.00     0.189 C 
HETATM   17  O1  UNL     1      -5.841 -14.093  69.810  1.00  0.00    -0.290 OA
BRANCH  16  18
HETATM   18  C10 UNL     1      -5.053 -12.113  68.697  1.00  0.00     0.313 C 
BRANCH  18  19
HETATM   19  N2  UNL     1      -4.262 -12.641  67.627  1.00  0.00    -0.072 N 
ATOM     20  H23 UNL     1      -4.560 -12.264  66.728  1.00  0.00     0.274 HD
ATOM     21  H22 UNL     1      -3.313 -12.269  67.652  1.00  0.00     0.274 HD
ATOM     22  H21 UNL     1      -4.258 -13.660  67.616  1.00  0.00     0.274 HD
ENDBRANCH  18  19
ENDBRANCH  16  18
ENDBRANCH   3  16
BRANCH   4  23
HETATM   23  O2  UNL     1      -5.844 -13.663  72.716  1.00  0.00    -0.356 OA
ATOM     24  H2  UNL     1      -6.333 -13.480  73.510  1.00  0.00     0.218 HD
ENDBRANCH   4  23
TORSDOF 6
ENDMDL
MODEL 5
REMARK VINA RESULT: -6.583702865      1.524      1.792
REMARK  6 active torsions:
REMARK  status: ('A' for Active; 'I' for Inactive)
REMARK    1  A    between atoms: C6_7  and  N1_8 
REMARK    2  A    between atoms: C8_10  and  C9_11 
REMARK    3  A    between atoms: C9_11  and  C10_13 
REMARK    4  A    between atoms: C10_13  and  N2_14 
REMARK    5  A    between atoms: C11_18  and  O2_19 
REMARK    6  A    between atoms: C12_21  and  O3_22 
ROOT
HETATM    1  N1  UNL     1      -2.753 -11.047  71.265  1.00  0.00    -0.328 N 
HETATM    2  C7  UNL     1      -3.707 -11.977  70.991  1.00  0.00     0.112 A 
HETATM    3  C8  UNL     1      -4.440 -11.603  69.904  1.00  0.00     0.065 A 
HETATM    4  C11 UNL     1      -3.949 -10.408  69.471  1.00  0.00     0.132 A 
HETATM    5  C12 UNL     1      -2.912 -10.098  70.331  1.00  0.00     0.177 A 
ENDROOT
BRANCH   1   6
HETATM    6  C6  UNL     1      -1.837 -11.172  72.344  1.00  0.00     0.110 C 
HETATM    7  C5  UNL     1      -1.952 -12.413  73.150  1.00  0.00     0.105 C 
HETATM    8  C4  UNL     1      -1.235 -12.092  74.474  1.00  0.00     0.022 C 
HETATM    9 CL1  UNL     1      -0.972 -13.764  72.476  1.00  0.00    -0.123 Cl
HETATM   10  C3  UNL     1       0.230 -11.957  74.182  1.00  0.00     0.006 C 
HETATM   11  C2  UNL     1       0.595 -11.200  72.980  1.00  0.00    -0.017 C 
HETATM   12  C1  UNL     1       1.068  -9.809  73.447  1.00  0.00     0.010 C 
HETATM   13  C13 UNL     1      -0.398 -11.006  71.921  1.00  0.00     0.031 C 
ENDBRANCH   1   6
BRANCH   5  14
HETATM   14  O3  UNL     1      -2.155  -8.963  70.229  1.00  0.00    -0.344 OA
ATOM     15  H3  UNL     1      -1.666  -8.702  69.458  1.00  0.00     0.219 HD
ENDBRANCH   5  14
BRANCH   3  16
HETATM   16  C9  UNL     1      -5.543 -12.337  69.313  1.00  0.00     0.189 C 
HETATM   17  O1  UNL     1      -6.723 -12.274  69.806  1.00  0.00    -0.290 OA
BRANCH  16  18
HETATM   18  C10 UNL     1      -5.282 -13.178  68.106  1.00  0.00     0.313 C 
BRANCH  18  19
HETATM   19  N2  UNL     1      -5.328 -12.415  66.895  1.00  0.00    -0.072 N 
ATOM     20  H23 UNL     1      -5.888 -11.571  67.013  1.00  0.00     0.274 HD
ATOM     21  H22 UNL     1      -4.426 -11.984  66.696  1.00  0.00     0.274 HD
ATOM     22  H21 UNL     1      -5.656 -12.967  66.104  1.00  0.00     0.274 HD
ENDBRANCH  18  19
ENDBRANCH  16  18
ENDBRANCH   3  16
BRANCH   4  23
HETATM   23  O2  UNL     1      -4.433  -9.701  68.383  1.00  0.00    -0.356 OA
ATOM     24  H2  UNL     1      -4.110  -8.854  68.099  1.00  0.00     0.218 HD
ENDBRANCH   4  23
TORSDOF 6
ENDMDL
