MODEL 1
REMARK VINA RESULT: -6.700812801      0.000      0.000
REMARK  4 active torsions:
REMARK  status: ('A' for Active; 'I' for Inactive)
REMARK    1  A    between atoms: C4_5  and  O1_6 
REMARK    2  A    between atoms: C4_5  and  N2_8 
REMARK    3  A    between atoms: N2_8  and  C5_10 
REMARK    4  A    between atoms: C7_12  and  C8_13 
ROOT
HETATM    1  N2  UNL     1      -2.940  -9.166  68.823  1.00  0.00    -0.353 N 
ATOM      2  H2  UNL     1      -1.975  -9.455  68.661  1.00  0.00     0.163 HD
ENDROOT
BRANCH   1   3
HETATM    3  C4  UNL     1      -3.850 -10.182  69.241  1.00  0.00     0.135 C 
HETATM    4  C3  UNL     1      -3.248 -11.526  69.190  1.00  0.00     0.091 C 
HETATM    5  C2  UNL     1      -3.106 -12.109  70.603  1.00  0.00     0.276 C 
HETATM    6  N1  UNL     1      -4.429 -12.155  71.158  1.00  0.00     0.084 N 
HETATM    7  C1  UNL     1      -4.378 -12.952  72.382  1.00  0.00     0.309 C 
HETATM    8  C11 UNL     1      -4.886 -10.816  71.460  1.00  0.00     0.276 C 
HETATM    9  C10 UNL     1      -4.364  -9.748  70.593  1.00  0.00     0.091 C 
BRANCH   3  10
HETATM   10  O1  UNL     1      -4.995 -10.217  68.405  1.00  0.00    -0.371 OA
ATOM     11  H1  UNL     1      -4.804  -9.665  67.656  1.00  0.00     0.212 HD
ENDBRANCH   3  10
ENDBRANCH   1   3
BRANCH   1  12
HETATM   12  C5  UNL     1      -3.239  -7.781  68.606  1.00  0.00     0.074 A 
HETATM   13  C6  UNL     1      -3.289  -6.710  69.434  1.00  0.00     0.057 A 
HETATM   14  C7  UNL     1      -3.518  -5.490  68.916  1.00  0.00     0.072 A 
HETATM   15  C9  UNL     1      -3.684  -5.416  67.556  1.00  0.00     0.093 A 
HETATM   16 CL1  UNL     1      -3.971  -3.998  66.535  1.00  0.00    -0.075 Cl
HETATM   17  S1  UNL     1      -3.526  -7.035  67.058  1.00  0.00    -0.059 SA
BRANCH  14  18
HETATM   18  C8  UNL     1      -3.562  -4.258  69.727  1.00  0.00     0.211 C 
HETATM   19  O2  UNL     1      -4.610  -3.640  69.850  1.00  0.00    -0.644 OA
HETATM   20  O3  UNL     1      -2.388  -3.866  70.318  1.00  0.00    -0.644 OA
ENDBRANCH  14  18
ENDBRANCH   1  12
TORSDOF 4
ENDMDL
MODEL 2
REMARK VINA RESULT: -6.433159483      4.720      6.334
REMARK  4 active torsions:
REMARK  status: ('A' for Active; 'I' for Inactive)
REMARK    1  A    between atoms: C4_5  and  O1_6 
REMARK    2  A    between atoms: C4_5  and  N2_8 
REMARK    3  A    between atoms: N2_8  and  C5_10 
REMARK    4  A    between atoms: C7_12  and  C8_13 
ROOT
HETATM    1  N2  UNL     1      -1.410  -9.664  70.324  1.00  0.00    -0.353 N 
ATOM      2  H2  UNL     1      -1.411  -8.644  70.355  1.00  0.00     0.163 HD
ENDROOT
BRANCH   1   3
HETATM    3  C4  UNL     1      -0.198 -10.313  70.703  1.00  0.00     0.135 C 
HETATM    4  C3  UNL     1       0.758  -9.387  71.336  1.00  0.00     0.091 C 
HETATM    5  C2  UNL     1       0.969  -9.753  72.812  1.00  0.00     0.276 C 
HETATM    6  N1  UNL     1       1.465 -11.101  72.829  1.00  0.00     0.084 N 
HETATM    7  C1  UNL     1       1.939 -11.391  74.180  1.00  0.00     0.309 C 
HETATM    8  C11 UNL     1       0.409 -12.022  72.467  1.00  0.00     0.276 C 
HETATM    9  C10 UNL     1      -0.608 -11.502  71.541  1.00  0.00     0.091 C 
BRANCH   3  10
HETATM   10  O1  UNL     1       0.459 -10.867  69.575  1.00  0.00    -0.371 OA
ATOM     11  H1  UNL     1      -0.168 -11.439  69.147  1.00  0.00     0.212 HD
ENDBRANCH   3  10
ENDBRANCH   1   3
BRANCH   1  12
HETATM   12  C5  UNL     1      -2.627 -10.293  69.903  1.00  0.00     0.074 A 
HETATM   13  C6  UNL     1      -2.898 -11.251  68.984  1.00  0.00     0.057 A 
HETATM   14  C7  UNL     1      -4.155 -11.714  68.870  1.00  0.00     0.072 A 
HETATM   15  C9  UNL     1      -5.093 -11.174  69.713  1.00  0.00     0.093 A 
HETATM   16 CL1  UNL     1      -6.817 -11.551  69.866  1.00  0.00    -0.075 Cl
HETATM   17  S1  UNL     1      -4.197 -10.047  70.617  1.00  0.00    -0.059 SA
BRANCH  14  18
HETATM   18  C8  UNL     1      -4.547 -12.775  67.922  1.00  0.00     0.211 C 
HETATM   19  O2  UNL     1      -4.507 -12.569  66.717  1.00  0.00    -0.644 OA
HETATM   20  O3  UNL     1      -4.946 -13.971  68.464  1.00  0.00    -0.644 OA
ENDBRANCH  14  18
ENDBRANCH   1  12
TORSDOF 4
ENDMDL
MODEL 3
REMARK VINA RESULT: -6.237765040      6.583      7.336
REMARK  4 active torsions:
REMARK  status: ('A' for Active; 'I' for Inactive)
REMARK    1  A    between atoms: C4_5  and  O1_6 
REMARK    2  A    between atoms: C4_5  and  N2_8 
REMARK    3  A    between atoms: N2_8  and  C5_10 
REMARK    4  A    between atoms: C7_12  and  C8_13 
ROOT
HETATM    1  N2  UNL     1      -1.722 -13.658  73.749  1.00  0.00    -0.353 N 
ATOM      2  H2  UNL     1      -1.439 -14.454  73.176  1.00  0.00     0.163 HD
ENDROOT
BRANCH   1   3
HETATM    3  C4  UNL     1      -2.821 -13.866  74.634  1.00  0.00     0.135 C 
HETATM    4  C3  UNL     1      -3.885 -12.863  74.449  1.00  0.00     0.091 C 
HETATM    5  C2  UNL     1      -5.159 -13.520  73.901  1.00  0.00     0.276 C 
HETATM    6  N1  UNL     1      -5.548 -14.516  74.860  1.00  0.00     0.084 N 
HETATM    7  C1  UNL     1      -6.894 -14.970  74.520  1.00  0.00     0.309 C 
HETATM    8  C11 UNL     1      -4.625 -15.630  74.818  1.00  0.00     0.276 C 
HETATM    9  C10 UNL     1      -3.241 -15.305  74.442  1.00  0.00     0.091 C 
BRANCH   3  10
HETATM   10  O1  UNL     1      -2.411 -13.779  75.988  1.00  0.00    -0.371 OA
ATOM     11  H1  UNL     1      -2.948 -13.109  76.394  1.00  0.00     0.212 HD
ENDBRANCH   3  10
ENDBRANCH   1   3
BRANCH   1  12
HETATM   12  C5  UNL     1      -0.972 -12.448  73.581  1.00  0.00     0.074 A 
HETATM   13  C6  UNL     1      -0.011 -11.850  74.325  1.00  0.00     0.057 A 
HETATM   14  C7  UNL     1       0.584 -10.738  73.857  1.00  0.00     0.072 A 
HETATM   15  C9  UNL     1       0.168 -10.282  72.632  1.00  0.00     0.093 A 
HETATM   16 CL1  UNL     1       0.735  -8.885  71.702  1.00  0.00    -0.075 Cl
HETATM   17  S1  UNL     1      -1.031 -11.403  72.188  1.00  0.00    -0.059 SA
BRANCH  14  18
HETATM   18  C8  UNL     1       1.661 -10.029  74.576  1.00  0.00     0.211 C 
HETATM   19  O2  UNL     1       1.387  -9.196  75.427  1.00  0.00    -0.644 OA
HETATM   20  O3  UNL     1       2.949 -10.358  74.237  1.00  0.00    -0.644 OA
ENDBRANCH  14  18
ENDBRANCH   1  12
TORSDOF 4
ENDMDL
MODEL 4
REMARK VINA RESULT: -6.190300918      5.488      7.441
REMARK  4 active torsions:
REMARK  status: ('A' for Active; 'I' for Inactive)
REMARK    1  A    between atoms: C4_5  and  O1_6 
REMARK    2  A    between atoms: C4_5  and  N2_8 
REMARK    3  A    between atoms: N2_8  and  C5_10 
REMARK    4  A    between atoms: C7_12  and  C8_13 
ROOT
HETATM    1  N2  UNL     1      -3.370 -12.755  74.551  1.00  0.00    -0.353 N 
ATOM      2  H2  UNL     1      -3.742 -12.135  75.272  1.00  0.00     0.163 HD
ENDROOT
BRANCH   1   3
HETATM    3  C4  UNL     1      -2.475 -13.776  74.988  1.00  0.00     0.135 C 
HETATM    4  C3  UNL     1      -3.186 -14.953  75.519  1.00  0.00     0.091 C 
HETATM    5  C2  UNL     1      -2.960 -16.174  74.616  1.00  0.00     0.276 C 
HETATM    6  N1  UNL     1      -1.541 -16.397  74.582  1.00  0.00     0.084 N 
HETATM    7  C1  UNL     1      -1.304 -17.701  73.966  1.00  0.00     0.309 C 
HETATM    8  C11 UNL     1      -0.896 -15.360  73.806  1.00  0.00     0.276 C 
HETATM    9  C10 UNL     1      -1.549 -14.042  73.825  1.00  0.00     0.091 C 
BRANCH   3  10
HETATM   10  O1  UNL     1      -1.634 -13.306  76.029  1.00  0.00    -0.371 OA
ATOM     11  H1  UNL     1      -1.881 -13.780  76.814  1.00  0.00     0.212 HD
ENDBRANCH   3  10
ENDBRANCH   1   3
BRANCH   1  12
HETATM   12  C5  UNL     1      -3.803 -12.509  73.207  1.00  0.00     0.074 A 
HETATM   13  C6  UNL     1      -4.734 -13.097  72.418  1.00  0.00     0.057 A 
HETATM   14  C7  UNL     1      -4.984 -12.580  71.202  1.00  0.00     0.072 A 
HETATM   15  C9  UNL     1      -4.267 -11.467  70.842  1.00  0.00     0.093 A 
HETATM   16 CL1  UNL     1      -4.347 -10.512  69.354  1.00  0.00    -0.075 Cl
HETATM   17  S1  UNL     1      -3.274 -11.194  72.196  1.00  0.00    -0.059 SA
BRANCH  14  18
HETATM   18  C8  UNL     1      -5.997 -13.128  70.279  1.00  0.00     0.211 C 
HETATM   19  O2  UNL     1      -5.836 -14.229  69.772  1.00  0.00    -0.644 OA
HETATM   20  O3  UNL     1      -7.099 -12.346  70.037  1.00  0.00    -0.644 OA
ENDBRANCH  14  18
ENDBRANCH   1  12
TORSDOF 4
ENDMDL
MODEL 5
REMARK VINA RESULT: -6.174262424      4.606      6.411
REMARK  4 active torsions:
REMARK  status: ('A' for Active; 'I' for Inactive)
REMARK    1  A    between atoms: C4_5  and  O1_6 
REMARK    2  A    between atoms: C4_5  and  N2_8 
REMARK    3  A    between atoms: N2_8  and  C5_10 
REMARK    4  A    between atoms: C7_12  and  C8_13 
ROOT
HETATM    1  N2  UNL     1      -4.821 -13.107  72.955  1.00  0.00    -0.353 N 
ATOM      2  H2  UNL     1      -5.800 -13.352  73.105  1.00  0.00     0.163 HD
ENDROOT
BRANCH   1   3
HETATM    3  C4  UNL     1      -3.897 -13.526  73.958  1.00  0.00     0.135 C 
HETATM    4  C3  UNL     1      -4.490 -14.500  74.892  1.00  0.00     0.091 C 
HETATM    5  C2  UNL     1      -3.813 -15.870  74.746  1.00  0.00     0.276 C 
HETATM    6  N1  UNL     1      -2.419 -15.667  75.026  1.00  0.00     0.084 N 
HETATM    7  C1  UNL     1      -1.791 -16.978  75.170  1.00  0.00     0.309 C 
HETATM    8  C11 UNL     1      -1.798 -14.938  73.941  1.00  0.00     0.276 C 
HETATM    9  C10 UNL     1      -2.667 -13.996  73.218  1.00  0.00     0.091 C 
BRANCH   3  10
HETATM   10  O1  UNL     1      -3.459 -12.427  74.740  1.00  0.00    -0.371 OA
ATOM     11  H1  UNL     1      -2.680 -12.715  75.202  1.00  0.00     0.212 HD
ENDBRANCH   3  10
ENDBRANCH   1   3
BRANCH   1  12
HETATM   12  C5  UNL     1      -4.518 -12.378  71.759  1.00  0.00     0.074 A 
HETATM   13  C6  UNL     1      -4.746 -12.627  70.447  1.00  0.00     0.057 A 
HETATM   14  C7  UNL     1      -4.418 -11.694  69.535  1.00  0.00     0.072 A 
HETATM   15  C9  UNL     1      -3.868 -10.531  70.010  1.00  0.00     0.093 A 
HETATM   16 CL1  UNL     1      -3.345  -9.091  69.122  1.00  0.00    -0.075 Cl
HETATM   17  S1  UNL     1      -3.821 -10.783  71.691  1.00  0.00    -0.059 SA
BRANCH  14  18
HETATM   18  C8  UNL     1      -4.651 -11.857  68.087  1.00  0.00     0.211 C 
HETATM   19  O2  UNL     1      -5.577 -11.273  67.543  1.00  0.00    -0.644 OA
HETATM   20  O3  UNL     1      -3.785 -12.680  67.411  1.00  0.00    -0.644 OA
ENDBRANCH  14  18
ENDBRANCH   1  12
TORSDOF 4
ENDMDL
