MODEL 1
REMARK VINA RESULT: -6.460700045      0.000      0.000
REMARK  5 active torsions:
REMARK  status: ('A' for Active; 'I' for Inactive)
REMARK    1  A    between atoms: C2_2  and  C3_3 
REMARK    2  A    between atoms: C3_3  and  C4_4 
REMARK    3  A    between atoms: C8_9  and  O1_10 
REMARK    4  A    between atoms: C10_14  and  O2_15 
REMARK    5  A    between atoms: C11_17  and  N2_18 
REMARK       I    between atoms: N2_18  and  C12_20 
ROOT
HETATM    1  C4  UNL     1      -0.245 -11.175  72.350  1.00  0.00     0.036 C 
HETATM    2  C5  UNL     1      -0.022 -11.185  73.842  1.00  0.00     0.126 C 
HETATM    3 CL1  UNL     1       1.681 -11.534  74.214  1.00  0.00    -0.119 Cl
HETATM    4  C6  UNL     1      -0.827 -12.369  74.259  1.00  0.00     0.024 A 
HETATM    5  C7  UNL     1      -1.726 -12.701  73.285  1.00  0.00     0.028 A 
HETATM    6  C8  UNL     1      -2.433 -13.798  73.735  1.00  0.00     0.153 A 
HETATM    7  N1  UNL     1      -1.957 -14.095  74.942  1.00  0.00    -0.312 N 
HETATM    8  C9  UNL     1      -2.469 -15.214  75.740  1.00  0.00     0.160 C 
HETATM    9  C10 UNL     1      -0.980 -13.256  75.304  1.00  0.00     0.152 A 
HETATM   10  C11 UNL     1      -1.606 -11.764  72.112  1.00  0.00     0.128 C 
ENDROOT
BRANCH  10  11
HETATM   11  N2  UNL     1      -2.667 -10.820  72.094  1.00  0.00    -0.352 N 
HETATM   12  C12 UNL     1      -3.913 -11.145  71.497  1.00  0.00     0.214 C 
HETATM   13  C13 UNL     1      -5.056 -10.186  71.454  1.00  0.00     0.117 C 
HETATM   14  O3  UNL     1      -4.126 -12.276  70.964  1.00  0.00    -0.274 OA
ATOM     15  H2  UNL     1      -2.531  -9.901  72.513  1.00  0.00     0.163 HD
ENDBRANCH  10  11
BRANCH   1  16
HETATM   16  C3  UNL     1      -0.113  -9.786  71.782  1.00  0.00     0.008 C 
BRANCH  16  17
HETATM   17  C2  UNL     1       1.131  -9.590  70.984  1.00  0.00    -0.004 C 
HETATM   18  C1  UNL     1       1.363 -10.608  69.915  1.00  0.00     0.005 C 
ENDBRANCH  16  17
ENDBRANCH   1  16
BRANCH   6  19
HETATM   19  O1  UNL     1      -3.460 -14.451  73.024  1.00  0.00    -0.345 OA
ATOM     20  H1  UNL     1      -3.484 -14.571  72.082  1.00  0.00     0.219 HD
ENDBRANCH   6  19
BRANCH   9  21
HETATM   21  O2  UNL     1      -0.245 -13.268  76.511  1.00  0.00    -0.345 OA
ATOM     22  H2  UNL     1       0.527 -13.789  76.696  1.00  0.00     0.219 HD
ENDBRANCH   9  21
TORSDOF 5
ENDMDL
MODEL 2
REMARK VINA RESULT: -6.350750439      1.575      1.636
REMARK  5 active torsions:
REMARK  status: ('A' for Active; 'I' for Inactive)
REMARK    1  A    between atoms: C2_2  and  C3_3 
REMARK    2  A    between atoms: C3_3  and  C4_4 
REMARK    3  A    between atoms: C8_9  and  O1_10 
REMARK    4  A    between atoms: C10_14  and  O2_15 
REMARK    5  A    between atoms: C11_17  and  N2_18 
REMARK       I    between atoms: N2_18  and  C12_20 
ROOT
HETATM    1  C4  UNL     1       0.126 -11.371  71.830  1.00  0.00     0.036 C 
HETATM    2  C5  UNL     1      -0.002 -11.251  73.328  1.00  0.00     0.126 C 
HETATM    3 CL1  UNL     1       1.394 -12.000  74.134  1.00  0.00    -0.119 Cl
HETATM    4  C6  UNL     1      -1.193 -12.109  73.598  1.00  0.00     0.024 A 
HETATM    5  C7  UNL     1      -1.908 -12.305  72.451  1.00  0.00     0.028 A 
HETATM    6  C8  UNL     1      -2.989 -13.101  72.772  1.00  0.00     0.153 A 
HETATM    7  N1  UNL     1      -2.903 -13.361  74.074  1.00  0.00    -0.312 N 
HETATM    8  C9  UNL     1      -3.887 -14.187  74.782  1.00  0.00     0.160 C 
HETATM    9  C10 UNL     1      -1.829 -12.781  74.620  1.00  0.00     0.152 A 
HETATM   10  C11 UNL     1      -1.260 -11.593  71.294  1.00  0.00     0.128 C 
ENDROOT
BRANCH  10  11
HETATM   11  N2  UNL     1      -1.963 -10.406  70.956  1.00  0.00    -0.352 N 
HETATM   12  C12 UNL     1      -2.448 -10.204  69.639  1.00  0.00     0.214 C 
HETATM   13  C13 UNL     1      -3.192  -8.973  69.237  1.00  0.00     0.117 C 
HETATM   14  O3  UNL     1      -2.277 -11.063  68.721  1.00  0.00    -0.274 OA
ATOM     15  H2  UNL     1      -2.120  -9.693  71.668  1.00  0.00     0.163 HD
ENDBRANCH  10  11
BRANCH   1  16
HETATM   16  C3  UNL     1       0.784 -10.153  71.234  1.00  0.00     0.008 C 
BRANCH  16  17
HETATM   17  C2  UNL     1       1.444 -10.421  69.923  1.00  0.00    -0.004 C 
HETATM   18  C1  UNL     1       2.937 -10.376  69.946  1.00  0.00     0.005 C 
ENDBRANCH  16  17
ENDBRANCH   1  16
BRANCH   6  19
HETATM   19  O1  UNL     1      -3.977 -13.535  71.865  1.00  0.00    -0.345 OA
ATOM     20  H1  UNL     1      -4.487 -14.333  71.951  1.00  0.00     0.219 HD
ENDBRANCH   6  19
BRANCH   9  21
HETATM   21  O2  UNL     1      -1.419 -12.838  75.971  1.00  0.00    -0.345 OA
ATOM     22  H2  UNL     1      -0.605 -13.203  76.299  1.00  0.00     0.219 HD
ENDBRANCH   9  21
TORSDOF 5
ENDMDL
MODEL 3
REMARK VINA RESULT: -6.344344409      2.313      4.258
REMARK  5 active torsions:
REMARK  status: ('A' for Active; 'I' for Inactive)
REMARK    1  A    between atoms: C2_2  and  C3_3 
REMARK    2  A    between atoms: C3_3  and  C4_4 
REMARK    3  A    between atoms: C8_9  and  O1_10 
REMARK    4  A    between atoms: C10_14  and  O2_15 
REMARK    5  A    between atoms: C11_17  and  N2_18 
REMARK       I    between atoms: N2_18  and  C12_20 
ROOT
HETATM    1  C4  UNL     1      -0.374  -9.965  71.700  1.00  0.00     0.036 C 
HETATM    2  C5  UNL     1      -1.238 -10.639  70.664  1.00  0.00     0.126 C 
HETATM    3 CL1  UNL     1      -2.185  -9.433  69.764  1.00  0.00    -0.119 Cl
HETATM    4  C6  UNL     1      -2.186 -11.411  71.519  1.00  0.00     0.024 A 
HETATM    5  C7  UNL     1      -1.685 -11.549  72.782  1.00  0.00     0.028 A 
HETATM    6  C8  UNL     1      -2.607 -12.270  73.513  1.00  0.00     0.153 A 
HETATM    7  N1  UNL     1      -3.619 -12.544  72.694  1.00  0.00    -0.312 N 
HETATM    8  C9  UNL     1      -4.798 -13.304  73.122  1.00  0.00     0.160 C 
HETATM    9  C10 UNL     1      -3.410 -12.044  71.472  1.00  0.00     0.152 A 
HETATM   10  C11 UNL     1      -0.343 -10.875  72.895  1.00  0.00     0.128 C 
ENDROOT
BRANCH  10  11
HETATM   11  N2  UNL     1       0.714 -11.822  72.893  1.00  0.00    -0.352 N 
HETATM   12  C12 UNL     1       1.108 -12.468  74.094  1.00  0.00     0.214 C 
HETATM   13  C13 UNL     1       2.213 -13.471  74.141  1.00  0.00     0.117 C 
HETATM   14  O3  UNL     1       0.539 -12.228  75.202  1.00  0.00    -0.274 OA
ATOM     15  H2  UNL     1       1.195 -12.041  72.021  1.00  0.00     0.163 HD
ENDBRANCH  10  11
BRANCH   1  16
HETATM   16  C3  UNL     1       1.004  -9.674  71.164  1.00  0.00     0.008 C 
BRANCH  16  17
HETATM   17  C2  UNL     1       1.324 -10.427  69.917  1.00  0.00    -0.004 C 
HETATM   18  C1  UNL     1       2.771 -10.453  69.547  1.00  0.00     0.005 C 
ENDBRANCH  16  17
ENDBRANCH   1  16
BRANCH   6  19
HETATM   19  O1  UNL     1      -2.468 -12.629  74.869  1.00  0.00    -0.345 OA
ATOM     20  H1  UNL     1      -2.799 -13.429  75.261  1.00  0.00     0.219 HD
ENDBRANCH   6  19
BRANCH   9  21
HETATM   21  O2  UNL     1      -4.265 -12.138  70.351  1.00  0.00    -0.345 OA
ATOM     22  H2  UNL     1      -5.028 -12.699  70.268  1.00  0.00     0.219 HD
ENDBRANCH   9  21
TORSDOF 5
ENDMDL
MODEL 4
REMARK VINA RESULT: -6.339901335      3.207      4.386
REMARK  5 active torsions:
REMARK  status: ('A' for Active; 'I' for Inactive)
REMARK    1  A    between atoms: C2_2  and  C3_3 
REMARK    2  A    between atoms: C3_3  and  C4_4 
REMARK    3  A    between atoms: C8_9  and  O1_10 
REMARK    4  A    between atoms: C10_14  and  O2_15 
REMARK    5  A    between atoms: C11_17  and  N2_18 
REMARK       I    between atoms: N2_18  and  C12_20 
ROOT
HETATM    1  C4  UNL     1      -0.962 -10.669  70.197  1.00  0.00     0.036 C 
HETATM    2  C5  UNL     1      -1.596 -11.320  71.401  1.00  0.00     0.126 C 
HETATM    3 CL1  UNL     1      -0.721 -12.805  71.838  1.00  0.00    -0.119 Cl
HETATM    4  C6  UNL     1      -2.927 -11.723  70.860  1.00  0.00     0.024 A 
HETATM    5  C7  UNL     1      -3.207 -11.027  69.718  1.00  0.00     0.028 A 
HETATM    6  C8  UNL     1      -4.445 -11.447  69.275  1.00  0.00     0.153 A 
HETATM    7  N1  UNL     1      -4.874 -12.364  70.139  1.00  0.00    -0.312 N 
HETATM    8  C9  UNL     1      -6.165 -13.043  69.995  1.00  0.00     0.160 C 
HETATM    9  C10 UNL     1      -3.986 -12.566  71.119  1.00  0.00     0.152 A 
HETATM   10  C11 UNL     1      -2.081 -10.085  69.382  1.00  0.00     0.128 C 
ENDROOT
BRANCH  10  11
HETATM   11  N2  UNL     1      -2.415  -8.744  69.705  1.00  0.00    -0.352 N 
HETATM   12  C12 UNL     1      -3.132  -7.936  68.786  1.00  0.00     0.214 C 
HETATM   13  C13 UNL     1      -3.505  -6.521  69.081  1.00  0.00     0.117 C 
HETATM   14  O3  UNL     1      -3.500  -8.373  67.653  1.00  0.00    -0.274 OA
ATOM     15  H2  UNL     1      -2.136  -8.358  70.607  1.00  0.00     0.163 HD
ENDBRANCH  10  11
BRANCH   1  16
HETATM   16  C3  UNL     1       0.054  -9.632  70.602  1.00  0.00     0.008 C 
BRANCH  16  17
HETATM   17  C2  UNL     1       1.391 -10.210  70.923  1.00  0.00    -0.004 C 
HETATM   18  C1  UNL     1       2.282 -10.434  69.744  1.00  0.00     0.005 C 
ENDBRANCH  16  17
ENDBRANCH   1  16
BRANCH   6  19
HETATM   19  O1  UNL     1      -5.101 -10.970  68.122  1.00  0.00    -0.345 OA
ATOM     20  H1  UNL     1      -5.469 -11.515  67.436  1.00  0.00     0.219 HD
ENDBRANCH   6  19
BRANCH   9  21
HETATM   21  O2  UNL     1      -4.101 -13.462  72.205  1.00  0.00    -0.345 OA
ATOM     22  H2  UNL     1      -4.895 -13.892  72.502  1.00  0.00     0.219 HD
ENDBRANCH   9  21
TORSDOF 5
ENDMDL
MODEL 5
REMARK VINA RESULT: -6.322522011      2.360      4.258
REMARK  5 active torsions:
REMARK  status: ('A' for Active; 'I' for Inactive)
REMARK    1  A    between atoms: C2_2  and  C3_3 
REMARK    2  A    between atoms: C3_3  and  C4_4 
REMARK    3  A    between atoms: C8_9  and  O1_10 
REMARK    4  A    between atoms: C10_14  and  O2_15 
REMARK    5  A    between atoms: C11_17  and  N2_18 
REMARK       I    between atoms: N2_18  and  C12_20 
ROOT
HETATM    1  C4  UNL     1      -0.188 -10.361  72.644  1.00  0.00     0.036 C 
HETATM    2  C5  UNL     1      -1.007 -11.402  71.924  1.00  0.00     0.126 C 
HETATM    3 CL1  UNL     1      -2.515 -10.690  71.307  1.00  0.00    -0.119 Cl
HETATM    4  C6  UNL     1      -1.368 -12.326  73.038  1.00  0.00     0.024 A 
HETATM    5  C7  UNL     1      -0.535 -12.134  74.104  1.00  0.00     0.028 A 
HETATM    6  C8  UNL     1      -0.922 -13.017  75.092  1.00  0.00     0.153 A 
HETATM    7  N1  UNL     1      -1.955 -13.704  74.611  1.00  0.00    -0.312 N 
HETATM    8  C9  UNL     1      -2.641 -14.744  75.385  1.00  0.00     0.160 C 
HETATM    9  C10 UNL     1      -2.263 -13.321  73.368  1.00  0.00     0.152 A 
HETATM   10  C11 UNL     1       0.470 -11.054  73.803  1.00  0.00     0.128 C 
ENDROOT
BRANCH  10  11
HETATM   11  N2  UNL     1       1.749 -11.601  73.519  1.00  0.00    -0.352 N 
HETATM   12  C12 UNL     1       2.925 -11.000  74.039  1.00  0.00     0.214 C 
HETATM   13  C13 UNL     1       4.290 -11.539  73.768  1.00  0.00     0.117 C 
HETATM   14  O3  UNL     1       2.881  -9.963  74.769  1.00  0.00    -0.274 OA
ATOM     15  H2  UNL     1       1.824 -12.435  72.936  1.00  0.00     0.163 HD
ENDBRANCH  10  11
BRANCH   1  16
HETATM   16  C3  UNL     1       0.811  -9.710  71.723  1.00  0.00     0.008 C 
BRANCH  16  17
HETATM   17  C2  UNL     1       0.921 -10.388  70.399  1.00  0.00    -0.004 C 
HETATM   18  C1  UNL     1       2.305 -10.461  69.840  1.00  0.00     0.005 C 
ENDBRANCH  16  17
ENDBRANCH   1  16
BRANCH   6  19
HETATM   19  O1  UNL     1      -0.314 -13.139  76.358  1.00  0.00    -0.345 OA
ATOM     20  H1  UNL     1      -0.770 -13.108  77.191  1.00  0.00     0.219 HD
ENDBRANCH   6  19
BRANCH   9  21
HETATM   21  O2  UNL     1      -3.297 -13.826  72.548  1.00  0.00    -0.345 OA
ATOM     22  H2  UNL     1      -3.334 -13.790  71.599  1.00  0.00     0.219 HD
ENDBRANCH   9  21
TORSDOF 5
ENDMDL
