MODEL 1
REMARK VINA RESULT: -5.656690644      0.000      0.000
REMARK  5 active torsions:
REMARK  status: ('A' for Active; 'I' for Inactive)
REMARK       I    between atoms: C2_2  and  N1_4 
REMARK    1  A    between atoms: N1_4  and  C3_6 
REMARK    2  A    between atoms: C3_6  and  C4_7 
REMARK    3  A    between atoms: N2_8  and  C5_10 
REMARK    4  A    between atoms: C7_14  and  O2_15 
REMARK    5  A    between atoms: C8_17  and  O3_18 
ROOT
HETATM    1  C5  UNL     1      -5.127 -11.506  70.531  1.00  0.00     0.111 A 
HETATM    2  S1  UNL     1      -3.806 -10.474  70.805  1.00  0.00    -0.059 SA
HETATM    3  C6  UNL     1      -2.830 -11.500  71.738  1.00  0.00     0.089 A 
HETATM    4 BR1  UNL     1      -1.104 -11.173  72.513  1.00  0.00    -0.040 Br
HETATM    5  C7  UNL     1      -3.564 -12.652  71.822  1.00  0.00     0.126 A 
HETATM    6  C8  UNL     1      -4.767 -12.651  71.189  1.00  0.00     0.135 A 
ENDROOT
BRANCH   1   7
HETATM    7  N2  UNL     1      -6.353 -11.273  69.789  1.00  0.00    -0.360 N 
HETATM    8  C4  UNL     1      -6.290 -11.496  68.519  1.00  0.00     0.081 C 
ATOM      9  H2  UNL     1      -7.209 -10.953  70.243  1.00  0.00     0.165 HD
BRANCH   8  10
HETATM   10  C3  UNL     1      -5.073 -11.958  67.827  1.00  0.00     0.167 C 
BRANCH  10  11
HETATM   11  N1  UNL     1      -5.425 -12.519  66.548  1.00  0.00    -0.357 N 
HETATM   12  C2  UNL     1      -5.764 -11.665  65.472  1.00  0.00     0.213 C 
HETATM   13  C1  UNL     1      -6.135 -12.195  64.134  1.00  0.00     0.117 C 
HETATM   14  O1  UNL     1      -5.752 -10.430  65.647  1.00  0.00    -0.274 OA
ATOM     15  H1  UNL     1      -5.431 -13.531  66.418  1.00  0.00     0.162 HD
ENDBRANCH  10  11
ENDBRANCH   8  10
ENDBRANCH   1   7
BRANCH   6  16
HETATM   16  O3  UNL     1      -5.635 -13.790  71.198  1.00  0.00    -0.356 OA
ATOM     17  H3  UNL     1      -6.406 -13.805  71.751  1.00  0.00     0.218 HD
ENDBRANCH   6  16
BRANCH   5  18
HETATM   18  O2  UNL     1      -3.043 -13.770  72.555  1.00  0.00    -0.356 OA
ATOM     19  H2  UNL     1      -3.535 -14.582  72.585  1.00  0.00     0.218 HD
ENDBRANCH   5  18
TORSDOF 5
ENDMDL
MODEL 2
REMARK VINA RESULT: -5.597026294      4.056      4.593
REMARK  5 active torsions:
REMARK  status: ('A' for Active; 'I' for Inactive)
REMARK       I    between atoms: C2_2  and  N1_4 
REMARK    1  A    between atoms: N1_4  and  C3_6 
REMARK    2  A    between atoms: C3_6  and  C4_7 
REMARK    3  A    between atoms: N2_8  and  C5_10 
REMARK    4  A    between atoms: C7_14  and  O2_15 
REMARK    5  A    between atoms: C8_17  and  O3_18 
ROOT
HETATM    1  C5  UNL     1      -3.441 -10.646  70.124  1.00  0.00     0.111 A 
HETATM    2  S1  UNL     1      -1.949 -11.171  70.747  1.00  0.00    -0.059 SA
HETATM    3  C6  UNL     1      -2.361 -11.322  72.385  1.00  0.00     0.089 A 
HETATM    4 BR1  UNL     1      -1.277 -11.872  73.871  1.00  0.00    -0.040 Br
HETATM    5  C7  UNL     1      -3.679 -10.955  72.420  1.00  0.00     0.126 A 
HETATM    6  C8  UNL     1      -4.240 -10.601  71.233  1.00  0.00     0.135 A 
ENDROOT
BRANCH   1   7
HETATM    7  N2  UNL     1      -3.816 -10.317  68.761  1.00  0.00    -0.360 N 
HETATM    8  C4  UNL     1      -3.694  -9.075  68.431  1.00  0.00     0.081 C 
ATOM      9  H2  UNL     1      -4.156 -11.022  68.107  1.00  0.00     0.165 HD
BRANCH   8  10
HETATM   10  C3  UNL     1      -3.208  -8.026  69.348  1.00  0.00     0.167 C 
BRANCH  10  11
HETATM   11  N1  UNL     1      -3.239  -6.749  68.683  1.00  0.00    -0.357 N 
HETATM   12  C2  UNL     1      -3.846  -5.639  69.317  1.00  0.00     0.213 C 
HETATM   13  C1  UNL     1      -3.904  -4.301  68.673  1.00  0.00     0.117 C 
HETATM   14  O1  UNL     1      -4.350  -5.783  70.449  1.00  0.00    -0.274 OA
ATOM     15  H1  UNL     1      -2.823  -6.644  67.757  1.00  0.00     0.162 HD
ENDBRANCH  10  11
ENDBRANCH   8  10
ENDBRANCH   1   7
BRANCH   6  16
HETATM   16  O3  UNL     1      -5.610 -10.196  71.128  1.00  0.00    -0.356 OA
ATOM     17  H3  UNL     1      -5.964  -9.533  71.709  1.00  0.00     0.218 HD
ENDBRANCH   6  16
BRANCH   5  18
HETATM   18  O2  UNL     1      -4.381 -10.960  73.672  1.00  0.00    -0.356 OA
ATOM     19  H2  UNL     1      -4.458 -10.154  74.169  1.00  0.00     0.218 HD
ENDBRANCH   5  18
TORSDOF 5
ENDMDL
MODEL 3
REMARK VINA RESULT: -5.542826101      4.007      6.602
REMARK  5 active torsions:
REMARK  status: ('A' for Active; 'I' for Inactive)
REMARK       I    between atoms: C2_2  and  N1_4 
REMARK    1  A    between atoms: N1_4  and  C3_6 
REMARK    2  A    between atoms: C3_6  and  C4_7 
REMARK    3  A    between atoms: N2_8  and  C5_10 
REMARK    4  A    between atoms: C7_14  and  O2_15 
REMARK    5  A    between atoms: C8_17  and  O3_18 
ROOT
HETATM    1  C5  UNL     1      -4.561 -11.946  72.769  1.00  0.00     0.111 A 
HETATM    2  S1  UNL     1      -4.404 -10.900  71.439  1.00  0.00    -0.059 SA
HETATM    3  C6  UNL     1      -5.070 -11.879  70.225  1.00  0.00     0.089 A 
HETATM    4 BR1  UNL     1      -5.311 -11.512  68.356  1.00  0.00    -0.040 Br
HETATM    5  C7  UNL     1      -5.411 -13.026  70.888  1.00  0.00     0.126 A 
HETATM    6  C8  UNL     1      -5.143 -13.057  72.221  1.00  0.00     0.135 A 
ENDROOT
BRANCH   1   7
HETATM    7  N2  UNL     1      -4.187 -11.750  74.158  1.00  0.00    -0.360 N 
HETATM    8  C4  UNL     1      -2.948 -11.978  74.441  1.00  0.00     0.081 C 
ATOM      9  H2  UNL     1      -4.859 -11.452  74.864  1.00  0.00     0.165 HD
BRANCH   8  10
HETATM   10  C3  UNL     1      -1.946 -12.411  73.449  1.00  0.00     0.167 C 
BRANCH  10  11
HETATM   11  N1  UNL     1      -0.915 -11.412  73.333  1.00  0.00    -0.357 N 
HETATM   12  C2  UNL     1       0.127 -11.359  74.289  1.00  0.00     0.213 C 
HETATM   13  C1  UNL     1       1.214 -10.348  74.213  1.00  0.00     0.117 C 
HETATM   14  O1  UNL     1       0.138 -12.184  75.225  1.00  0.00    -0.274 OA
ATOM     15  H1  UNL     1      -0.936 -10.743  72.562  1.00  0.00     0.162 HD
ENDBRANCH  10  11
ENDBRANCH   8  10
ENDBRANCH   1   7
BRANCH   6  16
HETATM   16  O3  UNL     1      -5.449 -14.196  73.034  1.00  0.00    -0.356 OA
ATOM     17  H3  UNL     1      -6.179 -14.174  73.641  1.00  0.00     0.218 HD
ENDBRANCH   6  16
BRANCH   5  18
HETATM   18  O2  UNL     1      -6.016 -14.107  70.165  1.00  0.00    -0.356 OA
ATOM     19  H2  UNL     1      -5.550 -14.930  70.076  1.00  0.00     0.218 HD
ENDBRANCH   5  18
TORSDOF 5
ENDMDL
MODEL 4
REMARK VINA RESULT: -5.470014869      4.368      4.989
REMARK  5 active torsions:
REMARK  status: ('A' for Active; 'I' for Inactive)
REMARK       I    between atoms: C2_2  and  N1_4 
REMARK    1  A    between atoms: N1_4  and  C3_6 
REMARK    2  A    between atoms: C3_6  and  C4_7 
REMARK    3  A    between atoms: N2_8  and  C5_10 
REMARK    4  A    between atoms: C7_14  and  O2_15 
REMARK    5  A    between atoms: C8_17  and  O3_18 
ROOT
HETATM    1  C5  UNL     1      -1.263 -11.298  71.020  1.00  0.00     0.111 A 
HETATM    2  S1  UNL     1      -1.181 -11.194  72.714  1.00  0.00    -0.059 SA
HETATM    3  C6  UNL     1       0.350 -10.484  72.883  1.00  0.00     0.089 A 
HETATM    4 BR1  UNL     1       1.296  -9.987  74.478  1.00  0.00    -0.040 Br
HETATM    5  C7  UNL     1       0.780 -10.336  71.593  1.00  0.00     0.126 A 
HETATM    6  C8  UNL     1      -0.068 -10.764  70.620  1.00  0.00     0.135 A 
ENDROOT
BRANCH   1   7
HETATM    7  N2  UNL     1      -2.318 -11.816  70.169  1.00  0.00    -0.360 N 
HETATM    8  C4  UNL     1      -3.090 -10.930  69.632  1.00  0.00     0.081 C 
ATOM      9  H2  UNL     1      -2.443 -12.815  70.006  1.00  0.00     0.165 HD
BRANCH   8  10
HETATM   10  C3  UNL     1      -2.943  -9.478  69.844  1.00  0.00     0.167 C 
BRANCH  10  11
HETATM   11  N1  UNL     1      -3.062  -8.790  68.584  1.00  0.00    -0.357 N 
HETATM   12  C2  UNL     1      -3.390  -7.414  68.561  1.00  0.00     0.213 C 
HETATM   13  C1  UNL     1      -3.525  -6.659  67.287  1.00  0.00     0.117 C 
HETATM   14  O1  UNL     1      -3.573  -6.811  69.638  1.00  0.00    -0.274 OA
ATOM     15  H1  UNL     1      -2.910  -9.294  67.710  1.00  0.00     0.162 HD
ENDBRANCH  10  11
ENDBRANCH   8  10
ENDBRANCH   1   7
BRANCH   6  16
HETATM   16  O3  UNL     1       0.258 -10.669  69.228  1.00  0.00    -0.356 OA
ATOM     17  H3  UNL     1      -0.264 -11.123  68.577  1.00  0.00     0.218 HD
ENDBRANCH   6  16
BRANCH   5  18
HETATM   18  O2  UNL     1       2.067  -9.755  71.338  1.00  0.00    -0.356 OA
ATOM     19  H2  UNL     1       2.282  -9.459  70.462  1.00  0.00     0.218 HD
ENDBRANCH   5  18
TORSDOF 5
ENDMDL
MODEL 5
REMARK VINA RESULT: -5.380892812      3.752      4.867
REMARK  5 active torsions:
REMARK  status: ('A' for Active; 'I' for Inactive)
REMARK       I    between atoms: C2_2  and  N1_4 
REMARK    1  A    between atoms: N1_4  and  C3_6 
REMARK    2  A    between atoms: C3_6  and  C4_7 
REMARK    3  A    between atoms: N2_8  and  C5_10 
REMARK    4  A    between atoms: C7_14  and  O2_15 
REMARK    5  A    between atoms: C8_17  and  O3_18 
ROOT
HETATM    1  C5  UNL     1      -0.172 -11.235  71.311  1.00  0.00     0.111 A 
HETATM    2  S1  UNL     1      -0.782 -12.601  72.116  1.00  0.00    -0.059 SA
HETATM    3  C6  UNL     1      -0.349 -12.212  73.708  1.00  0.00     0.089 A 
HETATM    4 BR1  UNL     1      -0.641 -13.198  75.329  1.00  0.00    -0.040 Br
HETATM    5  C7  UNL     1       0.276 -11.001  73.584  1.00  0.00     0.126 A 
HETATM    6  C8  UNL     1       0.366 -10.493  72.326  1.00  0.00     0.135 A 
ENDROOT
BRANCH   1   7
HETATM    7  N2  UNL     1      -0.195 -10.899  69.899  1.00  0.00    -0.360 N 
HETATM    8  C4  UNL     1      -1.307 -10.413  69.457  1.00  0.00     0.081 C 
ATOM      9  H2  UNL     1       0.614 -11.037  69.295  1.00  0.00     0.165 HD
BRANCH   8  10
HETATM   10  C3  UNL     1      -2.500 -10.198  70.298  1.00  0.00     0.167 C 
BRANCH  10  11
HETATM   11  N1  UNL     1      -3.534 -11.125  69.919  1.00  0.00    -0.357 N 
HETATM   12  C2  UNL     1      -4.498 -10.750  68.953  1.00  0.00     0.213 C 
HETATM   13  C1  UNL     1      -5.585 -11.671  68.528  1.00  0.00     0.117 C 
HETATM   14  O1  UNL     1      -4.438  -9.615  68.440  1.00  0.00    -0.274 OA
ATOM     15  H1  UNL     1      -3.572 -12.051  70.346  1.00  0.00     0.162 HD
ENDBRANCH  10  11
ENDBRANCH   8  10
ENDBRANCH   1   7
BRANCH   6  16
HETATM   16  O3  UNL     1       0.995  -9.235  72.055  1.00  0.00    -0.356 OA
ATOM     17  H3  UNL     1       0.487  -8.433  72.046  1.00  0.00     0.218 HD
ENDBRANCH   6  16
BRANCH   5  18
HETATM   18  O2  UNL     1       0.790 -10.348  74.754  1.00  0.00    -0.356 OA
ATOM     19  H2  UNL     1       0.807  -9.399  74.791  1.00  0.00     0.218 HD
ENDBRANCH   5  18
TORSDOF 5
ENDMDL
