MODEL 1
REMARK VINA RESULT: -5.812301706      0.000      0.000
REMARK  8 active torsions:
REMARK  status: ('A' for Active; 'I' for Inactive)
REMARK    1  A    between atoms: C2_2  and  C3_3 
REMARK    2  A    between atoms: C3_3  and  C4_4 
REMARK    3  A    between atoms: C4_4  and  C5_5 
REMARK    4  A    between atoms: C5_5  and  O2_7 
REMARK    5  A    between atoms: C8_10  and  C9_11 
REMARK    6  A    between atoms: C9_11  and  N1_12 
REMARK    7  A    between atoms: C12_18  and  C13_19 
REMARK    8  A    between atoms: C13_19  and  O3_20 
ROOT
HETATM    1  C4  UNL     1       1.780  -2.475  19.703  1.00  0.00     0.122 C 
HETATM    2  C7  UNL     1       2.933  -3.428  19.738  1.00  0.00     0.034 A 
HETATM    3  C8  UNL     1       3.196  -4.663  20.343  1.00  0.00     0.023 A 
HETATM    4  C10 UNL     1       3.229  -3.569  21.250  1.00  0.00     0.001 A 
HETATM    5  C11 UNL     1       4.092  -2.385  21.430  1.00  0.00     0.038 C 
HETATM    6  C12 UNL     1       3.141  -1.183  21.266  1.00  0.00     0.050 C 
HETATM    7  C14 UNL     1       4.119  -0.024  21.164  1.00  0.00     0.033 C 
HETATM    8  C15 UNL     1       3.504   1.254  20.728  1.00  0.00     0.008 C 
HETATM    9  C16 UNL     1       2.840   0.953  19.372  1.00  0.00    -0.001 C 
HETATM   10  C17 UNL     1       2.294   2.187  18.742  1.00  0.00     0.011 C 
HETATM   11  C18 UNL     1       1.725  -0.031  19.745  1.00  0.00     0.123 C 
HETATM   12  N2  UNL     1       2.208  -1.259  20.225  1.00  0.00    -0.384 N 
ENDROOT
BRANCH   1  13
HETATM   13  C3  UNL     1       0.540  -3.092  20.250  1.00  0.00     0.041 C 
BRANCH  13  14
HETATM   14  C2  UNL     1      -0.351  -2.141  21.003  1.00  0.00    -0.002 C 
HETATM   15  C1  UNL     1      -1.731  -2.102  20.374  1.00  0.00     0.005 C 
ENDBRANCH  13  14
ENDBRANCH   1  13
BRANCH   1  16
HETATM   16  C5  UNL     1       1.529  -2.380  18.224  1.00  0.00     0.287 C 
HETATM   17  O1  UNL     1       2.389  -2.663  17.398  1.00  0.00    -0.262 OA
BRANCH  16  18
HETATM   18  O2  UNL     1       0.297  -1.962  17.730  1.00  0.00    -0.325 OA
HETATM   19  C6  UNL     1      -0.369  -2.675  16.722  1.00  0.00     0.213 C 
ENDBRANCH  16  18
ENDBRANCH   1  16
BRANCH   3  20
HETATM   20  C9  UNL     1       4.523  -5.363  20.044  1.00  0.00     0.235 C 
BRANCH  20  21
HETATM   21  N1  UNL     1       5.150  -4.601  18.952  1.00  0.00    -0.079 N 
ATOM     22  H13 UNL     1       4.520  -4.416  18.172  1.00  0.00     0.274 HD
ATOM     23  H12 UNL     1       5.339  -3.628  19.192  1.00  0.00     0.274 HD
ATOM     24  H11 UNL     1       5.985  -5.123  18.686  1.00  0.00     0.274 HD
ENDBRANCH  20  21
ENDBRANCH   3  20
BRANCH   6  25
HETATM   25  C13 UNL     1       2.461  -1.049  22.598  1.00  0.00     0.195 C 
BRANCH  25  26
HETATM   26  O3  UNL     1       3.232  -0.655  23.655  1.00  0.00    -0.398 OA
ATOM     27  H3  UNL     1       2.857  -0.016  24.250  1.00  0.00     0.209 HD
ENDBRANCH  25  26
ENDBRANCH   6  25
TORSDOF 8
ENDMDL
MODEL 2
REMARK VINA RESULT: -5.624391873      3.016      5.920
REMARK  8 active torsions:
REMARK  status: ('A' for Active; 'I' for Inactive)
REMARK    1  A    between atoms: C2_2  and  C3_3 
REMARK    2  A    between atoms: C3_3  and  C4_4 
REMARK    3  A    between atoms: C4_4  and  C5_5 
REMARK    4  A    between atoms: C5_5  and  O2_7 
REMARK    5  A    between atoms: C8_10  and  C9_11 
REMARK    6  A    between atoms: C9_11  and  N1_12 
REMARK    7  A    between atoms: C12_18  and  C13_19 
REMARK    8  A    between atoms: C13_19  and  O3_20 
ROOT
HETATM    1  C4  UNL     1       5.449  -3.890  22.768  1.00  0.00     0.122 C 
HETATM    2  C7  UNL     1       4.716  -5.176  22.992  1.00  0.00     0.034 A 
HETATM    3  C8  UNL     1       4.899  -6.513  22.618  1.00  0.00     0.023 A 
HETATM    4  C10 UNL     1       4.449  -5.684  21.555  1.00  0.00     0.001 A 
HETATM    5  C11 UNL     1       3.214  -4.930  21.266  1.00  0.00     0.038 C 
HETATM    6  C12 UNL     1       3.672  -3.463  21.149  1.00  0.00     0.050 C 
HETATM    7  C14 UNL     1       2.345  -2.721  21.152  1.00  0.00     0.033 C 
HETATM    8  C15 UNL     1       2.470  -1.252  21.320  1.00  0.00     0.008 C 
HETATM    9  C16 UNL     1       3.235  -1.050  22.641  1.00  0.00    -0.001 C 
HETATM   10  C17 UNL     1       3.317   0.389  23.013  1.00  0.00     0.011 C 
HETATM   11  C18 UNL     1       4.619  -1.633  22.331  1.00  0.00     0.123 C 
HETATM   12  N2  UNL     1       4.598  -3.018  22.099  1.00  0.00    -0.384 N 
ENDROOT
BRANCH   1  13
HETATM   13  C3  UNL     1       6.813  -4.123  22.218  1.00  0.00     0.041 C 
BRANCH  13  14
HETATM   14  C2  UNL     1       7.199  -3.198  21.095  1.00  0.00    -0.002 C 
HETATM   15  C1  UNL     1       8.679  -3.330  20.790  1.00  0.00     0.005 C 
ENDBRANCH  13  14
ENDBRANCH   1  13
BRANCH   1  16
HETATM   16  C5  UNL     1       5.689  -3.447  24.184  1.00  0.00     0.287 C 
HETATM   17  O1  UNL     1       4.807  -3.474  25.035  1.00  0.00    -0.262 OA
BRANCH  16  18
HETATM   18  O2  UNL     1       6.937  -2.982  24.589  1.00  0.00    -0.325 OA
HETATM   19  C6  UNL     1       7.129  -1.650  24.988  1.00  0.00     0.213 C 
ENDBRANCH  16  18
ENDBRANCH   1  16
BRANCH   3  20
HETATM   20  C9  UNL     1       3.922  -7.566  23.145  1.00  0.00     0.235 C 
BRANCH  20  21
HETATM   21  N1  UNL     1       4.560  -8.871  22.906  1.00  0.00    -0.079 N 
ATOM     22  H13 UNL     1       4.975  -8.957  21.978  1.00  0.00     0.274 HD
ATOM     23  H12 UNL     1       5.419  -9.007  23.439  1.00  0.00     0.274 HD
ATOM     24  H11 UNL     1       3.848  -9.574  23.100  1.00  0.00     0.274 HD
ENDBRANCH  20  21
ENDBRANCH   3  20
BRANCH   6  25
HETATM   25  C13 UNL     1       4.222  -3.344  19.756  1.00  0.00     0.195 C 
BRANCH  25  26
HETATM   26  O3  UNL     1       3.429  -3.784  18.734  1.00  0.00    -0.398 OA
ATOM     27  H3  UNL     1       3.835  -4.336  18.077  1.00  0.00     0.209 HD
ENDBRANCH  25  26
ENDBRANCH   6  25
TORSDOF 8
ENDMDL
MODEL 3
REMARK VINA RESULT: -5.538406229      3.264      5.071
REMARK  8 active torsions:
REMARK  status: ('A' for Active; 'I' for Inactive)
REMARK    1  A    between atoms: C2_2  and  C3_3 
REMARK    2  A    between atoms: C3_3  and  C4_4 
REMARK    3  A    between atoms: C4_4  and  C5_5 
REMARK    4  A    between atoms: C5_5  and  O2_7 
REMARK    5  A    between atoms: C8_10  and  C9_11 
REMARK    6  A    between atoms: C9_11  and  N1_12 
REMARK    7  A    between atoms: C12_18  and  C13_19 
REMARK    8  A    between atoms: C13_19  and  O3_20 
ROOT
HETATM    1  C4  UNL     1       4.745  -3.038  22.586  1.00  0.00     0.122 C 
HETATM    2  C7  UNL     1       5.934  -2.192  22.917  1.00  0.00     0.034 A 
HETATM    3  C8  UNL     1       6.510  -1.686  24.089  1.00  0.00     0.023 A 
HETATM    4  C10 UNL     1       5.318  -1.013  23.707  1.00  0.00     0.001 A 
HETATM    5  C11 UNL     1       4.916  -0.157  22.575  1.00  0.00     0.038 C 
HETATM    6  C12 UNL     1       3.750  -0.914  21.910  1.00  0.00     0.050 C 
HETATM    7  C14 UNL     1       3.585  -0.149  20.606  1.00  0.00     0.033 C 
HETATM    8  C15 UNL     1       2.700  -0.815  19.618  1.00  0.00     0.008 C 
HETATM    9  C16 UNL     1       3.316  -2.207  19.384  1.00  0.00    -0.001 C 
HETATM   10  C17 UNL     1       2.606  -2.947  18.304  1.00  0.00     0.011 C 
HETATM   11  C18 UNL     1       3.144  -2.894  20.744  1.00  0.00     0.123 C 
HETATM   12  N2  UNL     1       3.902  -2.298  21.766  1.00  0.00    -0.384 N 
ENDROOT
BRANCH   1  13
HETATM   13  C3  UNL     1       4.176  -3.687  23.799  1.00  0.00     0.041 C 
BRANCH  13  14
HETATM   14  C2  UNL     1       5.146  -4.553  24.556  1.00  0.00    -0.002 C 
HETATM   15  C1  UNL     1       4.767  -4.608  26.025  1.00  0.00     0.005 C 
ENDBRANCH  13  14
ENDBRANCH   1  13
BRANCH   1  16
HETATM   16  C5  UNL     1       5.396  -4.164  21.831  1.00  0.00     0.287 C 
HETATM   17  O1  UNL     1       6.458  -4.023  21.237  1.00  0.00    -0.262 OA
BRANCH  16  18
HETATM   18  O2  UNL     1       4.810  -5.426  21.778  1.00  0.00    -0.325 OA
HETATM   19  C6  UNL     1       4.487  -6.033  20.555  1.00  0.00     0.213 C 
ENDBRANCH  16  18
ENDBRANCH   1  16
BRANCH   3  20
HETATM   20  C9  UNL     1       7.820  -0.901  23.987  1.00  0.00     0.235 C 
BRANCH  20  21
HETATM   21  N1  UNL     1       8.210  -0.577  25.369  1.00  0.00    -0.079 N 
ATOM     22  H13 UNL     1       7.417  -0.375  25.978  1.00  0.00     0.274 HD
ATOM     23  H12 UNL     1       8.565  -1.378  25.890  1.00  0.00     0.274 HD
ATOM     24  H11 UNL     1       8.877   0.192  25.302  1.00  0.00     0.274 HD
ENDBRANCH  20  21
ENDBRANCH   3  20
BRANCH   6  25
HETATM   25  C13 UNL     1       2.550  -0.583  22.751  1.00  0.00     0.195 C 
BRANCH  25  26
HETATM   26  O3  UNL     1       2.521   0.652  23.335  1.00  0.00    -0.398 OA
ATOM     27  H3  UNL     1       2.219   1.377  22.800  1.00  0.00     0.209 HD
ENDBRANCH  25  26
ENDBRANCH   6  25
TORSDOF 8
ENDMDL
MODEL 4
REMARK VINA RESULT: -5.519843630      3.240      5.833
REMARK  8 active torsions:
REMARK  status: ('A' for Active; 'I' for Inactive)
REMARK    1  A    between atoms: C2_2  and  C3_3 
REMARK    2  A    between atoms: C3_3  and  C4_4 
REMARK    3  A    between atoms: C4_4  and  C5_5 
REMARK    4  A    between atoms: C5_5  and  O2_7 
REMARK    5  A    between atoms: C8_10  and  C9_11 
REMARK    6  A    between atoms: C9_11  and  N1_12 
REMARK    7  A    between atoms: C12_18  and  C13_19 
REMARK    8  A    between atoms: C13_19  and  O3_20 
ROOT
HETATM    1  C4  UNL     1       4.833  -2.463  22.938  1.00  0.00     0.122 C 
HETATM    2  C7  UNL     1       4.278  -3.212  24.108  1.00  0.00     0.034 A 
HETATM    3  C8  UNL     1       4.807  -3.999  25.138  1.00  0.00     0.023 A 
HETATM    4  C10 UNL     1       4.789  -4.654  23.878  1.00  0.00     0.001 A 
HETATM    5  C11 UNL     1       3.735  -5.132  22.962  1.00  0.00     0.038 C 
HETATM    6  C12 UNL     1       3.973  -4.353  21.654  1.00  0.00     0.050 C 
HETATM    7  C14 UNL     1       2.705  -4.658  20.873  1.00  0.00     0.033 C 
HETATM    8  C15 UNL     1       2.521  -3.822  19.661  1.00  0.00     0.008 C 
HETATM    9  C16 UNL     1       2.543  -2.364  20.157  1.00  0.00    -0.001 C 
HETATM   10  C17 UNL     1       2.231  -1.406  19.060  1.00  0.00     0.011 C 
HETATM   11  C18 UNL     1       3.980  -2.194  20.662  1.00  0.00     0.123 C 
HETATM   12  N2  UNL     1       4.274  -2.992  21.780  1.00  0.00    -0.384 N 
ENDROOT
BRANCH   1  13
HETATM   13  C3  UNL     1       6.314  -2.330  23.022  1.00  0.00     0.041 C 
BRANCH  13  14
HETATM   14  C2  UNL     1       6.814  -1.728  24.307  1.00  0.00    -0.002 C 
HETATM   15  C1  UNL     1       7.915  -0.723  24.024  1.00  0.00     0.005 C 
ENDBRANCH  13  14
ENDBRANCH   1  13
BRANCH   1  16
HETATM   16  C5  UNL     1       4.318  -1.077  23.213  1.00  0.00     0.287 C 
HETATM   17  O1  UNL     1       3.462  -0.857  24.062  1.00  0.00    -0.262 OA
BRANCH  16  18
HETATM   18  O2  UNL     1       4.799   0.021  22.507  1.00  0.00    -0.325 OA
HETATM   19  C6  UNL     1       3.954   1.074  22.125  1.00  0.00     0.213 C 
ENDBRANCH  16  18
ENDBRANCH   1  16
BRANCH   3  20
HETATM   20  C9  UNL     1       3.864  -4.532  26.218  1.00  0.00     0.235 C 
BRANCH  20  21
HETATM   21  N1  UNL     1       4.543  -4.301  27.504  1.00  0.00    -0.079 N 
ATOM     22  H13 UNL     1       5.507  -4.632  27.519  1.00  0.00     0.274 HD
ATOM     23  H12 UNL     1       4.746  -3.319  27.685  1.00  0.00     0.274 HD
ATOM     24  H11 UNL     1       3.954  -4.732  28.216  1.00  0.00     0.274 HD
ENDBRANCH  20  21
ENDBRANCH   3  20
BRANCH   6  25
HETATM   25  C13 UNL     1       5.085  -5.094  20.966  1.00  0.00     0.195 C 
BRANCH  25  26
HETATM   26  O3  UNL     1       4.856  -6.402  20.646  1.00  0.00    -0.398 OA
ATOM     27  H3  UNL     1       5.478  -7.042  20.972  1.00  0.00     0.209 HD
ENDBRANCH  25  26
ENDBRANCH   6  25
TORSDOF 8
ENDMDL
MODEL 5
REMARK VINA RESULT: -5.442745567      3.083      5.915
REMARK  8 active torsions:
REMARK  status: ('A' for Active; 'I' for Inactive)
REMARK    1  A    between atoms: C2_2  and  C3_3 
REMARK    2  A    between atoms: C3_3  and  C4_4 
REMARK    3  A    between atoms: C4_4  and  C5_5 
REMARK    4  A    between atoms: C5_5  and  O2_7 
REMARK    5  A    between atoms: C8_10  and  C9_11 
REMARK    6  A    between atoms: C9_11  and  N1_12 
REMARK    7  A    between atoms: C12_18  and  C13_19 
REMARK    8  A    between atoms: C13_19  and  O3_20 
ROOT
HETATM    1  C4  UNL     1       5.500  -4.021  22.729  1.00  0.00     0.122 C 
HETATM    2  C7  UNL     1       4.775  -5.317  22.915  1.00  0.00     0.034 A 
HETATM    3  C8  UNL     1       4.959  -6.639  22.492  1.00  0.00     0.023 A 
HETATM    4  C10 UNL     1       4.493  -5.775  21.465  1.00  0.00     0.001 A 
HETATM    5  C11 UNL     1       3.250  -5.017  21.218  1.00  0.00     0.038 C 
HETATM    6  C12 UNL     1       3.701  -3.544  21.148  1.00  0.00     0.050 C 
HETATM    7  C14 UNL     1       2.371  -2.809  21.195  1.00  0.00     0.033 C 
HETATM    8  C15 UNL     1       2.492  -1.346  21.413  1.00  0.00     0.008 C 
HETATM    9  C16 UNL     1       3.272  -1.188  22.731  1.00  0.00    -0.001 C 
HETATM   10  C17 UNL     1       3.353   0.238  23.154  1.00  0.00     0.011 C 
HETATM   11  C18 UNL     1       4.654  -1.753  22.384  1.00  0.00     0.123 C 
HETATM   12  N2  UNL     1       4.637  -3.129  22.102  1.00  0.00    -0.384 N 
ENDROOT
BRANCH   1  13
HETATM   13  C3  UNL     1       6.857  -4.227  22.154  1.00  0.00     0.041 C 
BRANCH  13  14
HETATM   14  C2  UNL     1       7.251  -3.222  21.106  1.00  0.00    -0.002 C 
HETATM   15  C1  UNL     1       8.735  -3.325  20.808  1.00  0.00     0.005 C 
ENDBRANCH  13  14
ENDBRANCH   1  13
BRANCH   1  16
HETATM   16  C5  UNL     1       5.756  -3.627  24.157  1.00  0.00     0.287 C 
HETATM   17  O1  UNL     1       6.863  -3.280  24.549  1.00  0.00    -0.262 OA
BRANCH  16  18
HETATM   18  O2  UNL     1       4.732  -3.642  25.100  1.00  0.00    -0.325 OA
HETATM   19  C6  UNL     1       4.841  -4.379  26.289  1.00  0.00     0.213 C 
ENDBRANCH  16  18
ENDBRANCH   1  16
BRANCH   3  20
HETATM   20  C9  UNL     1       3.993  -7.715  22.993  1.00  0.00     0.235 C 
BRANCH  20  21
HETATM   21  N1  UNL     1       4.707  -8.996  22.866  1.00  0.00    -0.079 N 
ATOM     22  H13 UNL     1       5.660  -8.897  22.516  1.00  0.00     0.274 HD
ATOM     23  H12 UNL     1       4.948  -9.417  23.763  1.00  0.00     0.274 HD
ATOM     24  H11 UNL     1       4.120  -9.591  22.283  1.00  0.00     0.274 HD
ENDBRANCH  20  21
ENDBRANCH   3  20
BRANCH   6  25
HETATM   25  C13 UNL     1       4.232  -3.373  19.754  1.00  0.00     0.195 C 
BRANCH  25  26
HETATM   26  O3  UNL     1       3.434  -3.792  18.727  1.00  0.00    -0.398 OA
ATOM     27  H3  UNL     1       2.531  -3.498  18.733  1.00  0.00     0.209 HD
ENDBRANCH  25  26
ENDBRANCH   6  25
TORSDOF 8
ENDMDL
