MODEL 1
REMARK VINA RESULT: -7.268297687      0.000      0.000
REMARK  7 active torsions:
REMARK  status: ('A' for Active; 'I' for Inactive)
REMARK    1  A    between atoms: C2_2  and  C3_3 
REMARK    2  A    between atoms: C3_3  and  N1_4 
REMARK    3  A    between atoms: C4_5  and  C5_6 
REMARK    4  A    between atoms: C5_6  and  O1_7 
REMARK    5  A    between atoms: C7_10  and  O2_11 
REMARK    6  A    between atoms: C9_15  and  C10_16 
REMARK    7  A    between atoms: C15_21  and  O4_22 
ROOT
HETATM    1  N1  UNL     1       6.245  -4.439  25.735  1.00  0.00     0.108 N 
HETATM    2  C4  UNL     1       5.472  -4.946  26.779  1.00  0.00     0.249 C 
HETATM    3  C6  UNL     1       5.777  -4.490  28.161  1.00  0.00     0.072 C 
HETATM    4  C7  UNL     1       7.050  -3.694  28.311  1.00  0.00     0.151 C 
HETATM    5  C8  UNL     1       7.032  -2.657  27.243  1.00  0.00     0.189 C 
HETATM    6  O3  UNL     1       8.127  -1.802  27.255  1.00  0.00    -0.347 OA
HETATM    7  C9  UNL     1       7.781  -0.716  26.415  1.00  0.00     0.297 C 
HETATM    8  O5  UNL     1       6.774  -1.005  25.540  1.00  0.00    -0.355 OA
HETATM    9  C16 UNL     1       6.826  -2.206  24.883  1.00  0.00     0.210 C 
HETATM   10  C17 UNL     1       7.052  -3.322  25.887  1.00  0.00     0.279 C 
ENDROOT
BRANCH   7  11
HETATM   11  C10 UNL     1       8.965  -0.182  25.729  1.00  0.00     0.029 A 
HETATM   12  C11 UNL     1       8.942  -0.050  24.358  1.00  0.00     0.015 A 
HETATM   13  C12 UNL     1      10.025   0.456  23.656  1.00  0.00     0.001 A 
HETATM   14  C13 UNL     1      11.155   0.842  24.313  1.00  0.00     0.003 A 
HETATM   15  C14 UNL     1      11.194   0.716  25.703  1.00  0.00     0.037 A 
HETATM   16  C15 UNL     1      10.110   0.211  26.388  1.00  0.00     0.076 A 
BRANCH  16  17
HETATM   17  O4  UNL     1      10.204   0.108  27.765  1.00  0.00    -0.360 OA
ATOM     18  H4  UNL     1      10.992  -0.230  28.174  1.00  0.00     0.217 HD
ENDBRANCH  16  17
ENDBRANCH   7  11
BRANCH   4  19
HETATM   19  O2  UNL     1       8.173  -4.496  28.292  1.00  0.00    -0.393 OA
ATOM     20  H2  UNL     1       8.789  -4.234  27.619  1.00  0.00     0.210 HD
ENDBRANCH   4  19
BRANCH   1  21
HETATM   21  C3  UNL     1       6.965  -5.509  25.068  1.00  0.00     0.300 C 
BRANCH  21  22
HETATM   22  C2  UNL     1       6.259  -6.084  23.919  1.00  0.00    -0.007 C 
HETATM   23  C1  UNL     1       5.703  -5.305  23.000  1.00  0.00     0.008 C 
ENDBRANCH  21  22
ENDBRANCH   1  21
BRANCH   2  24
HETATM   24  C5  UNL     1       4.010  -4.541  26.524  1.00  0.00     0.200 C 
BRANCH  24  25
HETATM   25  O1  UNL     1       3.165  -5.614  26.440  1.00  0.00    -0.399 OA
ATOM     26  H1  UNL     1       3.148  -6.136  27.233  1.00  0.00     0.209 HD
ENDBRANCH  24  25
ENDBRANCH   2  24
TORSDOF 7
ENDMDL
MODEL 2
REMARK VINA RESULT: -7.172572996      3.351      5.813
REMARK  7 active torsions:
REMARK  status: ('A' for Active; 'I' for Inactive)
REMARK    1  A    between atoms: C2_2  and  C3_3 
REMARK    2  A    between atoms: C3_3  and  N1_4 
REMARK    3  A    between atoms: C4_5  and  C5_6 
REMARK    4  A    between atoms: C5_6  and  O1_7 
REMARK    5  A    between atoms: C7_10  and  O2_11 
REMARK    6  A    between atoms: C9_15  and  C10_16 
REMARK    7  A    between atoms: C15_21  and  O4_22 
ROOT
HETATM    1  N1  UNL     1       4.321  -2.738  22.646  1.00  0.00     0.108 N 
HETATM    2  C4  UNL     1       4.688  -2.915  21.313  1.00  0.00     0.249 C 
HETATM    3  C6  UNL     1       6.062  -3.398  21.023  1.00  0.00     0.072 C 
HETATM    4  C7  UNL     1       6.998  -3.430  22.206  1.00  0.00     0.151 C 
HETATM    5  C8  UNL     1       6.262  -4.101  23.313  1.00  0.00     0.189 C 
HETATM    6  O3  UNL     1       6.996  -4.247  24.484  1.00  0.00    -0.347 OA
HETATM    7  C9  UNL     1       6.278  -5.172  25.278  1.00  0.00     0.297 C 
HETATM    8  O5  UNL     1       4.964  -5.288  24.925  1.00  0.00    -0.355 OA
HETATM    9  C16 UNL     1       4.269  -4.136  24.670  1.00  0.00     0.210 C 
HETATM   10  C17 UNL     1       5.053  -3.279  23.692  1.00  0.00     0.279 C 
ENDROOT
BRANCH   7  11
HETATM   11  C10 UNL     1       6.434  -4.873  26.708  1.00  0.00     0.029 A 
HETATM   12  C11 UNL     1       6.213  -5.872  27.630  1.00  0.00     0.015 A 
HETATM   13  C12 UNL     1       6.353  -5.652  28.991  1.00  0.00     0.001 A 
HETATM   14  C13 UNL     1       6.720  -4.426  29.459  1.00  0.00     0.003 A 
HETATM   15  C14 UNL     1       6.949  -3.403  28.537  1.00  0.00     0.037 A 
HETATM   16  C15 UNL     1       6.806  -3.635  27.187  1.00  0.00     0.076 A 
BRANCH  16  17
HETATM   17  O4  UNL     1       7.046  -2.584  26.319  1.00  0.00    -0.360 OA
ATOM     18  H4  UNL     1       7.795  -2.013  26.444  1.00  0.00     0.217 HD
ENDBRANCH  16  17
ENDBRANCH   7  11
BRANCH   4  19
HETATM   19  O2  UNL     1       7.472  -2.175  22.530  1.00  0.00    -0.393 OA
ATOM     20  H2  UNL     1       6.769  -1.565  22.720  1.00  0.00     0.210 HD
ENDBRANCH   4  19
BRANCH   1  21
HETATM   21  C3  UNL     1       4.000  -1.346  22.907  1.00  0.00     0.300 C 
BRANCH  21  22
HETATM   22  C2  UNL     1       4.117  -0.473  21.736  1.00  0.00    -0.007 C 
HETATM   23  C1  UNL     1       4.150   0.847  21.869  1.00  0.00     0.008 C 
ENDBRANCH  21  22
ENDBRANCH   1  21
BRANCH   2  24
HETATM   24  C5  UNL     1       3.743  -3.963  20.698  1.00  0.00     0.200 C 
BRANCH  24  25
HETATM   25  O1  UNL     1       2.518  -4.000  21.306  1.00  0.00    -0.399 OA
ATOM     26  H1  UNL     1       1.937  -4.652  20.932  1.00  0.00     0.209 HD
ENDBRANCH  24  25
ENDBRANCH   2  24
TORSDOF 7
ENDMDL
MODEL 3
REMARK VINA RESULT: -7.142916296      4.727      7.021
REMARK  7 active torsions:
REMARK  status: ('A' for Active; 'I' for Inactive)
REMARK    1  A    between atoms: C2_2  and  C3_3 
REMARK    2  A    between atoms: C3_3  and  N1_4 
REMARK    3  A    between atoms: C4_5  and  C5_6 
REMARK    4  A    between atoms: C5_6  and  O1_7 
REMARK    5  A    between atoms: C7_10  and  O2_11 
REMARK    6  A    between atoms: C9_15  and  C10_16 
REMARK    7  A    between atoms: C15_21  and  O4_22 
ROOT
HETATM    1  N1  UNL     1       2.545  -1.256  20.930  1.00  0.00     0.108 N 
HETATM    2  C4  UNL     1       2.474   0.088  20.564  1.00  0.00     0.249 C 
HETATM    3  C6  UNL     1       3.217   1.078  21.387  1.00  0.00     0.072 C 
HETATM    4  C7  UNL     1       3.792   0.544  22.676  1.00  0.00     0.151 C 
HETATM    5  C8  UNL     1       4.497  -0.722  22.335  1.00  0.00     0.189 C 
HETATM    6  O3  UNL     1       5.122  -1.339  23.412  1.00  0.00    -0.347 OA
HETATM    7  C9  UNL     1       5.991  -2.307  22.855  1.00  0.00     0.297 C 
HETATM    8  O5  UNL     1       5.661  -2.664  21.579  1.00  0.00    -0.355 OA
HETATM    9  C16 UNL     1       4.339  -2.897  21.304  1.00  0.00     0.210 C 
HETATM   10  C17 UNL     1       3.506  -1.733  21.809  1.00  0.00     0.279 C 
ENDROOT
BRANCH   7  11
HETATM   11  C10 UNL     1       6.112  -3.477  23.735  1.00  0.00     0.029 A 
HETATM   12  C11 UNL     1       5.370  -3.522  24.895  1.00  0.00     0.015 A 
HETATM   13  C12 UNL     1       5.436  -4.603  25.761  1.00  0.00     0.001 A 
HETATM   14  C13 UNL     1       6.246  -5.663  25.482  1.00  0.00     0.003 A 
HETATM   15  C14 UNL     1       7.003  -5.634  24.309  1.00  0.00     0.037 A 
HETATM   16  C15 UNL     1       6.928  -4.553  23.458  1.00  0.00     0.076 A 
BRANCH  16  17
HETATM   17  O4  UNL     1       7.700  -4.578  22.310  1.00  0.00    -0.360 OA
ATOM     18  H4  UNL     1       7.313  -4.783  21.468  1.00  0.00     0.217 HD
ENDBRANCH  16  17
ENDBRANCH   7  11
BRANCH   4  19
HETATM   19  O2  UNL     1       2.830   0.401  23.656  1.00  0.00    -0.393 OA
ATOM     20  H2  UNL     1       2.803  -0.482  24.006  1.00  0.00     0.210 HD
ENDBRANCH   4  19
BRANCH   1  21
HETATM   21  C3  UNL     1       1.230  -1.760  21.279  1.00  0.00     0.300 C 
BRANCH  21  22
HETATM   22  C2  UNL     1       0.570  -2.512  20.208  1.00  0.00    -0.007 C 
HETATM   23  C1  UNL     1       0.975  -3.733  19.881  1.00  0.00     0.008 C 
ENDBRANCH  21  22
ENDBRANCH   1  21
BRANCH   2  24
HETATM   24  C5  UNL     1       3.045   0.222  19.141  1.00  0.00     0.200 C 
BRANCH  24  25
HETATM   25  O1  UNL     1       2.659  -0.795  18.312  1.00  0.00    -0.399 OA
ATOM     26  H1  UNL     1       2.957  -0.680  17.418  1.00  0.00     0.209 HD
ENDBRANCH  24  25
ENDBRANCH   2  24
TORSDOF 7
ENDMDL
MODEL 4
REMARK VINA RESULT: -6.929614583      3.842      6.316
REMARK  7 active torsions:
REMARK  status: ('A' for Active; 'I' for Inactive)
REMARK    1  A    between atoms: C2_2  and  C3_3 
REMARK    2  A    between atoms: C3_3  and  N1_4 
REMARK    3  A    between atoms: C4_5  and  C5_6 
REMARK    4  A    between atoms: C5_6  and  O1_7 
REMARK    5  A    between atoms: C7_10  and  O2_11 
REMARK    6  A    between atoms: C9_15  and  C10_16 
REMARK    7  A    between atoms: C15_21  and  O4_22 
ROOT
HETATM    1  N1  UNL     1       4.500  -3.458  22.191  1.00  0.00     0.108 N 
HETATM    2  C4  UNL     1       5.156  -3.344  20.965  1.00  0.00     0.249 C 
HETATM    3  C6  UNL     1       6.639  -3.435  20.954  1.00  0.00     0.072 C 
HETATM    4  C7  UNL     1       7.297  -3.414  22.311  1.00  0.00     0.151 C 
HETATM    5  C8  UNL     1       6.564  -4.396  23.156  1.00  0.00     0.189 C 
HETATM    6  O3  UNL     1       7.065  -4.531  24.445  1.00  0.00    -0.347 OA
HETATM    7  C9  UNL     1       6.478  -5.708  24.968  1.00  0.00     0.297 C 
HETATM    8  O5  UNL     1       5.338  -6.084  24.316  1.00  0.00    -0.355 OA
HETATM    9  C16 UNL     1       4.426  -5.108  24.014  1.00  0.00     0.210 C 
HETATM   10  C17 UNL     1       5.129  -3.954  23.322  1.00  0.00     0.279 C 
ENDROOT
BRANCH   7  11
HETATM   11  C10 UNL     1       6.264  -5.592  26.417  1.00  0.00     0.029 A 
HETATM   12  C11 UNL     1       5.088  -5.044  26.879  1.00  0.00     0.015 A 
HETATM   13  C12 UNL     1       4.828  -4.916  28.234  1.00  0.00     0.001 A 
HETATM   14  C13 UNL     1       5.739  -5.337  29.156  1.00  0.00     0.003 A 
HETATM   15  C14 UNL     1       6.935  -5.895  28.704  1.00  0.00     0.037 A 
HETATM   16  C15 UNL     1       7.182  -6.016  27.354  1.00  0.00     0.076 A 
BRANCH  16  17
HETATM   17  O4  UNL     1       8.385  -6.578  26.962  1.00  0.00    -0.360 OA
ATOM     18  H4  UNL     1       8.721  -7.354  27.393  1.00  0.00     0.217 HD
ENDBRANCH  16  17
ENDBRANCH   7  11
BRANCH   4  19
HETATM   19  O2  UNL     1       7.346  -2.142  22.846  1.00  0.00    -0.393 OA
ATOM     20  H2  UNL     1       6.751  -1.545  22.407  1.00  0.00     0.210 HD
ENDBRANCH   4  19
BRANCH   1  21
HETATM   21  C3  UNL     1       3.775  -2.238  22.497  1.00  0.00     0.300 C 
BRANCH  21  22
HETATM   22  C2  UNL     1       4.154  -1.090  21.668  1.00  0.00    -0.007 C 
HETATM   23  C1  UNL     1       4.219   0.132  22.182  1.00  0.00     0.008 C 
ENDBRANCH  21  22
ENDBRANCH   1  21
BRANCH   2  24
HETATM   24  C5  UNL     1       4.665  -4.488  20.059  1.00  0.00     0.200 C 
BRANCH  24  25
HETATM   25  O1  UNL     1       5.341  -4.558  18.872  1.00  0.00    -0.399 OA
ATOM     26  H1  UNL     1       5.254  -3.771  18.348  1.00  0.00     0.209 HD
ENDBRANCH  24  25
ENDBRANCH   2  24
TORSDOF 7
ENDMDL
MODEL 5
REMARK VINA RESULT: -6.896483793      3.794      6.198
REMARK  7 active torsions:
REMARK  status: ('A' for Active; 'I' for Inactive)
REMARK    1  A    between atoms: C2_2  and  C3_3 
REMARK    2  A    between atoms: C3_3  and  N1_4 
REMARK    3  A    between atoms: C4_5  and  C5_6 
REMARK    4  A    between atoms: C5_6  and  O1_7 
REMARK    5  A    between atoms: C7_10  and  O2_11 
REMARK    6  A    between atoms: C9_15  and  C10_16 
REMARK    7  A    between atoms: C15_21  and  O4_22 
ROOT
HETATM    1  N1  UNL     1       4.352  -4.425  21.873  1.00  0.00     0.108 N 
HETATM    2  C4  UNL     1       4.494  -3.382  20.959  1.00  0.00     0.249 C 
HETATM    3  C6  UNL     1       4.798  -2.027  21.485  1.00  0.00     0.072 C 
HETATM    4  C7  UNL     1       4.696  -1.878  22.983  1.00  0.00     0.151 C 
HETATM    5  C8  UNL     1       5.445  -3.020  23.577  1.00  0.00     0.189 C 
HETATM    6  O3  UNL     1       5.482  -3.022  24.966  1.00  0.00    -0.347 OA
HETATM    7  C9  UNL     1       6.484  -3.954  25.325  1.00  0.00     0.297 C 
HETATM    8  O5  UNL     1       6.773  -4.851  24.337  1.00  0.00    -0.355 OA
HETATM    9  C16 UNL     1       5.724  -5.414  23.661  1.00  0.00     0.210 C 
HETATM   10  C17 UNL     1       4.783  -4.321  23.187  1.00  0.00     0.279 C 
ENDROOT
BRANCH   7  11
HETATM   11  C10 UNL     1       6.152  -4.624  26.590  1.00  0.00     0.029 A 
HETATM   12  C11 UNL     1       7.118  -5.374  27.224  1.00  0.00     0.015 A 
HETATM   13  C12 UNL     1       6.865  -6.023  28.423  1.00  0.00     0.001 A 
HETATM   14  C13 UNL     1       5.641  -5.932  29.014  1.00  0.00     0.003 A 
HETATM   15  C14 UNL     1       4.652  -5.174  28.384  1.00  0.00     0.037 A 
HETATM   16  C15 UNL     1       4.916  -4.535  27.193  1.00  0.00     0.076 A 
BRANCH  16  17
HETATM   17  O4  UNL     1       3.898  -3.798  26.613  1.00  0.00    -0.360 OA
ATOM     18  H4  UNL     1       3.988  -3.454  25.732  1.00  0.00     0.217 HD
ENDBRANCH  16  17
ENDBRANCH   7  11
BRANCH   4  19
HETATM   19  O2  UNL     1       3.386  -1.786  23.410  1.00  0.00    -0.393 OA
ATOM     20  H2  UNL     1       3.324  -1.575  24.334  1.00  0.00     0.210 HD
ENDBRANCH   4  19
BRANCH   1  21
HETATM   21  C3  UNL     1       3.011  -4.978  21.813  1.00  0.00     0.300 C 
BRANCH  21  22
HETATM   22  C2  UNL     1       2.880  -6.140  20.928  1.00  0.00    -0.007 C 
HETATM   23  C1  UNL     1       3.860  -7.028  20.817  1.00  0.00     0.008 C 
ENDBRANCH  21  22
ENDBRANCH   1  21
BRANCH   2  24
HETATM   24  C5  UNL     1       5.663  -3.733  20.021  1.00  0.00     0.200 C 
BRANCH  24  25
HETATM   25  O1  UNL     1       5.261  -4.386  18.887  1.00  0.00    -0.399 OA
ATOM     26  H1  UNL     1       4.322  -4.350  18.751  1.00  0.00     0.209 HD
ENDBRANCH  24  25
ENDBRANCH   2  24
TORSDOF 7
ENDMDL
