MODEL 1
REMARK VINA RESULT: -7.060954259      0.000      0.000
REMARK  8 active torsions:
REMARK  status: ('A' for Active; 'I' for Inactive)
REMARK    1  A    between atoms: C2_2  and  N1_3 
REMARK    2  A    between atoms: C5_6  and  C6_7 
REMARK    3  A    between atoms: C8_10  and  C9_11 
REMARK    4  A    between atoms: C9_11  and  C10_12 
REMARK    5  A    between atoms: C10_12  and  O2_13 
REMARK    6  A    between atoms: N2_15  and  N3_17 
REMARK    7  A    between atoms: N3_17  and  C11_19 
REMARK    8  A    between atoms: N4_21  and  N5_23 
ROOT
HETATM    1  C9  UNL     1       5.826  -4.903  26.974  1.00  0.00     0.119 C 
ENDROOT
BRANCH   1   2
HETATM    2  C8  UNL     1       5.532  -4.764  25.479  1.00  0.00     0.152 C 
HETATM    3  O1  UNL     1       4.809  -3.610  25.336  1.00  0.00    -0.381 OA
HETATM    4  C7  UNL     1       4.622  -3.207  24.016  1.00  0.00     0.200 C 
HETATM    5  C6  UNL     1       5.961  -3.062  23.358  1.00  0.00     0.149 C 
HETATM    6  O3  UNL     1       6.772  -4.154  23.477  1.00  0.00    -0.381 OA
HETATM    7  C13 UNL     1       6.772  -4.833  24.655  1.00  0.00     0.200 C 
BRANCH   5   8
HETATM    8  C5  UNL     1       5.853  -2.629  21.899  1.00  0.00     0.020 C 
HETATM    9  C4  UNL     1       4.499  -2.049  21.641  1.00  0.00     0.037 C 
HETATM   10  C3  UNL     1       3.553  -2.915  20.895  1.00  0.00     0.273 C 
HETATM   11  N1  UNL     1       4.223  -3.375  19.694  1.00  0.00     0.088 N 
HETATM   12  C15 UNL     1       5.352  -4.224  20.002  1.00  0.00     0.273 C 
HETATM   13  C14 UNL     1       6.336  -3.639  20.938  1.00  0.00     0.037 C 
BRANCH  11  14
HETATM   14  C2  UNL     1       3.255  -4.212  18.985  1.00  0.00     0.268 C 
HETATM   15  C1  UNL     1       3.705  -5.648  18.923  1.00  0.00     0.037 C 
ENDBRANCH  11  14
ENDBRANCH   5   8
ENDBRANCH   1   2
BRANCH   1  16
HETATM   16  C10 UNL     1       6.830  -3.955  27.459  1.00  0.00     0.132 C 
HETATM   17  N2  UNL     1       6.758  -2.695  27.125  1.00  0.00    -0.282 N 
ATOM     18  H2  UNL     1       5.987  -2.400  26.523  1.00  0.00     0.189 HD
BRANCH  16  19
HETATM   19  O2  UNL     1       7.881  -4.309  28.270  1.00  0.00    -0.348 OA
ATOM     20  H2  UNL     1       8.579  -3.714  28.516  1.00  0.00     0.219 HD
ENDBRANCH  16  19
BRANCH  17  21
HETATM   21  N3  UNL     1       7.661  -1.738  27.537  1.00  0.00    -0.287 N 
ATOM     22  H3  UNL     1       7.788  -1.606  28.540  1.00  0.00     0.188 HD
BRANCH  21  23
HETATM   23  C11 UNL     1       8.422  -0.930  26.669  1.00  0.00     0.106 C 
HETATM   24  C12 UNL     1       7.947  -0.630  25.310  1.00  0.00     0.092 C 
HETATM   25  N4  UNL     1       9.546  -0.459  27.095  1.00  0.00    -0.295 N 
ATOM     26  H4  UNL     1       9.850  -0.684  28.042  1.00  0.00     0.187 HD
BRANCH  25  27
HETATM   27  N5  UNL     1      10.360   0.352  26.294  1.00  0.00    -0.344 N 
ATOM     28  H52 UNL     1       9.996   0.652  25.389  1.00  0.00     0.176 HD
ATOM     29  H51 UNL     1      11.291   0.643  26.592  1.00  0.00     0.176 HD
ENDBRANCH  25  27
ENDBRANCH  21  23
ENDBRANCH  17  21
ENDBRANCH   1  16
TORSDOF 8
ENDMDL
MODEL 2
REMARK VINA RESULT: -6.968343636      1.271      1.694
REMARK  8 active torsions:
REMARK  status: ('A' for Active; 'I' for Inactive)
REMARK    1  A    between atoms: C2_2  and  N1_3 
REMARK    2  A    between atoms: C5_6  and  C6_7 
REMARK    3  A    between atoms: C8_10  and  C9_11 
REMARK    4  A    between atoms: C9_11  and  C10_12 
REMARK    5  A    between atoms: C10_12  and  O2_13 
REMARK    6  A    between atoms: N2_15  and  N3_17 
REMARK    7  A    between atoms: N3_17  and  C11_19 
REMARK    8  A    between atoms: N4_21  and  N5_23 
ROOT
HETATM    1  C9  UNL     1       5.920  -4.935  27.872  1.00  0.00     0.119 C 
ENDROOT
BRANCH   1   2
HETATM    2  C8  UNL     1       5.424  -5.167  26.443  1.00  0.00     0.152 C 
HETATM    3  O1  UNL     1       4.803  -4.007  26.061  1.00  0.00    -0.381 OA
HETATM    4  C7  UNL     1       4.464  -3.953  24.711  1.00  0.00     0.200 C 
HETATM    5  C6  UNL     1       5.699  -4.173  23.890  1.00  0.00     0.149 C 
HETATM    6  O3  UNL     1       6.408  -5.291  24.222  1.00  0.00    -0.381 OA
HETATM    7  C13 UNL     1       6.516  -5.621  25.537  1.00  0.00     0.200 C 
BRANCH   5   8
HETATM    8  C5  UNL     1       5.419  -4.138  22.391  1.00  0.00     0.020 C 
HETATM    9  C4  UNL     1       5.741  -2.784  21.846  1.00  0.00     0.037 C 
HETATM   10  C3  UNL     1       4.577  -1.915  21.540  1.00  0.00     0.273 C 
HETATM   11  N1  UNL     1       3.663  -2.672  20.705  1.00  0.00     0.088 N 
HETATM   12  C15 UNL     1       3.112  -3.808  21.408  1.00  0.00     0.273 C 
HETATM   13  C14 UNL     1       4.113  -4.713  22.013  1.00  0.00     0.037 C 
BRANCH  11  14
HETATM   14  C2  UNL     1       2.542  -1.777  20.418  1.00  0.00     0.268 C 
HETATM   15  C1  UNL     1       2.813  -0.922  19.208  1.00  0.00     0.037 C 
ENDBRANCH  11  14
ENDBRANCH   5   8
ENDBRANCH   1   2
BRANCH   1  16
HETATM   16  C10 UNL     1       6.984  -3.934  27.962  1.00  0.00     0.132 C 
HETATM   17  N2  UNL     1       6.758  -2.703  27.593  1.00  0.00    -0.282 N 
ATOM     18  H2  UNL     1       5.828  -2.468  27.245  1.00  0.00     0.189 HD
BRANCH  16  19
HETATM   19  O2  UNL     1       8.249  -4.208  28.425  1.00  0.00    -0.348 OA
ATOM     20  H2  UNL     1       8.423  -4.740  29.193  1.00  0.00     0.219 HD
ENDBRANCH  16  19
BRANCH  17  21
HETATM   21  N3  UNL     1       7.704  -1.700  27.645  1.00  0.00    -0.287 N 
ATOM     22  H3  UNL     1       8.045  -1.416  28.563  1.00  0.00     0.188 HD
BRANCH  21  23
HETATM   23  C11 UNL     1       8.232  -1.040  26.518  1.00  0.00     0.106 C 
HETATM   24  C12 UNL     1       7.527  -1.069  25.229  1.00  0.00     0.092 C 
HETATM   25  N4  UNL     1       9.350  -0.407  26.645  1.00  0.00    -0.295 N 
ATOM     26  H4  UNL     1       9.817  -0.404  27.552  1.00  0.00     0.187 HD
BRANCH  25  27
HETATM   27  N5  UNL     1       9.941   0.274  25.573  1.00  0.00    -0.344 N 
ATOM     28  H52 UNL     1       9.561   0.121  24.638  1.00  0.00     0.176 HD
ATOM     29  H51 UNL     1      10.729   0.908  25.705  1.00  0.00     0.176 HD
ENDBRANCH  25  27
ENDBRANCH  21  23
ENDBRANCH  17  21
ENDBRANCH   1  16
TORSDOF 8
ENDMDL
MODEL 3
REMARK VINA RESULT: -6.878436444      1.345      1.945
REMARK  8 active torsions:
REMARK  status: ('A' for Active; 'I' for Inactive)
REMARK    1  A    between atoms: C2_2  and  N1_3 
REMARK    2  A    between atoms: C5_6  and  C6_7 
REMARK    3  A    between atoms: C8_10  and  C9_11 
REMARK    4  A    between atoms: C9_11  and  C10_12 
REMARK    5  A    between atoms: C10_12  and  O2_13 
REMARK    6  A    between atoms: N2_15  and  N3_17 
REMARK    7  A    between atoms: N3_17  and  C11_19 
REMARK    8  A    between atoms: N4_21  and  N5_23 
ROOT
HETATM    1  C9  UNL     1       6.139  -4.138  26.714  1.00  0.00     0.119 C 
ENDROOT
BRANCH   1   2
HETATM    2  C8  UNL     1       5.783  -3.796  25.265  1.00  0.00     0.152 C 
HETATM    3  O1  UNL     1       6.885  -4.109  24.516  1.00  0.00    -0.381 OA
HETATM    4  C7  UNL     1       6.680  -4.058  23.139  1.00  0.00     0.200 C 
HETATM    5  C6  UNL     1       5.539  -4.963  22.784  1.00  0.00     0.149 C 
HETATM    6  O3  UNL     1       4.401  -4.751  23.506  1.00  0.00    -0.381 OA
HETATM    7  C13 UNL     1       4.520  -4.454  24.828  1.00  0.00     0.200 C 
BRANCH   5   8
HETATM    8  C5  UNL     1       5.236  -4.964  21.289  1.00  0.00     0.020 C 
HETATM    9  C4  UNL     1       5.594  -3.638  20.698  1.00  0.00     0.037 C 
HETATM   10  C3  UNL     1       4.456  -2.739  20.383  1.00  0.00     0.273 C 
HETATM   11  N1  UNL     1       3.503  -3.490  19.586  1.00  0.00     0.088 N 
HETATM   12  C15 UNL     1       2.926  -4.584  20.332  1.00  0.00     0.273 C 
HETATM   13  C14 UNL     1       3.905  -5.505  20.949  1.00  0.00     0.037 C 
BRANCH  11  14
HETATM   14  C2  UNL     1       2.409  -2.566  19.289  1.00  0.00     0.268 C 
HETATM   15  C1  UNL     1       2.882  -1.137  19.264  1.00  0.00     0.037 C 
ENDBRANCH  11  14
ENDBRANCH   5   8
ENDBRANCH   1   2
BRANCH   1  16
HETATM   16  C10 UNL     1       7.109  -3.216  27.307  1.00  0.00     0.132 C 
HETATM   17  N2  UNL     1       7.295  -2.035  26.783  1.00  0.00    -0.282 N 
ATOM     18  H2  UNL     1       6.748  -1.782  25.959  1.00  0.00     0.189 HD
BRANCH  16  19
HETATM   19  O2  UNL     1       7.863  -3.516  28.416  1.00  0.00    -0.348 OA
ATOM     20  H2  UNL     1       7.498  -3.624  29.286  1.00  0.00     0.219 HD
ENDBRANCH  16  19
BRANCH  17  21
HETATM   21  N3  UNL     1       8.187  -1.107  27.279  1.00  0.00    -0.287 N 
ATOM     22  H3  UNL     1       8.187  -0.939  28.285  1.00  0.00     0.188 HD
BRANCH  21  23
HETATM   23  C11 UNL     1       9.099  -0.376  26.493  1.00  0.00     0.106 C 
HETATM   24  C12 UNL     1       8.801  -0.065  25.087  1.00  0.00     0.092 C 
HETATM   25  N4  UNL     1      10.202   0.016  27.037  1.00  0.00    -0.295 N 
ATOM     26  H4  UNL     1      10.382  -0.214  28.014  1.00  0.00     0.187 HD
BRANCH  25  27
HETATM   27  N5  UNL     1      11.160   0.748  26.323  1.00  0.00    -0.344 N 
ATOM     28  H52 UNL     1      11.185   0.645  25.308  1.00  0.00     0.176 HD
ATOM     29  H51 UNL     1      11.821   1.370  26.789  1.00  0.00     0.176 HD
ENDBRANCH  25  27
ENDBRANCH  21  23
ENDBRANCH  17  21
ENDBRANCH   1  16
TORSDOF 8
ENDMDL
MODEL 4
REMARK VINA RESULT: -6.848334519      3.242      4.540
REMARK  8 active torsions:
REMARK  status: ('A' for Active; 'I' for Inactive)
REMARK    1  A    between atoms: C2_2  and  N1_3 
REMARK    2  A    between atoms: C5_6  and  C6_7 
REMARK    3  A    between atoms: C8_10  and  C9_11 
REMARK    4  A    between atoms: C9_11  and  C10_12 
REMARK    5  A    between atoms: C10_12  and  O2_13 
REMARK    6  A    between atoms: N2_15  and  N3_17 
REMARK    7  A    between atoms: N3_17  and  C11_19 
REMARK    8  A    between atoms: N4_21  and  N5_23 
ROOT
HETATM    1  C9  UNL     1       7.250  -4.524  22.744  1.00  0.00     0.119 C 
ENDROOT
BRANCH   1   2
HETATM    2  C8  UNL     1       6.167  -3.564  22.243  1.00  0.00     0.152 C 
HETATM    3  O1  UNL     1       4.969  -4.101  22.634  1.00  0.00    -0.381 OA
HETATM    4  C7  UNL     1       3.873  -3.263  22.446  1.00  0.00     0.200 C 
HETATM    5  C6  UNL     1       4.120  -1.972  23.167  1.00  0.00     0.149 C 
HETATM    6  O3  UNL     1       5.311  -1.375  22.869  1.00  0.00    -0.381 OA
HETATM    7  C13 UNL     1       6.404  -2.166  22.698  1.00  0.00     0.200 C 
BRANCH   5   8
HETATM    8  C5  UNL     1       2.969  -0.984  23.009  1.00  0.00     0.020 C 
HETATM    9  C4  UNL     1       2.079  -1.417  21.889  1.00  0.00     0.037 C 
HETATM   10  C3  UNL     1       2.204  -0.648  20.625  1.00  0.00     0.273 C 
HETATM   11  N1  UNL     1       2.082   0.761  20.949  1.00  0.00     0.088 N 
HETATM   12  C15 UNL     1       3.174   1.216  21.779  1.00  0.00     0.273 C 
HETATM   13  C14 UNL     1       3.389   0.431  23.013  1.00  0.00     0.037 C 
BRANCH  11  14
HETATM   14  C2  UNL     1       2.198   1.479  19.679  1.00  0.00     0.268 C 
HETATM   15  C1  UNL     1       3.386   1.006  18.883  1.00  0.00     0.037 C 
ENDBRANCH  11  14
ENDBRANCH   5   8
ENDBRANCH   1   2
BRANCH   1  16
HETATM   16  C10 UNL     1       6.799  -5.390  23.833  1.00  0.00     0.132 C 
HETATM   17  N2  UNL     1       6.758  -4.937  25.057  1.00  0.00    -0.282 N 
ATOM     18  H2  UNL     1       7.047  -3.973  25.223  1.00  0.00     0.189 HD
BRANCH  16  19
HETATM   19  O2  UNL     1       6.399  -6.693  23.654  1.00  0.00    -0.348 OA
ATOM     20  H2  UNL     1       6.967  -7.441  23.796  1.00  0.00     0.219 HD
ENDBRANCH  16  19
BRANCH  17  21
HETATM   21  N3  UNL     1       6.346  -5.686  26.140  1.00  0.00    -0.287 N 
ATOM     22  H3  UNL     1       5.742  -6.488  25.960  1.00  0.00     0.188 HD
BRANCH  21  23
HETATM   23  C11 UNL     1       6.702  -5.421  27.477  1.00  0.00     0.106 C 
HETATM   24  C12 UNL     1       7.749  -6.206  28.147  1.00  0.00     0.092 C 
HETATM   25  N4  UNL     1       6.088  -4.472  28.099  1.00  0.00    -0.295 N 
ATOM     26  H4  UNL     1       5.366  -3.944  27.609  1.00  0.00     0.187 HD
BRANCH  25  27
HETATM   27  N5  UNL     1       6.384  -4.146  29.430  1.00  0.00    -0.344 N 
ATOM     28  H52 UNL     1       5.965  -4.713  30.167  1.00  0.00     0.176 HD
ATOM     29  H51 UNL     1       6.998  -3.368  29.670  1.00  0.00     0.176 HD
ENDBRANCH  25  27
ENDBRANCH  21  23
ENDBRANCH  17  21
ENDBRANCH   1  16
TORSDOF 8
ENDMDL
MODEL 5
REMARK VINA RESULT: -6.777921800      2.492      3.843
REMARK  8 active torsions:
REMARK  status: ('A' for Active; 'I' for Inactive)
REMARK    1  A    between atoms: C2_2  and  N1_3 
REMARK    2  A    between atoms: C5_6  and  C6_7 
REMARK    3  A    between atoms: C8_10  and  C9_11 
REMARK    4  A    between atoms: C9_11  and  C10_12 
REMARK    5  A    between atoms: C10_12  and  O2_13 
REMARK    6  A    between atoms: N2_15  and  N3_17 
REMARK    7  A    between atoms: N3_17  and  C11_19 
REMARK    8  A    between atoms: N4_21  and  N5_23 
ROOT
HETATM    1  C9  UNL     1       6.362  -2.174  24.459  1.00  0.00     0.119 C 
ENDROOT
BRANCH   1   2
HETATM    2  C8  UNL     1       5.066  -2.289  23.653  1.00  0.00     0.152 C 
HETATM    3  O1  UNL     1       4.360  -1.141  23.897  1.00  0.00    -0.381 OA
HETATM    4  C7  UNL     1       3.240  -0.969  23.088  1.00  0.00     0.200 C 
HETATM    5  C6  UNL     1       3.666  -1.018  21.651  1.00  0.00     0.149 C 
HETATM    6  O3  UNL     1       4.409  -2.114  21.317  1.00  0.00    -0.381 OA
HETATM    7  C13 UNL     1       5.324  -2.571  22.213  1.00  0.00     0.200 C 
BRANCH   5   8
HETATM    8  C5  UNL     1       2.496  -0.846  20.687  1.00  0.00     0.020 C 
HETATM    9  C4  UNL     1       1.352  -1.705  21.121  1.00  0.00     0.037 C 
HETATM   10  C3  UNL     1       1.128  -2.938  20.326  1.00  0.00     0.273 C 
HETATM   11  N1  UNL     1       1.070  -2.562  18.926  1.00  0.00     0.088 N 
HETATM   12  C15 UNL     1       2.333  -2.036  18.461  1.00  0.00     0.273 C 
HETATM   13  C14 UNL     1       2.879  -0.919  19.264  1.00  0.00     0.037 C 
BRANCH  11  14
HETATM   14  C2  UNL     1       0.837  -3.801  18.184  1.00  0.00     0.268 C 
HETATM   15  C1  UNL     1       2.057  -4.683  18.183  1.00  0.00     0.037 C 
ENDBRANCH  11  14
ENDBRANCH   5   8
ENDBRANCH   1   2
BRANCH   1  16
HETATM   16  C10 UNL     1       6.660  -3.368  25.251  1.00  0.00     0.132 C 
HETATM   17  N2  UNL     1       6.370  -3.400  26.523  1.00  0.00    -0.282 N 
ATOM     18  H2  UNL     1       5.936  -2.575  26.938  1.00  0.00     0.189 HD
BRANCH  16  19
HETATM   19  O2  UNL     1       7.243  -4.499  24.731  1.00  0.00    -0.348 OA
ATOM     20  H2  UNL     1       6.855  -5.364  24.790  1.00  0.00     0.219 HD
ENDBRANCH  16  19
BRANCH  17  21
HETATM   21  N3  UNL     1       6.618  -4.484  27.340  1.00  0.00    -0.287 N 
ATOM     22  H3  UNL     1       6.999  -5.325  26.909  1.00  0.00     0.188 HD
BRANCH  21  23
HETATM   23  C11 UNL     1       6.380  -4.509  28.728  1.00  0.00     0.106 C 
HETATM   24  C12 UNL     1       5.578  -5.581  29.336  1.00  0.00     0.092 C 
HETATM   25  N4  UNL     1       6.883  -3.567  29.454  1.00  0.00    -0.295 N 
ATOM     26  H4  UNL     1       7.435  -2.836  29.005  1.00  0.00     0.187 HD
BRANCH  25  27
HETATM   27  N5  UNL     1       6.692  -3.521  30.842  1.00  0.00    -0.344 N 
ATOM     28  H52 UNL     1       5.769  -3.753  31.208  1.00  0.00     0.176 HD
ATOM     29  H51 UNL     1       7.445  -3.264  31.481  1.00  0.00     0.176 HD
ENDBRANCH  25  27
ENDBRANCH  21  23
ENDBRANCH  17  21
ENDBRANCH   1  16
TORSDOF 8
ENDMDL
