MODEL 1
REMARK VINA RESULT: -7.380799168      0.000      0.000
REMARK  5 active torsions:
REMARK  status: ('A' for Active; 'I' for Inactive)
REMARK    1  A    between atoms: N1_2  and  C2_5 
REMARK    2  A    between atoms: N2_7  and  C4_8 
REMARK    3  A    between atoms: C6_10  and  N3_11 
REMARK    4  A    between atoms: C11_19  and  N5_20 
REMARK    5  A    between atoms: N5_20  and  C12_22 
ROOT
HETATM    1  C4  UNL     1       7.262  -1.335  24.990  1.00  0.00     0.122 A 
HETATM    2  C5  UNL     1       7.134  -2.436  25.825  1.00  0.00     0.097 A 
HETATM    3  C6  UNL     1       6.069  -3.295  25.687  1.00  0.00     0.122 A 
HETATM    4  N4  UNL     1       5.186  -3.034  24.745  1.00  0.00    -0.177 N 
ATOM      5  H4  UNL     1       4.397  -3.672  24.647  1.00  0.00     0.185 HD
HETATM    6  C11 UNL     1       5.252  -1.962  23.882  1.00  0.00     0.681 A 
HETATM    7  N6  UNL     1       6.313  -1.156  24.060  1.00  0.00    -0.177 N 
ATOM      8  H6  UNL     1       6.402  -0.349  23.443  1.00  0.00     0.185 HD
ENDROOT
BRANCH   1   9
HETATM    9  N2  UNL     1       8.383  -0.476  25.166  1.00  0.00    -0.363 N 
HETATM   10  C3  UNL     1       9.238   0.320  24.335  1.00  0.00     0.159 C 
HETATM   11  C2  UNL     1      10.335   0.162  25.358  1.00  0.00     0.221 C 
HETATM   12  C17 UNL     1       9.148  -0.040  26.309  1.00  0.00     0.159 C 
BRANCH  11  13
HETATM   13  N1  UNL     1      11.064   1.390  25.628  1.00  0.00    -0.072 N 
HETATM   14  C1  UNL     1      12.479   1.097  25.740  1.00  0.00     0.267 C 
ATOM     15  H12 UNL     1      10.705   1.879  26.449  1.00  0.00     0.277 HD
ATOM     16  H11 UNL     1      10.873   2.113  24.934  1.00  0.00     0.277 HD
ENDBRANCH  11  13
ENDBRANCH   1   9
BRANCH   3  17
HETATM   17  N3  UNL     1       6.018  -4.398  26.601  1.00  0.00    -0.363 N 
HETATM   18  C7  UNL     1       5.344  -4.290  27.878  1.00  0.00     0.150 C 
HETATM   19  C8  UNL     1       5.306  -5.666  28.498  1.00  0.00     0.187 C 
HETATM   20  O1  UNL     1       6.546  -6.227  28.654  1.00  0.00    -0.388 OA
HETATM   21  C9  UNL     1       7.378  -6.097  27.577  1.00  0.00     0.187 C 
HETATM   22  C10 UNL     1       6.635  -5.670  26.312  1.00  0.00     0.150 C 
ENDBRANCH   3  17
BRANCH   6  23
HETATM   23  N5  UNL     1       4.330  -1.874  23.056  1.00  0.00    -0.221 N 
ATOM     24  H5  UNL     1       4.167  -2.787  22.634  1.00  0.00     0.178 HD
BRANCH  23  25
HETATM   25  C12 UNL     1       3.452  -0.957  22.516  1.00  0.00     0.099 C 
HETATM   26  C13 UNL     1       3.170   0.267  23.348  1.00  0.00     0.026 C 
HETATM   27  C14 UNL     1       2.825   1.303  22.304  1.00  0.00     0.002 C 
HETATM   28  C15 UNL     1       3.853   1.086  21.244  1.00  0.00     0.002 C 
HETATM   29  C16 UNL     1       4.117  -0.381  21.251  1.00  0.00     0.026 C 
ENDBRANCH  23  25
ENDBRANCH   6  23
TORSDOF 5
ENDMDL
MODEL 2
REMARK VINA RESULT: -7.253693263      1.602      5.815
REMARK  5 active torsions:
REMARK  status: ('A' for Active; 'I' for Inactive)
REMARK    1  A    between atoms: N1_2  and  C2_5 
REMARK    2  A    between atoms: N2_7  and  C4_8 
REMARK    3  A    between atoms: C6_10  and  N3_11 
REMARK    4  A    between atoms: C11_19  and  N5_20 
REMARK    5  A    between atoms: N5_20  and  C12_22 
ROOT
HETATM    1  C4  UNL     1       5.646  -2.428  23.621  1.00  0.00     0.122 A 
HETATM    2  C5  UNL     1       5.521  -3.418  24.587  1.00  0.00     0.097 A 
HETATM    3  C6  UNL     1       6.268  -3.365  25.740  1.00  0.00     0.122 A 
HETATM    4  N4  UNL     1       7.097  -2.352  25.890  1.00  0.00    -0.177 N 
ATOM      5  H4  UNL     1       7.651  -2.317  26.746  1.00  0.00     0.185 HD
HETATM    6  C11 UNL     1       7.270  -1.336  24.975  1.00  0.00     0.681 A 
HETATM    7  N6  UNL     1       6.515  -1.438  23.868  1.00  0.00    -0.177 N 
ATOM      8  H6  UNL     1       6.610  -0.707  23.162  1.00  0.00     0.185 HD
ENDROOT
BRANCH   1   9
HETATM    9  N2  UNL     1       4.849  -2.523  22.446  1.00  0.00    -0.363 N 
HETATM   10  C3  UNL     1       5.042  -2.890  21.073  1.00  0.00     0.159 C 
HETATM   11  C2  UNL     1       3.886  -1.995  20.700  1.00  0.00     0.221 C 
HETATM   12  C17 UNL     1       3.460  -2.274  22.148  1.00  0.00     0.159 C 
BRANCH  11  13
HETATM   13  N1  UNL     1       2.980  -2.584  19.729  1.00  0.00    -0.072 N 
HETATM   14  C1  UNL     1       2.565  -1.571  18.779  1.00  0.00     0.267 C 
ATOM     15  H12 UNL     1       2.186  -3.046  20.172  1.00  0.00     0.277 HD
ATOM     16  H11 UNL     1       3.385  -3.400  19.269  1.00  0.00     0.277 HD
ENDBRANCH  11  13
ENDBRANCH   1   9
BRANCH   3  17
HETATM   17  N3  UNL     1       6.077  -4.437  26.672  1.00  0.00    -0.363 N 
HETATM   18  C7  UNL     1       5.231  -4.282  27.837  1.00  0.00     0.150 C 
HETATM   19  C8  UNL     1       5.091  -5.637  28.489  1.00  0.00     0.187 C 
HETATM   20  O1  UNL     1       6.290  -6.200  28.836  1.00  0.00    -0.388 OA
HETATM   21  C9  UNL     1       7.267  -6.111  27.885  1.00  0.00     0.187 C 
HETATM   22  C10 UNL     1       6.715  -5.722  26.514  1.00  0.00     0.150 C 
ENDBRANCH   3  17
BRANCH   6  23
HETATM   23  N5  UNL     1       8.095  -0.464  25.284  1.00  0.00    -0.221 N 
ATOM     24  H5  UNL     1       7.604   0.349  25.656  1.00  0.00     0.178 HD
BRANCH  23  25
HETATM   25  C12 UNL     1       9.453  -0.221  25.294  1.00  0.00     0.099 C 
HETATM   26  C13 UNL     1       9.913   1.024  24.580  1.00  0.00     0.026 C 
HETATM   27  C14 UNL     1      11.182   1.379  25.319  1.00  0.00     0.002 C 
HETATM   28  C15 UNL     1      10.817   1.182  26.753  1.00  0.00     0.002 C 
HETATM   29  C16 UNL     1       9.858   0.041  26.758  1.00  0.00     0.026 C 
ENDBRANCH  23  25
ENDBRANCH   6  23
TORSDOF 5
ENDMDL
MODEL 3
REMARK VINA RESULT: -7.210738162      3.588      5.899
REMARK  5 active torsions:
REMARK  status: ('A' for Active; 'I' for Inactive)
REMARK    1  A    between atoms: N1_2  and  C2_5 
REMARK    2  A    between atoms: N2_7  and  C4_8 
REMARK    3  A    between atoms: C6_10  and  N3_11 
REMARK    4  A    between atoms: C11_19  and  N5_20 
REMARK    5  A    between atoms: N5_20  and  C12_22 
ROOT
HETATM    1  C4  UNL     1       4.598  -4.940  22.977  1.00  0.00     0.122 A 
HETATM    2  C5  UNL     1       5.120  -5.299  24.212  1.00  0.00     0.097 A 
HETATM    3  C6  UNL     1       5.188  -4.380  25.233  1.00  0.00     0.122 A 
HETATM    4  N4  UNL     1       4.744  -3.162  24.995  1.00  0.00    -0.177 N 
ATOM      5  H4  UNL     1       4.798  -2.483  25.754  1.00  0.00     0.185 HD
HETATM    6  C11 UNL     1       4.214  -2.740  23.796  1.00  0.00     0.681 A 
HETATM    7  N6  UNL     1       4.172  -3.678  22.834  1.00  0.00    -0.177 N 
ATOM      8  H6  UNL     1       3.786  -3.409  21.929  1.00  0.00     0.185 HD
ENDROOT
BRANCH   1   9
HETATM    9  N2  UNL     1       4.545  -5.925  21.951  1.00  0.00    -0.363 N 
HETATM   10  C3  UNL     1       4.537  -5.950  20.518  1.00  0.00     0.159 C 
HETATM   11  C2  UNL     1       3.789  -7.259  20.571  1.00  0.00     0.221 C 
HETATM   12  C17 UNL     1       4.473  -7.366  21.941  1.00  0.00     0.159 C 
BRANCH  11  13
HETATM   13  N1  UNL     1       4.276  -8.250  19.626  1.00  0.00    -0.072 N 
HETATM   14  C1  UNL     1       3.150  -8.921  19.008  1.00  0.00     0.267 C 
ATOM     15  H12 UNL     1       4.928  -8.906  20.056  1.00  0.00     0.277 HD
ATOM     16  H11 UNL     1       4.910  -7.846  18.936  1.00  0.00     0.277 HD
ENDBRANCH  11  13
ENDBRANCH   1   9
BRANCH   3  17
HETATM   17  N3  UNL     1       5.750  -4.841  26.468  1.00  0.00    -0.363 N 
HETATM   18  C7  UNL     1       6.815  -5.822  26.493  1.00  0.00     0.150 C 
HETATM   19  C8  UNL     1       7.304  -5.936  27.917  1.00  0.00     0.187 C 
HETATM   20  O1  UNL     1       6.318  -6.272  28.806  1.00  0.00    -0.388 OA
HETATM   21  C9  UNL     1       5.142  -5.594  28.648  1.00  0.00     0.187 C 
HETATM   22  C10 UNL     1       5.291  -4.366  27.751  1.00  0.00     0.150 C 
ENDBRANCH   3  17
BRANCH   6  23
HETATM   23  N5  UNL     1       3.847  -1.555  23.753  1.00  0.00    -0.221 N 
ATOM     24  H5  UNL     1       4.018  -1.116  24.658  1.00  0.00     0.178 HD
BRANCH  23  25
HETATM   25  C12 UNL     1       3.287  -0.632  22.896  1.00  0.00     0.099 C 
HETATM   26  C13 UNL     1       2.872   0.681  23.508  1.00  0.00     0.026 C 
HETATM   27  C14 UNL     1       2.988   1.639  22.347  1.00  0.00     0.002 C 
HETATM   28  C15 UNL     1       4.278   1.252  21.703  1.00  0.00     0.002 C 
HETATM   29  C16 UNL     1       4.380  -0.223  21.889  1.00  0.00     0.026 C 
ENDBRANCH  23  25
ENDBRANCH   6  23
TORSDOF 5
ENDMDL
MODEL 4
REMARK VINA RESULT: -7.206564473      2.345      5.866
REMARK  5 active torsions:
REMARK  status: ('A' for Active; 'I' for Inactive)
REMARK    1  A    between atoms: N1_2  and  C2_5 
REMARK    2  A    between atoms: N2_7  and  C4_8 
REMARK    3  A    between atoms: C6_10  and  N3_11 
REMARK    4  A    between atoms: C11_19  and  N5_20 
REMARK    5  A    between atoms: N5_20  and  C12_22 
ROOT
HETATM    1  C4  UNL     1       7.439  -1.242  24.997  1.00  0.00     0.122 A 
HETATM    2  C5  UNL     1       6.700  -1.076  23.834  1.00  0.00     0.097 A 
HETATM    3  C6  UNL     1       5.606  -1.870  23.583  1.00  0.00     0.122 A 
HETATM    4  N4  UNL     1       5.291  -2.783  24.480  1.00  0.00    -0.177 N 
ATOM      5  H4  UNL     1       4.480  -3.372  24.290  1.00  0.00     0.185 HD
HETATM    6  C11 UNL     1       5.978  -3.001  25.654  1.00  0.00     0.681 A 
HETATM    7  N6  UNL     1       7.038  -2.197  25.847  1.00  0.00    -0.177 N 
ATOM      8  H6  UNL     1       7.576  -2.324  26.705  1.00  0.00     0.185 HD
ENDROOT
BRANCH   1   9
HETATM    9  N2  UNL     1       8.561  -0.395  25.215  1.00  0.00    -0.363 N 
HETATM   10  C3  UNL     1       9.399   0.463  24.428  1.00  0.00     0.159 C 
HETATM   11  C2  UNL     1      10.516   0.234  25.416  1.00  0.00     0.221 C 
HETATM   12  C17 UNL     1       9.347  -0.041  26.372  1.00  0.00     0.159 C 
BRANCH  11  13
HETATM   13  N1  UNL     1      11.247   1.441  25.761  1.00  0.00    -0.072 N 
HETATM   14  C1  UNL     1      12.670   1.169  25.730  1.00  0.00     0.267 C 
ATOM     15  H12 UNL     1      10.948   1.830  26.656  1.00  0.00     0.277 HD
ATOM     16  H11 UNL     1      10.992   2.230  25.167  1.00  0.00     0.277 HD
ENDBRANCH  11  13
ENDBRANCH   1   9
BRANCH   3  17
HETATM   17  N3  UNL     1       4.913  -1.630  22.352  1.00  0.00    -0.363 N 
HETATM   18  C7  UNL     1       4.146  -0.419  22.141  1.00  0.00     0.150 C 
HETATM   19  C8  UNL     1       3.717  -0.392  20.694  1.00  0.00     0.187 C 
HETATM   20  O1  UNL     1       2.992  -1.492  20.320  1.00  0.00    -0.388 OA
HETATM   21  C9  UNL     1       3.491  -2.687  20.756  1.00  0.00     0.187 C 
HETATM   22  C10 UNL     1       4.929  -2.572  21.259  1.00  0.00     0.150 C 
ENDBRANCH   3  17
BRANCH   6  23
HETATM   23  N5  UNL     1       5.538  -3.906  26.379  1.00  0.00    -0.221 N 
ATOM     24  H5  UNL     1       4.519  -3.860  26.396  1.00  0.00     0.178 HD
BRANCH  23  25
HETATM   25  C12 UNL     1       5.960  -4.955  27.170  1.00  0.00     0.099 C 
HETATM   26  C13 UNL     1       7.014  -5.855  26.578  1.00  0.00     0.026 C 
HETATM   27  C14 UNL     1       7.730  -6.375  27.802  1.00  0.00     0.002 C 
HETATM   28  C15 UNL     1       7.882  -5.163  28.659  1.00  0.00     0.002 C 
HETATM   29  C16 UNL     1       6.664  -4.343  28.397  1.00  0.00     0.026 C 
ENDBRANCH  23  25
ENDBRANCH   6  23
TORSDOF 5
ENDMDL
MODEL 5
REMARK VINA RESULT: -7.140124098      2.385      7.197
REMARK  5 active torsions:
REMARK  status: ('A' for Active; 'I' for Inactive)
REMARK    1  A    between atoms: N1_2  and  C2_5 
REMARK    2  A    between atoms: N2_7  and  C4_8 
REMARK    3  A    between atoms: C6_10  and  N3_11 
REMARK    4  A    between atoms: C11_19  and  N5_20 
REMARK    5  A    between atoms: N5_20  and  C12_22 
ROOT
HETATM    1  C4  UNL     1       5.661  -2.120  23.528  1.00  0.00     0.122 A 
HETATM    2  C5  UNL     1       6.732  -1.273  23.782  1.00  0.00     0.097 A 
HETATM    3  C6  UNL     1       7.388  -1.323  24.989  1.00  0.00     0.122 A 
HETATM    4  N4  UNL     1       6.966  -2.193  25.884  1.00  0.00    -0.177 N 
ATOM      5  H4  UNL     1       7.455  -2.226  26.779  1.00  0.00     0.185 HD
HETATM    6  C11 UNL     1       5.913  -3.063  25.698  1.00  0.00     0.681 A 
HETATM    7  N6  UNL     1       5.308  -2.971  24.501  1.00  0.00    -0.177 N 
ATOM      8  H6  UNL     1       4.523  -3.597  24.320  1.00  0.00     0.185 HD
ENDROOT
BRANCH   1   9
HETATM    9  N2  UNL     1       5.014  -2.035  22.264  1.00  0.00    -0.363 N 
HETATM   10  C3  UNL     1       4.159  -1.108  21.581  1.00  0.00     0.159 C 
HETATM   11  C2  UNL     1       3.593  -2.259  20.786  1.00  0.00     0.221 C 
HETATM   12  C17 UNL     1       4.955  -2.890  21.103  1.00  0.00     0.159 C 
BRANCH  11  13
HETATM   13  N1  UNL     1       3.429  -1.967  19.371  1.00  0.00    -0.072 N 
HETATM   14  C1  UNL     1       2.100  -2.359  18.949  1.00  0.00     0.267 C 
ATOM     15  H12 UNL     1       4.158  -2.398  18.802  1.00  0.00     0.277 HD
ATOM     16  H11 UNL     1       3.632  -0.992  19.152  1.00  0.00     0.277 HD
ENDBRANCH  11  13
ENDBRANCH   1   9
BRANCH   3  17
HETATM   17  N3  UNL     1       8.475  -0.404  25.161  1.00  0.00    -0.363 N 
HETATM   18  C7  UNL     1       9.230   0.093  24.030  1.00  0.00     0.150 C 
HETATM   19  C8  UNL     1      10.155   1.175  24.532  1.00  0.00     0.187 C 
HETATM   20  O1  UNL     1      10.998   0.752  25.526  1.00  0.00    -0.388 OA
HETATM   21  C9  UNL     1      10.410  -0.007  26.498  1.00  0.00     0.187 C 
HETATM   22  C10 UNL     1       8.885   0.074  26.460  1.00  0.00     0.150 C 
ENDBRANCH   3  17
BRANCH   6  23
HETATM   23  N5  UNL     1       5.656  -3.813  26.652  1.00  0.00    -0.221 N 
ATOM     24  H5  UNL     1       4.840  -3.457  27.150  1.00  0.00     0.178 HD
BRANCH  23  25
HETATM   25  C12 UNL     1       6.099  -4.965  27.267  1.00  0.00     0.099 C 
HETATM   26  C13 UNL     1       7.056  -5.818  26.475  1.00  0.00     0.026 C 
HETATM   27  C14 UNL     1       7.854  -6.510  27.554  1.00  0.00     0.002 C 
HETATM   28  C15 UNL     1       8.134  -5.420  28.535  1.00  0.00     0.002 C 
HETATM   29  C16 UNL     1       6.935  -4.535  28.489  1.00  0.00     0.026 C 
ENDBRANCH  23  25
ENDBRANCH   6  23
TORSDOF 5
ENDMDL
