MODEL 1
REMARK VINA RESULT: -6.953313501      0.000      0.000
REMARK  7 active torsions:
REMARK  status: ('A' for Active; 'I' for Inactive)
REMARK       I    between atoms: N1_3  and  C3_5 
REMARK    1  A    between atoms: C3_5  and  C4_7 
REMARK    2  A    between atoms: C4_7  and  N2_9 
REMARK       I    between atoms: N2_9  and  C6_11 
REMARK    3  A    between atoms: C6_11  and  C7_13 
REMARK    4  A    between atoms: C9_15  and  N3_16 
REMARK       I    between atoms: N4_21  and  C11_22 
REMARK       I    between atoms: C11_22  and  N5_24 
REMARK    5  A    between atoms: N5_24  and  C12_26 
REMARK    6  A    between atoms: C12_26  and  C13_27 
REMARK    7  A    between atoms: C12_26  and  C14_30 
ROOT
HETATM    1  C1  UNL     1      65.722  -2.727  95.788  1.00  0.00     0.037 C 
HETATM    2  C2  UNL     1      66.424  -3.598  96.263  1.00  0.00     0.002 C 
HETATM    3  N1  UNL     1      67.245  -4.610  96.762  1.00  0.00    -0.285 N 
ATOM      4  H1  UNL     1      68.209  -4.376  97.003  1.00  0.00     0.179 HD
HETATM    5  C3  UNL     1      66.809  -5.948  96.953  1.00  0.00     0.251 C 
HETATM    6  O1  UNL     1      65.637  -6.312  96.657  1.00  0.00    -0.270 OA
ENDROOT
BRANCH   5   7
HETATM    7  C4  UNL     1      67.777  -6.931  97.498  1.00  0.00     0.173 C 
HETATM    8  C5  UNL     1      68.372  -7.707  96.307  1.00  0.00     0.042 C 
BRANCH   7   9
HETATM    9  N2  UNL     1      68.807  -6.237  98.172  1.00  0.00    -0.346 N 
HETATM   10  C6  UNL     1      68.962  -6.224  99.614  1.00  0.00     0.241 C 
HETATM   11  O2  UNL     1      68.251  -6.932 100.312  1.00  0.00    -0.271 OA
ATOM     12  H2  UNL     1      69.481  -5.715  97.612  1.00  0.00     0.163 HD
BRANCH  10  13
HETATM   13  C7  UNL     1      69.998  -5.293 100.102  1.00  0.00     0.183 C 
HETATM   14  C8  UNL     1      69.856  -3.994  99.196  1.00  0.00     0.069 C 
HETATM   15  C9  UNL     1      69.244  -3.017 100.144  1.00  0.00     0.204 C 
HETATM   16  C10 UNL     1      68.571  -3.966 101.182  1.00  0.00     0.161 C 
HETATM   17  N4  UNL     1      69.823  -4.733 101.397  1.00  0.00    -0.319 N 
HETATM   18  C11 UNL     1      70.618  -4.709 102.545  1.00  0.00     0.319 C 
HETATM   19  O3  UNL     1      71.728  -5.274 102.646  1.00  0.00    -0.247 OA
HETATM   20  N5  UNL     1      70.133  -3.960 103.693  1.00  0.00    -0.328 N 
ATOM     21  H5  UNL     1      69.199  -3.549 103.676  1.00  0.00     0.165 HD
BRANCH  15  22
HETATM   22  N3  UNL     1      68.328  -2.083  99.632  1.00  0.00    -0.073 N 
ATOM     23  H33 UNL     1      67.944  -2.439  98.756  1.00  0.00     0.274 HD
ATOM     24  H32 UNL     1      67.495  -2.075 100.220  1.00  0.00     0.274 HD
ATOM     25  H31 UNL     1      68.647  -1.124  99.492  1.00  0.00     0.274 HD
ENDBRANCH  15  22
BRANCH  20  26
HETATM   26  C12 UNL     1      70.971  -3.797 104.857  1.00  0.00     0.190 C 
BRANCH  26  27
HETATM   27  C13 UNL     1      71.337  -2.395 104.936  1.00  0.00     0.197 C 
HETATM   28  O4  UNL     1      71.121  -1.592 105.815  1.00  0.00    -0.646 OA
HETATM   29  O5  UNL     1      72.081  -1.881 103.792  1.00  0.00    -0.646 OA
ENDBRANCH  26  27
BRANCH  26  30
HETATM   30  C14 UNL     1      70.132  -4.174 106.059  1.00  0.00     0.011 C 
HETATM   31  C15 UNL     1      68.890  -4.949 105.719  1.00  0.00     0.012 C 
HETATM   32  C16 UNL     1      70.861  -4.755 107.205  1.00  0.00     0.012 C 
ENDBRANCH  26  30
ENDBRANCH  20  26
ENDBRANCH  10  13
ENDBRANCH   7   9
ENDBRANCH   5   7
TORSDOF 7
ENDMDL
MODEL 2
REMARK VINA RESULT: -6.949024076      3.828      5.003
REMARK  7 active torsions:
REMARK  status: ('A' for Active; 'I' for Inactive)
REMARK       I    between atoms: N1_3  and  C3_5 
REMARK    1  A    between atoms: C3_5  and  C4_7 
REMARK    2  A    between atoms: C4_7  and  N2_9 
REMARK       I    between atoms: N2_9  and  C6_11 
REMARK    3  A    between atoms: C6_11  and  C7_13 
REMARK    4  A    between atoms: C9_15  and  N3_16 
REMARK       I    between atoms: N4_21  and  C11_22 
REMARK       I    between atoms: C11_22  and  N5_24 
REMARK    5  A    between atoms: N5_24  and  C12_26 
REMARK    6  A    between atoms: C12_26  and  C13_27 
REMARK    7  A    between atoms: C12_26  and  C14_30 
ROOT
HETATM    1  C1  UNL     1      61.714   3.253  95.619  1.00  0.00     0.037 C 
HETATM    2  C2  UNL     1      62.074   2.159  96.008  1.00  0.00     0.002 C 
HETATM    3  N1  UNL     1      62.480   0.918  96.501  1.00  0.00    -0.285 N 
ATOM      4  H1  UNL     1      61.771   0.200  96.649  1.00  0.00     0.179 HD
HETATM    5  C3  UNL     1      63.832   0.603  96.807  1.00  0.00     0.251 C 
HETATM    6  O1  UNL     1      64.758   1.450  96.667  1.00  0.00    -0.270 OA
ENDROOT
BRANCH   5   7
HETATM    7  C4  UNL     1      64.137  -0.755  97.319  1.00  0.00     0.173 C 
HETATM    8  C5  UNL     1      63.782  -1.762  96.209  1.00  0.00     0.042 C 
BRANCH   7   9
HETATM    9  N2  UNL     1      65.517  -0.838  97.608  1.00  0.00    -0.346 N 
HETATM   10  C6  UNL     1      66.068  -1.605  98.709  1.00  0.00     0.241 C 
HETATM   11  O2  UNL     1      65.338  -2.324  99.377  1.00  0.00    -0.271 OA
ATOM     12  H2  UNL     1      66.166  -0.328  97.007  1.00  0.00     0.163 HD
BRANCH  10  13
HETATM   13  C7  UNL     1      67.514  -1.403  98.925  1.00  0.00     0.183 C 
HETATM   14  C8  UNL     1      67.742   0.165  98.798  1.00  0.00     0.069 C 
HETATM   15  C9  UNL     1      67.987   0.560 100.217  1.00  0.00     0.204 C 
HETATM   16  C10 UNL     1      67.290  -0.601 100.991  1.00  0.00     0.161 C 
HETATM   17  N4  UNL     1      68.024  -1.642 100.229  1.00  0.00    -0.319 N 
HETATM   18  C11 UNL     1      69.038  -2.465 100.725  1.00  0.00     0.319 C 
HETATM   19  O3  UNL     1      69.717  -3.247 100.025  1.00  0.00    -0.247 OA
HETATM   20  N5  UNL     1      69.339  -2.393 102.146  1.00  0.00    -0.328 N 
ATOM     21  H5  UNL     1      68.758  -1.824 102.762  1.00  0.00     0.165 HD
BRANCH  15  22
HETATM   22  N3  UNL     1      67.521   1.815 100.643  1.00  0.00    -0.073 N 
ATOM     23  H33 UNL     1      68.164   2.190 101.340  1.00  0.00     0.274 HD
ATOM     24  H32 UNL     1      67.638   2.490  99.887  1.00  0.00     0.274 HD
ATOM     25  H31 UNL     1      66.567   1.877 101.001  1.00  0.00     0.274 HD
ENDBRANCH  15  22
BRANCH  20  26
HETATM   26  C12 UNL     1      70.459  -3.127 102.685  1.00  0.00     0.190 C 
BRANCH  26  27
HETATM   27  C13 UNL     1      71.386  -2.158 103.242  1.00  0.00     0.197 C 
HETATM   28  O4  UNL     1      71.685  -1.955 104.396  1.00  0.00    -0.646 OA
HETATM   29  O5  UNL     1      72.060  -1.310 102.266  1.00  0.00    -0.646 OA
ENDBRANCH  26  27
BRANCH  26  30
HETATM   30  C14 UNL     1      69.917  -4.007 103.791  1.00  0.00     0.011 C 
HETATM   31  C15 UNL     1      68.554  -3.604 104.280  1.00  0.00     0.012 C 
HETATM   32  C16 UNL     1      70.028  -5.464 103.575  1.00  0.00     0.012 C 
ENDBRANCH  26  30
ENDBRANCH  20  26
ENDBRANCH  10  13
ENDBRANCH   7   9
ENDBRANCH   5   7
TORSDOF 7
ENDMDL
MODEL 3
REMARK VINA RESULT: -6.921574443      2.721      7.864
REMARK  7 active torsions:
REMARK  status: ('A' for Active; 'I' for Inactive)
REMARK       I    between atoms: N1_3  and  C3_5 
REMARK    1  A    between atoms: C3_5  and  C4_7 
REMARK    2  A    between atoms: C4_7  and  N2_9 
REMARK       I    between atoms: N2_9  and  C6_11 
REMARK    3  A    between atoms: C6_11  and  C7_13 
REMARK    4  A    between atoms: C9_15  and  N3_16 
REMARK       I    between atoms: N4_21  and  C11_22 
REMARK       I    between atoms: C11_22  and  N5_24 
REMARK    5  A    between atoms: N5_24  and  C12_26 
REMARK    6  A    between atoms: C12_26  and  C13_27 
REMARK    7  A    between atoms: C12_26  and  C14_30 
ROOT
HETATM    1  C1  UNL     1      67.223  -7.893 104.852  1.00  0.00     0.037 C 
HETATM    2  C2  UNL     1      68.002  -6.962 104.905  1.00  0.00     0.002 C 
HETATM    3  N1  UNL     1      68.892  -5.892 105.014  1.00  0.00    -0.285 N 
ATOM      4  H1  UNL     1      69.884  -6.098 105.134  1.00  0.00     0.179 HD
HETATM    5  C3  UNL     1      68.487  -4.531 104.968  1.00  0.00     0.251 C 
HETATM    6  O1  UNL     1      67.274  -4.204 104.844  1.00  0.00    -0.270 OA
ENDROOT
BRANCH   5   7
HETATM    7  C4  UNL     1      69.531  -3.484 105.090  1.00  0.00     0.173 C 
HETATM    8  C5  UNL     1      70.765  -4.131 105.748  1.00  0.00     0.042 C 
BRANCH   7   9
HETATM    9  N2  UNL     1      69.872  -3.022 103.798  1.00  0.00    -0.346 N 
HETATM   10  C6  UNL     1      69.177  -1.947 103.116  1.00  0.00     0.241 C 
HETATM   11  O2  UNL     1      68.318  -1.304 103.703  1.00  0.00    -0.271 OA
ATOM     12  H2  UNL     1      70.652  -3.471 103.318  1.00  0.00     0.163 HD
BRANCH  10  13
HETATM   13  C7  UNL     1      69.590  -1.755 101.712  1.00  0.00     0.183 C 
HETATM   14  C8  UNL     1      70.778  -2.786 101.479  1.00  0.00     0.069 C 
HETATM   15  C9  UNL     1      70.129  -3.821 100.621  1.00  0.00     0.204 C 
HETATM   16  C10 UNL     1      68.622  -3.620 100.970  1.00  0.00     0.161 C 
HETATM   17  N4  UNL     1      68.683  -2.162 100.697  1.00  0.00    -0.319 N 
HETATM   18  C11 UNL     1      68.099  -1.502  99.614  1.00  0.00     0.319 C 
HETATM   19  O3  UNL     1      68.270  -0.292  99.350  1.00  0.00    -0.247 OA
HETATM   20  N5  UNL     1      67.252  -2.276  98.720  1.00  0.00    -0.328 N 
ATOM     21  H5  UNL     1      67.028  -3.246  98.944  1.00  0.00     0.165 HD
BRANCH  15  22
HETATM   22  N3  UNL     1      70.521  -5.160 100.787  1.00  0.00    -0.073 N 
ATOM     23  H33 UNL     1      70.986  -5.261 101.689  1.00  0.00     0.274 HD
ATOM     24  H32 UNL     1      69.690  -5.735 100.931  1.00  0.00     0.274 HD
ATOM     25  H31 UNL     1      71.100  -5.585 100.063  1.00  0.00     0.274 HD
ENDBRANCH  15  22
BRANCH  20  26
HETATM   26  C12 UNL     1      66.729  -1.674  97.517  1.00  0.00     0.190 C 
BRANCH  26  27
HETATM   27  C13 UNL     1      66.371  -2.751  96.612  1.00  0.00     0.197 C 
HETATM   28  O4  UNL     1      65.956  -2.696  95.477  1.00  0.00    -0.646 OA
HETATM   29  O5  UNL     1      66.544  -4.096  97.147  1.00  0.00    -0.646 OA
ENDBRANCH  26  27
BRANCH  26  30
HETATM   30  C14 UNL     1      65.486  -0.907  97.915  1.00  0.00     0.011 C 
HETATM   31  C15 UNL     1      65.430   0.492  97.370  1.00  0.00     0.012 C 
HETATM   32  C16 UNL     1      64.203  -1.623  97.758  1.00  0.00     0.012 C 
ENDBRANCH  26  30
ENDBRANCH  20  26
ENDBRANCH  10  13
ENDBRANCH   7   9
ENDBRANCH   5   7
TORSDOF 7
ENDMDL
MODEL 4
REMARK VINA RESULT: -6.690665692      4.230      5.943
REMARK  7 active torsions:
REMARK  status: ('A' for Active; 'I' for Inactive)
REMARK       I    between atoms: N1_3  and  C3_5 
REMARK    1  A    between atoms: C3_5  and  C4_7 
REMARK    2  A    between atoms: C4_7  and  N2_9 
REMARK       I    between atoms: N2_9  and  C6_11 
REMARK    3  A    between atoms: C6_11  and  C7_13 
REMARK    4  A    between atoms: C9_15  and  N3_16 
REMARK       I    between atoms: N4_21  and  C11_22 
REMARK       I    between atoms: C11_22  and  N5_24 
REMARK    5  A    between atoms: N5_24  and  C12_26 
REMARK    6  A    between atoms: C12_26  and  C13_27 
REMARK    7  A    between atoms: C12_26  and  C14_30 
ROOT
HETATM    1  C1  UNL     1      61.663   4.218  94.811  1.00  0.00     0.037 C 
HETATM    2  C2  UNL     1      61.900   3.102  95.231  1.00  0.00     0.002 C 
HETATM    3  N1  UNL     1      62.154   1.834  95.756  1.00  0.00    -0.285 N 
ATOM      4  H1  UNL     1      61.422   1.127  95.689  1.00  0.00     0.179 HD
HETATM    5  C3  UNL     1      63.380   1.477  96.379  1.00  0.00     0.251 C 
HETATM    6  O1  UNL     1      64.321   2.309  96.515  1.00  0.00    -0.270 OA
ENDROOT
BRANCH   5   7
HETATM    7  C4  UNL     1      63.530   0.094  96.893  1.00  0.00     0.173 C 
HETATM    8  C5  UNL     1      62.853  -0.853  95.884  1.00  0.00     0.042 C 
BRANCH   7   9
HETATM    9  N2  UNL     1      64.905  -0.216  96.983  1.00  0.00    -0.346 N 
HETATM   10  C6  UNL     1      65.438  -1.297  97.791  1.00  0.00     0.241 C 
HETATM   11  O2  UNL     1      64.677  -2.076  98.348  1.00  0.00    -0.271 OA
ATOM     12  H2  UNL     1      65.563   0.352  96.449  1.00  0.00     0.163 HD
BRANCH  10  13
HETATM   13  C7  UNL     1      66.911  -1.323  97.871  1.00  0.00     0.183 C 
HETATM   14  C8  UNL     1      67.349   0.194  98.054  1.00  0.00     0.069 C 
HETATM   15  C9  UNL     1      67.772   0.226  99.486  1.00  0.00     0.204 C 
HETATM   16  C10 UNL     1      66.990  -0.989 100.072  1.00  0.00     0.161 C 
HETATM   17  N4  UNL     1      67.498  -1.910  99.025  1.00  0.00    -0.319 N 
HETATM   18  C11 UNL     1      68.424  -2.939  99.210  1.00  0.00     0.319 C 
HETATM   19  O3  UNL     1      68.919  -3.617  98.285  1.00  0.00    -0.247 OA
HETATM   20  N5  UNL     1      68.858  -3.227 100.569  1.00  0.00    -0.328 N 
ATOM     21  H5  UNL     1      68.421  -2.748 101.356  1.00  0.00     0.165 HD
BRANCH  15  22
HETATM   22  N3  UNL     1      67.530   1.397 100.222  1.00  0.00    -0.073 N 
ATOM     23  H33 UNL     1      67.337   2.163  99.576  1.00  0.00     0.274 HD
ATOM     24  H32 UNL     1      66.631   1.313 100.697  1.00  0.00     0.274 HD
ATOM     25  H31 UNL     1      68.236   1.697 100.894  1.00  0.00     0.274 HD
ENDBRANCH  15  22
BRANCH  20  26
HETATM   26  C12 UNL     1      69.906  -4.192 100.803  1.00  0.00     0.190 C 
BRANCH  26  27
HETATM   27  C13 UNL     1      71.154  -3.459 100.912  1.00  0.00     0.197 C 
HETATM   28  O4  UNL     1      71.450  -2.551 101.653  1.00  0.00    -0.646 OA
HETATM   29  O5  UNL     1      72.207  -3.887  99.999  1.00  0.00    -0.646 OA
ENDBRANCH  26  27
BRANCH  26  30
HETATM   30  C14 UNL     1      69.594  -4.868 102.121  1.00  0.00     0.011 C 
HETATM   31  C15 UNL     1      68.387  -5.762 102.079  1.00  0.00     0.012 C 
HETATM   32  C16 UNL     1      70.736  -5.496 102.815  1.00  0.00     0.012 C 
ENDBRANCH  26  30
ENDBRANCH  20  26
ENDBRANCH  10  13
ENDBRANCH   7   9
ENDBRANCH   5   7
TORSDOF 7
ENDMDL
MODEL 5
REMARK VINA RESULT: -6.590782393      3.276      4.881
REMARK  7 active torsions:
REMARK  status: ('A' for Active; 'I' for Inactive)
REMARK       I    between atoms: N1_3  and  C3_5 
REMARK    1  A    between atoms: C3_5  and  C4_7 
REMARK    2  A    between atoms: C4_7  and  N2_9 
REMARK       I    between atoms: N2_9  and  C6_11 
REMARK    3  A    between atoms: C6_11  and  C7_13 
REMARK    4  A    between atoms: C9_15  and  N3_16 
REMARK       I    between atoms: N4_21  and  C11_22 
REMARK       I    between atoms: C11_22  and  N5_24 
REMARK    5  A    between atoms: N5_24  and  C12_26 
REMARK    6  A    between atoms: C12_26  and  C13_27 
REMARK    7  A    between atoms: C12_26  and  C14_30 
ROOT
HETATM    1  C1  UNL     1      62.717  -5.306  93.856  1.00  0.00     0.037 C 
HETATM    2  C2  UNL     1      62.873  -4.401  94.652  1.00  0.00     0.002 C 
HETATM    3  N1  UNL     1      63.038  -3.330  95.531  1.00  0.00    -0.285 N 
ATOM      4  H1  UNL     1      62.244  -3.051  96.108  1.00  0.00     0.179 HD
HETATM    5  C3  UNL     1      64.255  -2.609  95.666  1.00  0.00     0.251 C 
HETATM    6  O1  UNL     1      65.271  -2.887  94.969  1.00  0.00    -0.270 OA
ENDROOT
BRANCH   5   7
HETATM    7  C4  UNL     1      64.306  -1.493  96.641  1.00  0.00     0.173 C 
HETATM    8  C5  UNL     1      63.184  -1.724  97.671  1.00  0.00     0.042 C 
BRANCH   7   9
HETATM    9  N2  UNL     1      65.558  -1.510  97.295  1.00  0.00    -0.346 N 
HETATM   10  C6  UNL     1      66.212  -0.325  97.819  1.00  0.00     0.241 C 
HETATM   11  O2  UNL     1      65.626   0.748  97.815  1.00  0.00    -0.271 OA
ATOM     12  H2  UNL     1      66.031  -2.407  97.405  1.00  0.00     0.163 HD
BRANCH  10  13
HETATM   13  C7  UNL     1      67.588  -0.556  98.300  1.00  0.00     0.183 C 
HETATM   14  C8  UNL     1      68.109   0.867  98.779  1.00  0.00     0.069 C 
HETATM   15  C9  UNL     1      68.101   0.718 100.265  1.00  0.00     0.204 C 
HETATM   16  C10 UNL     1      67.060  -0.427 100.461  1.00  0.00     0.161 C 
HETATM   17  N4  UNL     1      67.750  -1.314  99.492  1.00  0.00    -0.319 N 
HETATM   18  C11 UNL     1      68.469  -2.470  99.800  1.00  0.00     0.319 C 
HETATM   19  O3  UNL     1      69.138  -3.127  98.973  1.00  0.00    -0.247 OA
HETATM   20  N5  UNL     1      68.459  -2.930 101.180  1.00  0.00    -0.328 N 
ATOM     21  H5  UNL     1      67.866  -2.466 101.867  1.00  0.00     0.165 HD
BRANCH  15  22
HETATM   22  N3  UNL     1      67.780   1.843 101.041  1.00  0.00    -0.073 N 
ATOM     23  H33 UNL     1      67.003   1.611 101.659  1.00  0.00     0.274 HD
ATOM     24  H32 UNL     1      68.526   2.006 101.718  1.00  0.00     0.274 HD
ATOM     25  H31 UNL     1      67.572   2.718 100.557  1.00  0.00     0.274 HD
ENDBRANCH  15  22
BRANCH  20  26
HETATM   26  C12 UNL     1      69.287  -4.044 101.577  1.00  0.00     0.190 C 
BRANCH  26  27
HETATM   27  C13 UNL     1      70.665  -3.590 101.555  1.00  0.00     0.197 C 
HETATM   28  O4  UNL     1      71.154  -2.593 102.034  1.00  0.00    -0.646 OA
HETATM   29  O5  UNL     1      71.599  -4.469 100.860  1.00  0.00    -0.646 OA
ENDBRANCH  26  27
BRANCH  26  30
HETATM   30  C14 UNL     1      68.891  -4.403 102.993  1.00  0.00     0.011 C 
HETATM   31  C15 UNL     1      69.801  -5.404 103.647  1.00  0.00     0.012 C 
HETATM   32  C16 UNL     1      68.566  -3.271 103.885  1.00  0.00     0.012 C 
ENDBRANCH  26  30
ENDBRANCH  20  26
ENDBRANCH  10  13
ENDBRANCH   7   9
ENDBRANCH   5   7
TORSDOF 7
ENDMDL
