MODEL 1
REMARK VINA RESULT: -8.237613910      0.000      0.000
REMARK  6 active torsions:
REMARK  status: ('A' for Active; 'I' for Inactive)
REMARK       I    between atoms: C1_4  and  N3_6 
REMARK    1  A    between atoms: C5_10  and  C6_11 
REMARK       I    between atoms: C6_11  and  N4_13 
REMARK    2  A    between atoms: N4_13  and  C7_15 
REMARK    3  A    between atoms: C7_15  and  C8_16 
REMARK    4  A    between atoms: C7_15  and  C9_19 
REMARK    5  A    between atoms: C9_19  and  N6_21 
REMARK    6  A    between atoms: N6_21  and  C10_23 
ROOT
HETATM    1  C6  UNL     1      68.735  -3.219 100.407  1.00  0.00     0.224 C 
HETATM    2  O1  UNL     1      68.493  -4.053  99.499  1.00  0.00    -0.273 OA
HETATM    3  N4  UNL     1      69.314  -3.655 101.623  1.00  0.00    -0.342 N 
ATOM      4  H4  UNL     1      69.510  -2.980 102.362  1.00  0.00     0.163 HD
ENDROOT
BRANCH   3   5
HETATM    5  C7  UNL     1      69.630  -5.057 101.827  1.00  0.00     0.235 C 
BRANCH   5   6
HETATM    6  C8  UNL     1      71.056  -5.299 101.453  1.00  0.00     0.260 C 
HETATM    7  N5  UNL     1      71.826  -4.357 100.744  1.00  0.00    -0.060 NA
HETATM    8  O2  UNL     1      71.548  -6.422 101.817  1.00  0.00    -0.274 OA
ENDBRANCH   5   6
BRANCH   5   9
HETATM    9  C9  UNL     1      69.387  -5.472 103.225  1.00  0.00     0.105 C 
HETATM   10  S1  UNL     1      67.964  -6.160 103.612  1.00  0.00    -0.063 SA
BRANCH   9  11
HETATM   11  N6  UNL     1      70.356  -5.285 104.209  1.00  0.00    -0.378 N 
ATOM     12  H6  UNL     1      71.121  -5.957 104.260  1.00  0.00     0.160 HD
BRANCH  11  13
HETATM   13  C10 UNL     1      70.344  -4.196 105.166  1.00  0.00     0.086 C 
HETATM   14  C11 UNL     1      70.811  -2.898 104.609  1.00  0.00     0.051 C 
HETATM   15  C12 UNL     1      71.478  -2.115 105.740  1.00  0.00     0.169 C 
HETATM   16  O3  UNL     1      70.696  -2.239 106.911  1.00  0.00    -0.391 OA
HETATM   17  C13 UNL     1      70.829  -3.502 107.459  1.00  0.00     0.169 C 
HETATM   18  C14 UNL     1      71.154  -4.531 106.393  1.00  0.00     0.051 C 
ENDBRANCH  11  13
ENDBRANCH   9  11
ENDBRANCH   5   9
ENDBRANCH   3   5
BRANCH   1  19
HETATM   19  C5  UNL     1      68.395  -1.802 100.151  1.00  0.00     0.096 C 
HETATM   20  C4  UNL     1      68.332  -0.997 101.423  1.00  0.00     0.017 C 
HETATM   21  C3  UNL     1      67.563   0.277 101.283  1.00  0.00     0.021 C 
HETATM   22  C2  UNL     1      67.407   0.730  99.856  1.00  0.00     0.125 C 
HETATM   23  N3  UNL     1      66.978  -0.292  98.961  1.00  0.00    -0.355 N 
HETATM   24  C1  UNL     1      66.393   0.049  97.716  1.00  0.00     0.183 C 
HETATM   25  C15 UNL     1      67.142  -1.679  99.325  1.00  0.00     0.139 C 
HETATM   26  N1  UNL     1      65.132  -0.130  97.528  1.00  0.00    -0.374 N 
HETATM   27  N2  UNL     1      67.174   0.588  96.664  1.00  0.00    -0.064 NA
ATOM     28  H12 UNL     1      64.711   0.116  96.633  1.00  0.00     0.158 HD
ATOM     29  H11 UNL     1      64.570  -0.517  98.286  1.00  0.00     0.158 HD
ENDBRANCH   1  19
TORSDOF 6
ENDMDL
MODEL 2
REMARK VINA RESULT: -7.808954550      2.122      2.856
REMARK  6 active torsions:
REMARK  status: ('A' for Active; 'I' for Inactive)
REMARK       I    between atoms: C1_4  and  N3_6 
REMARK    1  A    between atoms: C5_10  and  C6_11 
REMARK       I    between atoms: C6_11  and  N4_13 
REMARK    2  A    between atoms: N4_13  and  C7_15 
REMARK    3  A    between atoms: C7_15  and  C8_16 
REMARK    4  A    between atoms: C7_15  and  C9_19 
REMARK    5  A    between atoms: C9_19  and  N6_21 
REMARK    6  A    between atoms: N6_21  and  C10_23 
ROOT
HETATM    1  C6  UNL     1      68.672  -2.528 100.731  1.00  0.00     0.224 C 
HETATM    2  O1  UNL     1      67.936  -3.493 100.402  1.00  0.00    -0.273 OA
HETATM    3  N4  UNL     1      69.815  -2.761 101.534  1.00  0.00    -0.342 N 
ATOM      4  H4  UNL     1      70.412  -1.979 101.804  1.00  0.00     0.163 HD
ENDROOT
BRANCH   3   5
HETATM    5  C7  UNL     1      70.141  -4.103 101.978  1.00  0.00     0.235 C 
BRANCH   5   6
HETATM    6  C8  UNL     1      71.362  -4.576 101.256  1.00  0.00     0.260 C 
HETATM    7  N5  UNL     1      71.938  -3.861 100.190  1.00  0.00    -0.060 NA
HETATM    8  O2  UNL     1      71.862  -5.680 101.665  1.00  0.00    -0.274 OA
ENDBRANCH   5   6
BRANCH   5   9
HETATM    9  C9  UNL     1      70.357  -4.156 103.440  1.00  0.00     0.105 C 
HETATM   10  S1  UNL     1      70.917  -2.835 104.207  1.00  0.00    -0.063 SA
BRANCH   9  11
HETATM   11  N6  UNL     1      70.087  -5.315 104.166  1.00  0.00    -0.378 N 
ATOM     12  H6  UNL     1      70.878  -5.873 104.485  1.00  0.00     0.160 HD
BRANCH  11  13
HETATM   13  C10 UNL     1      68.752  -5.778 104.495  1.00  0.00     0.086 C 
HETATM   14  C11 UNL     1      68.577  -6.147 105.925  1.00  0.00     0.051 C 
HETATM   15  C12 UNL     1      67.539  -7.266 105.996  1.00  0.00     0.169 C 
HETATM   16  O3  UNL     1      66.472  -6.963 105.120  1.00  0.00    -0.391 OA
HETATM   17  C13 UNL     1      66.851  -7.148 103.803  1.00  0.00     0.169 C 
HETATM   18  C14 UNL     1      68.343  -6.940 103.626  1.00  0.00     0.051 C 
ENDBRANCH  11  13
ENDBRANCH   9  11
ENDBRANCH   5   9
ENDBRANCH   3   5
BRANCH   1  19
HETATM   19  C5  UNL     1      68.295  -1.180 100.253  1.00  0.00     0.096 C 
HETATM   20  C4  UNL     1      68.207  -0.185 101.382  1.00  0.00     0.017 C 
HETATM   21  C3  UNL     1      67.404   1.029 101.042  1.00  0.00     0.021 C 
HETATM   22  C2  UNL     1      67.242   1.246  99.561  1.00  0.00     0.125 C 
HETATM   23  N3  UNL     1      66.843   0.084  98.839  1.00  0.00    -0.355 N 
HETATM   24  C1  UNL     1      66.255   0.208  97.557  1.00  0.00     0.183 C 
HETATM   25  C15 UNL     1      67.043  -1.223  99.420  1.00  0.00     0.139 C 
HETATM   26  N1  UNL     1      64.999  -0.033  97.400  1.00  0.00    -0.374 N 
HETATM   27  N2  UNL     1      67.025   0.593  96.432  1.00  0.00    -0.064 NA
ATOM     28  H12 UNL     1      64.576   0.057  96.477  1.00  0.00     0.158 HD
ATOM     29  H11 UNL     1      64.445  -0.310  98.211  1.00  0.00     0.158 HD
ENDBRANCH   1  19
TORSDOF 6
ENDMDL
MODEL 3
REMARK VINA RESULT: -7.791050622      1.138      1.497
REMARK  6 active torsions:
REMARK  status: ('A' for Active; 'I' for Inactive)
REMARK       I    between atoms: C1_4  and  N3_6 
REMARK    1  A    between atoms: C5_10  and  C6_11 
REMARK       I    between atoms: C6_11  and  N4_13 
REMARK    2  A    between atoms: N4_13  and  C7_15 
REMARK    3  A    between atoms: C7_15  and  C8_16 
REMARK    4  A    between atoms: C7_15  and  C9_19 
REMARK    5  A    between atoms: C9_19  and  N6_21 
REMARK    6  A    between atoms: N6_21  and  C10_23 
ROOT
HETATM    1  C6  UNL     1      68.644  -3.025  99.908  1.00  0.00     0.224 C 
HETATM    2  O1  UNL     1      68.380  -3.787  98.944  1.00  0.00    -0.273 OA
HETATM    3  N4  UNL     1      69.173  -3.567 101.105  1.00  0.00    -0.342 N 
ATOM      4  H4  UNL     1      69.388  -2.951 101.889  1.00  0.00     0.163 HD
ENDROOT
BRANCH   3   5
HETATM    5  C7  UNL     1      69.411  -4.994 101.224  1.00  0.00     0.235 C 
BRANCH   5   6
HETATM    6  C8  UNL     1      70.876  -5.235 101.397  1.00  0.00     0.260 C 
HETATM    7  N5  UNL     1      71.394  -6.454 101.874  1.00  0.00    -0.060 NA
HETATM    8  O2  UNL     1      71.646  -4.263 101.083  1.00  0.00    -0.274 OA
ENDBRANCH   5   6
BRANCH   5   9
HETATM    9  C9  UNL     1      68.658  -5.579 102.354  1.00  0.00     0.105 C 
HETATM   10  S1  UNL     1      67.993  -7.055 102.183  1.00  0.00    -0.063 SA
BRANCH   9  11
HETATM   11  N6  UNL     1      68.511  -4.889 103.555  1.00  0.00    -0.378 N 
ATOM     12  H6  UNL     1      67.568  -4.636 103.848  1.00  0.00     0.160 HD
BRANCH  11  13
HETATM   13  C10 UNL     1      69.615  -4.508 104.416  1.00  0.00     0.086 C 
HETATM   14  C11 UNL     1      69.530  -5.069 105.791  1.00  0.00     0.051 C 
HETATM   15  C12 UNL     1      70.188  -4.073 106.745  1.00  0.00     0.169 C 
HETATM   16  O3  UNL     1      71.380  -3.590 106.159  1.00  0.00    -0.391 OA
HETATM   17  C13 UNL     1      71.099  -2.704 105.134  1.00  0.00     0.169 C 
HETATM   18  C14 UNL     1      69.756  -3.008 104.497  1.00  0.00     0.051 C 
ENDBRANCH  11  13
ENDBRANCH   9  11
ENDBRANCH   5   9
ENDBRANCH   3   5
BRANCH   1  19
HETATM   19  C5  UNL     1      68.384  -1.579  99.736  1.00  0.00     0.096 C 
HETATM   20  C4  UNL     1      68.248  -0.869 101.059  1.00  0.00     0.017 C 
HETATM   21  C3  UNL     1      67.544   0.446 100.956  1.00  0.00     0.021 C 
HETATM   22  C2  UNL     1      67.526   1.011  99.561  1.00  0.00     0.125 C 
HETATM   23  N3  UNL     1      67.132   0.079  98.558  1.00  0.00    -0.355 N 
HETATM   24  C1  UNL     1      66.667   0.538  97.301  1.00  0.00     0.183 C 
HETATM   25  C15 UNL     1      67.210  -1.338  98.826  1.00  0.00     0.139 C 
HETATM   26  N1  UNL     1      65.419   0.432  97.000  1.00  0.00    -0.374 N 
HETATM   27  N2  UNL     1      67.554   1.117  96.359  1.00  0.00    -0.064 NA
ATOM     28  H12 UNL     1      65.085   0.762  96.095  1.00  0.00     0.158 HD
ATOM     29  H11 UNL     1      64.782   0.015  97.678  1.00  0.00     0.158 HD
ENDBRANCH   1  19
TORSDOF 6
ENDMDL
MODEL 4
REMARK VINA RESULT: -7.770698105      1.528      1.887
REMARK  6 active torsions:
REMARK  status: ('A' for Active; 'I' for Inactive)
REMARK       I    between atoms: C1_4  and  N3_6 
REMARK    1  A    between atoms: C5_10  and  C6_11 
REMARK       I    between atoms: C6_11  and  N4_13 
REMARK    2  A    between atoms: N4_13  and  C7_15 
REMARK    3  A    between atoms: C7_15  and  C8_16 
REMARK    4  A    between atoms: C7_15  and  C9_19 
REMARK    5  A    between atoms: C9_19  and  N6_21 
REMARK    6  A    between atoms: N6_21  and  C10_23 
ROOT
HETATM    1  C6  UNL     1      68.738  -2.959 100.315  1.00  0.00     0.224 C 
HETATM    2  O1  UNL     1      68.739  -3.754  99.342  1.00  0.00    -0.273 OA
HETATM    3  N4  UNL     1      69.110  -3.424 101.600  1.00  0.00    -0.342 N 
ATOM      4  H4  UNL     1      69.110  -2.780 102.391  1.00  0.00     0.163 HD
ENDROOT
BRANCH   3   5
HETATM    5  C7  UNL     1      69.492  -4.809 101.799  1.00  0.00     0.235 C 
BRANCH   5   6
HETATM    6  C8  UNL     1      70.906  -4.866 102.280  1.00  0.00     0.260 C 
HETATM    7  N5  UNL     1      71.741  -5.977 102.056  1.00  0.00    -0.060 NA
HETATM    8  O2  UNL     1      71.324  -3.837 102.914  1.00  0.00    -0.274 OA
ENDBRANCH   5   6
BRANCH   5   9
HETATM    9  C9  UNL     1      68.596  -5.489 102.758  1.00  0.00     0.105 C 
HETATM   10  S1  UNL     1      67.801  -6.829 102.288  1.00  0.00    -0.063 SA
BRANCH   9  11
HETATM   11  N6  UNL     1      68.424  -5.001 104.052  1.00  0.00    -0.378 N 
ATOM     12  H6  UNL     1      67.693  -4.306 104.207  1.00  0.00     0.160 HD
BRANCH  11  13
HETATM   13  C10 UNL     1      69.218  -5.417 105.192  1.00  0.00     0.086 C 
HETATM   14  C11 UNL     1      68.589  -6.493 106.005  1.00  0.00     0.051 C 
HETATM   15  C12 UNL     1      69.033  -6.304 107.455  1.00  0.00     0.169 C 
HETATM   16  O3  UNL     1      70.412  -5.996 107.480  1.00  0.00    -0.391 OA
HETATM   17  C13 UNL     1      70.633  -4.700 107.050  1.00  0.00     0.169 C 
HETATM   18  C14 UNL     1      69.554  -4.249 106.085  1.00  0.00     0.051 C 
ENDBRANCH  11  13
ENDBRANCH   9  11
ENDBRANCH   5   9
ENDBRANCH   3   5
BRANCH   1  19
HETATM   19  C5  UNL     1      68.341  -1.557 100.060  1.00  0.00     0.096 C 
HETATM   20  C4  UNL     1      68.221  -0.763 101.335  1.00  0.00     0.017 C 
HETATM   21  C3  UNL     1      67.399   0.477 101.188  1.00  0.00     0.021 C 
HETATM   22  C2  UNL     1      67.250   0.932  99.761  1.00  0.00     0.125 C 
HETATM   23  N3  UNL     1      66.881  -0.103  98.852  1.00  0.00    -0.355 N 
HETATM   24  C1  UNL     1      66.305   0.220  97.599  1.00  0.00     0.183 C 
HETATM   25  C15 UNL     1      67.099  -1.484  99.213  1.00  0.00     0.139 C 
HETATM   26  N1  UNL     1      65.056  -0.012  97.387  1.00  0.00    -0.374 N 
HETATM   27  N2  UNL     1      67.080   0.799  96.564  1.00  0.00    -0.064 NA
ATOM     28  H12 UNL     1      64.641   0.220  96.485  1.00  0.00     0.158 HD
ATOM     29  H11 UNL     1      64.498  -0.429  98.133  1.00  0.00     0.158 HD
ENDBRANCH   1  19
TORSDOF 6
ENDMDL
MODEL 5
REMARK VINA RESULT: -7.747650509      2.211      2.845
REMARK  6 active torsions:
REMARK  status: ('A' for Active; 'I' for Inactive)
REMARK       I    between atoms: C1_4  and  N3_6 
REMARK    1  A    between atoms: C5_10  and  C6_11 
REMARK       I    between atoms: C6_11  and  N4_13 
REMARK    2  A    between atoms: N4_13  and  C7_15 
REMARK    3  A    between atoms: C7_15  and  C8_16 
REMARK    4  A    between atoms: C7_15  and  C9_19 
REMARK    5  A    between atoms: C9_19  and  N6_21 
REMARK    6  A    between atoms: N6_21  and  C10_23 
ROOT
HETATM    1  C6  UNL     1      68.937  -3.161  99.903  1.00  0.00     0.224 C 
HETATM    2  O1  UNL     1      68.714  -3.935  98.937  1.00  0.00    -0.273 OA
HETATM    3  N4  UNL     1      69.605  -3.649 101.051  1.00  0.00    -0.342 N 
ATOM      4  H4  UNL     1      69.787  -3.023 101.836  1.00  0.00     0.163 HD
ENDROOT
BRANCH   3   5
HETATM    5  C7  UNL     1      70.034  -5.034 101.120  1.00  0.00     0.235 C 
BRANCH   5   6
HETATM    6  C8  UNL     1      71.119  -5.163 102.140  1.00  0.00     0.260 C 
HETATM    7  N5  UNL     1      72.073  -6.198 102.108  1.00  0.00    -0.060 NA
HETATM    8  O2  UNL     1      71.136  -4.271 103.057  1.00  0.00    -0.274 OA
ENDBRANCH   5   6
BRANCH   5   9
HETATM    9  C9  UNL     1      68.910  -5.936 101.449  1.00  0.00     0.105 C 
HETATM   10  S1  UNL     1      68.645  -7.244 100.518  1.00  0.00    -0.063 SA
BRANCH   9  11
HETATM   11  N6  UNL     1      68.080  -5.684 102.540  1.00  0.00    -0.378 N 
ATOM     12  H6  UNL     1      67.409  -4.921 102.463  1.00  0.00     0.160 HD
BRANCH  11  13
HETATM   13  C10 UNL     1      68.111  -6.438 103.779  1.00  0.00     0.086 C 
HETATM   14  C11 UNL     1      66.996  -7.412 103.920  1.00  0.00     0.051 C 
HETATM   15  C12 UNL     1      66.669  -7.538 105.408  1.00  0.00     0.169 C 
HETATM   16  O3  UNL     1      67.876  -7.602 106.142  1.00  0.00    -0.391 OA
HETATM   17  C13 UNL     1      68.487  -6.363 106.192  1.00  0.00     0.169 C 
HETATM   18  C14 UNL     1      68.131  -5.525 104.979  1.00  0.00     0.051 C 
ENDBRANCH  11  13
ENDBRANCH   9  11
ENDBRANCH   5   9
ENDBRANCH   3   5
BRANCH   1  19
HETATM   19  C5  UNL     1      68.480  -1.759  99.783  1.00  0.00     0.096 C 
HETATM   20  C4  UNL     1      68.327  -1.098 101.129  1.00  0.00     0.017 C 
HETATM   21  C3  UNL     1      67.453   0.114 101.099  1.00  0.00     0.021 C 
HETATM   22  C2  UNL     1      67.282   0.698  99.722  1.00  0.00     0.125 C 
HETATM   23  N3  UNL     1      66.958  -0.259  98.717  1.00  0.00    -0.355 N 
HETATM   24  C1  UNL     1      66.367   0.159  97.499  1.00  0.00     0.183 C 
HETATM   25  C15 UNL     1      67.235  -1.658  98.943  1.00  0.00     0.139 C 
HETATM   26  N1  UNL     1      65.128  -0.106  97.262  1.00  0.00    -0.374 N 
HETATM   27  N2  UNL     1      67.115   0.867  96.527  1.00  0.00    -0.064 NA
ATOM     28  H12 UNL     1      64.703   0.195  96.386  1.00  0.00     0.158 HD
ATOM     29  H11 UNL     1      64.590  -0.616  97.962  1.00  0.00     0.158 HD
ENDBRANCH   1  19
TORSDOF 6
ENDMDL
