MODEL 1
REMARK VINA RESULT: -7.507475793      0.000      0.000
REMARK  6 active torsions:
REMARK  status: ('A' for Active; 'I' for Inactive)
REMARK    1  A    between atoms: C3_5  and  C4_6 
REMARK    2  A    between atoms: C3_5  and  N4_17 
REMARK    3  A    between atoms: C4_6  and  C5_8 
REMARK    4  A    between atoms: C5_8  and  N3_9 
REMARK    5  A    between atoms: C5_8  and  C8_14 
REMARK       I    between atoms: N3_9  and  C6_11 
REMARK       I    between atoms: N5_20  and  C13_21 
REMARK    6  A    between atoms: C15_27  and  C16_28 
ROOT
HETATM    1  C1  UNL     1      67.887  -1.175 101.014  1.00  0.00     0.037 C 
HETATM    2  C2  UNL     1      68.560  -1.498 101.956  1.00  0.00     0.001 C 
HETATM    3  N1  UNL     1      69.310  -1.841 103.035  1.00  0.00    -0.300 N 
ATOM      4  H1  UNL     1      69.226  -1.202 103.825  1.00  0.00     0.177 HD
HETATM    5  C3  UNL     1      70.097  -2.815 103.235  1.00  0.00     0.138 C 
ENDROOT
BRANCH   5   6
HETATM    6  C4  UNL     1      70.862  -3.091 104.451  1.00  0.00     0.117 C 
HETATM    7  N2  UNL     1      71.837  -2.015 104.663  1.00  0.00    -0.096 NA
BRANCH   6   8
HETATM    8  C5  UNL     1      70.234  -3.566 105.678  1.00  0.00     0.064 C 
BRANCH   8   9
HETATM    9  N3  UNL     1      69.526  -4.841 105.444  1.00  0.00    -0.326 N 
HETATM   10  C6  UNL     1      68.183  -4.952 105.088  1.00  0.00     0.218 C 
HETATM   11  C7  UNL     1      67.566  -6.278 104.875  1.00  0.00     0.117 C 
HETATM   12  O1  UNL     1      67.488  -3.917 104.945  1.00  0.00    -0.274 OA
ATOM     13  H3  UNL     1      70.059  -5.705 105.551  1.00  0.00     0.169 HD
ENDBRANCH   8   9
BRANCH   8  14
HETATM   14  C8  UNL     1      70.921  -3.562 106.985  1.00  0.00    -0.059 C 
HETATM   15  C9  UNL     1      70.500  -2.515 107.967  1.00  0.00     0.045 C 
HETATM   16  C10 UNL     1      71.284  -4.887 107.546  1.00  0.00     0.045 C 
ENDBRANCH   8  14
ENDBRANCH   6   8
ENDBRANCH   5   6
BRANCH   5  17
HETATM   17  N4  UNL     1      70.259  -3.707 102.085  1.00  0.00    -0.347 N 
HETATM   18  C11 UNL     1      71.079  -3.311 100.968  1.00  0.00     0.145 C 
HETATM   19  C12 UNL     1      70.617  -3.862  99.663  1.00  0.00     0.145 C 
HETATM   20  N5  UNL     1      69.425  -4.630  99.664  1.00  0.00    -0.352 N 
HETATM   21  C13 UNL     1      68.946  -5.209  98.429  1.00  0.00     0.184 C 
HETATM   22  C14 UNL     1      68.629  -4.888 100.817  1.00  0.00     0.162 C 
HETATM   23  N6  UNL     1      69.095  -6.454  98.144  1.00  0.00    -0.374 N 
HETATM   24  N7  UNL     1      68.283  -4.380  97.485  1.00  0.00    -0.064 NA
ATOM     25  H62 UNL     1      69.571  -7.049  98.822  1.00  0.00     0.158 HD
ATOM     26  H61 UNL     1      68.758  -6.862  97.273  1.00  0.00     0.158 HD
HETATM   27  C15 UNL     1      69.604  -4.978 102.010  1.00  0.00     0.205 C 
BRANCH  27  28
HETATM   28  C16 UNL     1      70.477  -6.122 101.715  1.00  0.00     0.198 C 
HETATM   29  O2  UNL     1      71.693  -6.213 101.901  1.00  0.00    -0.646 OA
HETATM   30  O3  UNL     1      69.847  -7.250 101.155  1.00  0.00    -0.646 OA
ENDBRANCH  27  28
ENDBRANCH   5  17
TORSDOF 6
ENDMDL
MODEL 2
REMARK VINA RESULT: -6.798776672      3.454      7.103
REMARK  6 active torsions:
REMARK  status: ('A' for Active; 'I' for Inactive)
REMARK    1  A    between atoms: C3_5  and  C4_6 
REMARK    2  A    between atoms: C3_5  and  N4_17 
REMARK    3  A    between atoms: C4_6  and  C5_8 
REMARK    4  A    between atoms: C5_8  and  N3_9 
REMARK    5  A    between atoms: C5_8  and  C8_14 
REMARK       I    between atoms: N3_9  and  C6_11 
REMARK       I    between atoms: N5_20  and  C13_21 
REMARK    6  A    between atoms: C15_27  and  C16_28 
ROOT
HETATM    1  C1  UNL     1      69.372  -5.261  98.000  1.00  0.00     0.037 C 
HETATM    2  C2  UNL     1      68.784  -4.217  98.093  1.00  0.00     0.001 C 
HETATM    3  N1  UNL     1      68.109  -3.040  98.171  1.00  0.00    -0.300 N 
ATOM      4  H1  UNL     1      67.616  -2.781  97.317  1.00  0.00     0.177 HD
HETATM    5  C3  UNL     1      67.984  -2.206  99.118  1.00  0.00     0.138 C 
ENDROOT
BRANCH   5   6
HETATM    6  C4  UNL     1      67.224  -0.957  99.093  1.00  0.00     0.117 C 
HETATM    7  N2  UNL     1      67.861   0.016  99.989  1.00  0.00    -0.096 NA
BRANCH   6   8
HETATM    8  C5  UNL     1      66.719  -0.374  97.855  1.00  0.00     0.064 C 
BRANCH   8   9
HETATM    9  N3  UNL     1      65.380  -0.907  97.533  1.00  0.00    -0.326 N 
HETATM   10  C6  UNL     1      65.113  -1.835  96.529  1.00  0.00     0.218 C 
HETATM   11  C7  UNL     1      63.734  -2.309  96.286  1.00  0.00     0.117 C 
HETATM   12  O1  UNL     1      66.052  -2.278  95.823  1.00  0.00    -0.274 OA
ATOM     13  H3  UNL     1      64.591  -0.570  98.086  1.00  0.00     0.169 HD
ENDBRANCH   8   9
BRANCH   8  14
HETATM   14  C8  UNL     1      66.815   1.068  97.549  1.00  0.00    -0.059 C 
HETATM   15  C9  UNL     1      67.844   1.479  96.545  1.00  0.00     0.045 C 
HETATM   16  C10 UNL     1      65.540   1.827  97.539  1.00  0.00     0.045 C 
ENDBRANCH   8  14
ENDBRANCH   6   8
ENDBRANCH   5   6
BRANCH   5  17
HETATM   17  N4  UNL     1      68.733  -2.549 100.328  1.00  0.00    -0.347 N 
HETATM   18  C11 UNL     1      70.167  -2.412 100.360  1.00  0.00     0.145 C 
HETATM   19  C12 UNL     1      70.842  -3.402 101.245  1.00  0.00     0.145 C 
HETATM   20  N5  UNL     1      70.026  -4.375 101.879  1.00  0.00    -0.352 N 
HETATM   21  C13 UNL     1      70.628  -5.342 102.768  1.00  0.00     0.184 C 
HETATM   22  C14 UNL     1      68.616  -4.484 101.708  1.00  0.00     0.162 C 
HETATM   23  N6  UNL     1      70.554  -5.246 104.048  1.00  0.00    -0.374 N 
HETATM   24  N7  UNL     1      71.331  -6.447 102.218  1.00  0.00    -0.064 NA
ATOM     25  H62 UNL     1      70.049  -4.453 104.443  1.00  0.00     0.158 HD
ATOM     26  H61 UNL     1      70.978  -5.930 104.675  1.00  0.00     0.158 HD
HETATM   27  C15 UNL     1      68.087  -3.048 101.506  1.00  0.00     0.205 C 
BRANCH  27  28
HETATM   28  C16 UNL     1      68.404  -2.337 102.750  1.00  0.00     0.198 C 
HETATM   29  O2  UNL     1      68.823  -1.183 102.876  1.00  0.00    -0.646 OA
HETATM   30  O3  UNL     1      68.204  -3.060 103.942  1.00  0.00    -0.646 OA
ENDBRANCH  27  28
ENDBRANCH   5  17
TORSDOF 6
ENDMDL
MODEL 3
REMARK VINA RESULT: -6.773047962      2.156      6.008
REMARK  6 active torsions:
REMARK  status: ('A' for Active; 'I' for Inactive)
REMARK    1  A    between atoms: C3_5  and  C4_6 
REMARK    2  A    between atoms: C3_5  and  N4_17 
REMARK    3  A    between atoms: C4_6  and  C5_8 
REMARK    4  A    between atoms: C5_8  and  N3_9 
REMARK    5  A    between atoms: C5_8  and  C8_14 
REMARK       I    between atoms: N3_9  and  C6_11 
REMARK       I    between atoms: N5_20  and  C13_21 
REMARK    6  A    between atoms: C15_27  and  C16_28 
ROOT
HETATM    1  C1  UNL     1      72.695  -1.032 103.367  1.00  0.00     0.037 C 
HETATM    2  C2  UNL     1      71.666  -1.132 102.755  1.00  0.00     0.001 C 
HETATM    3  N1  UNL     1      70.509  -1.221 102.048  1.00  0.00    -0.300 N 
ATOM      4  H1  UNL     1      70.370  -0.469 101.373  1.00  0.00     0.177 HD
HETATM    5  C3  UNL     1      69.570  -2.074 102.078  1.00  0.00     0.138 C 
ENDROOT
BRANCH   5   6
HETATM    6  C4  UNL     1      68.357  -2.073 101.262  1.00  0.00     0.117 C 
HETATM    7  N2  UNL     1      67.324  -1.275 101.933  1.00  0.00    -0.096 NA
BRANCH   6   8
HETATM    8  C5  UNL     1      68.389  -1.899  99.815  1.00  0.00     0.064 C 
BRANCH   8   9
HETATM    9  N3  UNL     1      68.335  -3.206  99.129  1.00  0.00    -0.326 N 
HETATM   10  C6  UNL     1      69.438  -4.018  98.876  1.00  0.00     0.218 C 
HETATM   11  C7  UNL     1      69.278  -5.313  98.181  1.00  0.00     0.117 C 
HETATM   12  O1  UNL     1      70.581  -3.650  99.241  1.00  0.00    -0.274 OA
ATOM     13  H3  UNL     1      67.422  -3.539  98.817  1.00  0.00     0.169 HD
ENDBRANCH   8   9
BRANCH   8  14
HETATM   14  C8  UNL     1      67.578  -0.885  99.110  1.00  0.00    -0.059 C 
HETATM   15  C9  UNL     1      67.996   0.543  99.268  1.00  0.00     0.045 C 
HETATM   16  C10 UNL     1      67.039  -1.274  97.784  1.00  0.00     0.045 C 
ENDBRANCH   8  14
ENDBRANCH   6   8
ENDBRANCH   5   6
BRANCH   5  17
HETATM   17  N4  UNL     1      69.743  -3.126 103.082  1.00  0.00    -0.347 N 
HETATM   18  C11 UNL     1      70.456  -4.335 102.754  1.00  0.00     0.145 C 
HETATM   19  C12 UNL     1      69.967  -5.535 103.490  1.00  0.00     0.145 C 
HETATM   20  N5  UNL     1      68.851  -5.364 104.348  1.00  0.00    -0.352 N 
HETATM   21  C13 UNL     1      68.353  -6.491 105.106  1.00  0.00     0.184 C 
HETATM   22  C14 UNL     1      68.152  -4.136 104.534  1.00  0.00     0.162 C 
HETATM   23  N6  UNL     1      68.596  -6.644 106.359  1.00  0.00    -0.374 N 
HETATM   24  N7  UNL     1      67.563  -7.472 104.451  1.00  0.00    -0.064 NA
ATOM     25  H62 UNL     1      69.163  -5.939 106.829  1.00  0.00     0.158 HD
ATOM     26  H61 UNL     1      68.245  -7.439 106.893  1.00  0.00     0.158 HD
HETATM   27  C15 UNL     1      69.202  -3.013 104.403  1.00  0.00     0.205 C 
BRANCH  27  28
HETATM   28  C16 UNL     1      70.155  -3.238 105.498  1.00  0.00     0.198 C 
HETATM   29  O2  UNL     1      71.386  -3.259 105.435  1.00  0.00    -0.646 OA
HETATM   30  O3  UNL     1      69.591  -3.453 106.770  1.00  0.00    -0.646 OA
ENDBRANCH  27  28
ENDBRANCH   5  17
TORSDOF 6
ENDMDL
MODEL 4
REMARK VINA RESULT: -6.731644011      2.187      6.408
REMARK  6 active torsions:
REMARK  status: ('A' for Active; 'I' for Inactive)
REMARK    1  A    between atoms: C3_5  and  C4_6 
REMARK    2  A    between atoms: C3_5  and  N4_17 
REMARK    3  A    between atoms: C4_6  and  C5_8 
REMARK    4  A    between atoms: C5_8  and  N3_9 
REMARK    5  A    between atoms: C5_8  and  C8_14 
REMARK       I    between atoms: N3_9  and  C6_11 
REMARK       I    between atoms: N5_20  and  C13_21 
REMARK    6  A    between atoms: C15_27  and  C16_28 
ROOT
HETATM    1  C1  UNL     1      68.295  -0.804 102.214  1.00  0.00     0.037 C 
HETATM    2  C2  UNL     1      68.485  -1.448 101.217  1.00  0.00     0.001 C 
HETATM    3  N1  UNL     1      68.691  -2.154 100.074  1.00  0.00    -0.300 N 
ATOM      4  H1  UNL     1      68.491  -1.635  99.219  1.00  0.00     0.177 HD
HETATM    5  C3  UNL     1      69.089  -3.342  99.882  1.00  0.00     0.138 C 
ENDROOT
BRANCH   5   6
HETATM    6  C4  UNL     1      69.279  -4.007  98.593  1.00  0.00     0.117 C 
HETATM    7  N2  UNL     1      70.659  -4.500  98.502  1.00  0.00    -0.096 NA
BRANCH   6   8
HETATM    8  C5  UNL     1      68.290  -4.919  98.031  1.00  0.00     0.064 C 
BRANCH   8   9
HETATM    9  N3  UNL     1      67.602  -4.300  96.880  1.00  0.00    -0.326 N 
HETATM   10  C6  UNL     1      66.652  -3.285  96.973  1.00  0.00     0.218 C 
HETATM   11  C7  UNL     1      66.019  -2.730  95.758  1.00  0.00     0.117 C 
HETATM   12  O1  UNL     1      66.328  -2.834  98.099  1.00  0.00    -0.274 OA
ATOM     13  H3  UNL     1      67.839  -4.640  95.948  1.00  0.00     0.169 HD
ENDBRANCH   8   9
BRANCH   8  14
HETATM   14  C8  UNL     1      68.562  -6.351  97.792  1.00  0.00    -0.059 C 
HETATM   15  C9  UNL     1      68.555  -7.250  98.987  1.00  0.00     0.045 C 
HETATM   16  C10 UNL     1      68.030  -6.923  96.530  1.00  0.00     0.045 C 
ENDBRANCH   8  14
ENDBRANCH   6   8
ENDBRANCH   5   6
BRANCH   5  17
HETATM   17  N4  UNL     1      69.328  -4.105 101.109  1.00  0.00    -0.347 N 
HETATM   18  C11 UNL     1      68.224  -4.678 101.836  1.00  0.00     0.145 C 
HETATM   19  C12 UNL     1      68.453  -4.754 103.306  1.00  0.00     0.145 C 
HETATM   20  N5  UNL     1      69.664  -4.211 103.808  1.00  0.00    -0.352 N 
HETATM   21  C13 UNL     1      69.947  -4.283 105.224  1.00  0.00     0.184 C 
HETATM   22  C14 UNL     1      70.659  -3.576 103.009  1.00  0.00     0.162 C 
HETATM   23  N6  UNL     1      70.767  -5.138 105.723  1.00  0.00    -0.374 N 
HETATM   24  N7  UNL     1      69.300  -3.378 106.107  1.00  0.00    -0.064 NA
ATOM     25  H62 UNL     1      71.231  -5.787 105.089  1.00  0.00     0.158 HD
ATOM     26  H61 UNL     1      70.967  -5.188 106.722  1.00  0.00     0.158 HD
HETATM   27  C15 UNL     1      70.644  -4.293 101.643  1.00  0.00     0.205 C 
BRANCH  27  28
HETATM   28  C16 UNL     1      71.018  -5.685 101.927  1.00  0.00     0.198 C 
HETATM   29  O2  UNL     1      70.578  -6.709 101.398  1.00  0.00    -0.646 OA
HETATM   30  O3  UNL     1      71.996  -5.868 102.923  1.00  0.00    -0.646 OA
ENDBRANCH  27  28
ENDBRANCH   5  17
TORSDOF 6
ENDMDL
MODEL 5
REMARK VINA RESULT: -6.659498136      2.719      5.892
REMARK  6 active torsions:
REMARK  status: ('A' for Active; 'I' for Inactive)
REMARK    1  A    between atoms: C3_5  and  C4_6 
REMARK    2  A    between atoms: C3_5  and  N4_17 
REMARK    3  A    between atoms: C4_6  and  C5_8 
REMARK    4  A    between atoms: C5_8  and  N3_9 
REMARK    5  A    between atoms: C5_8  and  C8_14 
REMARK       I    between atoms: N3_9  and  C6_11 
REMARK       I    between atoms: N5_20  and  C13_21 
REMARK    6  A    between atoms: C15_27  and  C16_28 
ROOT
HETATM    1  C1  UNL     1      72.639  -1.005 103.877  1.00  0.00     0.037 C 
HETATM    2  C2  UNL     1      71.806  -1.186 103.030  1.00  0.00     0.001 C 
HETATM    3  N1  UNL     1      70.873  -1.367 102.059  1.00  0.00    -0.300 N 
ATOM      4  H1  UNL     1      70.864  -0.639 101.345  1.00  0.00     0.177 HD
HETATM    5  C3  UNL     1      70.012  -2.280 101.882  1.00  0.00     0.138 C 
ENDROOT
BRANCH   5   6
HETATM    6  C4  UNL     1      69.047  -2.377 100.788  1.00  0.00     0.117 C 
HETATM    7  N2  UNL     1      68.176  -3.538 101.012  1.00  0.00    -0.096 NA
BRANCH   6   8
HETATM    8  C5  UNL     1      68.349  -1.212 100.256  1.00  0.00     0.064 C 
BRANCH   8   9
HETATM    9  N3  UNL     1      67.009  -1.587  99.760  1.00  0.00    -0.326 N 
HETATM   10  C6  UNL     1      66.528  -1.310  98.482  1.00  0.00     0.218 C 
HETATM   11  C7  UNL     1      65.169  -1.729  98.080  1.00  0.00     0.117 C 
HETATM   12  O1  UNL     1      67.254  -0.700  97.660  1.00  0.00    -0.274 OA
ATOM     13  H3  UNL     1      66.389  -2.085 100.400  1.00  0.00     0.169 HD
ENDBRANCH   8   9
BRANCH   8  14
HETATM   14  C8  UNL     1      68.324   0.093 100.946  1.00  0.00    -0.059 C 
HETATM   15  C9  UNL     1      68.636   1.300 100.120  1.00  0.00     0.045 C 
HETATM   16  C10 UNL     1      67.297   0.263 102.004  1.00  0.00     0.045 C 
ENDBRANCH   8  14
ENDBRANCH   6   8
ENDBRANCH   5   6
BRANCH   5  17
HETATM   17  N4  UNL     1      69.988  -3.300 102.933  1.00  0.00    -0.347 N 
HETATM   18  C11 UNL     1      70.652  -4.564 102.736  1.00  0.00     0.145 C 
HETATM   19  C12 UNL     1      69.996  -5.699 103.444  1.00  0.00     0.145 C 
HETATM   20  N5  UNL     1      68.798  -5.423 104.152  1.00  0.00    -0.352 N 
HETATM   21  C13 UNL     1      68.136  -6.483 104.878  1.00  0.00     0.184 C 
HETATM   22  C14 UNL     1      68.167  -4.146 104.209  1.00  0.00     0.162 C 
HETATM   23  N6  UNL     1      68.213  -6.600 106.156  1.00  0.00    -0.374 N 
HETATM   24  N7  UNL     1      67.366  -7.438 104.162  1.00  0.00    -0.064 NA
ATOM     25  H62 UNL     1      68.766  -5.914 106.669  1.00  0.00     0.158 HD
ATOM     26  H61 UNL     1      67.746  -7.349 106.668  1.00  0.00     0.158 HD
HETATM   27  C15 UNL     1      69.299  -3.098 104.173  1.00  0.00     0.205 C 
BRANCH  27  28
HETATM   28  C16 UNL     1      70.094  -3.338 105.384  1.00  0.00     0.198 C 
HETATM   29  O2  UNL     1      71.319  -3.456 105.474  1.00  0.00    -0.646 OA
HETATM   30  O3  UNL     1      69.368  -3.446 106.586  1.00  0.00    -0.646 OA
ENDBRANCH  27  28
ENDBRANCH   5  17
TORSDOF 6
ENDMDL
