MODEL 1
REMARK VINA RESULT: -7.307713934      0.000      0.000
REMARK  6 active torsions:
REMARK  status: ('A' for Active; 'I' for Inactive)
REMARK    1  A    between atoms: C2_2  and  N1_3 
REMARK    2  A    between atoms: C2_2  and  C11_18 
REMARK       I    between atoms: N1_3  and  C3_5 
REMARK    3  A    between atoms: C3_5  and  C4_7 
REMARK    4  A    between atoms: C4_7  and  N2_9 
REMARK       I    between atoms: N2_9  and  C6_11 
REMARK       I    between atoms: C6_11  and  N3_13 
REMARK       I    between atoms: C11_18  and  N4_20 
REMARK    5  A    between atoms: N4_20  and  C12_22 
REMARK    6  A    between atoms: C17_30  and  O4_31 
ROOT
HETATM    1  C1  UNL     1      67.998   0.521 101.425  1.00  0.00     0.042 C 
HETATM    2  C2  UNL     1      67.441  -0.776 100.891  1.00  0.00     0.172 C 
ENDROOT
BRANCH   2   3
HETATM    3  N1  UNL     1      67.379  -0.794  99.448  1.00  0.00    -0.346 N 
HETATM    4  C3  UNL     1      66.414  -1.536  98.726  1.00  0.00     0.240 C 
HETATM    5  O1  UNL     1      65.570  -2.214  99.357  1.00  0.00    -0.271 OA
ATOM      6  H1  UNL     1      68.063  -0.246  98.925  1.00  0.00     0.163 HD
BRANCH   4   7
HETATM    7  C4  UNL     1      66.363  -1.547  97.246  1.00  0.00     0.174 C 
HETATM    8  C5  UNL     1      66.611  -2.975  96.764  1.00  0.00     0.042 C 
BRANCH   7   9
HETATM    9  N2  UNL     1      65.092  -1.097  96.742  1.00  0.00    -0.330 N 
HETATM   10  C6  UNL     1      64.640   0.228  96.966  1.00  0.00     0.319 C 
HETATM   11  O2  UNL     1      65.423   0.982  97.632  1.00  0.00    -0.247 OA
HETATM   12  N3  UNL     1      63.399   0.691  96.481  1.00  0.00    -0.334 N 
HETATM   13  C7  UNL     1      62.841   1.999  96.642  1.00  0.00     0.127 C 
HETATM   14  C10 UNL     1      62.453  -0.072  95.727  1.00  0.00     0.127 C 
HETATM   15  C8  UNL     1      62.405   2.300  95.201  1.00  0.00     0.022 C 
HETATM   16  C9  UNL     1      62.009   0.936  94.673  1.00  0.00     0.022 C 
ATOM     17  H2  UNL     1      64.505  -1.744  96.215  1.00  0.00     0.165 HD
ENDBRANCH   7   9
ENDBRANCH   4   7
ENDBRANCH   2   3
BRANCH   2  18
HETATM   18  C11 UNL     1      68.307  -1.871 101.414  1.00  0.00     0.240 C 
HETATM   19  O3  UNL     1      68.972  -2.531 100.592  1.00  0.00    -0.271 OA
HETATM   20  N4  UNL     1      68.354  -2.134 102.809  1.00  0.00    -0.352 N 
ATOM     21  H4  UNL     1      67.800  -1.583 103.466  1.00  0.00     0.163 HD
BRANCH  20  22
HETATM   22  C12 UNL     1      69.206  -3.203 103.271  1.00  0.00     0.115 C 
HETATM   23  C13 UNL     1      70.075  -2.806 104.445  1.00  0.00     0.061 C 
HETATM   24  C14 UNL     1      70.612  -4.147 104.901  1.00  0.00     0.196 A 
HETATM   25  N5  UNL     1      70.508  -4.369 106.329  1.00  0.00    -0.070 N 
HETATM   26  C16 UNL     1      69.531  -5.130 104.580  1.00  0.00     0.073 A 
HETATM   27  C15 UNL     1      69.395  -5.263 106.070  1.00  0.00     0.242 A 
ATOM     28  H52 UNL     1      71.314  -4.685 106.866  1.00  0.00     0.277 HD
ATOM     29  H51 UNL     1      70.405  -3.584 106.971  1.00  0.00     0.277 HD
HETATM   30  C17 UNL     1      68.416  -4.347 103.910  1.00  0.00     0.148 C 
BRANCH  30  31
HETATM   31  O4  UNL     1      67.622  -3.785 104.908  1.00  0.00    -0.393 OA
ATOM     32  H4  UNL     1      67.352  -4.494 105.479  1.00  0.00     0.210 HD
ENDBRANCH  30  31
ENDBRANCH  20  22
ENDBRANCH   2  18
TORSDOF 6
ENDMDL
MODEL 2
REMARK VINA RESULT: -7.230308487      5.360      7.664
REMARK  6 active torsions:
REMARK  status: ('A' for Active; 'I' for Inactive)
REMARK    1  A    between atoms: C2_2  and  N1_3 
REMARK    2  A    between atoms: C2_2  and  C11_18 
REMARK       I    between atoms: N1_3  and  C3_5 
REMARK    3  A    between atoms: C3_5  and  C4_7 
REMARK    4  A    between atoms: C4_7  and  N2_9 
REMARK       I    between atoms: N2_9  and  C6_11 
REMARK       I    between atoms: C6_11  and  N3_13 
REMARK       I    between atoms: C11_18  and  N4_20 
REMARK    5  A    between atoms: N4_20  and  C12_22 
REMARK    6  A    between atoms: C17_30  and  O4_31 
ROOT
HETATM    1  C1  UNL     1      70.599  -3.060 107.027  1.00  0.00     0.042 C 
HETATM    2  C2  UNL     1      71.000  -2.914 105.579  1.00  0.00     0.172 C 
ENDROOT
BRANCH   2   3
HETATM    3  N1  UNL     1      69.862  -2.934 104.689  1.00  0.00    -0.346 N 
HETATM    4  C3  UNL     1      69.960  -3.273 103.319  1.00  0.00     0.240 C 
HETATM    5  O1  UNL     1      71.081  -3.570 102.843  1.00  0.00    -0.271 OA
ATOM      6  H1  UNL     1      68.946  -2.693 105.066  1.00  0.00     0.163 HD
BRANCH   4   7
HETATM    7  C4  UNL     1      68.785  -3.289 102.417  1.00  0.00     0.174 C 
HETATM    8  C5  UNL     1      68.323  -1.849 102.201  1.00  0.00     0.042 C 
BRANCH   7   9
HETATM    9  N2  UNL     1      69.087  -3.880 101.140  1.00  0.00    -0.330 N 
HETATM   10  C6  UNL     1      68.764  -5.232 100.862  1.00  0.00     0.319 C 
HETATM   11  O2  UNL     1      68.197  -5.877 101.803  1.00  0.00    -0.247 OA
HETATM   12  N3  UNL     1      69.049  -5.831  99.617  1.00  0.00    -0.334 N 
HETATM   13  C7  UNL     1      68.771  -7.179  99.222  1.00  0.00     0.127 C 
HETATM   14  C10 UNL     1      69.679  -5.196  98.501  1.00  0.00     0.127 C 
HETATM   15  C8  UNL     1      68.121  -6.943  97.852  1.00  0.00     0.022 C 
HETATM   16  C9  UNL     1      68.848  -5.719  97.335  1.00  0.00     0.022 C 
ATOM     17  H2  UNL     1      69.542  -3.315 100.422  1.00  0.00     0.165 HD
ENDBRANCH   7   9
ENDBRANCH   4   7
ENDBRANCH   2   3
BRANCH   2  18
HETATM   18  C11 UNL     1      71.760  -1.636 105.463  1.00  0.00     0.240 C 
HETATM   19  O3  UNL     1      71.524  -0.740 106.296  1.00  0.00    -0.271 OA
HETATM   20  N4  UNL     1      72.717  -1.472 104.426  1.00  0.00    -0.352 N 
ATOM     21  H4  UNL     1      72.895  -2.217 103.753  1.00  0.00     0.163 HD
BRANCH  20  22
HETATM   22  C12 UNL     1      73.430  -0.220 104.352  1.00  0.00     0.115 C 
HETATM   23  C13 UNL     1      74.859  -0.318 104.842  1.00  0.00     0.061 C 
HETATM   24  C14 UNL     1      75.437   1.003 104.380  1.00  0.00     0.196 A 
HETATM   25  N5  UNL     1      76.711   0.884 103.700  1.00  0.00    -0.070 N 
HETATM   26  C16 UNL     1      74.697   1.335 103.124  1.00  0.00     0.073 A 
HETATM   27  C15 UNL     1      76.019   1.113 102.446  1.00  0.00     0.242 A 
ATOM     28  H52 UNL     1      77.502   1.466 103.971  1.00  0.00     0.277 HD
ATOM     29  H51 UNL     1      77.293   0.056 103.828  1.00  0.00     0.277 HD
HETATM   30  C17 UNL     1      73.682   0.226 102.910  1.00  0.00     0.148 C 
BRANCH  30  31
HETATM   31  O4  UNL     1      74.325  -0.830 102.266  1.00  0.00    -0.393 OA
ATOM     32  H4  UNL     1      75.227  -0.564 102.132  1.00  0.00     0.210 HD
ENDBRANCH  30  31
ENDBRANCH  20  22
ENDBRANCH   2  18
TORSDOF 6
ENDMDL
MODEL 3
REMARK VINA RESULT: -7.147293231      3.215      4.348
REMARK  6 active torsions:
REMARK  status: ('A' for Active; 'I' for Inactive)
REMARK    1  A    between atoms: C2_2  and  N1_3 
REMARK    2  A    between atoms: C2_2  and  C11_18 
REMARK       I    between atoms: N1_3  and  C3_5 
REMARK    3  A    between atoms: C3_5  and  C4_7 
REMARK    4  A    between atoms: C4_7  and  N2_9 
REMARK       I    between atoms: N2_9  and  C6_11 
REMARK       I    between atoms: C6_11  and  N3_13 
REMARK       I    between atoms: C11_18  and  N4_20 
REMARK    5  A    between atoms: N4_20  and  C12_22 
REMARK    6  A    between atoms: C17_30  and  O4_31 
ROOT
HETATM    1  C1  UNL     1      66.292   1.420  97.460  1.00  0.00     0.042 C 
HETATM    2  C2  UNL     1      66.214   0.037  98.059  1.00  0.00     0.172 C 
ENDROOT
BRANCH   2   3
HETATM    3  N1  UNL     1      66.350  -1.001  97.064  1.00  0.00    -0.346 N 
HETATM    4  C3  UNL     1      65.371  -2.001  96.852  1.00  0.00     0.240 C 
HETATM    5  O1  UNL     1      64.334  -1.996  97.556  1.00  0.00    -0.271 OA
ATOM      6  H1  UNL     1      67.191  -1.014  96.486  1.00  0.00     0.163 HD
BRANCH   4   7
HETATM    7  C4  UNL     1      65.524  -3.061  95.829  1.00  0.00     0.174 C 
HETATM    8  C5  UNL     1      66.598  -4.038  96.302  1.00  0.00     0.042 C 
BRANCH   7   9
HETATM    9  N2  UNL     1      64.299  -3.783  95.606  1.00  0.00    -0.330 N 
HETATM   10  C6  UNL     1      63.587  -3.663  94.386  1.00  0.00     0.319 C 
HETATM   11  O2  UNL     1      64.096  -2.885  93.514  1.00  0.00    -0.247 OA
HETATM   12  N3  UNL     1      62.386  -4.363  94.146  1.00  0.00    -0.334 N 
HETATM   13  C7  UNL     1      61.584  -4.322  92.961  1.00  0.00     0.127 C 
HETATM   14  C10 UNL     1      61.735  -5.255  95.054  1.00  0.00     0.127 C 
HETATM   15  C8  UNL     1      61.356  -5.822  92.722  1.00  0.00     0.022 C 
HETATM   16  C9  UNL     1      61.308  -6.387  94.127  1.00  0.00     0.022 C 
ATOM     17  H2  UNL     1      63.937  -4.393  96.340  1.00  0.00     0.165 HD
ENDBRANCH   7   9
ENDBRANCH   4   7
ENDBRANCH   2   3
BRANCH   2  18
HETATM   18  C11 UNL     1      67.287  -0.053  99.091  1.00  0.00     0.240 C 
HETATM   19  O3  UNL     1      67.991   0.956  99.289  1.00  0.00    -0.271 OA
HETATM   20  N4  UNL     1      67.479  -1.263  99.810  1.00  0.00    -0.352 N 
ATOM     21  H4  UNL     1      66.893  -2.078  99.632  1.00  0.00     0.163 HD
BRANCH  20  22
HETATM   22  C12 UNL     1      68.528  -1.305 100.800  1.00  0.00     0.115 C 
HETATM   23  C13 UNL     1      68.015  -1.165 102.217  1.00  0.00     0.061 C 
HETATM   24  C14 UNL     1      69.238  -1.541 103.028  1.00  0.00     0.196 A 
HETATM   25  N5  UNL     1      68.974  -2.497 104.084  1.00  0.00    -0.070 N 
HETATM   26  C16 UNL     1      69.972  -2.537 102.188  1.00  0.00     0.073 A 
HETATM   27  C15 UNL     1      69.598  -3.517 103.265  1.00  0.00     0.242 A 
ATOM     28  H52 UNL     1      69.297  -2.324 105.035  1.00  0.00     0.277 HD
ATOM     29  H51 UNL     1      68.028  -2.626 104.444  1.00  0.00     0.277 HD
HETATM   30  C17 UNL     1      69.184  -2.683 100.898  1.00  0.00     0.148 C 
BRANCH  30  31
HETATM   31  O4  UNL     1      68.162  -3.605 101.118  1.00  0.00    -0.393 OA
ATOM     32  H4  UNL     1      68.566  -4.385 101.480  1.00  0.00     0.210 HD
ENDBRANCH  30  31
ENDBRANCH  20  22
ENDBRANCH   2  18
TORSDOF 6
ENDMDL
MODEL 4
REMARK VINA RESULT: -6.963763656      2.193      2.868
REMARK  6 active torsions:
REMARK  status: ('A' for Active; 'I' for Inactive)
REMARK    1  A    between atoms: C2_2  and  N1_3 
REMARK    2  A    between atoms: C2_2  and  C11_18 
REMARK       I    between atoms: N1_3  and  C3_5 
REMARK    3  A    between atoms: C3_5  and  C4_7 
REMARK    4  A    between atoms: C4_7  and  N2_9 
REMARK       I    between atoms: N2_9  and  C6_11 
REMARK       I    between atoms: C6_11  and  N3_13 
REMARK       I    between atoms: C11_18  and  N4_20 
REMARK    5  A    between atoms: N4_20  and  C12_22 
REMARK    6  A    between atoms: C17_30  and  O4_31 
ROOT
HETATM    1  C1  UNL     1      68.947  -3.464  99.283  1.00  0.00     0.042 C 
HETATM    2  C2  UNL     1      68.467  -2.119  99.772  1.00  0.00     0.172 C 
ENDROOT
BRANCH   2   3
HETATM    3  N1  UNL     1      67.194  -1.750  99.198  1.00  0.00    -0.346 N 
HETATM    4  C3  UNL     1      66.959  -0.497  98.583  1.00  0.00     0.240 C 
HETATM    5  O1  UNL     1      67.891   0.339  98.528  1.00  0.00    -0.271 OA
ATOM      6  H1  UNL     1      66.428  -2.423  99.239  1.00  0.00     0.163 HD
BRANCH   4   7
HETATM    7  C4  UNL     1      65.648  -0.131  98.000  1.00  0.00     0.174 C 
HETATM    8  C5  UNL     1      65.756   1.275  97.411  1.00  0.00     0.042 C 
BRANCH   7   9
HETATM    9  N2  UNL     1      65.240  -1.042  96.963  1.00  0.00    -0.330 N 
HETATM   10  C6  UNL     1      63.917  -1.551  96.911  1.00  0.00     0.319 C 
HETATM   11  O2  UNL     1      63.128  -1.153  97.829  1.00  0.00    -0.247 OA
HETATM   12  N3  UNL     1      63.495  -2.443  95.904  1.00  0.00    -0.334 N 
HETATM   13  C7  UNL     1      62.193  -3.020  95.749  1.00  0.00     0.127 C 
HETATM   14  C10 UNL     1      64.299  -2.948  94.835  1.00  0.00     0.127 C 
HETATM   15  C8  UNL     1      61.947  -2.763  94.256  1.00  0.00     0.022 C 
HETATM   16  C9  UNL     1      63.334  -2.874  93.656  1.00  0.00     0.022 C 
ATOM     17  H2  UNL     1      65.914  -1.327  96.253  1.00  0.00     0.165 HD
ENDBRANCH   7   9
ENDBRANCH   4   7
ENDBRANCH   2   3
BRANCH   2  18
HETATM   18  C11 UNL     1      68.394  -2.196 101.259  1.00  0.00     0.240 C 
HETATM   19  O3  UNL     1      67.852  -1.252 101.865  1.00  0.00    -0.271 OA
HETATM   20  N4  UNL     1      68.935  -3.320 101.939  1.00  0.00    -0.352 N 
ATOM     21  H4  UNL     1      69.376  -4.082 101.424  1.00  0.00     0.163 HD
BRANCH  20  22
HETATM   22  C12 UNL     1      68.842  -3.353 103.378  1.00  0.00     0.115 C 
HETATM   23  C13 UNL     1      68.649  -4.748 103.931  1.00  0.00     0.061 C 
HETATM   24  C14 UNL     1      68.887  -4.532 105.411  1.00  0.00     0.196 A 
HETATM   25  N5  UNL     1      69.791  -5.494 106.009  1.00  0.00    -0.070 N 
HETATM   26  C16 UNL     1      69.881  -3.417 105.487  1.00  0.00     0.073 A 
HETATM   27  C15 UNL     1      70.815  -4.467 106.020  1.00  0.00     0.242 A 
ATOM     28  H52 UNL     1      69.536  -5.983 106.866  1.00  0.00     0.277 HD
ATOM     29  H51 UNL     1      69.963  -6.394 105.561  1.00  0.00     0.277 HD
HETATM   30  C17 UNL     1      70.162  -2.986 104.059  1.00  0.00     0.148 C 
BRANCH  30  31
HETATM   31  O4  UNL     1      71.137  -3.834 103.535  1.00  0.00    -0.393 OA
ATOM     32  H4  UNL     1      71.513  -4.309 104.268  1.00  0.00     0.210 HD
ENDBRANCH  30  31
ENDBRANCH  20  22
ENDBRANCH   2  18
TORSDOF 6
ENDMDL
MODEL 5
REMARK VINA RESULT: -6.958572997      1.389      1.675
REMARK  6 active torsions:
REMARK  status: ('A' for Active; 'I' for Inactive)
REMARK    1  A    between atoms: C2_2  and  N1_3 
REMARK    2  A    between atoms: C2_2  and  C11_18 
REMARK       I    between atoms: N1_3  and  C3_5 
REMARK    3  A    between atoms: C3_5  and  C4_7 
REMARK    4  A    between atoms: C4_7  and  N2_9 
REMARK       I    between atoms: N2_9  and  C6_11 
REMARK       I    between atoms: C6_11  and  N3_13 
REMARK       I    between atoms: C11_18  and  N4_20 
REMARK    5  A    between atoms: N4_20  and  C12_22 
REMARK    6  A    between atoms: C17_30  and  O4_31 
ROOT
HETATM    1  C1  UNL     1      67.649   1.618 101.096  1.00  0.00     0.042 C 
HETATM    2  C2  UNL     1      67.328   0.160 100.879  1.00  0.00     0.172 C 
ENDROOT
BRANCH   2   3
HETATM    3  N1  UNL     1      67.180  -0.167  99.480  1.00  0.00    -0.346 N 
HETATM    4  C3  UNL     1      66.951  -1.484  99.015  1.00  0.00     0.240 C 
HETATM    5  O1  UNL     1      66.873  -2.418  99.846  1.00  0.00    -0.271 OA
ATOM      6  H1  UNL     1      67.243   0.586  98.795  1.00  0.00     0.163 HD
BRANCH   4   7
HETATM    7  C4  UNL     1      66.802  -1.805  97.576  1.00  0.00     0.174 C 
HETATM    8  C5  UNL     1      67.388  -3.194  97.328  1.00  0.00     0.042 C 
BRANCH   7   9
HETATM    9  N2  UNL     1      65.425  -1.797  97.157  1.00  0.00    -0.330 N 
HETATM   10  C6  UNL     1      64.776  -0.591  96.789  1.00  0.00     0.319 C 
HETATM   11  O2  UNL     1      65.483   0.467  96.854  1.00  0.00    -0.247 OA
HETATM   12  N3  UNL     1      63.428  -0.560  96.374  1.00  0.00    -0.334 N 
HETATM   13  C7  UNL     1      62.671   0.590  95.980  1.00  0.00     0.127 C 
HETATM   14  C10 UNL     1      62.554  -1.686  96.268  1.00  0.00     0.127 C 
HETATM   15  C8  UNL     1      62.037   0.078  94.679  1.00  0.00     0.022 C 
HETATM   16  C9  UNL     1      61.830  -1.397  94.957  1.00  0.00     0.022 C 
ATOM     17  H2  UNL     1      64.907  -2.675  97.124  1.00  0.00     0.165 HD
ENDBRANCH   7   9
ENDBRANCH   4   7
ENDBRANCH   2   3
BRANCH   2  18
HETATM   18  C11 UNL     1      68.427  -0.628 101.510  1.00  0.00     0.240 C 
HETATM   19  O3  UNL     1      69.597  -0.373 101.167  1.00  0.00    -0.271 OA
HETATM   20  N4  UNL     1      68.120  -1.631 102.467  1.00  0.00    -0.352 N 
ATOM     21  H4  UNL     1      67.155  -1.825 102.733  1.00  0.00     0.163 HD
BRANCH  20  22
HETATM   22  C12 UNL     1      69.213  -2.368 103.052  1.00  0.00     0.115 C 
HETATM   23  C13 UNL     1      68.789  -3.239 104.216  1.00  0.00     0.061 C 
HETATM   24  C14 UNL     1      70.020  -4.096 104.426  1.00  0.00     0.196 A 
HETATM   25  N5  UNL     1      69.738  -5.512 104.552  1.00  0.00    -0.070 N 
HETATM   26  C16 UNL     1      70.628  -4.247 103.068  1.00  0.00     0.073 A 
HETATM   27  C15 UNL     1      70.236  -5.692 103.202  1.00  0.00     0.242 A 
ATOM     28  H52 UNL     1      70.124  -6.052 105.325  1.00  0.00     0.277 HD
ATOM     29  H51 UNL     1      68.806  -5.835 104.810  1.00  0.00     0.277 HD
HETATM   30  C17 UNL     1      69.764  -3.443 102.113  1.00  0.00     0.148 C 
BRANCH  30  31
HETATM   31  O4  UNL     1      68.685  -4.239 101.731  1.00  0.00    -0.393 OA
ATOM     32  H4  UNL     1      68.797  -4.432 100.807  1.00  0.00     0.210 HD
ENDBRANCH  30  31
ENDBRANCH  20  22
ENDBRANCH   2  18
TORSDOF 6
ENDMDL
