MODEL 1
REMARK VINA RESULT: -7.313867876      0.000      0.000
REMARK  6 active torsions:
REMARK  status: ('A' for Active; 'I' for Inactive)
REMARK       I    between atoms: C2_4  and  N2_5 
REMARK       I    between atoms: C2_4  and  N3_8 
REMARK    1  A    between atoms: N3_8  and  C4_10 
REMARK    2  A    between atoms: C4_10  and  C5_11 
REMARK    3  A    between atoms: C4_10  and  C7_14 
REMARK       I    between atoms: C7_14  and  N4_16 
REMARK    4  A    between atoms: C12_21  and  C13_22 
REMARK       I    between atoms: C13_22  and  N5_24 
REMARK    5  A    between atoms: N5_24  and  N6_26 
REMARK    6  A    between atoms: N6_26  and  C14_28 
ROOT
HETATM    1  C7  UNL     1      66.566  -1.018  98.823  1.00  0.00     0.251 C 
HETATM    2  O2  UNL     1      65.906  -2.030  99.248  1.00  0.00    -0.271 OA
HETATM    3  N4  UNL     1      65.967  -0.176  97.842  1.00  0.00    -0.337 N 
HETATM    4  C8  UNL     1      66.563   0.993  97.279  1.00  0.00     0.127 C 
HETATM    5  C9  UNL     1      65.682   2.177  97.438  1.00  0.00     0.020 C 
HETATM    6  C10 UNL     1      64.267   1.912  97.094  1.00  0.00     0.004 C 
HETATM    7  C11 UNL     1      63.906   0.530  96.697  1.00  0.00     0.035 C 
HETATM    8  C12 UNL     1      64.654  -0.560  97.357  1.00  0.00     0.181 C 
ENDROOT
BRANCH   1   9
HETATM    9  C4  UNL     1      67.901  -0.854  99.412  1.00  0.00     0.260 C 
BRANCH   9  10
HETATM   10  N3  UNL     1      68.351  -2.078 100.081  1.00  0.00    -0.206 N 
HETATM   11  C2  UNL     1      69.021  -3.153  99.472  1.00  0.00     0.670 C 
HETATM   12  N1  UNL     1      68.661  -3.824  98.458  1.00  0.00    -0.231 N 
HETATM   13  N2  UNL     1      70.279  -3.563 100.070  1.00  0.00    -0.231 N 
HETATM   14  C1  UNL     1      69.368  -4.915  97.866  1.00  0.00     0.165 C 
ATOM     15  H1  UNL     1      67.779  -3.558  98.020  1.00  0.00     0.177 HD
HETATM   16  C3  UNL     1      70.495  -4.846 100.668  1.00  0.00     0.165 C 
ATOM     17  H2  UNL     1      71.054  -2.899 100.063  1.00  0.00     0.177 HD
ATOM     18  H3  UNL     1      68.161  -2.157 101.080  1.00  0.00     0.179 HD
ENDBRANCH   9  10
BRANCH   9  19
HETATM   19  C5  UNL     1      68.065   0.322 100.298  1.00  0.00     0.155 C 
HETATM   20  C6  UNL     1      67.364   0.506 101.595  1.00  0.00     0.093 C 
HETATM   21  O1  UNL     1      68.822   1.258 100.006  1.00  0.00    -0.296 OA
ENDBRANCH   9  19
ENDBRANCH   1   9
BRANCH   8  22
HETATM   22  C13 UNL     1      64.820  -1.657  96.321  1.00  0.00     0.259 C 
HETATM   23  O3  UNL     1      65.965  -2.013  95.956  1.00  0.00    -0.269 OA
HETATM   24  N5  UNL     1      63.693  -2.295  95.756  1.00  0.00    -0.266 N 
ATOM     25  H5  UNL     1      62.750  -2.026  96.037  1.00  0.00     0.190 HD
BRANCH  24  26
HETATM   26  N6  UNL     1      63.890  -3.296  94.810  1.00  0.00    -0.276 N 
ATOM     27  H6  UNL     1      64.054  -2.998  93.849  1.00  0.00     0.189 HD
BRANCH  26  28
HETATM   28  C14 UNL     1      63.884  -4.678  95.055  1.00  0.00     0.199 C 
HETATM   29  N7  UNL     1      65.025  -5.381  95.517  1.00  0.00    -0.068 NA
HETATM   30  S1  UNL     1      62.525  -5.533  94.799  1.00  0.00    -0.043 SA
ENDBRANCH  26  28
ENDBRANCH  24  26
ENDBRANCH   8  22
TORSDOF 6
ENDMDL
MODEL 2
REMARK VINA RESULT: -7.304178171      5.127      8.903
REMARK  6 active torsions:
REMARK  status: ('A' for Active; 'I' for Inactive)
REMARK       I    between atoms: C2_4  and  N2_5 
REMARK       I    between atoms: C2_4  and  N3_8 
REMARK    1  A    between atoms: N3_8  and  C4_10 
REMARK    2  A    between atoms: C4_10  and  C5_11 
REMARK    3  A    between atoms: C4_10  and  C7_14 
REMARK       I    between atoms: C7_14  and  N4_16 
REMARK    4  A    between atoms: C12_21  and  C13_22 
REMARK       I    between atoms: C13_22  and  N5_24 
REMARK    5  A    between atoms: N5_24  and  N6_26 
REMARK    6  A    between atoms: N6_26  and  C14_28 
ROOT
HETATM    1  C7  UNL     1      69.411  -2.501 102.005  1.00  0.00     0.251 C 
HETATM    2  O2  UNL     1      69.347  -1.288 102.412  1.00  0.00    -0.271 OA
HETATM    3  N4  UNL     1      69.402  -3.547 102.973  1.00  0.00    -0.337 N 
HETATM    4  C8  UNL     1      69.453  -4.943 102.682  1.00  0.00     0.127 C 
HETATM    5  C9  UNL     1      68.316  -5.665 103.306  1.00  0.00     0.020 C 
HETATM    6  C10 UNL     1      68.073  -5.281 104.714  1.00  0.00     0.004 C 
HETATM    7  C11 UNL     1      68.930  -4.219 105.293  1.00  0.00     0.035 C 
HETATM    8  C12 UNL     1      69.369  -3.152 104.369  1.00  0.00     0.181 C 
ENDROOT
BRANCH   1   9
HETATM    9  C4  UNL     1      69.496  -2.664 100.548  1.00  0.00     0.260 C 
BRANCH   9  10
HETATM   10  N3  UNL     1      68.168  -2.685  99.929  1.00  0.00    -0.206 N 
HETATM   11  C2  UNL     1      67.636  -1.698  99.081  1.00  0.00     0.670 C 
HETATM   12  N1  UNL     1      67.527  -0.453  99.303  1.00  0.00    -0.231 N 
HETATM   13  N2  UNL     1      67.140  -2.141  97.791  1.00  0.00    -0.231 N 
HETATM   14  C1  UNL     1      66.978   0.523  98.418  1.00  0.00     0.165 C 
ATOM     15  H1  UNL     1      67.866  -0.116 100.204  1.00  0.00     0.177 HD
HETATM   16  C3  UNL     1      65.768  -2.047  97.391  1.00  0.00     0.165 C 
ATOM     17  H2  UNL     1      67.807  -2.541  97.131  1.00  0.00     0.177 HD
ATOM     18  H3  UNL     1      67.575  -3.490 100.130  1.00  0.00     0.179 HD
ENDBRANCH   9  10
BRANCH   9  19
HETATM   19  C5  UNL     1      70.313  -3.808 100.083  1.00  0.00     0.155 C 
HETATM   20  C6  UNL     1      69.800  -4.932  99.257  1.00  0.00     0.093 C 
HETATM   21  O1  UNL     1      71.517  -3.906 100.359  1.00  0.00    -0.296 OA
ENDBRANCH   9  19
ENDBRANCH   1   9
BRANCH   8  22
HETATM   22  C13 UNL     1      70.771  -2.760 104.797  1.00  0.00     0.259 C 
HETATM   23  O3  UNL     1      71.486  -3.569 105.436  1.00  0.00    -0.269 OA
HETATM   24  N5  UNL     1      71.294  -1.485 104.486  1.00  0.00    -0.266 N 
ATOM     25  H5  UNL     1      70.734  -0.808 103.966  1.00  0.00     0.190 HD
BRANCH  24  26
HETATM   26  N6  UNL     1      72.584  -1.167 104.898  1.00  0.00    -0.276 N 
ATOM     27  H6  UNL     1      72.838  -1.414 105.854  1.00  0.00     0.189 HD
BRANCH  26  28
HETATM   28  C14 UNL     1      73.569  -0.538 104.121  1.00  0.00     0.199 C 
HETATM   29  N7  UNL     1      73.474  -0.416 102.712  1.00  0.00    -0.068 NA
HETATM   30  S1  UNL     1      74.888   0.078 104.842  1.00  0.00    -0.043 SA
ENDBRANCH  26  28
ENDBRANCH  24  26
ENDBRANCH   8  22
TORSDOF 6
ENDMDL
MODEL 3
REMARK VINA RESULT: -7.296862208      4.680      7.933
REMARK  6 active torsions:
REMARK  status: ('A' for Active; 'I' for Inactive)
REMARK       I    between atoms: C2_4  and  N2_5 
REMARK       I    between atoms: C2_4  and  N3_8 
REMARK    1  A    between atoms: N3_8  and  C4_10 
REMARK    2  A    between atoms: C4_10  and  C5_11 
REMARK    3  A    between atoms: C4_10  and  C7_14 
REMARK       I    between atoms: C7_14  and  N4_16 
REMARK    4  A    between atoms: C12_21  and  C13_22 
REMARK       I    between atoms: C13_22  and  N5_24 
REMARK    5  A    between atoms: N5_24  and  N6_26 
REMARK    6  A    between atoms: N6_26  and  C14_28 
ROOT
HETATM    1  C7  UNL     1      69.847  -3.967 101.925  1.00  0.00     0.251 C 
HETATM    2  O2  UNL     1      69.835  -5.246 101.852  1.00  0.00    -0.271 OA
HETATM    3  N4  UNL     1      69.942  -3.359 103.210  1.00  0.00    -0.337 N 
HETATM    4  C8  UNL     1      69.981  -1.953 103.459  1.00  0.00     0.127 C 
HETATM    5  C9  UNL     1      71.174  -1.582 104.261  1.00  0.00     0.020 C 
HETATM    6  C10 UNL     1      71.412  -2.475 105.416  1.00  0.00     0.004 C 
HETATM    7  C11 UNL     1      70.493  -3.626 105.594  1.00  0.00     0.035 C 
HETATM    8  C12 UNL     1      69.969  -4.245 104.358  1.00  0.00     0.181 C 
ENDROOT
BRANCH   1   9
HETATM    9  C4  UNL     1      69.752  -3.269 100.637  1.00  0.00     0.260 C 
BRANCH   9  10
HETATM   10  N3  UNL     1      68.359  -2.982 100.280  1.00  0.00    -0.206 N 
HETATM   11  C2  UNL     1      67.886  -1.797  99.691  1.00  0.00     0.670 C 
HETATM   12  N1  UNL     1      68.040  -0.606 100.099  1.00  0.00    -0.231 N 
HETATM   13  N2  UNL     1      67.117  -1.936  98.468  1.00  0.00    -0.231 N 
HETATM   14  C1  UNL     1      67.541   0.578  99.476  1.00  0.00     0.165 C 
ATOM     15  H1  UNL     1      68.575  -0.481 100.959  1.00  0.00     0.177 HD
HETATM   16  C3  UNL     1      65.738  -1.568  98.348  1.00  0.00     0.165 C 
ATOM     17  H2  UNL     1      67.585  -2.317  97.645  1.00  0.00     0.177 HD
ATOM     18  H3  UNL     1      67.671  -3.709 100.476  1.00  0.00     0.179 HD
ENDBRANCH   9  10
BRANCH   9  19
HETATM   19  C5  UNL     1      70.463  -3.914  99.510  1.00  0.00     0.155 C 
HETATM   20  C6  UNL     1      69.797  -4.620  98.384  1.00  0.00     0.093 C 
HETATM   21  O1  UNL     1      71.699  -3.907  99.428  1.00  0.00    -0.296 OA
ENDBRANCH   9  19
ENDBRANCH   1   9
BRANCH   8  22
HETATM   22  C13 UNL     1      68.551  -4.688 104.667  1.00  0.00     0.259 C 
HETATM   23  O3  UNL     1      67.675  -3.840 104.962  1.00  0.00    -0.269 OA
HETATM   24  N5  UNL     1      68.193  -6.054 104.624  1.00  0.00    -0.266 N 
ATOM     25  H5  UNL     1      68.886  -6.764 104.385  1.00  0.00     0.190 HD
BRANCH  24  26
HETATM   26  N6  UNL     1      66.881  -6.416 104.913  1.00  0.00    -0.276 N 
ATOM     27  H6  UNL     1      66.324  -5.748 105.447  1.00  0.00     0.189 HD
BRANCH  26  28
HETATM   28  C14 UNL     1      66.252  -7.613 104.540  1.00  0.00     0.199 C 
HETATM   29  N7  UNL     1      65.304  -8.271 105.362  1.00  0.00    -0.068 NA
HETATM   30  S1  UNL     1      66.614  -8.298 103.111  1.00  0.00    -0.043 SA
ENDBRANCH  26  28
ENDBRANCH  24  26
ENDBRANCH   8  22
TORSDOF 6
ENDMDL
MODEL 4
REMARK VINA RESULT: -7.239543590      1.642      1.694
REMARK  6 active torsions:
REMARK  status: ('A' for Active; 'I' for Inactive)
REMARK       I    between atoms: C2_4  and  N2_5 
REMARK       I    between atoms: C2_4  and  N3_8 
REMARK    1  A    between atoms: N3_8  and  C4_10 
REMARK    2  A    between atoms: C4_10  and  C5_11 
REMARK    3  A    between atoms: C4_10  and  C7_14 
REMARK       I    between atoms: C7_14  and  N4_16 
REMARK    4  A    between atoms: C12_21  and  C13_22 
REMARK       I    between atoms: C13_22  and  N5_24 
REMARK    5  A    between atoms: N5_24  and  N6_26 
REMARK    6  A    between atoms: N6_26  and  C14_28 
ROOT
HETATM    1  C7  UNL     1      66.854  -1.273  99.309  1.00  0.00     0.251 C 
HETATM    2  O2  UNL     1      66.194  -2.299  99.700  1.00  0.00    -0.271 OA
HETATM    3  N4  UNL     1      66.354  -0.522  98.205  1.00  0.00    -0.337 N 
HETATM    4  C8  UNL     1      66.962   0.649  97.659  1.00  0.00     0.127 C 
HETATM    5  C9  UNL     1      66.005   1.784  97.622  1.00  0.00     0.020 C 
HETATM    6  C10 UNL     1      64.670   1.416  97.102  1.00  0.00     0.004 C 
HETATM    7  C11 UNL     1      64.441  -0.005  96.745  1.00  0.00     0.035 C 
HETATM    8  C12 UNL     1      65.146  -1.011  97.567  1.00  0.00     0.181 C 
ENDROOT
BRANCH   1   9
HETATM    9  C4  UNL     1      68.081  -0.997 100.065  1.00  0.00     0.260 C 
BRANCH   9  10
HETATM   10  N3  UNL     1      68.653  -2.221 100.633  1.00  0.00    -0.206 N 
HETATM   11  C2  UNL     1      69.372  -3.201  99.928  1.00  0.00     0.670 C 
HETATM   12  N1  UNL     1      69.015  -3.834  98.888  1.00  0.00    -0.231 N 
HETATM   13  N2  UNL     1      70.684  -3.547 100.443  1.00  0.00    -0.231 N 
HETATM   14  C1  UNL     1      69.772  -4.828  98.197  1.00  0.00     0.165 C 
ATOM     15  H1  UNL     1      68.096  -3.611  98.507  1.00  0.00     0.177 HD
HETATM   16  C3  UNL     1      71.024  -4.844 100.946  1.00  0.00     0.165 C 
ATOM     17  H2  UNL     1      71.406  -2.826 100.446  1.00  0.00     0.177 HD
ATOM     18  H3  UNL     1      68.517  -2.375 101.633  1.00  0.00     0.179 HD
ENDBRANCH   9  10
BRANCH   9  19
HETATM   19  C5  UNL     1      67.968   0.061 101.096  1.00  0.00     0.155 C 
HETATM   20  C6  UNL     1      68.000   1.519 100.816  1.00  0.00     0.093 C 
HETATM   21  O1  UNL     1      67.833  -0.210 102.298  1.00  0.00    -0.296 OA
ENDBRANCH   9  19
ENDBRANCH   1   9
BRANCH   8  22
HETATM   22  C13 UNL     1      65.514  -2.150  96.634  1.00  0.00     0.259 C 
HETATM   23  O3  UNL     1      65.014  -2.211  95.485  1.00  0.00    -0.269 OA
HETATM   24  N5  UNL     1      66.422  -3.153  97.038  1.00  0.00    -0.266 N 
ATOM     25  H5  UNL     1      66.845  -3.126  97.967  1.00  0.00     0.190 HD
BRANCH  24  26
HETATM   26  N6  UNL     1      66.732  -4.179  96.151  1.00  0.00    -0.276 N 
ATOM     27  H6  UNL     1      67.440  -3.980  95.444  1.00  0.00     0.189 HD
BRANCH  26  28
HETATM   28  C14 UNL     1      66.162  -5.461  96.137  1.00  0.00     0.199 C 
HETATM   29  N7  UNL     1      64.814  -5.698  95.767  1.00  0.00    -0.068 NA
HETATM   30  S1  UNL     1      67.062  -6.745  96.564  1.00  0.00    -0.043 SA
ENDBRANCH  26  28
ENDBRANCH  24  26
ENDBRANCH   8  22
TORSDOF 6
ENDMDL
MODEL 5
REMARK VINA RESULT: -7.206851240      2.234      2.677
REMARK  6 active torsions:
REMARK  status: ('A' for Active; 'I' for Inactive)
REMARK       I    between atoms: C2_4  and  N2_5 
REMARK       I    between atoms: C2_4  and  N3_8 
REMARK    1  A    between atoms: N3_8  and  C4_10 
REMARK    2  A    between atoms: C4_10  and  C5_11 
REMARK    3  A    between atoms: C4_10  and  C7_14 
REMARK       I    between atoms: C7_14  and  N4_16 
REMARK    4  A    between atoms: C12_21  and  C13_22 
REMARK       I    between atoms: C13_22  and  N5_24 
REMARK    5  A    between atoms: N5_24  and  N6_26 
REMARK    6  A    between atoms: N6_26  and  C14_28 
ROOT
HETATM    1  C7  UNL     1      66.890  -1.241  99.355  1.00  0.00     0.251 C 
HETATM    2  O2  UNL     1      66.261  -2.285  99.749  1.00  0.00    -0.271 OA
HETATM    3  N4  UNL     1      66.385  -0.525  98.231  1.00  0.00    -0.337 N 
HETATM    4  C8  UNL     1      66.960   0.660  97.680  1.00  0.00     0.127 C 
HETATM    5  C9  UNL     1      65.963   1.758  97.607  1.00  0.00     0.020 C 
HETATM    6  C10 UNL     1      64.653   1.333  97.067  1.00  0.00     0.004 C 
HETATM    7  C11 UNL     1      64.484  -0.101  96.727  1.00  0.00     0.035 C 
HETATM    8  C12 UNL     1      65.209  -1.068  97.578  1.00  0.00     0.181 C 
ENDROOT
BRANCH   1   9
HETATM    9  C4  UNL     1      68.090  -0.908 100.132  1.00  0.00     0.260 C 
BRANCH   9  10
HETATM   10  N3  UNL     1      68.334  -1.885 101.197  1.00  0.00    -0.206 N 
HETATM   11  C2  UNL     1      69.321  -1.793 102.192  1.00  0.00     0.670 C 
HETATM   12  N1  UNL     1      70.570  -1.627 102.041  1.00  0.00    -0.231 N 
HETATM   13  N2  UNL     1      68.875  -1.906 103.569  1.00  0.00    -0.231 N 
HETATM   14  C1  UNL     1      71.547  -1.540 103.079  1.00  0.00     0.165 C 
ATOM     15  H1  UNL     1      70.910  -1.547 101.083  1.00  0.00     0.177 HD
HETATM   16  C3  UNL     1      69.264  -2.968 104.447  1.00  0.00     0.165 C 
ATOM     17  H2  UNL     1      68.249  -1.187 103.932  1.00  0.00     0.177 HD
ATOM     18  H3  UNL     1      67.731  -2.708 101.217  1.00  0.00     0.179 HD
ENDBRANCH   9  10
BRANCH   9  19
HETATM   19  C5  UNL     1      68.142   0.474 100.662  1.00  0.00     0.155 C 
HETATM   20  C6  UNL     1      67.173   1.041 101.636  1.00  0.00     0.093 C 
HETATM   21  O1  UNL     1      69.024   1.273 100.319  1.00  0.00    -0.296 OA
ENDBRANCH   9  19
ENDBRANCH   1   9
BRANCH   8  22
HETATM   22  C13 UNL     1      65.638  -2.205  96.668  1.00  0.00     0.259 C 
HETATM   23  O3  UNL     1      65.171  -2.296  95.508  1.00  0.00    -0.269 OA
HETATM   24  N5  UNL     1      66.565  -3.175  97.110  1.00  0.00    -0.266 N 
ATOM     25  H5  UNL     1      66.961  -3.124  98.050  1.00  0.00     0.190 HD
BRANCH  24  26
HETATM   26  N6  UNL     1      66.931  -4.201  96.244  1.00  0.00    -0.276 N 
ATOM     27  H6  UNL     1      67.633  -3.981  95.538  1.00  0.00     0.189 HD
BRANCH  26  28
HETATM   28  C14 UNL     1      66.424  -5.509  96.252  1.00  0.00     0.199 C 
HETATM   29  N7  UNL     1      65.080  -5.815  95.922  1.00  0.00    -0.068 NA
HETATM   30  S1  UNL     1      67.398  -6.745  96.659  1.00  0.00    -0.043 SA
ENDBRANCH  26  28
ENDBRANCH  24  26
ENDBRANCH   8  22
TORSDOF 6
ENDMDL
