MODEL 1
REMARK VINA RESULT: -5.910951710      0.000      0.000
REMARK  4 active torsions:
REMARK  status: ('A' for Active; 'I' for Inactive)
REMARK    1  A    between atoms: O1_2  and  C2_3 
REMARK    2  A    between atoms: C2_3  and  C3_5 
REMARK    3  A    between atoms: C19_24  and  O6_25 
REMARK    4  A    between atoms: C19_24  and  O7_27 
ROOT
HETATM    1  C3  UNL     1     -15.787   3.911   7.872  1.00  0.00     0.206 C 
HETATM    2  C4  UNL     1     -16.823   4.114   6.780  1.00  0.00     0.066 C 
HETATM    3  O3  UNL     1     -14.516   4.124   7.439  1.00  0.00    -0.213 OA
HETATM    4  O4  UNL     1     -14.061   5.268   7.861  1.00  0.00    -0.223 OA
HETATM    5  C5  UNL     1     -14.612   5.477   9.128  1.00  0.00     0.122 C 
HETATM    6  C6  UNL     1     -13.710   4.638  10.057  1.00  0.00     0.055 C 
HETATM    7  C7  UNL     1     -15.929   4.895   8.970  1.00  0.00     0.002 C 
HETATM    8  C8  UNL     1     -17.029   5.173   9.659  1.00  0.00     0.006 C 
HETATM    9  C9  UNL     1     -17.335   6.098  10.750  1.00  0.00     0.082 C 
HETATM   10  C10 UNL     1     -16.444   7.274  10.868  1.00  0.00     0.028 C 
HETATM   11  C11 UNL     1     -15.773   7.585   9.536  1.00  0.00     0.009 C 
HETATM   12  C12 UNL     1     -14.455   6.874   9.529  1.00  0.00     0.023 C 
HETATM   13  C13 UNL     1     -13.672   7.106  10.803  1.00  0.00     0.013 C 
HETATM   14  C14 UNL     1     -17.782   5.536  12.016  1.00  0.00     0.074 C 
HETATM   15  C15 UNL     1     -17.423   5.234  13.242  1.00  0.00    -0.056 C 
HETATM   16  C16 UNL     1     -16.049   5.484  13.743  1.00  0.00     0.045 C 
HETATM   17  C17 UNL     1     -18.366   4.613  14.239  1.00  0.00     0.045 C 
HETATM   18  O5  UNL     1     -19.040   5.361  11.393  1.00  0.00    -0.311 OA
HETATM   19  C18 UNL     1     -18.774   6.550  10.726  1.00  0.00     0.130 C 
HETATM   20  C19 UNL     1     -19.491   7.541  10.310  1.00  0.00     0.210 C 
ENDROOT
BRANCH  20  21
HETATM   21  O6  UNL     1     -18.905   8.608   9.659  1.00  0.00    -0.339 OA
ATOM     22  H6  UNL     1     -18.939   9.482  10.033  1.00  0.00     0.220 HD
ENDBRANCH  20  21
BRANCH  20  23
HETATM   23  O7  UNL     1     -20.854   7.556  10.505  1.00  0.00    -0.334 OA
HETATM   24  C20 UNL     1     -21.481   7.929  11.717  1.00  0.00     0.212 C 
ENDBRANCH  20  23
BRANCH   1  25
HETATM   25  C2  UNL     1     -15.965   2.514   8.313  1.00  0.00     0.301 C 
HETATM   26  O2  UNL     1     -16.395   1.678   7.483  1.00  0.00    -0.261 OA
BRANCH  25  27
HETATM   27  O1  UNL     1     -15.685   2.067   9.590  1.00  0.00    -0.324 OA
HETATM   28  C1  UNL     1     -14.640   1.135   9.805  1.00  0.00     0.213 C 
ENDBRANCH  25  27
ENDBRANCH   1  25
TORSDOF 4
ENDMDL
MODEL 2
REMARK VINA RESULT: -5.515149095      2.898      6.473
REMARK  4 active torsions:
REMARK  status: ('A' for Active; 'I' for Inactive)
REMARK    1  A    between atoms: O1_2  and  C2_3 
REMARK    2  A    between atoms: C2_3  and  C3_5 
REMARK    3  A    between atoms: C19_24  and  O6_25 
REMARK    4  A    between atoms: C19_24  and  O7_27 
ROOT
HETATM    1  C3  UNL     1     -14.916   7.044   9.793  1.00  0.00     0.206 C 
HETATM    2  C4  UNL     1     -16.051   7.462   8.875  1.00  0.00     0.066 C 
HETATM    3  O3  UNL     1     -15.205   7.229  11.109  1.00  0.00    -0.213 OA
HETATM    4  O4  UNL     1     -15.478   6.098  11.693  1.00  0.00    -0.223 OA
HETATM    5  C5  UNL     1     -14.671   5.130  11.092  1.00  0.00     0.122 C 
HETATM    6  C6  UNL     1     -13.310   5.306  11.798  1.00  0.00     0.055 C 
HETATM    7  C7  UNL     1     -14.641   5.590   9.720  1.00  0.00     0.002 C 
HETATM    8  C8  UNL     1     -14.412   4.873   8.625  1.00  0.00     0.006 C 
HETATM    9  C9  UNL     1     -14.131   3.459   8.381  1.00  0.00     0.082 C 
HETATM   10  C10 UNL     1     -14.603   2.518   9.422  1.00  0.00     0.028 C 
HETATM   11  C11 UNL     1     -15.751   3.121  10.222  1.00  0.00     0.009 C 
HETATM   12  C12 UNL     1     -15.152   3.788  11.421  1.00  0.00     0.023 C 
HETATM   13  C13 UNL     1     -14.163   2.896  12.139  1.00  0.00     0.013 C 
HETATM   14  C14 UNL     1     -12.856   3.112   7.772  1.00  0.00     0.074 C 
HETATM   15  C15 UNL     1     -11.651   2.641   7.998  1.00  0.00    -0.056 C 
HETATM   16  C16 UNL     1     -11.205   2.243   9.356  1.00  0.00     0.045 C 
HETATM   17  C17 UNL     1     -10.625   2.466   6.909  1.00  0.00     0.045 C 
HETATM   18  O5  UNL     1     -13.427   3.533   6.548  1.00  0.00    -0.311 OA
HETATM   19  C18 UNL     1     -14.619   3.007   7.027  1.00  0.00     0.130 C 
HETATM   20  C19 UNL     1     -15.636   2.416   6.492  1.00  0.00     0.210 C 
ENDROOT
BRANCH  20  21
HETATM   21  O6  UNL     1     -16.699   2.001   7.269  1.00  0.00    -0.339 OA
ATOM     22  H6  UNL     1     -17.391   2.607   7.505  1.00  0.00     0.220 HD
ENDBRANCH  20  21
BRANCH  20  23
HETATM   23  O7  UNL     1     -15.682   2.185   5.135  1.00  0.00    -0.334 OA
HETATM   24  C20 UNL     1     -15.020   1.118   4.485  1.00  0.00     0.212 C 
ENDBRANCH  20  23
BRANCH   1  25
HETATM   25  C2  UNL     1     -13.767   7.877   9.386  1.00  0.00     0.301 C 
HETATM   26  O2  UNL     1     -13.560   8.046   8.161  1.00  0.00    -0.261 OA
BRANCH  25  27
HETATM   27  O1  UNL     1     -12.903   8.485  10.276  1.00  0.00    -0.324 OA
HETATM   28  C1  UNL     1     -12.940   9.889  10.457  1.00  0.00     0.213 C 
ENDBRANCH  25  27
ENDBRANCH   1  25
TORSDOF 4
ENDMDL
MODEL 3
REMARK VINA RESULT: -5.509414406      8.796     12.655
REMARK  4 active torsions:
REMARK  status: ('A' for Active; 'I' for Inactive)
REMARK    1  A    between atoms: O1_2  and  C2_3 
REMARK    2  A    between atoms: C2_3  and  C3_5 
REMARK    3  A    between atoms: C19_24  and  O6_25 
REMARK    4  A    between atoms: C19_24  and  O7_27 
ROOT
HETATM    1  C3  UNL     1      -9.813  -5.563   3.275  1.00  0.00     0.206 C 
HETATM    2  C4  UNL     1      -8.795  -4.464   3.023  1.00  0.00     0.066 C 
HETATM    3  O3  UNL     1      -9.285  -6.631   3.930  1.00  0.00    -0.213 OA
HETATM    4  O4  UNL     1      -9.650  -6.643   5.179  1.00  0.00    -0.223 OA
HETATM    5  C5  UNL     1     -10.949  -6.131   5.224  1.00  0.00     0.122 C 
HETATM    6  C6  UNL     1     -11.827  -7.337   4.829  1.00  0.00     0.055 C 
HETATM    7  C7  UNL     1     -10.898  -5.125   4.183  1.00  0.00     0.002 C 
HETATM    8  C8  UNL     1     -11.659  -4.044   4.059  1.00  0.00     0.006 C 
HETATM    9  C9  UNL     1     -12.750  -3.477   4.850  1.00  0.00     0.082 C 
HETATM   10  C10 UNL     1     -12.780  -3.862   6.279  1.00  0.00     0.028 C 
HETATM   11  C11 UNL     1     -11.397  -4.286   6.758  1.00  0.00     0.009 C 
HETATM   12  C12 UNL     1     -11.308  -5.771   6.595  1.00  0.00     0.023 C 
HETATM   13  C13 UNL     1     -12.517  -6.483   7.163  1.00  0.00     0.013 C 
HETATM   14  C14 UNL     1     -14.057  -3.351   4.221  1.00  0.00     0.074 C 
HETATM   15  C15 UNL     1     -15.260  -3.870   4.133  1.00  0.00    -0.056 C 
HETATM   16  C16 UNL     1     -15.654  -5.075   4.904  1.00  0.00     0.045 C 
HETATM   17  C17 UNL     1     -16.335  -3.293   3.250  1.00  0.00     0.045 C 
HETATM   18  O5  UNL     1     -13.530  -2.219   3.557  1.00  0.00    -0.311 OA
HETATM   19  C18 UNL     1     -12.822  -1.975   4.726  1.00  0.00     0.130 C 
HETATM   20  C19 UNL     1     -12.438  -0.913   5.356  1.00  0.00     0.210 C 
ENDROOT
BRANCH  20  21
HETATM   21  O6  UNL     1     -11.725  -1.012   6.534  1.00  0.00    -0.339 OA
ATOM     22  H6  UNL     1     -12.099  -0.708   7.353  1.00  0.00     0.220 HD
ENDBRANCH  20  21
BRANCH  20  23
HETATM   23  O7  UNL     1     -12.731   0.340   4.867  1.00  0.00    -0.334 OA
HETATM   24  C20 UNL     1     -13.995   0.965   4.982  1.00  0.00     0.212 C 
ENDBRANCH  20  23
BRANCH   1  25
HETATM   25  C2  UNL     1     -10.295  -5.953   1.935  1.00  0.00     0.301 C 
HETATM   26  O2  UNL     1      -9.991  -5.227   0.959  1.00  0.00    -0.261 OA
BRANCH  25  27
HETATM   27  O1  UNL     1     -11.064  -7.074   1.689  1.00  0.00    -0.324 OA
HETATM   28  C1  UNL     1     -10.528  -8.155   0.945  1.00  0.00     0.213 C 
ENDBRANCH  25  27
ENDBRANCH   1  25
TORSDOF 4
ENDMDL
MODEL 4
REMARK VINA RESULT: -5.441978779      2.429      5.085
REMARK  4 active torsions:
REMARK  status: ('A' for Active; 'I' for Inactive)
REMARK    1  A    between atoms: O1_2  and  C2_3 
REMARK    2  A    between atoms: C2_3  and  C3_5 
REMARK    3  A    between atoms: C19_24  and  O6_25 
REMARK    4  A    between atoms: C19_24  and  O7_27 
ROOT
HETATM    1  C3  UNL     1     -11.586   4.687   9.280  1.00  0.00     0.206 C 
HETATM    2  C4  UNL     1     -11.496   5.978  10.075  1.00  0.00     0.066 C 
HETATM    3  O3  UNL     1     -10.752   3.720   9.749  1.00  0.00    -0.213 OA
HETATM    4  O4  UNL     1     -11.410   2.815  10.413  1.00  0.00    -0.223 OA
HETATM    5  C5  UNL     1     -12.656   2.686   9.793  1.00  0.00     0.122 C 
HETATM    6  C6  UNL     1     -12.365   1.766   8.588  1.00  0.00     0.055 C 
HETATM    7  C7  UNL     1     -12.919   4.051   9.389  1.00  0.00     0.002 C 
HETATM    8  C8  UNL     1     -14.098   4.619   9.159  1.00  0.00     0.006 C 
HETATM    9  C9  UNL     1     -15.479   4.145   9.221  1.00  0.00     0.082 C 
HETATM   10  C10 UNL     1     -15.725   2.986  10.108  1.00  0.00     0.028 C 
HETATM   11  C11 UNL     1     -14.651   2.885  11.184  1.00  0.00     0.009 C 
HETATM   12  C12 UNL     1     -13.587   1.970  10.663  1.00  0.00     0.023 C 
HETATM   13  C13 UNL     1     -14.161   0.690  10.095  1.00  0.00     0.013 C 
HETATM   14  C14 UNL     1     -16.260   4.155   7.993  1.00  0.00     0.074 C 
HETATM   15  C15 UNL     1     -16.736   3.415   7.018  1.00  0.00    -0.056 C 
HETATM   16  C16 UNL     1     -16.495   1.952   6.952  1.00  0.00     0.045 C 
HETATM   17  C17 UNL     1     -17.561   3.981   5.892  1.00  0.00     0.045 C 
HETATM   18  O5  UNL     1     -16.398   5.548   8.196  1.00  0.00    -0.311 OA
HETATM   19  C18 UNL     1     -16.447   5.254   9.552  1.00  0.00     0.130 C 
HETATM   20  C19 UNL     1     -17.066   5.752  10.572  1.00  0.00     0.210 C 
ENDROOT
BRANCH  20  21
HETATM   21  O6  UNL     1     -16.896   5.213  11.831  1.00  0.00    -0.339 OA
ATOM     22  H6  UNL     1     -17.431   4.483  12.121  1.00  0.00     0.220 HD
ENDBRANCH  20  21
BRANCH  20  23
HETATM   23  O7  UNL     1     -17.909   6.831  10.425  1.00  0.00    -0.334 OA
HETATM   24  C20 UNL     1     -19.279   6.825  10.777  1.00  0.00     0.212 C 
ENDBRANCH  20  23
BRANCH   1  25
HETATM   25  C2  UNL     1     -11.229   5.063   7.898  1.00  0.00     0.301 C 
HETATM   26  O2  UNL     1     -11.936   5.918   7.313  1.00  0.00    -0.261 OA
BRANCH  25  27
HETATM   27  O1  UNL     1     -10.160   4.528   7.205  1.00  0.00    -0.324 OA
HETATM   28  C1  UNL     1      -8.930   5.229   7.143  1.00  0.00     0.213 C 
ENDBRANCH  25  27
ENDBRANCH   1  25
TORSDOF 4
ENDMDL
MODEL 5
REMARK VINA RESULT: -5.346372498      2.960      5.327
REMARK  4 active torsions:
REMARK  status: ('A' for Active; 'I' for Inactive)
REMARK    1  A    between atoms: O1_2  and  C2_3 
REMARK    2  A    between atoms: C2_3  and  C3_5 
REMARK    3  A    between atoms: C19_24  and  O6_25 
REMARK    4  A    between atoms: C19_24  and  O7_27 
ROOT
HETATM    1  C3  UNL     1     -13.133   1.358  10.629  1.00  0.00     0.206 C 
HETATM    2  C4  UNL     1     -14.163   0.256  10.443  1.00  0.00     0.066 C 
HETATM    3  O3  UNL     1     -11.854   0.908  10.526  1.00  0.00    -0.213 OA
HETATM    4  O4  UNL     1     -11.328   1.244   9.384  1.00  0.00    -0.223 OA
HETATM    5  C5  UNL     1     -11.857   2.493   9.050  1.00  0.00     0.122 C 
HETATM    6  C6  UNL     1     -11.001   3.479   9.873  1.00  0.00     0.055 C 
HETATM    7  C7  UNL     1     -13.207   2.381   9.560  1.00  0.00     0.002 C 
HETATM    8  C8  UNL     1     -14.284   3.051   9.166  1.00  0.00     0.006 C 
HETATM    9  C9  UNL     1     -14.525   4.071   8.147  1.00  0.00     0.082 C 
HETATM   10  C10 UNL     1     -13.563   4.101   7.022  1.00  0.00     0.028 C 
HETATM   11  C11 UNL     1     -12.883   2.748   6.851  1.00  0.00     0.009 C 
HETATM   12  C12 UNL     1     -11.612   2.790   7.639  1.00  0.00     0.023 C 
HETATM   13  C13 UNL     1     -10.807   4.042   7.364  1.00  0.00     0.013 C 
HETATM   14  C14 UNL     1     -14.997   5.376   8.586  1.00  0.00     0.074 C 
HETATM   15  C15 UNL     1     -14.648   6.621   8.819  1.00  0.00    -0.056 C 
HETATM   16  C16 UNL     1     -13.258   7.098   8.619  1.00  0.00     0.045 C 
HETATM   17  C17 UNL     1     -15.620   7.663   9.307  1.00  0.00     0.045 C 
HETATM   18  O5  UNL     1     -16.267   4.771   8.729  1.00  0.00    -0.311 OA
HETATM   19  C18 UNL     1     -15.934   4.018   7.611  1.00  0.00     0.130 C 
HETATM   20  C19 UNL     1     -16.592   3.532   6.610  1.00  0.00     0.210 C 
ENDROOT
BRANCH  20  21
HETATM   21  O6  UNL     1     -15.946   2.804   5.631  1.00  0.00    -0.339 OA
ATOM     22  H6  UNL     1     -15.819   1.867   5.729  1.00  0.00     0.220 HD
ENDBRANCH  20  21
BRANCH  20  23
HETATM   23  O7  UNL     1     -17.950   3.729   6.497  1.00  0.00    -0.334 OA
HETATM   24  C20 UNL     1     -18.656   3.730   5.271  1.00  0.00     0.212 C 
ENDBRANCH  20  23
BRANCH   1  25
HETATM   25  C2  UNL     1     -13.393   1.901  11.976  1.00  0.00     0.301 C 
HETATM   26  O2  UNL     1     -12.411   2.237  12.681  1.00  0.00    -0.261 OA
BRANCH  25  27
HETATM   27  O1  UNL     1     -14.655   2.062  12.513  1.00  0.00    -0.324 OA
HETATM   28  C1  UNL     1     -15.144   3.359  12.807  1.00  0.00     0.213 C 
ENDBRANCH  25  27
ENDBRANCH   1  25
TORSDOF 4
ENDMDL
