MODEL 1
REMARK VINA RESULT: -5.742425361      0.000      0.000
REMARK  3 active torsions:
REMARK  status: ('A' for Active; 'I' for Inactive)
REMARK    1  A    between atoms: O1_2  and  C2_3 
REMARK    2  A    between atoms: C15_17  and  C16_18 
REMARK    3  A    between atoms: C18_25  and  S1_26 
ROOT
HETATM    1  C2  UNL     1     -16.117   3.213   6.398  1.00  0.00     0.215 C 
HETATM    2  C3  UNL     1     -16.363   3.755   7.774  1.00  0.00     0.018 C 
HETATM    3  C4  UNL     1     -15.244   3.640   8.522  1.00  0.00    -0.047 C 
HETATM    4  C5  UNL     1     -15.109   4.073   9.942  1.00  0.00     0.082 C 
HETATM    5  C6  UNL     1     -16.287   3.538  10.777  1.00  0.00     0.022 C 
HETATM    6  C7  UNL     1     -15.055   5.544  10.108  1.00  0.00     0.141 C 
HETATM    7  O2  UNL     1     -15.340   6.052  11.179  1.00  0.00    -0.297 OA
HETATM    8  C8  UNL     1     -14.660   6.444   9.003  1.00  0.00     0.096 C 
HETATM    9  C9  UNL     1     -15.484   7.716   8.977  1.00  0.00     0.021 C 
HETATM   10  C10 UNL     1     -13.212   6.865   9.058  1.00  0.00     0.149 A 
HETATM   11  C11 UNL     1     -12.481   6.201   7.915  1.00  0.00     0.049 C 
HETATM   12  C12 UNL     1     -12.294   4.717   8.105  1.00  0.00     0.010 C 
HETATM   13  C13 UNL     1     -13.144   3.937   7.169  1.00  0.00     0.009 C 
HETATM   14  C14 UNL     1     -12.271   3.061   6.253  1.00  0.00     0.012 C 
HETATM   15  C15 UNL     1     -14.149   3.026   7.770  1.00  0.00     0.103 C 
HETATM   16  C17 UNL     1     -14.886   2.404   6.605  1.00  0.00     0.179 C 
HETATM   17  O4  UNL     1     -14.586   1.443   5.937  1.00  0.00    -0.293 OA
HETATM   18  O5  UNL     1     -12.969   8.226   9.097  1.00  0.00    -0.261 OA
HETATM   19  N1  UNL     1     -12.387   8.128  10.296  1.00  0.00    -0.260 N 
ATOM     20  H1  UNL     1     -11.959   8.801  10.931  1.00  0.00     0.195 HD
HETATM   21  C18 UNL     1     -12.570   6.886  10.339  1.00  0.00     0.106 A 
ENDROOT
BRANCH  21  22
HETATM   22  S1  UNL     1     -12.155   5.659  11.575  1.00  0.00    -0.116 SA
HETATM   23  C19 UNL     1     -10.484   5.036  11.399  1.00  0.00     0.097 C 
ENDBRANCH  21  22
BRANCH  15  24
HETATM   24  C16 UNL     1     -13.463   1.929   8.478  1.00  0.00     0.253 C 
HETATM   25  O3  UNL     1     -14.112   1.088   9.096  1.00  0.00    -0.305 OA
ENDBRANCH  15  24
BRANCH   1  26
HETATM   26  O1  UNL     1     -17.127   2.320   6.045  1.00  0.00    -0.379 OA
HETATM   27  C1  UNL     1     -17.755   2.692   4.860  1.00  0.00     0.202 C 
ENDBRANCH   1  26
TORSDOF 3
ENDMDL
MODEL 2
REMARK VINA RESULT: -5.719206796      8.454     11.228
REMARK  3 active torsions:
REMARK  status: ('A' for Active; 'I' for Inactive)
REMARK    1  A    between atoms: O1_2  and  C2_3 
REMARK    2  A    between atoms: C15_17  and  C16_18 
REMARK    3  A    between atoms: C18_25  and  S1_26 
ROOT
HETATM    1  C2  UNL     1     -11.536  -2.705   8.307  1.00  0.00     0.215 C 
HETATM    2  C3  UNL     1     -11.432  -2.914   6.826  1.00  0.00     0.018 C 
HETATM    3  C4  UNL     1     -11.697  -4.203   6.522  1.00  0.00    -0.047 C 
HETATM    4  C5  UNL     1     -11.690  -4.783   5.149  1.00  0.00     0.082 C 
HETATM    5  C6  UNL     1     -10.403  -4.381   4.406  1.00  0.00     0.022 C 
HETATM    6  C7  UNL     1     -12.849  -4.364   4.326  1.00  0.00     0.141 C 
HETATM    7  O2  UNL     1     -12.790  -4.417   3.109  1.00  0.00    -0.297 OA
HETATM    8  C8  UNL     1     -14.104  -3.871   4.932  1.00  0.00     0.096 C 
HETATM    9  C9  UNL     1     -14.706  -2.721   4.150  1.00  0.00     0.021 C 
HETATM   10  C10 UNL     1     -15.176  -4.929   5.042  1.00  0.00     0.149 A 
HETATM   11  C11 UNL     1     -15.362  -5.264   6.503  1.00  0.00     0.049 C 
HETATM   12  C12 UNL     1     -14.211  -6.044   7.090  1.00  0.00     0.010 C 
HETATM   13  C13 UNL     1     -13.425  -5.218   8.042  1.00  0.00     0.009 C 
HETATM   14  C14 UNL     1     -13.448  -5.848   9.446  1.00  0.00     0.012 C 
HETATM   15  C15 UNL     1     -11.995  -4.992   7.718  1.00  0.00     0.103 C 
HETATM   16  C17 UNL     1     -11.462  -4.100   8.816  1.00  0.00     0.179 C 
HETATM   17  O4  UNL     1     -11.045  -4.402   9.910  1.00  0.00    -0.293 OA
HETATM   18  O5  UNL     1     -16.381  -4.648   4.426  1.00  0.00    -0.261 OA
HETATM   19  N1  UNL     1     -16.246  -5.691   3.600  1.00  0.00    -0.260 N 
ATOM     20  H1  UNL     1     -16.818  -6.077   2.849  1.00  0.00     0.195 HD
HETATM   21  C18 UNL     1     -15.143  -6.013   4.106  1.00  0.00     0.106 A 
ENDROOT
BRANCH  21  22
HETATM   22  S1  UNL     1     -14.005  -7.346   3.742  1.00  0.00    -0.116 SA
HETATM   23  C19 UNL     1     -14.526  -8.911   4.443  1.00  0.00     0.097 C 
ENDBRANCH  21  22
BRANCH  15  24
HETATM   24  C16 UNL     1     -11.259  -6.267   7.805  1.00  0.00     0.253 C 
HETATM   25  O3  UNL     1     -10.046  -6.298   7.615  1.00  0.00    -0.305 OA
ENDBRANCH  15  24
BRANCH   1  26
HETATM   26  O1  UNL     1     -10.402  -2.047   8.780  1.00  0.00    -0.379 OA
HETATM   27  C1  UNL     1      -9.880  -1.169   7.835  1.00  0.00     0.202 C 
ENDBRANCH   1  26
TORSDOF 3
ENDMDL
MODEL 3
REMARK VINA RESULT: -5.499524349      0.970      1.024
REMARK  3 active torsions:
REMARK  status: ('A' for Active; 'I' for Inactive)
REMARK    1  A    between atoms: O1_2  and  C2_3 
REMARK    2  A    between atoms: C15_17  and  C16_18 
REMARK    3  A    between atoms: C18_25  and  S1_26 
ROOT
HETATM    1  C2  UNL     1     -15.920   3.545   6.661  1.00  0.00     0.215 C 
HETATM    2  C3  UNL     1     -16.308   3.832   8.080  1.00  0.00     0.018 C 
HETATM    3  C4  UNL     1     -15.205   3.910   8.854  1.00  0.00    -0.047 C 
HETATM    4  C5  UNL     1     -15.198   4.182  10.320  1.00  0.00     0.082 C 
HETATM    5  C6  UNL     1     -16.210   3.270  11.037  1.00  0.00     0.022 C 
HETATM    6  C7  UNL     1     -15.520   5.587  10.660  1.00  0.00     0.141 C 
HETATM    7  O2  UNL     1     -15.935   5.871  11.771  1.00  0.00    -0.297 OA
HETATM    8  C8  UNL     1     -15.356   6.688   9.686  1.00  0.00     0.096 C 
HETATM    9  C9  UNL     1     -16.475   7.706   9.777  1.00  0.00     0.021 C 
HETATM   10  C10 UNL     1     -14.062   7.448   9.849  1.00  0.00     0.149 A 
HETATM   11  C11 UNL     1     -13.176   7.136   8.666  1.00  0.00     0.049 C 
HETATM   12  C12 UNL     1     -12.620   5.734   8.688  1.00  0.00     0.010 C 
HETATM   13  C13 UNL     1     -13.235   4.889   7.632  1.00  0.00     0.009 C 
HETATM   14  C14 UNL     1     -12.160   4.381   6.656  1.00  0.00     0.012 C 
HETATM   15  C15 UNL     1     -13.982   3.688   8.080  1.00  0.00     0.103 C 
HETATM   16  C17 UNL     1     -14.527   3.051   6.821  1.00  0.00     0.179 C 
HETATM   17  O4  UNL     1     -13.985   2.286   6.058  1.00  0.00    -0.293 OA
HETATM   18  O5  UNL     1     -14.173   8.811  10.058  1.00  0.00    -0.261 OA
HETATM   19  N1  UNL     1     -13.596   8.713  11.260  1.00  0.00    -0.260 N 
ATOM     20  H1  UNL     1     -13.359   9.388  11.987  1.00  0.00     0.195 HD
HETATM   21  C18 UNL     1     -13.459   7.470  11.148  1.00  0.00     0.106 A 
ENDROOT
BRANCH  21  22
HETATM   22  S1  UNL     1     -12.759   6.242  12.247  1.00  0.00    -0.116 SA
HETATM   23  C19 UNL     1     -10.981   6.091  12.074  1.00  0.00     0.097 C 
ENDBRANCH  21  22
BRANCH  15  24
HETATM   24  C16 UNL     1     -13.048   2.718   8.682  1.00  0.00     0.253 C 
HETATM   25  O3  UNL     1     -13.451   1.623   9.066  1.00  0.00    -0.305 OA
ENDBRANCH  15  24
BRANCH   1  26
HETATM   26  O1  UNL     1     -16.667   2.479   6.164  1.00  0.00    -0.379 OA
HETATM   27  C1  UNL     1     -17.391   2.837   5.031  1.00  0.00     0.202 C 
ENDBRANCH   1  26
TORSDOF 3
ENDMDL
MODEL 4
REMARK VINA RESULT: -5.232167905      1.448      1.650
REMARK  3 active torsions:
REMARK  status: ('A' for Active; 'I' for Inactive)
REMARK    1  A    between atoms: O1_2  and  C2_3 
REMARK    2  A    between atoms: C15_17  and  C16_18 
REMARK    3  A    between atoms: C18_25  and  S1_26 
ROOT
HETATM    1  C2  UNL     1     -15.735   2.312   5.496  1.00  0.00     0.215 C 
HETATM    2  C3  UNL     1     -15.890   2.605   6.958  1.00  0.00     0.018 C 
HETATM    3  C4  UNL     1     -14.724   2.381   7.600  1.00  0.00    -0.047 C 
HETATM    4  C5  UNL     1     -14.496   2.565   9.062  1.00  0.00     0.082 C 
HETATM    5  C6  UNL     1     -15.615   1.878   9.867  1.00  0.00     0.022 C 
HETATM    6  C7  UNL     1     -14.436   3.986   9.475  1.00  0.00     0.141 C 
HETATM    7  O2  UNL     1     -14.651   4.299  10.633  1.00  0.00    -0.297 OA
HETATM    8  C8  UNL     1     -14.118   5.068   8.518  1.00  0.00     0.096 C 
HETATM    9  C9  UNL     1     -14.945   6.313   8.765  1.00  0.00     0.021 C 
HETATM   10  C10 UNL     1     -12.670   5.495   8.550  1.00  0.00     0.149 A 
HETATM   11  C11 UNL     1     -12.016   5.048   7.264  1.00  0.00     0.049 C 
HETATM   12  C12 UNL     1     -11.811   3.555   7.184  1.00  0.00     0.010 C 
HETATM   13  C13 UNL     1     -12.720   2.935   6.185  1.00  0.00     0.009 C 
HETATM   14  C14 UNL     1     -11.907   2.242   5.077  1.00  0.00     0.012 C 
HETATM   15  C15 UNL     1     -13.680   1.920   6.684  1.00  0.00     0.103 C 
HETATM   16  C17 UNL     1     -14.491   1.497   5.480  1.00  0.00     0.179 C 
HETATM   17  O4  UNL     1     -14.232   0.669   4.639  1.00  0.00    -0.293 OA
HETATM   18  O5  UNL     1     -12.430   6.832   8.807  1.00  0.00    -0.261 OA
HETATM   19  N1  UNL     1     -11.769   6.538   9.931  1.00  0.00    -0.260 N 
ATOM     20  H1  UNL     1     -11.302   7.098  10.643  1.00  0.00     0.195 HD
HETATM   21  C18 UNL     1     -11.945   5.304   9.771  1.00  0.00     0.106 A 
ENDROOT
BRANCH  21  22
HETATM   22  S1  UNL     1     -11.445   3.890  10.748  1.00  0.00    -0.116 SA
HETATM   23  C19 UNL     1      -9.802   3.307  10.332  1.00  0.00     0.097 C 
ENDBRANCH  21  22
BRANCH  15  24
HETATM   24  C16 UNL     1     -12.945   0.728   7.147  1.00  0.00     0.253 C 
HETATM   25  O3  UNL     1     -12.571   0.644   8.314  1.00  0.00    -0.305 OA
ENDBRANCH  15  24
BRANCH   1  26
HETATM   26  O1  UNL     1     -16.764   1.478   5.060  1.00  0.00    -0.379 OA
HETATM   27  C1  UNL     1     -17.794   2.196   4.462  1.00  0.00     0.202 C 
ENDBRANCH   1  26
TORSDOF 3
ENDMDL
MODEL 5
REMARK VINA RESULT: -5.202888655      7.963      9.745
REMARK  3 active torsions:
REMARK  status: ('A' for Active; 'I' for Inactive)
REMARK    1  A    between atoms: O1_2  and  C2_3 
REMARK    2  A    between atoms: C15_17  and  C16_18 
REMARK    3  A    between atoms: C18_25  and  S1_26 
ROOT
HETATM    1  C2  UNL     1     -15.217  -4.117   4.903  1.00  0.00     0.215 C 
HETATM    2  C3  UNL     1     -14.337  -5.174   5.499  1.00  0.00     0.018 C 
HETATM    3  C4  UNL     1     -13.039  -4.838   5.338  1.00  0.00    -0.047 C 
HETATM    4  C5  UNL     1     -11.876  -5.646   5.803  1.00  0.00     0.082 C 
HETATM    5  C6  UNL     1     -12.037  -7.114   5.367  1.00  0.00     0.022 C 
HETATM    6  C7  UNL     1     -11.688  -5.619   7.273  1.00  0.00     0.141 C 
HETATM    7  O2  UNL     1     -11.064  -6.505   7.829  1.00  0.00    -0.297 OA
HETATM    8  C8  UNL     1     -12.241  -4.534   8.113  1.00  0.00     0.096 C 
HETATM    9  C9  UNL     1     -12.780  -5.050   9.432  1.00  0.00     0.021 C 
HETATM   10  C10 UNL     1     -11.235  -3.459   8.447  1.00  0.00     0.149 A 
HETATM   11  C11 UNL     1     -11.623  -2.201   7.705  1.00  0.00     0.049 C 
HETATM   12  C12 UNL     1     -11.383  -2.285   6.218  1.00  0.00     0.010 C 
HETATM   13  C13 UNL     1     -12.662  -2.354   5.465  1.00  0.00     0.009 C 
HETATM   14  C14 UNL     1     -12.789  -1.153   4.510  1.00  0.00     0.012 C 
HETATM   15  C15 UNL     1     -12.891  -3.562   4.635  1.00  0.00     0.103 C 
HETATM   16  C17 UNL     1     -14.264  -3.386   4.026  1.00  0.00     0.179 C 
HETATM   17  O4  UNL     1     -14.584  -2.784   3.028  1.00  0.00    -0.293 OA
HETATM   18  O5  UNL     1     -11.020  -3.213   9.790  1.00  0.00    -0.261 OA
HETATM   19  N1  UNL     1      -9.738  -3.576   9.692  1.00  0.00    -0.260 N 
ATOM     20  H1  UNL     1      -8.966  -3.631  10.356  1.00  0.00     0.195 HD
HETATM   21  C18 UNL     1      -9.849  -3.823   8.466  1.00  0.00     0.106 A 
ENDROOT
BRANCH  21  22
HETATM   22  S1  UNL     1      -8.670  -4.410   7.253  1.00  0.00    -0.116 SA
HETATM   23  C19 UNL     1      -7.748  -3.079   6.485  1.00  0.00     0.097 C 
ENDBRANCH  21  22
BRANCH  15  24
HETATM   24  C16 UNL     1     -11.926  -3.589   3.520  1.00  0.00     0.253 C 
HETATM   25  O3  UNL     1     -11.910  -4.534   2.736  1.00  0.00    -0.305 OA
ENDBRANCH  15  24
BRANCH   1  26
HETATM   26  O1  UNL     1     -16.166  -4.698   4.063  1.00  0.00    -0.379 OA
HETATM   27  C1  UNL     1     -16.045  -6.084   4.026  1.00  0.00     0.202 C 
ENDBRANCH   1  26
TORSDOF 3
ENDMDL
