MODEL 1
REMARK VINA RESULT: -6.637788294      0.000      0.000
REMARK  1 active torsions:
REMARK  status: ('A' for Active; 'I' for Inactive)
REMARK    1  A    between atoms: O1_2  and  C2_3 
ROOT
HETATM    1  C2  UNL     1     -12.318   0.108   5.406  1.00  0.00     0.131 C 
HETATM    2  C3  UNL     1     -12.285  -0.714   6.657  1.00  0.00     0.035 C 
HETATM    3  C4  UNL     1     -11.512   0.224   7.583  1.00  0.00     0.035 C 
HETATM    4  C5  UNL     1     -11.943   1.631   7.130  1.00  0.00     0.135 C 
HETATM    5  O2  UNL     1     -12.544   2.202   8.196  1.00  0.00    -0.349 OA
HETATM    6  C6  UNL     1     -12.884   3.510   8.171  1.00  0.00     0.340 C 
HETATM    7  O3  UNL     1     -12.144   4.143   9.200  1.00  0.00    -0.202 OA
HETATM    8  O4  UNL     1     -12.820   5.148   9.625  1.00  0.00    -0.202 OA
HETATM    9  C7  UNL     1     -14.158   4.909   9.533  1.00  0.00     0.343 C 
HETATM   10  O5  UNL     1     -14.787   4.643  10.749  1.00  0.00    -0.317 OA
HETATM   11  C8  UNL     1     -15.981   3.970  10.399  1.00  0.00     0.196 C 
HETATM   12  C9  UNL     1     -16.784   3.876  11.706  1.00  0.00     0.082 C 
HETATM   13  C10 UNL     1     -16.749   4.841   9.475  1.00  0.00     0.071 C 
HETATM   14  C11 UNL     1     -16.399   4.799   8.050  1.00  0.00     0.014 C 
HETATM   15  C12 UNL     1     -15.326   3.833   7.642  1.00  0.00     0.038 C 
HETATM   16  C13 UNL     1     -15.963   2.601   7.132  1.00  0.00    -0.011 C 
HETATM   17  C14 UNL     1     -16.666   2.957   5.813  1.00  0.00     0.010 C 
HETATM   18  C15 UNL     1     -15.009   1.466   6.783  1.00  0.00     0.005 C 
HETATM   19  C16 UNL     1     -14.058   1.791   5.717  1.00  0.00     0.014 C 
HETATM   20  C17 UNL     1     -12.623   1.524   5.863  1.00  0.00     0.008 C 
HETATM   21  C18 UNL     1     -11.911   2.400   4.810  1.00  0.00     0.020 C 
HETATM   22  C19 UNL     1     -14.294   3.640   8.705  1.00  0.00     0.204 C 
HETATM   23  O6  UNL     1     -14.534   2.590   9.558  1.00  0.00    -0.215 OA
HETATM   24  O7  UNL     1     -15.772   2.688   9.979  1.00  0.00    -0.200 OA
ENDROOT
BRANCH   1  25
HETATM   25  O1  UNL     1     -13.201  -0.357   4.461  1.00  0.00    -0.390 OA
HETATM   26  C1  UNL     1     -13.209  -1.767   4.401  1.00  0.00     0.202 C 
ENDBRANCH   1  25
TORSDOF 1
ENDMDL
MODEL 2
REMARK VINA RESULT: -6.637772596      1.813      6.175
REMARK  1 active torsions:
REMARK  status: ('A' for Active; 'I' for Inactive)
REMARK    1  A    between atoms: O1_2  and  C2_3 
ROOT
HETATM    1  C2  UNL     1     -16.682   6.638  11.080  1.00  0.00     0.131 C 
HETATM    2  C3  UNL     1     -15.343   7.277  10.874  1.00  0.00     0.035 C 
HETATM    3  C4  UNL     1     -14.430   6.196  11.453  1.00  0.00     0.035 C 
HETATM    4  C5  UNL     1     -15.152   4.880  11.112  1.00  0.00     0.135 C 
HETATM    5  O2  UNL     1     -14.311   4.185  10.315  1.00  0.00    -0.349 OA
HETATM    6  C6  UNL     1     -14.585   2.904   9.982  1.00  0.00     0.340 C 
HETATM    7  O3  UNL     1     -13.535   2.113  10.508  1.00  0.00    -0.202 OA
HETATM    8  O4  UNL     1     -13.393   1.079   9.760  1.00  0.00    -0.202 OA
HETATM    9  C7  UNL     1     -13.702   1.370   8.465  1.00  0.00     0.343 C 
HETATM   10  O5  UNL     1     -12.601   1.484   7.616  1.00  0.00    -0.317 OA
HETATM   11  C8  UNL     1     -13.072   2.235   6.513  1.00  0.00     0.196 C 
HETATM   12  C9  UNL     1     -11.941   2.171   5.475  1.00  0.00     0.082 C 
HETATM   13  C10 UNL     1     -14.239   1.525   5.933  1.00  0.00     0.071 C 
HETATM   14  C11 UNL     1     -15.551   1.753   6.551  1.00  0.00     0.014 C 
HETATM   15  C12 UNL     1     -15.607   2.733   7.685  1.00  0.00     0.038 C 
HETATM   16  C13 UNL     1     -16.049   4.042   7.162  1.00  0.00    -0.011 C 
HETATM   17  C14 UNL     1     -17.514   3.894   6.724  1.00  0.00     0.010 C 
HETATM   18  C15 UNL     1     -16.046   5.185   8.170  1.00  0.00     0.005 C 
HETATM   19  C16 UNL     1     -16.948   4.982   9.307  1.00  0.00     0.014 C 
HETATM   20  C17 UNL     1     -16.497   5.182  10.687  1.00  0.00     0.008 C 
HETATM   21  C18 UNL     1     -17.508   4.438  11.586  1.00  0.00     0.020 C 
HETATM   22  C19 UNL     1     -14.352   2.745   8.495  1.00  0.00     0.204 C 
HETATM   23  O6  UNL     1     -13.419   3.673   8.099  1.00  0.00    -0.215 OA
HETATM   24  O7  UNL     1     -13.258   3.556   6.804  1.00  0.00    -0.200 OA
ENDROOT
BRANCH   1  25
HETATM   25  O1  UNL     1     -17.702   7.255  10.396  1.00  0.00    -0.390 OA
HETATM   26  C1  UNL     1     -18.286   8.293  11.153  1.00  0.00     0.202 C 
ENDBRANCH   1  25
TORSDOF 1
ENDMDL
MODEL 3
REMARK VINA RESULT: -6.576207713      1.420      1.701
REMARK  1 active torsions:
REMARK  status: ('A' for Active; 'I' for Inactive)
REMARK    1  A    between atoms: O1_2  and  C2_3 
ROOT
HETATM    1  C2  UNL     1     -11.443   0.453   6.828  1.00  0.00     0.131 C 
HETATM    2  C3  UNL     1     -10.909   0.507   8.227  1.00  0.00     0.035 C 
HETATM    3  C4  UNL     1     -10.409   1.951   8.274  1.00  0.00     0.035 C 
HETATM    4  C5  UNL     1     -11.402   2.717   7.382  1.00  0.00     0.135 C 
HETATM    5  O2  UNL     1     -11.999   3.629   8.179  1.00  0.00    -0.349 OA
HETATM    6  C6  UNL     1     -12.804   4.578   7.650  1.00  0.00     0.340 C 
HETATM    7  O3  UNL     1     -12.205   5.828   7.939  1.00  0.00    -0.202 OA
HETATM    8  O4  UNL     1     -13.133   6.710   8.033  1.00  0.00    -0.202 OA
HETATM    9  C7  UNL     1     -14.280   6.159   8.521  1.00  0.00     0.343 C 
HETATM   10  O5  UNL     1     -14.563   6.483   9.848  1.00  0.00    -0.317 OA
HETATM   11  C8  UNL     1     -15.456   5.476  10.283  1.00  0.00     0.196 C 
HETATM   12  C9  UNL     1     -15.949   5.948  11.660  1.00  0.00     0.082 C 
HETATM   13  C10 UNL     1     -16.630   5.474   9.375  1.00  0.00     0.071 C 
HETATM   14  C11 UNL     1     -16.518   4.724   8.118  1.00  0.00     0.014 C 
HETATM   15  C12 UNL     1     -15.240   3.974   7.886  1.00  0.00     0.038 C 
HETATM   16  C13 UNL     1     -15.439   2.561   8.270  1.00  0.00    -0.011 C 
HETATM   17  C14 UNL     1     -16.422   1.944   7.263  1.00  0.00     0.010 C 
HETATM   18  C15 UNL     1     -14.196   1.683   8.206  1.00  0.00     0.005 C 
HETATM   19  C16 UNL     1     -13.616   1.564   6.865  1.00  0.00     0.014 C 
HETATM   20  C17 UNL     1     -12.183   1.765   6.629  1.00  0.00     0.008 C 
HETATM   21  C18 UNL     1     -12.026   2.037   5.118  1.00  0.00     0.020 C 
HETATM   22  C19 UNL     1     -14.058   4.654   8.496  1.00  0.00     0.204 C 
HETATM   23  O6  UNL     1     -13.748   4.241   9.770  1.00  0.00    -0.215 OA
HETATM   24  O7  UNL     1     -14.849   4.269  10.480  1.00  0.00    -0.200 OA
ENDROOT
BRANCH   1  25
HETATM   25  O1  UNL     1     -12.225  -0.650   6.576  1.00  0.00    -0.390 OA
HETATM   26  C1  UNL     1     -11.496  -1.851   6.721  1.00  0.00     0.202 C 
ENDBRANCH   1  25
TORSDOF 1
ENDMDL
MODEL 4
REMARK VINA RESULT: -6.103246913      7.755      9.761
REMARK  1 active torsions:
REMARK  status: ('A' for Active; 'I' for Inactive)
REMARK    1  A    between atoms: O1_2  and  C2_3 
ROOT
HETATM    1  C2  UNL     1      -7.780  -4.937   4.197  1.00  0.00     0.131 C 
HETATM    2  C3  UNL     1      -8.100  -4.144   2.968  1.00  0.00     0.035 C 
HETATM    3  C4  UNL     1      -8.904  -5.175   2.176  1.00  0.00     0.035 C 
HETATM    4  C5  UNL     1      -9.640  -5.983   3.259  1.00  0.00     0.135 C 
HETATM    5  O2  UNL     1     -10.960  -5.804   3.029  1.00  0.00    -0.349 OA
HETATM    6  C6  UNL     1     -11.877  -6.527   3.711  1.00  0.00     0.340 C 
HETATM    7  O3  UNL     1     -12.582  -7.296   2.754  1.00  0.00    -0.202 OA
HETATM    8  O4  UNL     1     -13.772  -7.495   3.192  1.00  0.00    -0.202 OA
HETATM    9  C7  UNL     1     -14.194  -6.444   3.950  1.00  0.00     0.343 C 
HETATM   10  O5  UNL     1     -15.129  -5.616   3.327  1.00  0.00    -0.317 OA
HETATM   11  C8  UNL     1     -15.056  -4.393   4.036  1.00  0.00     0.196 C 
HETATM   12  C9  UNL     1     -16.234  -3.558   3.508  1.00  0.00     0.082 C 
HETATM   13  C10 UNL     1     -15.324  -4.672   5.468  1.00  0.00     0.071 C 
HETATM   14  C11 UNL     1     -14.200  -5.129   6.295  1.00  0.00     0.014 C 
HETATM   15  C12 UNL     1     -12.860  -5.220   5.628  1.00  0.00     0.038 C 
HETATM   16  C13 UNL     1     -12.092  -3.995   5.932  1.00  0.00    -0.011 C 
HETATM   17  C14 UNL     1     -11.764  -4.016   7.433  1.00  0.00     0.010 C 
HETATM   18  C15 UNL     1     -10.745  -3.875   5.230  1.00  0.00     0.005 C 
HETATM   19  C16 UNL     1      -9.794  -4.934   5.577  1.00  0.00     0.014 C 
HETATM   20  C17 UNL     1      -9.062  -5.675   4.544  1.00  0.00     0.008 C 
HETATM   21  C18 UNL     1      -8.558  -6.971   5.215  1.00  0.00     0.020 C 
HETATM   22  C19 UNL     1     -12.962  -5.583   4.183  1.00  0.00     0.204 C 
HETATM   23  O6  UNL     1     -13.012  -4.513   3.321  1.00  0.00    -0.215 OA
HETATM   24  O7  UNL     1     -13.924  -3.682   3.765  1.00  0.00    -0.200 OA
ENDROOT
BRANCH   1  25
HETATM   25  O1  UNL     1      -7.296  -4.178   5.236  1.00  0.00    -0.390 OA
HETATM   26  C1  UNL     1      -6.495  -3.111   4.775  1.00  0.00     0.202 C 
ENDBRANCH   1  25
TORSDOF 1
ENDMDL
MODEL 5
REMARK VINA RESULT: -6.036834163      2.574      6.275
REMARK  1 active torsions:
REMARK  status: ('A' for Active; 'I' for Inactive)
REMARK    1  A    between atoms: O1_2  and  C2_3 
ROOT
HETATM    1  C2  UNL     1     -13.732   7.785  11.521  1.00  0.00     0.131 C 
HETATM    2  C3  UNL     1     -14.399   8.591  10.450  1.00  0.00     0.035 C 
HETATM    3  C4  UNL     1     -13.534   8.219   9.246  1.00  0.00     0.035 C 
HETATM    4  C5  UNL     1     -13.130   6.758   9.517  1.00  0.00     0.135 C 
HETATM    5  O2  UNL     1     -13.639   6.032   8.498  1.00  0.00    -0.349 OA
HETATM    6  C6  UNL     1     -13.309   4.728   8.356  1.00  0.00     0.340 C 
HETATM    7  O3  UNL     1     -12.642   4.611   7.112  1.00  0.00    -0.202 OA
HETATM    8  O4  UNL     1     -12.851   3.432   6.650  1.00  0.00    -0.202 OA
HETATM    9  C7  UNL     1     -14.076   2.970   7.030  1.00  0.00     0.343 C 
HETATM   10  O5  UNL     1     -15.035   2.965   6.018  1.00  0.00    -0.317 OA
HETATM   11  C8  UNL     1     -16.276   2.935   6.697  1.00  0.00     0.196 C 
HETATM   12  C9  UNL     1     -17.325   2.701   5.599  1.00  0.00     0.082 C 
HETATM   13  C10 UNL     1     -16.292   1.743   7.580  1.00  0.00     0.071 C 
HETATM   14  C11 UNL     1     -15.660   1.864   8.900  1.00  0.00     0.014 C 
HETATM   15  C12 UNL     1     -15.100   3.206   9.264  1.00  0.00     0.038 C 
HETATM   16  C13 UNL     1     -16.089   3.927  10.092  1.00  0.00    -0.011 C 
HETATM   17  C14 UNL     1     -16.192   3.188  11.436  1.00  0.00     0.010 C 
HETATM   18  C15 UNL     1     -15.723   5.361  10.452  1.00  0.00     0.005 C 
HETATM   19  C16 UNL     1     -14.499   5.484  11.249  1.00  0.00     0.014 C 
HETATM   20  C17 UNL     1     -13.443   6.435  10.888  1.00  0.00     0.008 C 
HETATM   21  C18 UNL     1     -12.168   5.963  11.618  1.00  0.00     0.020 C 
HETATM   22  C19 UNL     1     -14.578   3.951   8.079  1.00  0.00     0.204 C 
HETATM   23  O6  UNL     1     -15.484   4.795   7.483  1.00  0.00    -0.215 OA
HETATM   24  O7  UNL     1     -16.593   4.124   7.289  1.00  0.00    -0.200 OA
ENDROOT
BRANCH   1  25
HETATM   25  O1  UNL     1     -14.464   7.691  12.681  1.00  0.00    -0.390 OA
HETATM   26  C1  UNL     1     -15.370   8.765  12.816  1.00  0.00     0.202 C 
ENDBRANCH   1  25
TORSDOF 1
ENDMDL
