MODEL 1
REMARK VINA RESULT: -6.505511780      0.000      0.000
REMARK  5 active torsions:
REMARK  status: ('A' for Active; 'I' for Inactive)
REMARK    1  A    between atoms: C4_4  and  N1_5 
REMARK    2  A    between atoms: N1_5  and  C5_7 
REMARK    3  A    between atoms: C5_7  and  S1_11 
REMARK    4  A    between atoms: S1_11  and  C6_12 
REMARK    5  A    between atoms: C12_19  and  O1_20 
ROOT
HETATM    1  C1  UNL     1      45.439  71.078  44.664  1.00  0.00     0.051 C 
HETATM    2  C2  UNL     1      44.818  71.854  43.580  1.00  0.00    -0.026 A 
HETATM    3  C3  UNL     1      44.470  73.173  43.829  1.00  0.00     0.042 A 
HETATM    4  C4  UNL     1      43.884  73.975  42.872  1.00  0.00     0.074 A 
HETATM    5  C9  UNL     1      43.651  73.411  41.641  1.00  0.00     0.151 A 
HETATM    6  F1  UNL     1      43.082  74.159  40.687  1.00  0.00    -0.203 F 
HETATM    7  C10 UNL     1      43.977  72.099  41.338  1.00  0.00     0.013 A 
HETATM    8  C11 UNL     1      43.715  71.509  39.995  1.00  0.00     0.054 C 
HETATM    9  C12 UNL     1      44.562  71.333  42.324  1.00  0.00     0.080 A 
ENDROOT
BRANCH   4  10
HETATM   10  N1  UNL     1      43.533  75.331  43.144  1.00  0.00    -0.335 N 
ATOM     11  H1  UNL     1      42.686  75.532  43.677  1.00  0.00     0.168 HD
BRANCH  10  12
HETATM   12  C5  UNL     1      44.332  76.397  42.693  1.00  0.00     0.138 C 
HETATM   13  N2  UNL     1      45.435  76.662  43.265  1.00  0.00    -0.380 N 
ATOM     14  H22 UNL     1      45.754  76.108  44.060  1.00  0.00     0.158 HD
ATOM     15  H21 UNL     1      46.014  77.435  42.938  1.00  0.00     0.158 HD
BRANCH  12  16
HETATM   16  S1  UNL     1      43.779  77.357  41.318  1.00  0.00    -0.090 SA
BRANCH  16  17
HETATM   17  C6  UNL     1      43.069  78.931  41.877  1.00  0.00     0.047 C 
HETATM   18  C7  UNL     1      41.929  79.351  40.974  1.00  0.00     0.021 C 
HETATM   19  C8  UNL     1      44.122  79.987  41.983  1.00  0.00     0.021 C 
ENDBRANCH  16  17
ENDBRANCH  12  16
ENDBRANCH  10  12
ENDBRANCH   4  10
BRANCH   9  20
HETATM   20  O1  UNL     1      44.903  70.024  42.069  1.00  0.00    -0.360 OA
ATOM     21  H1  UNL     1      45.080  69.765  41.172  1.00  0.00     0.217 HD
ENDBRANCH   9  20
TORSDOF 5
ENDMDL
MODEL 2
REMARK VINA RESULT: -6.504258355      1.087      2.333
REMARK  5 active torsions:
REMARK  status: ('A' for Active; 'I' for Inactive)
REMARK    1  A    between atoms: C4_4  and  N1_5 
REMARK    2  A    between atoms: N1_5  and  C5_7 
REMARK    3  A    between atoms: C5_7  and  S1_11 
REMARK    4  A    between atoms: S1_11  and  C6_12 
REMARK    5  A    between atoms: C12_19  and  O1_20 
ROOT
HETATM    1  C1  UNL     1      43.739  71.445  39.822  1.00  0.00     0.051 C 
HETATM    2  C2  UNL     1      43.949  71.995  41.169  1.00  0.00    -0.026 A 
HETATM    3  C3  UNL     1      43.585  73.312  41.407  1.00  0.00     0.042 A 
HETATM    4  C4  UNL     1      43.746  73.911  42.639  1.00  0.00     0.074 A 
HETATM    5  C9  UNL     1      44.291  73.144  43.641  1.00  0.00     0.151 A 
HETATM    6  F1  UNL     1      44.463  73.692  44.851  1.00  0.00    -0.203 F 
HETATM    7  C10 UNL     1      44.673  71.825  43.458  1.00  0.00     0.013 A 
HETATM    8  C11 UNL     1      45.261  71.012  44.560  1.00  0.00     0.054 C 
HETATM    9  C12 UNL     1      44.494  71.266  42.211  1.00  0.00     0.080 A 
ENDROOT
BRANCH   4  10
HETATM   10  N1  UNL     1      43.365  75.267  42.868  1.00  0.00    -0.335 N 
ATOM     11  H1  UNL     1      42.455  75.468  43.284  1.00  0.00     0.168 HD
BRANCH  10  12
HETATM   12  C5  UNL     1      44.220  76.333  42.532  1.00  0.00     0.138 C 
HETATM   13  N2  UNL     1      45.297  76.523  43.178  1.00  0.00    -0.380 N 
ATOM     14  H22 UNL     1      45.555  75.908  43.949  1.00  0.00     0.158 HD
ATOM     15  H21 UNL     1      45.916  77.296  42.934  1.00  0.00     0.158 HD
BRANCH  12  16
HETATM   16  S1  UNL     1      43.772  77.398  41.196  1.00  0.00    -0.090 SA
BRANCH  16  17
HETATM   17  C6  UNL     1      43.028  78.932  41.820  1.00  0.00     0.047 C 
HETATM   18  C7  UNL     1      41.860  79.348  40.952  1.00  0.00     0.021 C 
HETATM   19  C8  UNL     1      44.053  80.013  41.941  1.00  0.00     0.021 C 
ENDBRANCH  16  17
ENDBRANCH  12  16
ENDBRANCH  10  12
ENDBRANCH   4  10
BRANCH   9  20
HETATM   20  O1  UNL     1      44.859  69.958  41.982  1.00  0.00    -0.360 OA
ATOM     21  H1  UNL     1      44.792  69.334  42.695  1.00  0.00     0.217 HD
ENDBRANCH   9  20
TORSDOF 5
ENDMDL
MODEL 3
REMARK VINA RESULT: -6.497190786      2.196      3.219
REMARK  5 active torsions:
REMARK  status: ('A' for Active; 'I' for Inactive)
REMARK    1  A    between atoms: C4_4  and  N1_5 
REMARK    2  A    between atoms: N1_5  and  C5_7 
REMARK    3  A    between atoms: C5_7  and  S1_11 
REMARK    4  A    between atoms: S1_11  and  C6_12 
REMARK    5  A    between atoms: C12_19  and  O1_20 
ROOT
HETATM    1  C1  UNL     1      43.575  71.329  40.034  1.00  0.00     0.051 C 
HETATM    2  C2  UNL     1      43.789  71.808  41.408  1.00  0.00    -0.026 A 
HETATM    3  C3  UNL     1      43.259  73.038  41.768  1.00  0.00     0.042 A 
HETATM    4  C4  UNL     1      43.411  73.565  43.033  1.00  0.00     0.074 A 
HETATM    5  C9  UNL     1      44.120  72.816  43.942  1.00  0.00     0.151 A 
HETATM    6  F1  UNL     1      44.288  73.297  45.180  1.00  0.00    -0.203 F 
HETATM    7  C10 UNL     1      44.671  71.583  43.636  1.00  0.00     0.013 A 
HETATM    8  C11 UNL     1      45.435  70.788  44.638  1.00  0.00     0.054 C 
HETATM    9  C12 UNL     1      44.495  71.094  42.360  1.00  0.00     0.080 A 
ENDROOT
BRANCH   4  10
HETATM   10  N1  UNL     1      42.858  74.833  43.388  1.00  0.00    -0.335 N 
ATOM     11  H1  UNL     1      41.859  74.905  43.585  1.00  0.00     0.168 HD
BRANCH  10  12
HETATM   12  C5  UNL     1      43.662  75.983  43.469  1.00  0.00     0.138 C 
HETATM   13  N2  UNL     1      43.208  77.051  43.986  1.00  0.00    -0.380 N 
ATOM     14  H22 UNL     1      42.254  77.089  44.346  1.00  0.00     0.158 HD
ATOM     15  H21 UNL     1      43.791  77.886  44.045  1.00  0.00     0.158 HD
BRANCH  12  16
HETATM   16  S1  UNL     1      45.313  75.918  42.845  1.00  0.00    -0.090 SA
BRANCH  16  17
HETATM   17  C6  UNL     1      45.316  75.957  41.031  1.00  0.00     0.047 C 
HETATM   18  C7  UNL     1      46.098  74.786  40.475  1.00  0.00     0.021 C 
HETATM   19  C8  UNL     1      45.827  77.268  40.524  1.00  0.00     0.021 C 
ENDBRANCH  16  17
ENDBRANCH  12  16
ENDBRANCH  10  12
ENDBRANCH   4  10
BRANCH   9  20
HETATM   20  O1  UNL     1      45.026  69.872  42.010  1.00  0.00    -0.360 OA
ATOM     21  H1  UNL     1      45.676  69.839  41.318  1.00  0.00     0.217 HD
ENDBRANCH   9  20
TORSDOF 5
ENDMDL
MODEL 4
REMARK VINA RESULT: -6.480113633      2.087      2.415
REMARK  5 active torsions:
REMARK  status: ('A' for Active; 'I' for Inactive)
REMARK    1  A    between atoms: C4_4  and  N1_5 
REMARK    2  A    between atoms: N1_5  and  C5_7 
REMARK    3  A    between atoms: C5_7  and  S1_11 
REMARK    4  A    between atoms: S1_11  and  C6_12 
REMARK    5  A    between atoms: C12_19  and  O1_20 
ROOT
HETATM    1  C1  UNL     1      45.498  71.481  44.556  1.00  0.00     0.051 C 
HETATM    2  C2  UNL     1      45.263  71.903  43.167  1.00  0.00    -0.026 A 
HETATM    3  C3  UNL     1      45.780  73.120  42.751  1.00  0.00     0.042 A 
HETATM    4  C4  UNL     1      45.609  73.595  41.467  1.00  0.00     0.074 A 
HETATM    5  C9  UNL     1      44.894  72.805  40.599  1.00  0.00     0.151 A 
HETATM    6  F1  UNL     1      44.707  73.234  39.344  1.00  0.00    -0.203 F 
HETATM    7  C10 UNL     1      44.355  71.582  40.961  1.00  0.00     0.013 A 
HETATM    8  C11 UNL     1      43.583  70.743  40.002  1.00  0.00     0.054 C 
HETATM    9  C12 UNL     1      44.550  71.146  42.254  1.00  0.00     0.080 A 
ENDROOT
BRANCH   4  10
HETATM   10  N1  UNL     1      46.149  74.850  41.055  1.00  0.00    -0.335 N 
ATOM     11  H1  UNL     1      47.113  74.896  40.724  1.00  0.00     0.168 HD
BRANCH  10  12
HETATM   12  C5  UNL     1      45.378  76.026  41.095  1.00  0.00     0.138 C 
HETATM   13  N2  UNL     1      45.861  77.127  40.687  1.00  0.00    -0.380 N 
ATOM     14  H22 UNL     1      46.814  77.174  40.326  1.00  0.00     0.158 HD
ATOM     15  H21 UNL     1      45.302  77.980  40.717  1.00  0.00     0.158 HD
BRANCH  12  16
HETATM   16  S1  UNL     1      43.728  75.944  41.721  1.00  0.00    -0.090 SA
BRANCH  16  17
HETATM   17  C6  UNL     1      43.727  75.972  43.535  1.00  0.00     0.047 C 
HETATM   18  C7  UNL     1      42.925  74.812  44.085  1.00  0.00     0.021 C 
HETATM   19  C8  UNL     1      43.239  77.288  44.051  1.00  0.00     0.021 C 
ENDBRANCH  16  17
ENDBRANCH  12  16
ENDBRANCH  10  12
ENDBRANCH   4  10
BRANCH   9  20
HETATM   20  O1  UNL     1      44.032  69.936  42.659  1.00  0.00    -0.360 OA
ATOM     21  H1  UNL     1      43.565  69.894  43.485  1.00  0.00     0.217 HD
ENDBRANCH   9  20
TORSDOF 5
ENDMDL
MODEL 5
REMARK VINA RESULT: -6.463660165      1.919      3.104
REMARK  5 active torsions:
REMARK  status: ('A' for Active; 'I' for Inactive)
REMARK    1  A    between atoms: C4_4  and  N1_5 
REMARK    2  A    between atoms: N1_5  and  C5_7 
REMARK    3  A    between atoms: C5_7  and  S1_11 
REMARK    4  A    between atoms: S1_11  and  C6_12 
REMARK    5  A    between atoms: C12_19  and  O1_20 
ROOT
HETATM    1  C1  UNL     1      43.655  71.197  39.822  1.00  0.00     0.051 C 
HETATM    2  C2  UNL     1      44.253  71.963  40.925  1.00  0.00    -0.026 A 
HETATM    3  C3  UNL     1      44.586  73.290  40.702  1.00  0.00     0.042 A 
HETATM    4  C4  UNL     1      45.151  74.084  41.678  1.00  0.00     0.074 A 
HETATM    5  C9  UNL     1      45.377  73.503  42.903  1.00  0.00     0.151 A 
HETATM    6  F1  UNL     1      45.924  74.244  43.876  1.00  0.00    -0.203 F 
HETATM    7  C10 UNL     1      45.065  72.183  43.180  1.00  0.00     0.013 A 
HETATM    8  C11 UNL     1      45.319  71.574  44.517  1.00  0.00     0.054 C 
HETATM    9  C12 UNL     1      44.502  71.426  42.176  1.00  0.00     0.080 A 
ENDROOT
BRANCH   4  10
HETATM   10  N1  UNL     1      45.487  75.450  41.432  1.00  0.00    -0.335 N 
ATOM     11  H1  UNL     1      46.332  75.669  40.905  1.00  0.00     0.168 HD
BRANCH  10  12
HETATM   12  C5  UNL     1      44.675  76.498  41.902  1.00  0.00     0.138 C 
HETATM   13  N2  UNL     1      43.569  76.759  41.336  1.00  0.00    -0.380 N 
ATOM     14  H22 UNL     1      43.255  76.214  40.532  1.00  0.00     0.158 HD
ATOM     15  H21 UNL     1      42.980  77.519  41.676  1.00  0.00     0.158 HD
BRANCH  12  16
HETATM   16  S1  UNL     1      45.218  77.441  43.293  1.00  0.00    -0.090 SA
BRANCH  16  17
HETATM   17  C6  UNL     1      45.988  78.994  42.754  1.00  0.00     0.047 C 
HETATM   18  C7  UNL     1      47.165  79.339  43.641  1.00  0.00     0.021 C 
HETATM   19  C8  UNL     1      44.982  80.099  42.698  1.00  0.00     0.021 C 
ENDBRANCH  16  17
ENDBRANCH  12  16
ENDBRANCH  10  12
ENDBRANCH   4  10
BRANCH   9  20
HETATM   20  O1  UNL     1      44.175  70.108  42.406  1.00  0.00    -0.360 OA
ATOM     21  H1  UNL     1      44.631  69.433  41.917  1.00  0.00     0.217 HD
ENDBRANCH   9  20
TORSDOF 5
ENDMDL
