MODEL 1
REMARK VINA RESULT: -6.984009168      0.000      0.000
REMARK  4 active torsions:
REMARK  status: ('A' for Active; 'I' for Inactive)
REMARK    1  A    between atoms: C4_7  and  C5_8 
REMARK    2  A    between atoms: C5_8  and  C6_13 
REMARK    3  A    between atoms: N2_9  and  O1_11 
REMARK    4  A    between atoms: C12_19  and  O2_20 
ROOT
HETATM    1  C5  UNL     1      43.982  73.620  43.635  1.00  0.00     0.052 C 
HETATM    2  N2  UNL     1      44.086  73.260  44.863  1.00  0.00    -0.272 N 
ATOM      3  H2  UNL     1      44.216  74.029  45.519  1.00  0.00     0.194 HD
ENDROOT
BRANCH   1   4
HETATM    4  C4  UNL     1      44.067  75.055  43.387  1.00  0.00     0.062 A 
HETATM    5  C3  UNL     1      43.300  76.017  44.053  1.00  0.00     0.119 A 
HETATM    6  N1  UNL     1      43.560  77.239  43.593  1.00  0.00    -0.347 N 
HETATM    7 CL1  UNL     1      42.143  75.706  45.327  1.00  0.00    -0.063 Cl
HETATM    8  C2  UNL     1      44.476  77.098  42.643  1.00  0.00     0.041 A 
ATOM      9  H1  UNL     1      43.138  78.112  43.908  1.00  0.00     0.167 HD
HETATM   10  C1  UNL     1      45.099  78.186  41.818  1.00  0.00     0.071 C 
HETATM   11  C12 UNL     1      44.820  75.747  42.482  1.00  0.00     0.103 A 
BRANCH  11  12
HETATM   12  O2  UNL     1      45.731  75.369  41.568  1.00  0.00    -0.358 OA
ATOM     13  H2  UNL     1      46.577  75.800  41.513  1.00  0.00     0.217 HD
ENDBRANCH  11  12
ENDBRANCH   1   4
BRANCH   1  14
HETATM   14  C6  UNL     1      43.881  72.584  42.613  1.00  0.00     0.038 C 
HETATM   15  C7  UNL     1      43.179  73.095  41.370  1.00  0.00     0.011 C 
HETATM   16  C8  UNL     1      43.784  72.510  40.098  1.00  0.00     0.001 C 
HETATM   17  C9  UNL     1      43.922  71.028  40.312  1.00  0.00     0.000 C 
HETATM   18  C10 UNL     1      44.805  70.660  41.454  1.00  0.00     0.001 C 
HETATM   19  C11 UNL     1      45.196  71.967  42.189  1.00  0.00     0.011 C 
ENDBRANCH   1  14
BRANCH   2  20
HETATM   20  O1  UNL     1      44.054  72.055  45.425  1.00  0.00    -0.290 OA
ATOM     21  H1  UNL     1      44.235  71.777  46.316  1.00  0.00     0.244 HD
ENDBRANCH   2  20
TORSDOF 4
ENDMDL
MODEL 2
REMARK VINA RESULT: -6.980796988      2.977      3.731
REMARK  4 active torsions:
REMARK  status: ('A' for Active; 'I' for Inactive)
REMARK    1  A    between atoms: C4_7  and  C5_8 
REMARK    2  A    between atoms: C5_8  and  C6_13 
REMARK    3  A    between atoms: N2_9  and  O1_11 
REMARK    4  A    between atoms: C12_19  and  O2_20 
ROOT
HETATM    1  C5  UNL     1      45.052  73.622  40.956  1.00  0.00     0.052 C 
HETATM    2  N2  UNL     1      44.944  73.263  39.728  1.00  0.00    -0.272 N 
ATOM      3  H2  UNL     1      44.814  74.033  39.072  1.00  0.00     0.194 HD
ENDROOT
BRANCH   1   4
HETATM    4  C4  UNL     1      44.969  75.057  41.204  1.00  0.00     0.062 A 
HETATM    5  C3  UNL     1      45.737  76.019  40.538  1.00  0.00     0.119 A 
HETATM    6  N1  UNL     1      45.480  77.240  41.000  1.00  0.00    -0.347 N 
HETATM    7 CL1  UNL     1      46.894  75.706  39.264  1.00  0.00    -0.063 Cl
HETATM    8  C2  UNL     1      44.564  77.100  41.950  1.00  0.00     0.041 A 
ATOM      9  H1  UNL     1      45.903  78.113  40.685  1.00  0.00     0.167 HD
HETATM   10  C1  UNL     1      43.942  78.189  42.776  1.00  0.00     0.071 C 
HETATM   11  C12 UNL     1      44.217  75.750  42.110  1.00  0.00     0.103 A 
BRANCH  11  12
HETATM   12  O2  UNL     1      43.306  75.373  43.024  1.00  0.00    -0.358 OA
ATOM     13  H2  UNL     1      43.313  74.495  43.388  1.00  0.00     0.217 HD
ENDBRANCH  11  12
ENDBRANCH   1   4
BRANCH   1  14
HETATM   14  C6  UNL     1      45.154  72.586  41.977  1.00  0.00     0.038 C 
HETATM   15  C7  UNL     1      45.856  73.097  43.220  1.00  0.00     0.011 C 
HETATM   16  C8  UNL     1      45.251  72.510  44.492  1.00  0.00     0.001 C 
HETATM   17  C9  UNL     1      45.115  71.028  44.277  1.00  0.00     0.000 C 
HETATM   18  C10 UNL     1      44.232  70.661  43.135  1.00  0.00     0.001 C 
HETATM   19  C11 UNL     1      43.839  71.968  42.401  1.00  0.00     0.011 C 
ENDBRANCH   1  14
BRANCH   2  20
HETATM   20  O1  UNL     1      44.974  72.058  39.165  1.00  0.00    -0.290 OA
ATOM     21  H1  UNL     1      45.201  71.787  38.283  1.00  0.00     0.244 HD
ENDBRANCH   2  20
TORSDOF 4
ENDMDL
MODEL 3
REMARK VINA RESULT: -6.755275824      2.131      2.466
REMARK  4 active torsions:
REMARK  status: ('A' for Active; 'I' for Inactive)
REMARK    1  A    between atoms: C4_7  and  C5_8 
REMARK    2  A    between atoms: C5_8  and  C6_13 
REMARK    3  A    between atoms: N2_9  and  O1_11 
REMARK    4  A    between atoms: C12_19  and  O2_20 
ROOT
HETATM    1  C5  UNL     1      44.987  74.629  41.781  1.00  0.00     0.052 C 
HETATM    2  N2  UNL     1      45.635  74.646  40.673  1.00  0.00    -0.272 N 
ATOM      3  H2  UNL     1      45.799  75.579  40.294  1.00  0.00     0.194 HD
ENDROOT
BRANCH   1   4
HETATM    4  C4  UNL     1      44.596  75.932  42.306  1.00  0.00     0.062 A 
HETATM    5  C3  UNL     1      43.680  76.121  43.346  1.00  0.00     0.119 A 
HETATM    6  N1  UNL     1      43.487  77.417  43.585  1.00  0.00    -0.347 N 
HETATM    7 CL1  UNL     1      42.871  74.857  44.244  1.00  0.00    -0.063 Cl
HETATM    8  C2  UNL     1      44.253  78.077  42.726  1.00  0.00     0.041 A 
ATOM      9  H1  UNL     1      42.871  77.822  44.290  1.00  0.00     0.167 HD
HETATM   10  C1  UNL     1      44.390  79.566  42.594  1.00  0.00     0.071 C 
HETATM   11  C12 UNL     1      44.963  77.186  41.907  1.00  0.00     0.103 A 
BRANCH  11  12
HETATM   12  O2  UNL     1      45.801  77.637  40.957  1.00  0.00    -0.358 OA
ATOM     13  H2  UNL     1      45.742  78.529  40.635  1.00  0.00     0.217 HD
ENDBRANCH  11  12
ENDBRANCH   1   4
BRANCH   1  14
HETATM   14  C6  UNL     1      44.628  73.337  42.356  1.00  0.00     0.038 C 
HETATM   15  C7  UNL     1      43.927  72.453  41.343  1.00  0.00     0.011 C 
HETATM   16  C8  UNL     1      44.319  70.987  41.506  1.00  0.00     0.001 C 
HETATM   17  C9  UNL     1      44.215  70.659  42.969  1.00  0.00     0.000 C 
HETATM   18  C10 UNL     1      45.109  71.475  43.838  1.00  0.00     0.001 C 
HETATM   19  C11 UNL     1      45.778  72.553  42.948  1.00  0.00     0.011 C 
ENDBRANCH   1  14
BRANCH   2  20
HETATM   20  O1  UNL     1      46.130  73.657  39.934  1.00  0.00    -0.290 OA
ATOM     21  H1  UNL     1      45.953  73.400  39.037  1.00  0.00     0.244 HD
ENDBRANCH   2  20
TORSDOF 4
ENDMDL
MODEL 4
REMARK VINA RESULT: -6.741847842      2.248      2.741
REMARK  4 active torsions:
REMARK  status: ('A' for Active; 'I' for Inactive)
REMARK    1  A    between atoms: C4_7  and  C5_8 
REMARK    2  A    between atoms: C5_8  and  C6_13 
REMARK    3  A    between atoms: N2_9  and  O1_11 
REMARK    4  A    between atoms: C12_19  and  O2_20 
ROOT
HETATM    1  C5  UNL     1      44.044  74.633  42.814  1.00  0.00     0.052 C 
HETATM    2  N2  UNL     1      43.398  74.645  43.924  1.00  0.00    -0.272 N 
ATOM      3  H2  UNL     1      43.234  75.575  44.307  1.00  0.00     0.194 HD
ENDROOT
BRANCH   1   4
HETATM    4  C4  UNL     1      44.431  75.940  42.294  1.00  0.00     0.062 A 
HETATM    5  C3  UNL     1      45.347  76.135  41.254  1.00  0.00     0.119 A 
HETATM    6  N1  UNL     1      45.536  77.432  41.021  1.00  0.00    -0.347 N 
HETATM    7 CL1  UNL     1      46.158  74.877  40.351  1.00  0.00    -0.063 Cl
HETATM    8  C2  UNL     1      44.769  78.087  41.883  1.00  0.00     0.041 A 
ATOM      9  H1  UNL     1      46.151  77.842  40.318  1.00  0.00     0.167 HD
HETATM   10  C1  UNL     1      44.628  79.576  42.020  1.00  0.00     0.071 C 
HETATM   11  C12 UNL     1      44.061  77.191  42.698  1.00  0.00     0.103 A 
BRANCH  11  12
HETATM   12  O2  UNL     1      43.222  77.636  43.651  1.00  0.00    -0.358 OA
ATOM     13  H2  UNL     1      43.392  77.466  44.570  1.00  0.00     0.217 HD
ENDBRANCH  11  12
ENDBRANCH   1   4
BRANCH   1  14
HETATM   14  C6  UNL     1      44.404  73.345  42.232  1.00  0.00     0.038 C 
HETATM   15  C7  UNL     1      45.113  72.459  43.237  1.00  0.00     0.011 C 
HETATM   16  C8  UNL     1      44.725  70.993  43.071  1.00  0.00     0.001 C 
HETATM   17  C9  UNL     1      44.821  70.671  41.606  1.00  0.00     0.000 C 
HETATM   18  C10 UNL     1      43.919  71.487  40.746  1.00  0.00     0.001 C 
HETATM   19  C11 UNL     1      43.252  72.559  41.644  1.00  0.00     0.011 C 
ENDBRANCH   1  14
BRANCH   2  20
HETATM   20  O1  UNL     1      42.907  73.651  44.659  1.00  0.00    -0.290 OA
ATOM     21  H1  UNL     1      43.107  72.722  44.666  1.00  0.00     0.244 HD
ENDBRANCH   2  20
TORSDOF 4
ENDMDL
MODEL 5
REMARK VINA RESULT: -6.735001491      2.066      4.867
REMARK  4 active torsions:
REMARK  status: ('A' for Active; 'I' for Inactive)
REMARK    1  A    between atoms: C4_7  and  C5_8 
REMARK    2  A    between atoms: C5_8  and  C6_13 
REMARK    3  A    between atoms: N2_9  and  O1_11 
REMARK    4  A    between atoms: C12_19  and  O2_20 
ROOT
HETATM    1  C5  UNL     1      43.355  74.898  43.937  1.00  0.00     0.052 C 
HETATM    2  N2  UNL     1      42.471  74.828  44.865  1.00  0.00    -0.272 N 
ATOM      3  H2  UNL     1      42.018  73.918  44.949  1.00  0.00     0.194 HD
ENDROOT
BRANCH   1   4
HETATM    4  C4  UNL     1      43.561  73.677  43.166  1.00  0.00     0.062 A 
HETATM    5  C3  UNL     1      44.077  72.488  43.694  1.00  0.00     0.119 A 
HETATM    6  N1  UNL     1      44.193  71.556  42.751  1.00  0.00    -0.347 N 
HETATM    7 CL1  UNL     1      44.523  72.215  45.363  1.00  0.00    -0.063 Cl
HETATM    8  C2  UNL     1      43.767  72.107  41.621  1.00  0.00     0.041 A 
ATOM      9  H1  UNL     1      44.540  70.605  42.873  1.00  0.00     0.167 HD
HETATM   10  C1  UNL     1      43.699  71.459  40.268  1.00  0.00     0.071 C 
HETATM   11  C12 UNL     1      43.363  73.433  41.837  1.00  0.00     0.103 A 
BRANCH  11  12
HETATM   12  O2  UNL     1      42.898  74.188  40.826  1.00  0.00    -0.358 OA
ATOM     13  H2  UNL     1      42.838  73.840  39.943  1.00  0.00     0.217 HD
ENDBRANCH  11  12
ENDBRANCH   1   4
BRANCH   1  14
HETATM   14  C6  UNL     1      43.995  76.184  43.681  1.00  0.00     0.038 C 
HETATM   15  C7  UNL     1      45.315  76.014  42.956  1.00  0.00     0.011 C 
HETATM   16  C8  UNL     1      45.551  77.131  41.943  1.00  0.00     0.001 C 
HETATM   17  C9  UNL     1      45.251  78.431  42.638  1.00  0.00     0.000 C 
HETATM   18  C10 UNL     1      43.851  78.545  43.132  1.00  0.00     0.001 C 
HETATM   19  C11 UNL     1      43.157  77.177  42.906  1.00  0.00     0.011 C 
ENDBRANCH   1  14
BRANCH   2  20
HETATM   20  O1  UNL     1      42.044  75.739  45.735  1.00  0.00    -0.290 OA
ATOM     21  H1  UNL     1      41.889  75.684  46.670  1.00  0.00     0.244 HD
ENDBRANCH   2  20
TORSDOF 4
ENDMDL
