MODEL 1
REMARK VINA RESULT: -7.206253999      0.000      0.000
REMARK  3 active torsions:
REMARK  status: ('A' for Active; 'I' for Inactive)
REMARK    1  A    between atoms: C2_4  and  C3_5 
REMARK    2  A    between atoms: C3_5  and  N2_6 
REMARK    3  A    between atoms: N2_6  and  C4_8 
ROOT
HETATM    1  C4  UNL     1     -21.892   1.101 -24.269  1.00  0.00     0.026 C 
HETATM    2  C5  UNL     1     -21.994   2.418 -23.544  1.00  0.00     0.031 C 
HETATM    3  C6  UNL     1     -21.141   2.473 -22.293  1.00  0.00     0.003 C 
HETATM    4  C7  UNL     1     -21.606   1.400 -21.348  1.00  0.00     0.005 C 
HETATM    5  C8  UNL     1     -21.323   0.029 -21.721  1.00  0.00    -0.006 C 
HETATM    6  C9  UNL     1     -20.349  -0.234 -22.817  1.00  0.00    -0.007 C 
HETATM    7  C10 UNL     1     -21.162  -1.523 -23.048  1.00  0.00     0.010 C 
HETATM    8  C11 UNL     1     -22.352  -0.676 -22.553  1.00  0.00    -0.007 C 
HETATM    9  C12 UNL     1     -22.877   0.086 -23.712  1.00  0.00     0.035 C 
HETATM   10  C13 UNL     1     -20.495   0.577 -24.052  1.00  0.00     0.035 C 
ENDROOT
BRANCH   1  11
HETATM   11  N2  UNL     1     -22.223   1.289 -25.640  1.00  0.00    -0.407 N 
ATOM     12  H2  UNL     1     -23.132   1.662 -25.913  1.00  0.00     0.154 HD
BRANCH  11  13
HETATM   13  C3  UNL     1     -21.259   0.944 -26.614  1.00  0.00     0.173 C 
BRANCH  13  14
HETATM   14  C2  UNL     1     -21.898   0.040 -27.609  1.00  0.00     0.043 A 
HETATM   15  N1  UNL     1     -22.864   0.346 -28.490  1.00  0.00    -0.353 N 
HETATM   16  C1  UNL     1     -23.161  -0.767 -29.219  1.00  0.00     0.180 A 
ATOM     17  H1  UNL     1     -23.302   1.262 -28.596  1.00  0.00     0.166 HD
HETATM   18  N3  UNL     1     -22.385  -1.791 -28.805  1.00  0.00    -0.360 N 
HETATM   19  C14 UNL     1     -21.600  -1.288 -27.805  1.00  0.00     0.115 A 
ATOM     20  H3  UNL     1     -22.384  -2.745 -29.164  1.00  0.00     0.166 HD
ENDBRANCH  13  14
ENDBRANCH  11  13
ENDBRANCH   1  11
TORSDOF 3
ENDMDL
MODEL 2
REMARK VINA RESULT: -7.196072977      1.633      2.993
REMARK  3 active torsions:
REMARK  status: ('A' for Active; 'I' for Inactive)
REMARK    1  A    between atoms: C2_4  and  C3_5 
REMARK    2  A    between atoms: C3_5  and  N2_6 
REMARK    3  A    between atoms: N2_6  and  C4_8 
ROOT
HETATM    1  C4  UNL     1     -21.166  -1.089 -24.281  1.00  0.00     0.026 C 
HETATM    2  C5  UNL     1     -21.069  -2.423 -23.586  1.00  0.00     0.031 C 
HETATM    3  C6  UNL     1     -21.931  -2.507 -22.343  1.00  0.00     0.003 C 
HETATM    4  C7  UNL     1     -21.475  -1.455 -21.370  1.00  0.00     0.005 C 
HETATM    5  C8  UNL     1     -21.756  -0.077 -21.713  1.00  0.00    -0.006 C 
HETATM    6  C9  UNL     1     -22.722   0.211 -22.810  1.00  0.00    -0.007 C 
HETATM    7  C10 UNL     1     -21.908   1.506 -23.005  1.00  0.00     0.010 C 
HETATM    8  C11 UNL     1     -20.721   0.649 -22.521  1.00  0.00    -0.007 C 
HETATM    9  C12 UNL     1     -20.186  -0.087 -23.693  1.00  0.00     0.035 C 
HETATM   10  C13 UNL     1     -22.566  -0.571 -24.063  1.00  0.00     0.035 C 
ENDROOT
BRANCH   1  11
HETATM   11  N2  UNL     1     -20.825  -1.245 -25.653  1.00  0.00    -0.407 N 
ATOM     12  H2  UNL     1     -19.908  -1.596 -25.928  1.00  0.00     0.154 HD
BRANCH  11  13
HETATM   13  C3  UNL     1     -21.790  -0.900 -26.626  1.00  0.00     0.173 C 
BRANCH  13  14
HETATM   14  C2  UNL     1     -21.146  -0.014 -27.634  1.00  0.00     0.043 A 
HETATM   15  N1  UNL     1     -20.198  -0.345 -28.526  1.00  0.00    -0.353 N 
HETATM   16  C1  UNL     1     -19.887   0.758 -29.265  1.00  0.00     0.180 A 
ATOM     17  H1  UNL     1     -19.779  -1.270 -28.632  1.00  0.00     0.166 HD
HETATM   18  N3  UNL     1     -20.638   1.799 -28.847  1.00  0.00    -0.360 N 
HETATM   19  C14 UNL     1     -21.419   1.318 -27.834  1.00  0.00     0.115 A 
ATOM     20  H3  UNL     1     -20.624   2.751 -29.212  1.00  0.00     0.166 HD
ENDBRANCH  13  14
ENDBRANCH  11  13
ENDBRANCH   1  11
TORSDOF 3
ENDMDL
MODEL 3
REMARK VINA RESULT: -7.147667642      1.366      1.507
REMARK  3 active torsions:
REMARK  status: ('A' for Active; 'I' for Inactive)
REMARK    1  A    between atoms: C2_4  and  C3_5 
REMARK    2  A    between atoms: C3_5  and  N2_6 
REMARK    3  A    between atoms: N2_6  and  C4_8 
ROOT
HETATM    1  C4  UNL     1     -21.879   1.095 -24.307  1.00  0.00     0.026 C 
HETATM    2  C5  UNL     1     -21.981   2.454 -23.665  1.00  0.00     0.031 C 
HETATM    3  C6  UNL     1     -21.122   2.588 -22.424  1.00  0.00     0.003 C 
HETATM    4  C7  UNL     1     -21.577   1.574 -21.412  1.00  0.00     0.005 C 
HETATM    5  C8  UNL     1     -21.291   0.184 -21.701  1.00  0.00    -0.006 C 
HETATM    6  C9  UNL     1     -20.322  -0.143 -22.785  1.00  0.00    -0.007 C 
HETATM    7  C10 UNL     1     -21.132  -1.447 -22.932  1.00  0.00     0.010 C 
HETATM    8  C11 UNL     1     -22.322  -0.575 -22.483  1.00  0.00    -0.007 C 
HETATM    9  C12 UNL     1     -22.857   0.113 -23.683  1.00  0.00     0.035 C 
HETATM   10  C13 UNL     1     -20.478   0.589 -24.067  1.00  0.00     0.035 C 
ENDROOT
BRANCH   1  11
HETATM   11  N2  UNL     1     -22.218   1.196 -25.685  1.00  0.00    -0.407 N 
ATOM     12  H2  UNL     1     -22.660   2.038 -26.055  1.00  0.00     0.154 HD
BRANCH  11  13
HETATM   13  C3  UNL     1     -21.926   0.101 -26.529  1.00  0.00     0.173 C 
BRANCH  13  14
HETATM   14  C2  UNL     1     -21.189   0.608 -27.719  1.00  0.00     0.043 A 
HETATM   15  N1  UNL     1     -21.179   1.861 -28.201  1.00  0.00    -0.353 N 
HETATM   16  C1  UNL     1     -20.373   1.902 -29.301  1.00  0.00     0.180 A 
ATOM     17  H1  UNL     1     -21.690   2.652 -27.809  1.00  0.00     0.166 HD
HETATM   18  N3  UNL     1     -19.865   0.671 -29.525  1.00  0.00    -0.360 N 
HETATM   19  C14 UNL     1     -20.372  -0.131 -28.541  1.00  0.00     0.115 A 
ATOM     20  H3  UNL     1     -19.231   0.396 -30.275  1.00  0.00     0.166 HD
ENDBRANCH  13  14
ENDBRANCH  11  13
ENDBRANCH   1  11
TORSDOF 3
ENDMDL
MODEL 4
REMARK VINA RESULT: -7.138153374      1.280      2.666
REMARK  3 active torsions:
REMARK  status: ('A' for Active; 'I' for Inactive)
REMARK    1  A    between atoms: C2_4  and  C3_5 
REMARK    2  A    between atoms: C3_5  and  N2_6 
REMARK    3  A    between atoms: N2_6  and  C4_8 
ROOT
HETATM    1  C4  UNL     1     -21.173  -1.104 -24.297  1.00  0.00     0.026 C 
HETATM    2  C5  UNL     1     -21.067  -2.455 -23.637  1.00  0.00     0.031 C 
HETATM    3  C6  UNL     1     -21.927  -2.577 -22.396  1.00  0.00     0.003 C 
HETATM    4  C7  UNL     1     -21.476  -1.549 -21.396  1.00  0.00     0.005 C 
HETATM    5  C8  UNL     1     -21.766  -0.163 -21.703  1.00  0.00    -0.006 C 
HETATM    6  C9  UNL     1     -22.735   0.147 -22.791  1.00  0.00    -0.007 C 
HETATM    7  C10 UNL     1     -21.930   1.451 -22.953  1.00  0.00     0.010 C 
HETATM    8  C11 UNL     1     -20.737   0.589 -22.493  1.00  0.00    -0.007 C 
HETATM    9  C12 UNL     1     -20.199  -0.111 -23.684  1.00  0.00     0.035 C 
HETATM   10  C13 UNL     1     -22.576  -0.601 -24.064  1.00  0.00     0.035 C 
ENDROOT
BRANCH   1  11
HETATM   11  N2  UNL     1     -20.833  -1.222 -25.673  1.00  0.00    -0.407 N 
ATOM     12  H2  UNL     1     -20.416  -2.078 -26.038  1.00  0.00     0.154 HD
BRANCH  11  13
HETATM   13  C3  UNL     1     -21.087  -0.121 -26.522  1.00  0.00     0.173 C 
BRANCH  13  14
HETATM   14  C2  UNL     1     -21.842  -0.607 -27.709  1.00  0.00     0.043 A 
HETATM   15  N1  UNL     1     -21.851  -1.849 -28.219  1.00  0.00    -0.353 N 
HETATM   16  C1  UNL     1     -22.678  -1.872 -29.304  1.00  0.00     0.180 A 
ATOM     17  H1  UNL     1     -21.326  -2.645 -27.855  1.00  0.00     0.166 HD
HETATM   18  N3  UNL     1     -23.200  -0.642 -29.490  1.00  0.00    -0.360 N 
HETATM   19  C14 UNL     1     -22.681   0.143 -28.498  1.00  0.00     0.115 A 
ATOM     20  H3  UNL     1     -23.850  -0.355 -30.222  1.00  0.00     0.166 HD
ENDBRANCH  13  14
ENDBRANCH  11  13
ENDBRANCH   1  11
TORSDOF 3
ENDMDL
MODEL 5
REMARK VINA RESULT: -7.063797199      1.730      2.935
REMARK  3 active torsions:
REMARK  status: ('A' for Active; 'I' for Inactive)
REMARK    1  A    between atoms: C2_4  and  C3_5 
REMARK    2  A    between atoms: C3_5  and  N2_6 
REMARK    3  A    between atoms: N2_6  and  C4_8 
ROOT
HETATM    1  C4  UNL     1     -21.219  -0.820 -24.898  1.00  0.00     0.026 C 
HETATM    2  C5  UNL     1     -20.604  -1.909 -24.057  1.00  0.00     0.031 C 
HETATM    3  C6  UNL     1     -21.342  -2.137 -22.753  1.00  0.00     0.003 C 
HETATM    4  C7  UNL     1     -21.300  -0.867 -21.950  1.00  0.00     0.005 C 
HETATM    5  C8  UNL     1     -22.094   0.243 -22.435  1.00  0.00    -0.006 C 
HETATM    6  C9  UNL     1     -23.120  -0.009 -23.485  1.00  0.00    -0.007 C 
HETATM    7  C10 UNL     1     -22.867   1.456 -23.894  1.00  0.00     0.010 C 
HETATM    8  C11 UNL     1     -21.433   1.184 -23.398  1.00  0.00    -0.007 C 
HETATM    9  C12 UNL     1     -20.683   0.548 -24.509  1.00  0.00     0.035 C 
HETATM   10  C13 UNL     1     -22.705  -0.841 -24.643  1.00  0.00     0.035 C 
ENDROOT
BRANCH   1  11
HETATM   11  N2  UNL     1     -20.874  -1.026 -26.263  1.00  0.00    -0.407 N 
ATOM     12  H2  UNL     1     -19.965  -1.410 -26.521  1.00  0.00     0.154 HD
BRANCH  11  13
HETATM   13  C3  UNL     1     -21.823  -0.684 -27.253  1.00  0.00     0.173 C 
BRANCH  13  14
HETATM   14  C2  UNL     1     -21.147   0.147 -28.286  1.00  0.00     0.043 A 
HETATM   15  N1  UNL     1     -20.309   1.177 -28.086  1.00  0.00    -0.353 N 
HETATM   16  C1  UNL     1     -19.910   1.659 -29.297  1.00  0.00     0.180 A 
ATOM     17  H1  UNL     1     -20.019   1.539 -27.177  1.00  0.00     0.166 HD
HETATM   18  N3  UNL     1     -20.493   0.938 -30.277  1.00  0.00    -0.360 N 
HETATM   19  C14 UNL     1     -21.261  -0.002 -29.647  1.00  0.00     0.115 A 
ATOM     20  H3  UNL     1     -20.383   1.066 -31.283  1.00  0.00     0.166 HD
ENDBRANCH  13  14
ENDBRANCH  11  13
ENDBRANCH   1  11
TORSDOF 3
ENDMDL
