MODEL 1
REMARK VINA RESULT: -6.935222631      0.000      0.000
REMARK  3 active torsions:
REMARK  status: ('A' for Active; 'I' for Inactive)
REMARK    1  A    between atoms: C3_7  and  C4_8 
REMARK    2  A    between atoms: C4_8  and  N3_9 
REMARK    3  A    between atoms: N3_9  and  C5_11 
ROOT
HETATM    1  C5  UNL     1     -21.807   0.584 -25.115  1.00  0.00    -0.018 C 
HETATM    2  C6  UNL     1     -21.713  -0.968 -25.077  1.00  0.00     0.052 C 
HETATM    3  C7  UNL     1     -21.724  -1.229 -23.629  1.00  0.00     0.006 C 
HETATM    4  C8  UNL     1     -21.984  -2.465 -22.921  1.00  0.00     0.000 C 
HETATM    5  C9  UNL     1     -22.147  -2.009 -21.445  1.00  0.00     0.000 C 
HETATM    6  C10 UNL     1     -21.244  -0.916 -21.006  1.00  0.00     0.000 C 
HETATM    7  C11 UNL     1     -21.773   0.476 -20.946  1.00  0.00     0.000 C 
HETATM    8  C12 UNL     1     -20.925   1.534 -21.668  1.00  0.00     0.000 C 
HETATM    9  C13 UNL     1     -21.513   1.936 -22.998  1.00  0.00     0.006 C 
HETATM   10  C14 UNL     1     -20.876   1.294 -24.216  1.00  0.00     0.052 C 
ENDROOT
BRANCH   1  11
HETATM   11  N3  UNL     1     -21.960   1.008 -26.444  1.00  0.00    -0.392 N 
ATOM     12  H3  UNL     1     -22.852   1.378 -26.773  1.00  0.00     0.159 HD
BRANCH  11  13
HETATM   13  C4  UNL     1     -20.850   0.911 -27.321  1.00  0.00     0.160 C 
BRANCH  13  14
HETATM   14  C3  UNL     1     -21.335   0.381 -28.638  1.00  0.00    -0.007 A 
HETATM   15  C1  UNL     1     -22.471  -0.409 -28.756  1.00  0.00     0.117 A 
HETATM   16  N1  UNL     1     -22.635  -0.716 -30.039  1.00  0.00    -0.312 N 
HETATM   17  N2  UNL     1     -21.651  -0.154 -30.738  1.00  0.00    -0.312 N 
ATOM     18  H1  UNL     1     -23.388  -1.287 -30.424  1.00  0.00     0.186 HD
HETATM   19  C2  UNL     1     -20.831   0.533 -29.889  1.00  0.00     0.117 A 
ATOM     20  H2  UNL     1     -21.529  -0.224 -31.749  1.00  0.00     0.186 HD
ENDBRANCH  13  14
ENDBRANCH  11  13
ENDBRANCH   1  11
TORSDOF 3
ENDMDL
MODEL 2
REMARK VINA RESULT: -6.926557415      0.971      2.643
REMARK  3 active torsions:
REMARK  status: ('A' for Active; 'I' for Inactive)
REMARK    1  A    between atoms: C3_7  and  C4_8 
REMARK    2  A    between atoms: C4_8  and  N3_9 
REMARK    3  A    between atoms: N3_9  and  C5_11 
ROOT
HETATM    1  C5  UNL     1     -21.308  -0.577 -25.131  1.00  0.00    -0.018 C 
HETATM    2  C6  UNL     1     -21.410   0.975 -25.106  1.00  0.00     0.052 C 
HETATM    3  C7  UNL     1     -21.373   1.251 -23.662  1.00  0.00     0.006 C 
HETATM    4  C8  UNL     1     -21.107   2.495 -22.970  1.00  0.00     0.000 C 
HETATM    5  C9  UNL     1     -20.912   2.054 -21.494  1.00  0.00     0.000 C 
HETATM    6  C10 UNL     1     -21.800   0.961 -21.027  1.00  0.00     0.000 C 
HETATM    7  C11 UNL     1     -21.261  -0.428 -20.964  1.00  0.00     0.000 C 
HETATM    8  C12 UNL     1     -22.117  -1.498 -21.658  1.00  0.00     0.000 C 
HETATM    9  C13 UNL     1     -21.552  -1.910 -22.996  1.00  0.00     0.006 C 
HETATM   10  C14 UNL     1     -22.217  -1.284 -24.207  1.00  0.00     0.052 C 
ENDROOT
BRANCH   1  11
HETATM   11  N3  UNL     1     -21.178  -1.013 -26.459  1.00  0.00    -0.392 N 
ATOM     12  H3  UNL     1     -20.307  -1.430 -26.787  1.00  0.00     0.159 HD
BRANCH  11  13
HETATM   13  C4  UNL     1     -22.282  -0.860 -27.336  1.00  0.00     0.160 C 
BRANCH  13  14
HETATM   14  C3  UNL     1     -21.770  -0.357 -28.654  1.00  0.00    -0.007 A 
HETATM   15  C1  UNL     1     -20.651   0.458 -28.762  1.00  0.00     0.117 A 
HETATM   16  N1  UNL     1     -20.457   0.731 -30.049  1.00  0.00    -0.312 N 
HETATM   17  N2  UNL     1     -21.404   0.123 -30.759  1.00  0.00    -0.312 N 
ATOM     18  H1  UNL     1     -19.707   1.309 -30.428  1.00  0.00     0.186 HD
HETATM   19  C2  UNL     1     -22.232  -0.559 -29.914  1.00  0.00     0.117 A 
ATOM     20  H2  UNL     1     -21.497   0.160 -31.774  1.00  0.00     0.186 HD
ENDBRANCH  13  14
ENDBRANCH  11  13
ENDBRANCH   1  11
TORSDOF 3
ENDMDL
MODEL 3
REMARK VINA RESULT: -6.845465169      0.995      1.327
REMARK  3 active torsions:
REMARK  status: ('A' for Active; 'I' for Inactive)
REMARK    1  A    between atoms: C3_7  and  C4_8 
REMARK    2  A    between atoms: C4_8  and  N3_9 
REMARK    3  A    between atoms: N3_9  and  C5_11 
ROOT
HETATM    1  C5  UNL     1     -21.783   0.563 -25.156  1.00  0.00    -0.018 C 
HETATM    2  C6  UNL     1     -21.661  -0.987 -25.112  1.00  0.00     0.052 C 
HETATM    3  C7  UNL     1     -21.683  -1.245 -23.664  1.00  0.00     0.006 C 
HETATM    4  C8  UNL     1     -21.929  -2.484 -22.956  1.00  0.00     0.000 C 
HETATM    5  C9  UNL     1     -22.118  -2.027 -21.483  1.00  0.00     0.000 C 
HETATM    6  C10 UNL     1     -21.240  -0.917 -21.037  1.00  0.00     0.000 C 
HETATM    7  C11 UNL     1     -21.796   0.466 -20.987  1.00  0.00     0.000 C 
HETATM    8  C12 UNL     1     -20.959   1.537 -21.701  1.00  0.00     0.000 C 
HETATM    9  C13 UNL     1     -21.539   1.926 -23.039  1.00  0.00     0.006 C 
HETATM   10  C14 UNL     1     -20.876   1.293 -24.248  1.00  0.00     0.052 C 
ENDROOT
BRANCH   1  11
HETATM   11  N3  UNL     1     -21.928   0.981 -26.488  1.00  0.00    -0.392 N 
ATOM     12  H3  UNL     1     -22.097   1.962 -26.711  1.00  0.00     0.159 HD
BRANCH  11  13
HETATM   13  C4  UNL     1     -21.836   0.011 -27.519  1.00  0.00     0.160 C 
BRANCH  13  14
HETATM   14  C3  UNL     1     -21.170   0.646 -28.704  1.00  0.00    -0.007 A 
HETATM   15  C1  UNL     1     -20.401   1.798 -28.605  1.00  0.00     0.117 A 
HETATM   16  N1  UNL     1     -19.954   2.107 -29.818  1.00  0.00    -0.312 N 
HETATM   17  N2  UNL     1     -20.407   1.200 -30.681  1.00  0.00    -0.312 N 
ATOM     18  H1  UNL     1     -19.363   2.906 -30.049  1.00  0.00     0.186 HD
HETATM   19  C2  UNL     1     -21.165   0.282 -30.012  1.00  0.00     0.117 A 
ATOM     20  H2  UNL     1     -20.217   1.192 -31.683  1.00  0.00     0.186 HD
ENDBRANCH  13  14
ENDBRANCH  11  13
ENDBRANCH   1  11
TORSDOF 3
ENDMDL
MODEL 4
REMARK VINA RESULT: -6.841220940      1.471      2.887
REMARK  3 active torsions:
REMARK  status: ('A' for Active; 'I' for Inactive)
REMARK    1  A    between atoms: C3_7  and  C4_8 
REMARK    2  A    between atoms: C4_8  and  N3_9 
REMARK    3  A    between atoms: N3_9  and  C5_11 
ROOT
HETATM    1  C5  UNL     1     -21.889   0.002 -25.381  1.00  0.00    -0.018 C 
HETATM    2  C6  UNL     1     -22.050   1.518 -25.070  1.00  0.00     0.052 C 
HETATM    3  C7  UNL     1     -21.793   1.551 -23.622  1.00  0.00     0.006 C 
HETATM    4  C8  UNL     1     -21.470   2.678 -22.772  1.00  0.00     0.000 C 
HETATM    5  C9  UNL     1     -21.023   2.013 -21.442  1.00  0.00     0.000 C 
HETATM    6  C10 UNL     1     -21.778   0.798 -21.045  1.00  0.00     0.000 C 
HETATM    7  C11 UNL     1     -21.180  -0.541 -21.308  1.00  0.00     0.000 C 
HETATM    8  C12 UNL     1     -22.091  -1.536 -22.041  1.00  0.00     0.000 C 
HETATM    9  C13 UNL     1     -21.732  -1.681 -23.500  1.00  0.00     0.006 C 
HETATM   10  C14 UNL     1     -22.608  -0.909 -24.469  1.00  0.00     0.052 C 
ENDROOT
BRANCH   1  11
HETATM   11  N3  UNL     1     -21.957  -0.197 -26.769  1.00  0.00    -0.392 N 
ATOM     12  H3  UNL     1     -21.876  -1.133 -27.165  1.00  0.00     0.159 HD
BRANCH  11  13
HETATM   13  C4  UNL     1     -22.140   0.931 -27.610  1.00  0.00     0.160 C 
BRANCH  13  14
HETATM   14  C3  UNL     1     -20.897   1.111 -28.432  1.00  0.00    -0.007 A 
HETATM   15  C1  UNL     1     -20.486   2.348 -28.910  1.00  0.00     0.117 A 
HETATM   16  N1  UNL     1     -19.360   2.178 -29.596  1.00  0.00    -0.312 N 
HETATM   17  N2  UNL     1     -19.041   0.886 -29.571  1.00  0.00    -0.312 N 
ATOM     18  H1  UNL     1     -18.831   2.914 -30.063  1.00  0.00     0.186 HD
HETATM   19  C2  UNL     1     -19.980   0.203 -28.854  1.00  0.00     0.117 A 
ATOM     20  H2  UNL     1     -18.223   0.471 -30.018  1.00  0.00     0.186 HD
ENDBRANCH  13  14
ENDBRANCH  11  13
ENDBRANCH   1  11
TORSDOF 3
ENDMDL
MODEL 5
REMARK VINA RESULT: -6.837286438      1.263      1.371
REMARK  3 active torsions:
REMARK  status: ('A' for Active; 'I' for Inactive)
REMARK    1  A    between atoms: C3_7  and  C4_8 
REMARK    2  A    between atoms: C4_8  and  N3_9 
REMARK    3  A    between atoms: N3_9  and  C5_11 
ROOT
HETATM    1  C5  UNL     1     -21.159   0.026 -25.370  1.00  0.00    -0.018 C 
HETATM    2  C6  UNL     1     -21.003  -1.495 -25.084  1.00  0.00     0.052 C 
HETATM    3  C7  UNL     1     -21.259  -1.551 -23.636  1.00  0.00     0.006 C 
HETATM    4  C8  UNL     1     -21.585  -2.691 -22.805  1.00  0.00     0.000 C 
HETATM    5  C9  UNL     1     -22.029  -2.046 -21.464  1.00  0.00     0.000 C 
HETATM    6  C10 UNL     1     -21.270  -0.841 -21.047  1.00  0.00     0.000 C 
HETATM    7  C11 UNL     1     -21.864   0.505 -21.288  1.00  0.00     0.000 C 
HETATM    8  C12 UNL     1     -20.950   1.509 -22.006  1.00  0.00     0.000 C 
HETATM    9  C13 UNL     1     -21.310   1.678 -23.462  1.00  0.00     0.006 C 
HETATM   10  C14 UNL     1     -20.437   0.919 -24.444  1.00  0.00     0.052 C 
ENDROOT
BRANCH   1  11
HETATM   11  N3  UNL     1     -21.092   0.247 -26.755  1.00  0.00    -0.392 N 
ATOM     12  H3  UNL     1     -21.194   1.187 -27.137  1.00  0.00     0.159 HD
BRANCH  11  13
HETATM   13  C4  UNL     1     -20.880  -0.863 -27.612  1.00  0.00     0.160 C 
BRANCH  13  14
HETATM   14  C3  UNL     1     -22.128  -1.082 -28.415  1.00  0.00    -0.007 A 
HETATM   15  C1  UNL     1     -22.520  -2.336 -28.866  1.00  0.00     0.117 A 
HETATM   16  N1  UNL     1     -23.656  -2.200 -29.542  1.00  0.00    -0.312 N 
HETATM   17  N2  UNL     1     -24.001  -0.914 -29.538  1.00  0.00    -0.312 N 
ATOM     18  H1  UNL     1     -24.177  -2.954 -29.989  1.00  0.00     0.186 HD
HETATM   19  C2  UNL     1     -23.066  -0.200 -28.844  1.00  0.00     0.117 A 
ATOM     20  H2  UNL     1     -24.831  -0.523 -29.982  1.00  0.00     0.186 HD
ENDBRANCH  13  14
ENDBRANCH  11  13
ENDBRANCH   1  11
TORSDOF 3
ENDMDL
