MODEL 1
REMARK VINA RESULT: -7.068448119      0.000      0.000
REMARK  4 active torsions:
REMARK  status: ('A' for Active; 'I' for Inactive)
REMARK    1  A    between atoms: C2_2  and  N2_6 
REMARK    2  A    between atoms: N2_6  and  N3_8 
REMARK    3  A    between atoms: C3_10  and  C4_11 
REMARK    4  A    between atoms: C4_11  and  C5_12 
ROOT
HETATM    1  C4  UNL     1     -20.848  -1.279 -26.412  1.00  0.00     0.055 C 
ENDROOT
BRANCH   1   2
HETATM    2  C3  UNL     1     -21.168  -0.419 -27.562  1.00  0.00     0.081 C 
HETATM    3  N3  UNL     1     -20.313  -0.305 -28.524  1.00  0.00    -0.314 N 
ATOM      4  H3  UNL     1     -19.437  -0.822 -28.451  1.00  0.00     0.185 HD
BRANCH   3   5
HETATM    5  N2  UNL     1     -20.518   0.481 -29.651  1.00  0.00    -0.290 N 
ATOM      6  H2  UNL     1     -21.393   0.388 -30.168  1.00  0.00     0.188 HD
BRANCH   5   7
HETATM    7  C2  UNL     1     -19.547   1.405 -30.099  1.00  0.00     0.085 C 
HETATM    8  C1  UNL     1     -18.134   1.330 -29.602  1.00  0.00     0.090 C 
HETATM    9  N1  UNL     1     -19.820   2.345 -30.946  1.00  0.00    -0.388 N 
ATOM     10  H12 UNL     1     -19.120   3.012 -31.270  1.00  0.00     0.157 HD
ATOM     11  H11 UNL     1     -20.781   2.396 -31.285  1.00  0.00     0.157 HD
ENDBRANCH   5   7
ENDBRANCH   3   5
ENDBRANCH   1   2
BRANCH   1  12
HETATM   12  C5  UNL     1     -21.232  -0.677 -25.090  1.00  0.00    -0.035 C 
HETATM   13  C6  UNL     1     -20.442  -1.304 -23.948  1.00  0.00     0.014 C 
HETATM   14  C7  UNL     1     -20.804  -0.585 -22.677  1.00  0.00    -0.013 C 
HETATM   15  C8  UNL     1     -22.283  -0.679 -22.370  1.00  0.00     0.009 C 
HETATM   16  C12 UNL     1     -20.456   0.886 -22.720  1.00  0.00     0.009 C 
HETATM   17  C9  UNL     1     -23.050  -0.090 -23.539  1.00  0.00    -0.013 C 
HETATM   18  C10 UNL     1     -22.712   1.360 -23.698  1.00  0.00     0.009 C 
HETATM   19  C14 UNL     1     -22.689  -0.849 -24.777  1.00  0.00     0.014 C 
HETATM   20  C11 UNL     1     -21.216   1.506 -23.868  1.00  0.00    -0.013 C 
HETATM   21  C13 UNL     1     -20.826   0.788 -25.130  1.00  0.00     0.014 C 
ENDBRANCH   1  12
TORSDOF 4
ENDMDL
MODEL 2
REMARK VINA RESULT: -7.066828075      2.069      3.469
REMARK  4 active torsions:
REMARK  status: ('A' for Active; 'I' for Inactive)
REMARK    1  A    between atoms: C2_2  and  N2_6 
REMARK    2  A    between atoms: N2_6  and  N3_8 
REMARK    3  A    between atoms: C3_10  and  C4_11 
REMARK    4  A    between atoms: C4_11  and  C5_12 
ROOT
HETATM    1  C4  UNL     1     -22.207   1.276 -26.409  1.00  0.00     0.055 C 
ENDROOT
BRANCH   1   2
HETATM    2  C3  UNL     1     -21.886   0.416 -27.560  1.00  0.00     0.081 C 
HETATM    3  N3  UNL     1     -22.738   0.304 -28.523  1.00  0.00    -0.314 N 
ATOM      4  H3  UNL     1     -23.615   0.822 -28.451  1.00  0.00     0.185 HD
BRANCH   3   5
HETATM    5  N2  UNL     1     -22.531  -0.481 -29.650  1.00  0.00    -0.290 N 
ATOM      6  H2  UNL     1     -21.660  -0.382 -30.171  1.00  0.00     0.188 HD
BRANCH   5   7
HETATM    7  C2  UNL     1     -23.498  -1.413 -30.095  1.00  0.00     0.085 C 
HETATM    8  C1  UNL     1     -24.907  -1.354 -29.586  1.00  0.00     0.090 C 
HETATM    9  N1  UNL     1     -23.221  -2.348 -30.947  1.00  0.00    -0.388 N 
ATOM     10  H12 UNL     1     -23.918  -3.021 -31.267  1.00  0.00     0.157 HD
ATOM     11  H11 UNL     1     -22.263  -2.388 -31.293  1.00  0.00     0.157 HD
ENDBRANCH   5   7
ENDBRANCH   3   5
ENDBRANCH   1   2
BRANCH   1  12
HETATM   12  C5  UNL     1     -21.823   0.674 -25.087  1.00  0.00    -0.035 C 
HETATM   13  C6  UNL     1     -22.613   1.301 -23.945  1.00  0.00     0.014 C 
HETATM   14  C7  UNL     1     -22.250   0.583 -22.674  1.00  0.00    -0.013 C 
HETATM   15  C8  UNL     1     -20.771   0.678 -22.367  1.00  0.00     0.009 C 
HETATM   16  C12 UNL     1     -22.596  -0.889 -22.717  1.00  0.00     0.009 C 
HETATM   17  C9  UNL     1     -20.004   0.090 -23.536  1.00  0.00    -0.013 C 
HETATM   18  C10 UNL     1     -20.340  -1.361 -23.695  1.00  0.00     0.009 C 
HETATM   19  C14 UNL     1     -20.366   0.849 -24.774  1.00  0.00     0.014 C 
HETATM   20  C11 UNL     1     -21.836  -1.508 -23.865  1.00  0.00    -0.013 C 
HETATM   21  C13 UNL     1     -22.227  -0.791 -25.126  1.00  0.00     0.014 C 
ENDBRANCH   1  12
TORSDOF 4
ENDMDL
MODEL 3
REMARK VINA RESULT: -7.044265273      1.294      2.437
REMARK  4 active torsions:
REMARK  status: ('A' for Active; 'I' for Inactive)
REMARK    1  A    between atoms: C2_2  and  N2_6 
REMARK    2  A    between atoms: N2_6  and  N3_8 
REMARK    3  A    between atoms: C3_10  and  C4_11 
REMARK    4  A    between atoms: C4_11  and  C5_12 
ROOT
HETATM    1  C4  UNL     1     -22.187   1.181 -26.520  1.00  0.00     0.055 C 
ENDROOT
BRANCH   1   2
HETATM    2  C3  UNL     1     -21.186   0.874 -27.555  1.00  0.00     0.081 C 
HETATM    3  N3  UNL     1     -20.905   1.765 -28.447  1.00  0.00    -0.314 N 
ATOM      4  H3  UNL     1     -21.392   2.660 -28.401  1.00  0.00     0.185 HD
BRANCH   3   5
HETATM    5  N2  UNL     1     -19.979   1.574 -29.464  1.00  0.00    -0.290 N 
ATOM      6  H2  UNL     1     -20.292   1.183 -30.353  1.00  0.00     0.188 HD
BRANCH   5   7
HETATM    7  C2  UNL     1     -18.615   1.907 -29.300  1.00  0.00     0.085 C 
HETATM    8  C1  UNL     1     -17.575   1.342 -30.220  1.00  0.00     0.090 C 
HETATM    9  N1  UNL     1     -18.201   2.702 -28.365  1.00  0.00    -0.388 N 
ATOM     10  H12 UNL     1     -17.217   2.942 -28.247  1.00  0.00     0.157 HD
ATOM     11  H11 UNL     1     -18.908   3.086 -27.740  1.00  0.00     0.157 HD
ENDBRANCH   5   7
ENDBRANCH   3   5
ENDBRANCH   1   2
BRANCH   1  12
HETATM   12  C5  UNL     1     -21.826   0.648 -25.162  1.00  0.00    -0.035 C 
HETATM   13  C6  UNL     1     -22.647   1.322 -24.069  1.00  0.00     0.014 C 
HETATM   14  C7  UNL     1     -22.305   0.669 -22.758  1.00  0.00    -0.013 C 
HETATM   15  C8  UNL     1     -20.835   0.794 -22.424  1.00  0.00     0.009 C 
HETATM   16  C12 UNL     1     -22.638  -0.806 -22.736  1.00  0.00     0.009 C 
HETATM   17  C9  UNL     1     -20.037   0.157 -23.546  1.00  0.00    -0.013 C 
HETATM   18  C10 UNL     1     -20.356  -1.303 -23.641  1.00  0.00     0.009 C 
HETATM   19  C14 UNL     1     -20.378   0.852 -24.827  1.00  0.00     0.014 C 
HETATM   20  C11 UNL     1     -21.846  -1.473 -23.836  1.00  0.00    -0.013 C 
HETATM   21  C13 UNL     1     -22.217  -0.821 -25.139  1.00  0.00     0.014 C 
ENDBRANCH   1  12
TORSDOF 4
ENDMDL
MODEL 4
REMARK VINA RESULT: -7.033501632      2.248      3.183
REMARK  4 active torsions:
REMARK  status: ('A' for Active; 'I' for Inactive)
REMARK    1  A    between atoms: C2_2  and  N2_6 
REMARK    2  A    between atoms: N2_6  and  N3_8 
REMARK    3  A    between atoms: C3_10  and  C4_11 
REMARK    4  A    between atoms: C4_11  and  C5_12 
ROOT
HETATM    1  C4  UNL     1     -20.874  -1.154 -26.507  1.00  0.00     0.055 C 
ENDROOT
BRANCH   1   2
HETATM    2  C3  UNL     1     -21.862  -0.817 -27.544  1.00  0.00     0.081 C 
HETATM    3  N3  UNL     1     -22.196  -1.711 -28.413  1.00  0.00    -0.314 N 
ATOM      4  H3  UNL     1     -21.758  -2.631 -28.349  1.00  0.00     0.185 HD
BRANCH   3   5
HETATM    5  N2  UNL     1     -23.116  -1.494 -29.431  1.00  0.00    -0.290 N 
ATOM      6  H2  UNL     1     -22.807  -1.042 -30.292  1.00  0.00     0.188 HD
BRANCH   5   7
HETATM    7  C2  UNL     1     -24.470  -1.883 -29.305  1.00  0.00     0.085 C 
HETATM    8  C1  UNL     1     -25.508  -1.352 -30.248  1.00  0.00     0.090 C 
HETATM    9  N1  UNL     1     -24.876  -2.702 -28.388  1.00  0.00    -0.388 N 
ATOM     10  H12 UNL     1     -25.852  -2.982 -28.296  1.00  0.00     0.157 HD
ATOM     11  H11 UNL     1     -24.169  -3.063 -27.746  1.00  0.00     0.157 HD
ENDBRANCH   5   7
ENDBRANCH   3   5
ENDBRANCH   1   2
BRANCH   1  12
HETATM   12  C5  UNL     1     -21.232  -0.627 -25.145  1.00  0.00    -0.035 C 
HETATM   13  C6  UNL     1     -20.429  -1.325 -24.055  1.00  0.00     0.014 C 
HETATM   14  C7  UNL     1     -20.765  -0.679 -22.739  1.00  0.00    -0.013 C 
HETATM   15  C8  UNL     1     -22.240  -0.780 -22.414  1.00  0.00     0.009 C 
HETATM   16  C12 UNL     1     -20.406   0.790 -22.702  1.00  0.00     0.009 C 
HETATM   17  C9  UNL     1     -23.020  -0.118 -23.534  1.00  0.00    -0.013 C 
HETATM   18  C10 UNL     1     -22.674   1.336 -23.614  1.00  0.00     0.009 C 
HETATM   19  C14 UNL     1     -22.685  -0.807 -24.820  1.00  0.00     0.014 C 
HETATM   20  C11 UNL     1     -21.180   1.481 -23.800  1.00  0.00    -0.013 C 
HETATM   21  C13 UNL     1     -20.815   0.835 -25.107  1.00  0.00     0.014 C 
ENDBRANCH   1  12
TORSDOF 4
ENDMDL
MODEL 5
REMARK VINA RESULT: -6.987598014      1.298      1.882
REMARK  4 active torsions:
REMARK  status: ('A' for Active; 'I' for Inactive)
REMARK    1  A    between atoms: C2_2  and  N2_6 
REMARK    2  A    between atoms: N2_6  and  N3_8 
REMARK    3  A    between atoms: C3_10  and  C4_11 
REMARK    4  A    between atoms: C4_11  and  C5_12 
ROOT
HETATM    1  C4  UNL     1     -22.169   1.274 -26.463  1.00  0.00     0.055 C 
ENDROOT
BRANCH   1   2
HETATM    2  C3  UNL     1     -21.171   0.931 -27.489  1.00  0.00     0.081 C 
HETATM    3  N3  UNL     1     -20.899   1.785 -28.417  1.00  0.00    -0.314 N 
ATOM      4  H3  UNL     1     -21.391   2.679 -28.407  1.00  0.00     0.185 HD
BRANCH   3   5
HETATM    5  N2  UNL     1     -19.976   1.558 -29.430  1.00  0.00    -0.290 N 
ATOM      6  H2  UNL     1     -20.291   1.134 -30.303  1.00  0.00     0.188 HD
BRANCH   5   7
HETATM    7  C2  UNL     1     -18.612   1.901 -29.283  1.00  0.00     0.085 C 
HETATM    8  C1  UNL     1     -17.574   1.308 -30.189  1.00  0.00     0.090 C 
HETATM    9  N1  UNL     1     -18.196   2.727 -28.378  1.00  0.00    -0.388 N 
ATOM     10  H12 UNL     1     -17.212   2.974 -28.271  1.00  0.00     0.157 HD
ATOM     11  H11 UNL     1     -18.902   3.130 -27.762  1.00  0.00     0.157 HD
ENDBRANCH   5   7
ENDBRANCH   3   5
ENDBRANCH   1   2
BRANCH   1  12
HETATM   12  C5  UNL     1     -21.905   0.629 -25.131  1.00  0.00    -0.035 C 
HETATM   13  C6  UNL     1     -22.255  -0.853 -25.157  1.00  0.00     0.014 C 
HETATM   14  C7  UNL     1     -21.872  -1.448 -23.830  1.00  0.00    -0.013 C 
HETATM   15  C8  UNL     1     -22.594  -0.786 -22.677  1.00  0.00     0.009 C 
HETATM   16  C12 UNL     1     -20.391  -1.333 -23.545  1.00  0.00     0.009 C 
HETATM   17  C9  UNL     1     -22.266   0.695 -22.698  1.00  0.00    -0.013 C 
HETATM   18  C10 UNL     1     -20.798   0.901 -22.490  1.00  0.00     0.009 C 
HETATM   19  C14 UNL     1     -22.691   1.258 -24.019  1.00  0.00     0.014 C 
HETATM   20  C11 UNL     1     -20.034   0.135 -23.546  1.00  0.00    -0.013 C 
HETATM   21  C13 UNL     1     -20.406   0.705 -24.886  1.00  0.00     0.014 C 
ENDBRANCH   1  12
TORSDOF 4
ENDMDL
