MODEL 1
REMARK VINA RESULT: -6.797161205      0.000      0.000
REMARK  3 active torsions:
REMARK  status: ('A' for Active; 'I' for Inactive)
REMARK    1  A    between atoms: C2_2  and  C3_3 
REMARK    2  A    between atoms: C3_3  and  N1_4 
REMARK    3  A    between atoms: C5_6  and  C6_7 
ROOT
HETATM    1  N1  UNL     1     -22.353  -0.805 -28.973  1.00  0.00    -0.192 N 
HETATM    2  C4  UNL     1     -22.362  -1.100 -27.675  1.00  0.00     0.135 A 
HETATM    3  C5  UNL     1     -21.322  -0.444 -27.042  1.00  0.00     0.047 A 
HETATM    4  N2  UNL     1     -20.691   0.252 -28.004  1.00  0.00    -0.194 N 
ATOM      5  H2  UNL     1     -19.873   0.848 -27.869  1.00  0.00     0.184 HD
HETATM    6  C14 UNL     1     -21.318   0.030 -29.173  1.00  0.00     0.678 A 
HETATM    7  N3  UNL     1     -20.989   0.538 -30.325  1.00  0.00    -0.234 N 
ATOM      8  H31 UNL     1     -20.205   1.172 -30.477  1.00  0.00     0.174 HD
ATOM      9  H32 UNL     1     -21.465   0.370 -31.212  1.00  0.00     0.174 HD
ENDROOT
BRANCH   3  10
HETATM   10  C6  UNL     1     -20.929  -0.454 -25.635  1.00  0.00     0.038 C 
HETATM   11  C7  UNL     1     -21.971  -1.116 -24.765  1.00  0.00     0.016 C 
HETATM   12  C8  UNL     1     -22.594  -0.034 -23.921  1.00  0.00    -0.010 C 
HETATM   13  C9  UNL     1     -22.973  -0.673 -22.589  1.00  0.00     0.011 C 
HETATM   14  C10 UNL     1     -21.478   0.971 -23.750  1.00  0.00    -0.044 C 
HETATM   15  C11 UNL     1     -20.633   0.618 -22.571  1.00  0.00     0.015 C 
HETATM   16  C12 UNL     1     -22.054   2.359 -23.508  1.00  0.00     0.015 C 
HETATM   17  C13 UNL     1     -20.704   0.917 -25.057  1.00  0.00     0.020 C 
ENDBRANCH   3  10
BRANCH   1  18
HETATM   18  C3  UNL     1     -23.260  -1.268 -30.019  1.00  0.00     0.146 C 
BRANCH  18  19
HETATM   19  C2  UNL     1     -24.602  -1.487 -29.381  1.00  0.00     0.016 C 
HETATM   20  C1  UNL     1     -25.749  -1.260 -30.322  1.00  0.00     0.006 C 
ENDBRANCH  18  19
ENDBRANCH   1  18
TORSDOF 3
ENDMDL
MODEL 2
REMARK VINA RESULT: -6.781614399      1.883      3.724
REMARK  3 active torsions:
REMARK  status: ('A' for Active; 'I' for Inactive)
REMARK    1  A    between atoms: C2_2  and  C3_3 
REMARK    2  A    between atoms: C3_3  and  N1_4 
REMARK    3  A    between atoms: C5_6  and  C6_7 
ROOT
HETATM    1  N1  UNL     1     -20.449   1.126 -29.022  1.00  0.00    -0.192 N 
HETATM    2  C4  UNL     1     -20.535   1.324 -27.708  1.00  0.00     0.135 A 
HETATM    3  C5  UNL     1     -21.585   0.585 -27.195  1.00  0.00     0.047 A 
HETATM    4  N2  UNL     1     -22.123  -0.061 -28.244  1.00  0.00    -0.194 N 
ATOM      5  H2  UNL     1     -22.922  -0.696 -28.207  1.00  0.00     0.184 HD
HETATM    6  C14 UNL     1     -21.432   0.270 -29.349  1.00  0.00     0.678 A 
HETATM    7  N3  UNL     1     -21.666  -0.163 -30.555  1.00  0.00    -0.234 N 
ATOM      8  H31 UNL     1     -22.412  -0.813 -30.803  1.00  0.00     0.174 HD
ATOM      9  H32 UNL     1     -21.142   0.087 -31.393  1.00  0.00     0.174 HD
ENDROOT
BRANCH   3  10
HETATM   10  C6  UNL     1     -22.067   0.476 -25.820  1.00  0.00     0.038 C 
HETATM   11  C7  UNL     1     -21.170   1.209 -24.850  1.00  0.00     0.016 C 
HETATM   12  C8  UNL     1     -20.478   0.165 -24.012  1.00  0.00    -0.010 C 
HETATM   13  C9  UNL     1     -20.266   0.774 -22.630  1.00  0.00     0.011 C 
HETATM   14  C10 UNL     1     -21.473  -0.971 -23.965  1.00  0.00    -0.044 C 
HETATM   15  C11 UNL     1     -22.430  -0.781 -22.834  1.00  0.00     0.015 C 
HETATM   16  C12 UNL     1     -20.752  -2.293 -23.743  1.00  0.00     0.015 C 
HETATM   17  C13 UNL     1     -22.162  -0.940 -25.319  1.00  0.00     0.020 C 
ENDBRANCH   3  10
BRANCH   1  18
HETATM   18  C3  UNL     1     -19.497   1.699 -29.969  1.00  0.00     0.146 C 
BRANCH  18  19
HETATM   19  C2  UNL     1     -18.121   1.307 -29.512  1.00  0.00     0.016 C 
HETATM   20  C1  UNL     1     -17.100   1.344 -30.610  1.00  0.00     0.006 C 
ENDBRANCH  18  19
ENDBRANCH   1  18
TORSDOF 3
ENDMDL
MODEL 3
REMARK VINA RESULT: -6.627181192      1.860      3.568
REMARK  3 active torsions:
REMARK  status: ('A' for Active; 'I' for Inactive)
REMARK    1  A    between atoms: C2_2  and  C3_3 
REMARK    2  A    between atoms: C3_3  and  N1_4 
REMARK    3  A    between atoms: C5_6  and  C6_7 
ROOT
HETATM    1  N1  UNL     1     -20.467   1.003 -29.192  1.00  0.00    -0.192 N 
HETATM    2  C4  UNL     1     -20.574   1.102 -27.869  1.00  0.00     0.135 A 
HETATM    3  C5  UNL     1     -21.630   0.326 -27.429  1.00  0.00     0.047 A 
HETATM    4  N2  UNL     1     -22.151  -0.240 -28.531  1.00  0.00    -0.194 N 
ATOM      5  H2  UNL     1     -22.949  -0.876 -28.555  1.00  0.00     0.184 HD
HETATM    6  C14 UNL     1     -21.443   0.173 -29.598  1.00  0.00     0.678 A 
HETATM    7  N3  UNL     1     -21.657  -0.169 -30.836  1.00  0.00    -0.234 N 
ATOM      8  H31 UNL     1     -22.398  -0.799 -31.144  1.00  0.00     0.174 HD
ATOM      9  H32 UNL     1     -21.120   0.144 -31.645  1.00  0.00     0.174 HD
ENDROOT
BRANCH   3  10
HETATM   10  C6  UNL     1     -22.133   0.115 -26.074  1.00  0.00     0.038 C 
HETATM   11  C7  UNL     1     -22.323   1.418 -25.334  1.00  0.00     0.016 C 
HETATM   12  C8  UNL     1     -21.277   1.467 -24.250  1.00  0.00    -0.010 C 
HETATM   13  C9  UNL     1     -21.887   2.231 -23.080  1.00  0.00     0.011 C 
HETATM   14  C10 UNL     1     -21.055   0.014 -23.902  1.00  0.00    -0.044 C 
HETATM   15  C11 UNL     1     -22.030  -0.428 -22.860  1.00  0.00     0.015 C 
HETATM   16  C12 UNL     1     -19.655  -0.184 -23.339  1.00  0.00     0.015 C 
HETATM   17  C13 UNL     1     -21.230  -0.730 -25.215  1.00  0.00     0.020 C 
ENDBRANCH   3  10
BRANCH   1  18
HETATM   18  C3  UNL     1     -19.501   1.646 -30.079  1.00  0.00     0.146 C 
BRANCH  18  19
HETATM   19  C2  UNL     1     -18.130   1.299 -29.574  1.00  0.00     0.016 C 
HETATM   20  C1  UNL     1     -17.079   1.333 -30.644  1.00  0.00     0.006 C 
ENDBRANCH  18  19
ENDBRANCH   1  18
TORSDOF 3
ENDMDL
MODEL 4
REMARK VINA RESULT: -6.593696463      0.852      1.137
REMARK  3 active torsions:
REMARK  status: ('A' for Active; 'I' for Inactive)
REMARK    1  A    between atoms: C2_2  and  C3_3 
REMARK    2  A    between atoms: C3_3  and  N1_4 
REMARK    3  A    between atoms: C5_6  and  C6_7 
ROOT
HETATM    1  N1  UNL     1     -22.511  -0.974 -29.160  1.00  0.00    -0.192 N 
HETATM    2  C4  UNL     1     -22.410  -1.104 -27.839  1.00  0.00     0.135 A 
HETATM    3  C5  UNL     1     -21.383  -0.306 -27.371  1.00  0.00     0.047 A 
HETATM    4  N2  UNL     1     -20.872   0.305 -28.454  1.00  0.00    -0.194 N 
ATOM      5  H2  UNL     1     -20.096   0.967 -28.454  1.00  0.00     0.184 HD
HETATM    6  C14 UNL     1     -21.559  -0.103 -29.537  1.00  0.00     0.678 A 
HETATM    7  N3  UNL     1     -21.347   0.278 -30.764  1.00  0.00    -0.234 N 
ATOM      8  H31 UNL     1     -20.625   0.939 -31.049  1.00  0.00     0.174 HD
ATOM      9  H32 UNL     1     -21.868  -0.031 -31.585  1.00  0.00     0.174 HD
ENDROOT
BRANCH   3  10
HETATM   10  C6  UNL     1     -20.897  -0.114 -26.007  1.00  0.00     0.038 C 
HETATM   11  C7  UNL     1     -20.727  -1.427 -25.279  1.00  0.00     0.016 C 
HETATM   12  C8  UNL     1     -21.788  -1.481 -24.211  1.00  0.00    -0.010 C 
HETATM   13  C9  UNL     1     -21.199  -2.263 -23.041  1.00  0.00     0.011 C 
HETATM   14  C10 UNL     1     -22.003  -0.030 -23.849  1.00  0.00    -0.044 C 
HETATM   15  C11 UNL     1     -21.039   0.393 -22.789  1.00  0.00     0.015 C 
HETATM   16  C12 UNL     1     -23.409   0.173 -23.302  1.00  0.00     0.015 C 
HETATM   17  C13 UNL     1     -21.804   0.728 -25.150  1.00  0.00     0.020 C 
ENDBRANCH   3  10
BRANCH   1  18
HETATM   18  C3  UNL     1     -23.449  -1.624 -30.071  1.00  0.00     0.146 C 
BRANCH  18  19
HETATM   19  C2  UNL     1     -24.834  -1.243 -29.633  1.00  0.00     0.016 C 
HETATM   20  C1  UNL     1     -25.881  -1.525 -30.670  1.00  0.00     0.006 C 
ENDBRANCH  18  19
ENDBRANCH   1  18
TORSDOF 3
ENDMDL
MODEL 5
REMARK VINA RESULT: -6.470755449      1.331      2.561
REMARK  3 active torsions:
REMARK  status: ('A' for Active; 'I' for Inactive)
REMARK    1  A    between atoms: C2_2  and  C3_3 
REMARK    2  A    between atoms: C3_3  and  N1_4 
REMARK    3  A    between atoms: C5_6  and  C6_7 
ROOT
HETATM    1  N1  UNL     1     -21.389   0.058 -29.156  1.00  0.00    -0.192 N 
HETATM    2  C4  UNL     1     -20.681   0.244 -28.044  1.00  0.00     0.135 A 
HETATM    3  C5  UNL     1     -21.319  -0.365 -26.979  1.00  0.00     0.047 A 
HETATM    4  N2  UNL     1     -22.430  -0.923 -27.490  1.00  0.00    -0.194 N 
ATOM      5  H2  UNL     1     -23.127  -1.453 -26.966  1.00  0.00     0.184 HD
HETATM    6  C14 UNL     1     -22.470  -0.664 -28.810  1.00  0.00     0.678 A 
HETATM    7  N3  UNL     1     -23.400  -1.045 -29.636  1.00  0.00    -0.234 N 
ATOM      8  H31 UNL     1     -24.220  -1.592 -29.374  1.00  0.00     0.174 HD
ATOM      9  H32 UNL     1     -23.430  -0.849 -30.637  1.00  0.00     0.174 HD
ENDROOT
BRANCH   3  10
HETATM   10  C6  UNL     1     -20.931  -0.435 -25.573  1.00  0.00     0.038 C 
HETATM   11  C7  UNL     1     -21.998  -1.088 -24.726  1.00  0.00     0.016 C 
HETATM   12  C8  UNL     1     -22.585  -0.013 -23.849  1.00  0.00    -0.010 C 
HETATM   13  C9  UNL     1     -22.990  -0.682 -22.539  1.00  0.00     0.011 C 
HETATM   14  C10 UNL     1     -21.436   0.947 -23.643  1.00  0.00    -0.044 C 
HETATM   15  C11 UNL     1     -20.607   0.526 -22.474  1.00  0.00     0.015 C 
HETATM   16  C12 UNL     1     -21.965   2.345 -23.356  1.00  0.00     0.015 C 
HETATM   17  C13 UNL     1     -20.661   0.908 -24.949  1.00  0.00     0.020 C 
ENDBRANCH   3  10
BRANCH   1  18
HETATM   18  C3  UNL     1     -21.099   0.522 -30.509  1.00  0.00     0.146 C 
BRANCH  18  19
HETATM   19  C2  UNL     1     -19.947   1.481 -30.415  1.00  0.00     0.016 C 
HETATM   20  C1  UNL     1     -19.847   2.403 -31.596  1.00  0.00     0.006 C 
ENDBRANCH  18  19
ENDBRANCH   1  18
TORSDOF 3
ENDMDL
