MODEL 1
REMARK VINA RESULT: -5.868138494      0.000      0.000
REMARK  5 active torsions:
REMARK  status: ('A' for Active; 'I' for Inactive)
REMARK    1  A    between atoms: C2_2  and  C3_3 
REMARK    2  A    between atoms: C4_8  and  C5_9 
REMARK    3  A    between atoms: C5_9  and  N3_11 
REMARK    4  A    between atoms: N3_11  and  C6_13 
REMARK    5  A    between atoms: C9_16  and  C10_17 
ROOT
HETATM    1  C3  UNL     1     -22.527   1.786 -24.734  1.00  0.00     0.038 A 
HETATM    2  N1  UNL     1     -23.261   2.731 -25.410  1.00  0.00    -0.303 N 
ATOM      3  H1  UNL     1     -23.807   3.471 -24.971  1.00  0.00     0.186 HD
HETATM    4  N2  UNL     1     -23.157   2.544 -26.682  1.00  0.00    -0.297 N 
ATOM      5  H2  UNL     1     -23.607   3.110 -27.402  1.00  0.00     0.187 HD
HETATM    6  C4  UNL     1     -22.361   1.483 -26.908  1.00  0.00     0.098 A 
HETATM    7  C9  UNL     1     -21.947   0.984 -25.668  1.00  0.00     0.020 A 
ENDROOT
BRANCH   6   8
HETATM    8  C5  UNL     1     -22.004   0.983 -28.242  1.00  0.00     0.126 C 
HETATM    9  S1  UNL     1     -20.606   1.353 -28.975  1.00  0.00    -0.058 SA
BRANCH   8  10
HETATM   10  N3  UNL     1     -22.921   0.128 -28.891  1.00  0.00    -0.375 N 
ATOM     11  H3  UNL     1     -23.404   0.484 -29.715  1.00  0.00     0.161 HD
BRANCH  10  12
HETATM   12  C6  UNL     1     -23.218  -1.214 -28.465  1.00  0.00     0.074 C 
HETATM   13  C7  UNL     1     -21.991  -2.065 -28.489  1.00  0.00     0.031 C 
HETATM   14  C8  UNL     1     -24.321  -1.766 -29.347  1.00  0.00     0.031 C 
ENDBRANCH  10  12
ENDBRANCH   8  10
ENDBRANCH   6   8
BRANCH   7  15
HETATM   15  C10 UNL     1     -21.069  -0.134 -25.496  1.00  0.00     0.035 C 
HETATM   16  C11 UNL     1     -21.126  -1.217 -24.780  1.00  0.00     0.009 C 
HETATM   17  C12 UNL     1     -19.957  -2.204 -24.852  1.00  0.00     0.062 C 
HETATM   18 CL1  UNL     1     -22.423  -1.776 -23.748  1.00  0.00    -0.089 Cl
ENDBRANCH   7  15
BRANCH   1  19
HETATM   19  C2  UNL     1     -22.527   1.820 -23.261  1.00  0.00     0.055 C 
HETATM   20  C1  UNL     1     -21.441   2.718 -22.744  1.00  0.00     0.011 C 
ENDBRANCH   1  19
TORSDOF 5
ENDMDL
MODEL 2
REMARK VINA RESULT: -5.867506470      2.651      4.246
REMARK  5 active torsions:
REMARK  status: ('A' for Active; 'I' for Inactive)
REMARK    1  A    between atoms: C2_2  and  C3_3 
REMARK    2  A    between atoms: C4_8  and  C5_9 
REMARK    3  A    between atoms: C5_9  and  N3_11 
REMARK    4  A    between atoms: N3_11  and  C6_13 
REMARK    5  A    between atoms: C9_16  and  C10_17 
ROOT
HETATM    1  C3  UNL     1     -20.637  -1.780 -24.770  1.00  0.00     0.038 A 
HETATM    2  N1  UNL     1     -19.902  -2.717 -25.458  1.00  0.00    -0.303 N 
ATOM      3  H1  UNL     1     -19.349  -3.457 -25.027  1.00  0.00     0.186 HD
HETATM    4  N2  UNL     1     -20.017  -2.523 -26.727  1.00  0.00    -0.297 N 
ATOM      5  H2  UNL     1     -19.569  -3.082 -27.454  1.00  0.00     0.187 HD
HETATM    6  C4  UNL     1     -20.821  -1.466 -26.941  1.00  0.00     0.098 A 
HETATM    7  C9  UNL     1     -21.229  -0.976 -25.695  1.00  0.00     0.020 A 
ENDROOT
BRANCH   6   8
HETATM    8  C5  UNL     1     -21.192  -0.960 -28.269  1.00  0.00     0.126 C 
HETATM    9  S1  UNL     1     -22.598  -1.325 -28.989  1.00  0.00    -0.058 SA
BRANCH   8  10
HETATM   10  N3  UNL     1     -20.280  -0.104 -28.925  1.00  0.00    -0.375 N 
ATOM     11  H3  UNL     1     -19.809  -0.457 -29.758  1.00  0.00     0.161 HD
BRANCH  10  12
HETATM   12  C6  UNL     1     -19.972   1.234 -28.495  1.00  0.00     0.074 C 
HETATM   13  C7  UNL     1     -21.195   2.091 -28.503  1.00  0.00     0.031 C 
HETATM   14  C8  UNL     1     -18.874   1.785 -29.383  1.00  0.00     0.031 C 
ENDBRANCH  10  12
ENDBRANCH   8  10
ENDBRANCH   6   8
BRANCH   7  15
HETATM   15  C10 UNL     1     -22.112   0.136 -25.509  1.00  0.00     0.035 C 
HETATM   16  C11 UNL     1     -22.061   1.209 -24.778  1.00  0.00     0.009 C 
HETATM   17  C12 UNL     1     -23.234   2.192 -24.840  1.00  0.00     0.062 C 
HETATM   18 CL1  UNL     1     -20.768   1.759 -23.736  1.00  0.00    -0.089 Cl
ENDBRANCH   7  15
BRANCH   1  19
HETATM   19  C2  UNL     1     -20.625  -1.823 -23.298  1.00  0.00     0.055 C 
HETATM   20  C1  UNL     1     -21.764  -2.648 -22.774  1.00  0.00     0.011 C 
ENDBRANCH   1  19
TORSDOF 5
ENDMDL
MODEL 3
REMARK VINA RESULT: -5.848633030      1.724      2.604
REMARK  5 active torsions:
REMARK  status: ('A' for Active; 'I' for Inactive)
REMARK    1  A    between atoms: C2_2  and  C3_3 
REMARK    2  A    between atoms: C4_8  and  C5_9 
REMARK    3  A    between atoms: C5_9  and  N3_11 
REMARK    4  A    between atoms: N3_11  and  C6_13 
REMARK    5  A    between atoms: C9_16  and  C10_17 
ROOT
HETATM    1  C3  UNL     1     -22.555   1.754 -25.280  1.00  0.00     0.038 A 
HETATM    2  N1  UNL     1     -23.201   2.589 -26.161  1.00  0.00    -0.303 N 
ATOM      3  H1  UNL     1     -23.762   3.398 -25.895  1.00  0.00     0.186 HD
HETATM    4  N2  UNL     1     -22.992   2.201 -27.372  1.00  0.00    -0.297 N 
ATOM      5  H2  UNL     1     -23.361   2.651 -28.210  1.00  0.00     0.187 HD
HETATM    6  C4  UNL     1     -22.209   1.107 -27.356  1.00  0.00     0.098 A 
HETATM    7  C9  UNL     1     -21.918   0.806 -26.020  1.00  0.00     0.020 A 
ENDROOT
BRANCH   6   8
HETATM    8  C5  UNL     1     -21.750   0.396 -28.556  1.00  0.00     0.126 C 
HETATM    9  S1  UNL     1     -22.677  -0.665 -29.359  1.00  0.00    -0.058 SA
BRANCH   8  10
HETATM   10  N3  UNL     1     -20.450   0.675 -29.029  1.00  0.00    -0.375 N 
ATOM     11  H3  UNL     1     -19.773  -0.089 -29.044  1.00  0.00     0.161 HD
BRANCH  10  12
HETATM   12  C6  UNL     1     -20.016   1.967 -29.491  1.00  0.00     0.074 C 
HETATM   13  C7  UNL     1     -19.813   1.963 -30.970  1.00  0.00     0.031 C 
HETATM   14  C8  UNL     1     -18.758   2.350 -28.736  1.00  0.00     0.031 C 
ENDBRANCH  10  12
ENDBRANCH   8  10
ENDBRANCH   6   8
BRANCH   7  15
HETATM   15  C10 UNL     1     -21.090  -0.283 -25.595  1.00  0.00     0.035 C 
HETATM   16  C11 UNL     1     -21.214  -1.202 -24.685  1.00  0.00     0.009 C 
HETATM   17  C12 UNL     1     -20.082  -2.218 -24.513  1.00  0.00     0.062 C 
HETATM   18 CL1  UNL     1     -22.569  -1.507 -23.621  1.00  0.00    -0.089 Cl
ENDBRANCH   7  15
BRANCH   1  19
HETATM   19  C2  UNL     1     -22.683   2.022 -23.837  1.00  0.00     0.055 C 
HETATM   20  C1  UNL     1     -21.381   2.498 -23.261  1.00  0.00     0.011 C 
ENDBRANCH   1  19
TORSDOF 5
ENDMDL
MODEL 4
REMARK VINA RESULT: -5.843767694      2.150      3.537
REMARK  5 active torsions:
REMARK  status: ('A' for Active; 'I' for Inactive)
REMARK    1  A    between atoms: C2_2  and  C3_3 
REMARK    2  A    between atoms: C4_8  and  C5_9 
REMARK    3  A    between atoms: C5_9  and  N3_11 
REMARK    4  A    between atoms: N3_11  and  C6_13 
REMARK    5  A    between atoms: C9_16  and  C10_17 
ROOT
HETATM    1  C3  UNL     1     -20.651  -1.781 -25.288  1.00  0.00     0.038 A 
HETATM    2  N1  UNL     1     -20.001  -2.607 -26.174  1.00  0.00    -0.303 N 
ATOM      3  H1  UNL     1     -19.437  -3.416 -25.913  1.00  0.00     0.186 HD
HETATM    4  N2  UNL     1     -20.208  -2.209 -27.383  1.00  0.00    -0.297 N 
ATOM      5  H2  UNL     1     -19.835  -2.651 -28.223  1.00  0.00     0.187 HD
HETATM    6  C4  UNL     1     -20.994  -1.118 -27.359  1.00  0.00     0.098 A 
HETATM    7  C9  UNL     1     -21.290  -0.829 -26.022  1.00  0.00     0.020 A 
ENDROOT
BRANCH   6   8
HETATM    8  C5  UNL     1     -21.452  -0.398 -28.555  1.00  0.00     0.126 C 
HETATM    9  S1  UNL     1     -20.527   0.674 -29.345  1.00  0.00    -0.058 SA
BRANCH   8  10
HETATM   10  N3  UNL     1     -22.750  -0.679 -29.035  1.00  0.00    -0.375 N 
ATOM     11  H3  UNL     1     -23.427   0.084 -29.052  1.00  0.00     0.161 HD
BRANCH  10  12
HETATM   12  C6  UNL     1     -23.179  -1.970 -29.501  1.00  0.00     0.074 C 
HETATM   13  C7  UNL     1     -23.366  -1.967 -30.982  1.00  0.00     0.031 C 
HETATM   14  C8  UNL     1     -24.445  -2.354 -28.759  1.00  0.00     0.031 C 
ENDBRANCH  10  12
ENDBRANCH   8  10
ENDBRANCH   6   8
BRANCH   7  15
HETATM   15  C10 UNL     1     -22.122   0.253 -25.590  1.00  0.00     0.035 C 
HETATM   16  C11 UNL     1     -21.997   1.174 -24.682  1.00  0.00     0.009 C 
HETATM   17  C12 UNL     1     -23.136   2.182 -24.500  1.00  0.00     0.062 C 
HETATM   18 CL1  UNL     1     -20.635   1.492 -23.631  1.00  0.00    -0.089 Cl
ENDBRANCH   7  15
BRANCH   1  19
HETATM   19  C2  UNL     1     -20.526  -2.061 -23.847  1.00  0.00     0.055 C 
HETATM   20  C1  UNL     1     -21.847  -2.471 -23.263  1.00  0.00     0.011 C 
ENDBRANCH   1  19
TORSDOF 5
ENDMDL
MODEL 5
REMARK VINA RESULT: -5.372946993      2.420      3.976
REMARK  5 active torsions:
REMARK  status: ('A' for Active; 'I' for Inactive)
REMARK    1  A    between atoms: C2_2  and  C3_3 
REMARK    2  A    between atoms: C4_8  and  C5_9 
REMARK    3  A    between atoms: C5_9  and  N3_11 
REMARK    4  A    between atoms: N3_11  and  C6_13 
REMARK    5  A    between atoms: C9_16  and  C10_17 
ROOT
HETATM    1  C3  UNL     1     -20.559  -1.510 -25.343  1.00  0.00     0.038 A 
HETATM    2  N1  UNL     1     -20.530  -2.164 -26.552  1.00  0.00    -0.303 N 
ATOM      3  H1  UNL     1     -20.363  -3.163 -26.673  1.00  0.00     0.186 HD
HETATM    4  N2  UNL     1     -20.747  -1.330 -27.511  1.00  0.00    -0.297 N 
ATOM      5  H2  UNL     1     -20.777  -1.564 -28.504  1.00  0.00     0.187 HD
HETATM    6  C4  UNL     1     -20.928  -0.102 -26.994  1.00  0.00     0.098 A 
HETATM    7  C9  UNL     1     -20.811  -0.198 -25.603  1.00  0.00     0.020 A 
ENDROOT
BRANCH   6   8
HETATM    8  C5  UNL     1     -21.214   1.100 -27.789  1.00  0.00     0.126 C 
HETATM    9  S1  UNL     1     -22.684   1.780 -27.860  1.00  0.00    -0.058 SA
BRANCH   8  10
HETATM   10  N3  UNL     1     -20.145   1.687 -28.501  1.00  0.00    -0.375 N 
ATOM     11  H3  UNL     1     -19.750   2.555 -28.139  1.00  0.00     0.161 HD
BRANCH  10  12
HETATM   12  C6  UNL     1     -19.577   1.140 -29.705  1.00  0.00     0.074 C 
HETATM   13  C7  UNL     1     -18.090   1.280 -29.704  1.00  0.00     0.031 C 
HETATM   14  C8  UNL     1     -20.221   1.824 -30.895  1.00  0.00     0.031 C 
ENDBRANCH  10  12
ENDBRANCH   8  10
ENDBRANCH   6   8
BRANCH   7  15
HETATM   15  C10 UNL     1     -20.963   0.901 -24.697  1.00  0.00     0.035 C 
HETATM   16  C11 UNL     1     -21.945   1.327 -23.960  1.00  0.00     0.009 C 
HETATM   17  C12 UNL     1     -21.727   2.578 -23.105  1.00  0.00     0.062 C 
HETATM   18 CL1  UNL     1     -23.529   0.618 -23.738  1.00  0.00    -0.089 Cl
ENDBRANCH   7  15
BRANCH   1  19
HETATM   19  C2  UNL     1     -20.317  -2.291 -24.118  1.00  0.00     0.055 C 
HETATM   20  C1  UNL     1     -21.577  -2.432 -23.313  1.00  0.00     0.011 C 
ENDBRANCH   1  19
TORSDOF 5
ENDMDL
