MODEL 1
REMARK VINA RESULT: -8.341527771      0.000      0.000
REMARK  5 active torsions:
REMARK  status: ('A' for Active; 'I' for Inactive)
REMARK    1  A    between atoms: C10_10  and  C11_11 
REMARK    2  A    between atoms: C11_11  and  C12_13 
REMARK    3  A    between atoms: C12_13  and  C13_14 
REMARK    4  A    between atoms: C13_14  and  O1_15 
REMARK    5  A    between atoms: N1_17  and  O2_19 
ROOT
HETATM    1  C1  UNL     1     -21.016   2.648 -22.632  1.00  0.00     0.015 C 
HETATM    2  C2  UNL     1     -21.451   1.218 -22.773  1.00  0.00    -0.040 C 
HETATM    3  C3  UNL     1     -21.560   0.625 -21.393  1.00  0.00     0.015 C 
HETATM    4  C4  UNL     1     -22.802   1.083 -23.434  1.00  0.00    -0.005 C 
HETATM    5  C5  UNL     1     -23.137  -0.400 -23.451  1.00  0.00     0.010 C 
HETATM    6  C6  UNL     1     -22.118  -1.175 -24.237  1.00  0.00    -0.013 C 
HETATM    7  C7  UNL     1     -20.718  -0.994 -23.713  1.00  0.00     0.010 C 
HETATM    8  C8  UNL     1     -20.451   0.482 -23.599  1.00  0.00    -0.005 C 
HETATM    9  C9  UNL     1     -20.432   1.036 -25.020  1.00  0.00     0.018 C 
HETATM   10  C10 UNL     1     -21.764   0.787 -25.685  1.00  0.00    -0.008 C 
HETATM   11  C14 UNL     1     -22.152  -0.660 -25.666  1.00  0.00     0.017 C 
HETATM   12  C15 UNL     1     -22.800   1.557 -24.855  1.00  0.00     0.018 C 
ENDROOT
BRANCH  10  13
HETATM   13  C11 UNL     1     -21.763   1.320 -27.086  1.00  0.00     0.186 C 
HETATM   14  F1  UNL     1     -23.010   1.725 -27.503  1.00  0.00    -0.248 F 
BRANCH  13  15
HETATM   15  C12 UNL     1     -21.240   0.347 -28.090  1.00  0.00     0.123 C 
BRANCH  15  16
HETATM   16  C13 UNL     1     -20.405   1.054 -29.079  1.00  0.00     0.138 C 
HETATM   17  N1  UNL     1     -20.588   0.892 -30.336  1.00  0.00    -0.251 N 
ATOM     18  H1  UNL     1     -20.000   1.393 -31.002  1.00  0.00     0.196 HD
BRANCH  16  19
HETATM   19  O1  UNL     1     -19.410   1.906 -28.651  1.00  0.00    -0.348 OA
ATOM     20  H1  UNL     1     -18.639   1.554 -28.222  1.00  0.00     0.219 HD
ENDBRANCH  16  19
BRANCH  17  21
HETATM   21  O2  UNL     1     -21.573   0.048 -30.793  1.00  0.00    -0.288 OA
ATOM     22  H2  UNL     1     -22.090   0.281 -31.556  1.00  0.00     0.244 HD
ENDBRANCH  17  21
ENDBRANCH  15  16
ENDBRANCH  13  15
ENDBRANCH  10  13
TORSDOF 5
ENDMDL
MODEL 2
REMARK VINA RESULT: -8.308305555      1.838      3.162
REMARK  5 active torsions:
REMARK  status: ('A' for Active; 'I' for Inactive)
REMARK    1  A    between atoms: C10_10  and  C11_11 
REMARK    2  A    between atoms: C11_11  and  C12_13 
REMARK    3  A    between atoms: C12_13  and  C13_14 
REMARK    4  A    between atoms: C13_14  and  O1_15 
REMARK    5  A    between atoms: N1_17  and  O2_19 
ROOT
HETATM    1  C1  UNL     1     -22.145  -2.704 -22.744  1.00  0.00     0.015 C 
HETATM    2  C2  UNL     1     -21.715  -1.270 -22.852  1.00  0.00    -0.040 C 
HETATM    3  C3  UNL     1     -21.569  -0.721 -21.457  1.00  0.00     0.015 C 
HETATM    4  C4  UNL     1     -20.381  -1.113 -23.543  1.00  0.00    -0.005 C 
HETATM    5  C5  UNL     1     -20.047   0.370 -23.522  1.00  0.00     0.010 C 
HETATM    6  C6  UNL     1     -21.088   1.169 -24.256  1.00  0.00    -0.013 C 
HETATM    7  C7  UNL     1     -22.473   0.970 -23.701  1.00  0.00     0.010 C 
HETATM    8  C8  UNL     1     -22.736  -0.509 -23.626  1.00  0.00    -0.005 C 
HETATM    9  C9  UNL     1     -22.793  -1.018 -25.063  1.00  0.00     0.018 C 
HETATM   10  C10 UNL     1     -21.479  -0.747 -25.756  1.00  0.00    -0.008 C 
HETATM   11  C14 UNL     1     -21.091   0.699 -25.701  1.00  0.00     0.017 C 
HETATM   12  C15 UNL     1     -20.421  -1.541 -24.978  1.00  0.00     0.018 C 
ENDROOT
BRANCH  10  13
HETATM   13  C11 UNL     1     -21.517  -1.235 -27.173  1.00  0.00     0.186 C 
HETATM   14  F1  UNL     1     -20.263  -1.427 -27.704  1.00  0.00    -0.248 F 
BRANCH  13  15
HETATM   15  C12 UNL     1     -22.268  -0.328 -28.092  1.00  0.00     0.123 C 
BRANCH  15  16
HETATM   16  C13 UNL     1     -22.963  -1.127 -29.118  1.00  0.00     0.138 C 
HETATM   17  N1  UNL     1     -22.675  -1.003 -30.360  1.00  0.00    -0.251 N 
ATOM     18  H1  UNL     1     -23.167  -1.567 -31.053  1.00  0.00     0.196 HD
BRANCH  16  19
HETATM   19  O1  UNL     1     -23.938  -2.025 -28.744  1.00  0.00    -0.348 OA
ATOM     20  H1  UNL     1     -23.741  -2.954 -28.721  1.00  0.00     0.219 HD
ENDBRANCH  16  19
BRANCH  17  21
HETATM   21  O2  UNL     1     -21.706  -0.114 -30.765  1.00  0.00    -0.288 OA
ATOM     22  H2  UNL     1     -21.932   0.789 -30.958  1.00  0.00     0.244 HD
ENDBRANCH  17  21
ENDBRANCH  15  16
ENDBRANCH  13  15
ENDBRANCH  10  13
TORSDOF 5
ENDMDL
MODEL 3
REMARK VINA RESULT: -8.138810224      0.666      2.148
REMARK  5 active torsions:
REMARK  status: ('A' for Active; 'I' for Inactive)
REMARK    1  A    between atoms: C10_10  and  C11_11 
REMARK    2  A    between atoms: C11_11  and  C12_13 
REMARK    3  A    between atoms: C12_13  and  C13_14 
REMARK    4  A    between atoms: C13_14  and  O1_15 
REMARK    5  A    between atoms: N1_17  and  O2_19 
ROOT
HETATM    1  C1  UNL     1     -20.216  -1.909 -24.284  1.00  0.00     0.015 C 
HETATM    2  C2  UNL     1     -21.123  -0.874 -23.685  1.00  0.00    -0.040 C 
HETATM    3  C3  UNL     1     -21.224  -1.142 -22.206  1.00  0.00     0.015 C 
HETATM    4  C4  UNL     1     -20.597   0.531 -23.857  1.00  0.00    -0.005 C 
HETATM    5  C5  UNL     1     -21.576   1.457 -23.153  1.00  0.00     0.010 C 
HETATM    6  C6  UNL     1     -22.946   1.358 -23.762  1.00  0.00    -0.013 C 
HETATM    7  C7  UNL     1     -23.494  -0.044 -23.740  1.00  0.00     0.010 C 
HETATM    8  C8  UNL     1     -22.460  -0.957 -24.340  1.00  0.00    -0.005 C 
HETATM    9  C9  UNL     1     -22.346  -0.583 -25.815  1.00  0.00     0.018 C 
HETATM   10  C10 UNL     1     -21.922   0.859 -25.947  1.00  0.00    -0.008 C 
HETATM   11  C14 UNL     1     -22.834   1.794 -25.214  1.00  0.00     0.017 C 
HETATM   12  C15 UNL     1     -20.537   0.954 -25.293  1.00  0.00     0.018 C 
ENDROOT
BRANCH  10  13
HETATM   13  C11 UNL     1     -21.811   1.248 -27.391  1.00  0.00     0.186 C 
HETATM   14  F1  UNL     1     -23.030   1.279 -28.030  1.00  0.00    -0.248 F 
BRANCH  13  15
HETATM   15  C12 UNL     1     -20.907   0.356 -28.177  1.00  0.00     0.123 C 
BRANCH  15  16
HETATM   16  C13 UNL     1     -20.162   1.154 -29.167  1.00  0.00     0.138 C 
HETATM   17  N1  UNL     1     -20.422   1.067 -30.418  1.00  0.00    -0.251 N 
ATOM     18  H1  UNL     1     -19.895   1.630 -31.086  1.00  0.00     0.196 HD
BRANCH  16  19
HETATM   19  O1  UNL     1     -19.168   2.012 -28.748  1.00  0.00    -0.348 OA
ATOM     20  H1  UNL     1     -19.058   2.853 -29.177  1.00  0.00     0.219 HD
ENDBRANCH  16  19
BRANCH  17  21
HETATM   21  O2  UNL     1     -21.408   0.219 -30.867  1.00  0.00    -0.288 OA
ATOM     22  H2  UNL     1     -21.181  -0.594 -31.304  1.00  0.00     0.244 HD
ENDBRANCH  17  21
ENDBRANCH  15  16
ENDBRANCH  13  15
ENDBRANCH  10  13
TORSDOF 5
ENDMDL
MODEL 4
REMARK VINA RESULT: -8.134500722      1.811      2.507
REMARK  5 active torsions:
REMARK  status: ('A' for Active; 'I' for Inactive)
REMARK    1  A    between atoms: C10_10  and  C11_11 
REMARK    2  A    between atoms: C11_11  and  C12_13 
REMARK    3  A    between atoms: C12_13  and  C13_14 
REMARK    4  A    between atoms: C13_14  and  O1_15 
REMARK    5  A    between atoms: N1_17  and  O2_19 
ROOT
HETATM    1  C1  UNL     1     -22.904   2.036 -24.300  1.00  0.00     0.015 C 
HETATM    2  C2  UNL     1     -22.027   0.986 -23.683  1.00  0.00    -0.040 C 
HETATM    3  C3  UNL     1     -21.905   1.285 -22.212  1.00  0.00     0.015 C 
HETATM    4  C4  UNL     1     -22.601  -0.404 -23.818  1.00  0.00    -0.005 C 
HETATM    5  C5  UNL     1     -21.647  -1.345 -23.099  1.00  0.00     0.010 C 
HETATM    6  C6  UNL     1     -20.279  -1.307 -23.720  1.00  0.00    -0.013 C 
HETATM    7  C7  UNL     1     -19.685   0.076 -23.735  1.00  0.00     0.010 C 
HETATM    8  C8  UNL     1     -20.693   1.009 -24.349  1.00  0.00    -0.005 C 
HETATM    9  C9  UNL     1     -20.830   0.605 -25.814  1.00  0.00     0.018 C 
HETATM   10  C10 UNL     1     -21.303  -0.826 -25.909  1.00  0.00    -0.008 C 
HETATM   11  C14 UNL     1     -20.417  -1.773 -25.160  1.00  0.00     0.017 C 
HETATM   12  C15 UNL     1     -22.685  -0.858 -25.243  1.00  0.00     0.018 C 
ENDROOT
BRANCH  10  13
HETATM   13  C11 UNL     1     -21.438  -1.244 -27.342  1.00  0.00     0.186 C 
HETATM   14  F1  UNL     1     -20.230  -1.300 -27.998  1.00  0.00    -0.248 F 
BRANCH  13  15
HETATM   15  C12 UNL     1     -22.347  -0.363 -28.134  1.00  0.00     0.123 C 
BRANCH  15  16
HETATM   16  C13 UNL     1     -23.061  -1.165 -29.144  1.00  0.00     0.138 C 
HETATM   17  N1  UNL     1     -22.774  -1.070 -30.388  1.00  0.00    -0.251 N 
ATOM     18  H1  UNL     1     -23.280  -1.637 -31.069  1.00  0.00     0.196 HD
BRANCH  16  19
HETATM   19  O1  UNL     1     -24.055  -2.035 -28.750  1.00  0.00    -0.348 OA
ATOM     20  H1  UNL     1     -24.889  -2.037 -29.205  1.00  0.00     0.219 HD
ENDBRANCH  16  19
BRANCH  17  21
HETATM   21  O2  UNL     1     -21.788  -0.210 -30.812  1.00  0.00    -0.288 OA
ATOM     22  H2  UNL     1     -21.496  -0.221 -31.716  1.00  0.00     0.244 HD
ENDBRANCH  17  21
ENDBRANCH  15  16
ENDBRANCH  13  15
ENDBRANCH  10  13
TORSDOF 5
ENDMDL
MODEL 5
REMARK VINA RESULT: -8.061271728      1.445      2.686
REMARK  5 active torsions:
REMARK  status: ('A' for Active; 'I' for Inactive)
REMARK    1  A    between atoms: C10_10  and  C11_11 
REMARK    2  A    between atoms: C11_11  and  C12_13 
REMARK    3  A    between atoms: C12_13  and  C13_14 
REMARK    4  A    between atoms: C13_14  and  O1_15 
REMARK    5  A    between atoms: N1_17  and  O2_19 
ROOT
HETATM    1  C1  UNL     1     -22.217  -2.711 -22.769  1.00  0.00     0.015 C 
HETATM    2  C2  UNL     1     -21.733  -1.290 -22.784  1.00  0.00    -0.040 C 
HETATM    3  C3  UNL     1     -21.505  -0.860 -21.359  1.00  0.00     0.015 C 
HETATM    4  C4  UNL     1     -20.425  -1.129 -23.521  1.00  0.00    -0.005 C 
HETATM    5  C5  UNL     1     -20.029   0.334 -23.399  1.00  0.00     0.010 C 
HETATM    6  C6  UNL     1     -21.065   1.227 -24.020  1.00  0.00    -0.013 C 
HETATM    7  C7  UNL     1     -22.433   1.038 -23.420  1.00  0.00     0.010 C 
HETATM    8  C8  UNL     1     -22.754  -0.431 -23.449  1.00  0.00    -0.005 C 
HETATM    9  C9  UNL     1     -22.893  -0.822 -24.918  1.00  0.00     0.018 C 
HETATM   10  C10 UNL     1     -21.599  -0.546 -25.645  1.00  0.00    -0.008 C 
HETATM   11  C14 UNL     1     -21.149   0.875 -25.496  1.00  0.00     0.017 C 
HETATM   12  C15 UNL     1     -20.543  -1.439 -24.982  1.00  0.00     0.018 C 
ENDROOT
BRANCH  10  13
HETATM   13  C11 UNL     1     -21.718  -0.918 -27.093  1.00  0.00     0.186 C 
HETATM   14  F1  UNL     1     -20.522  -1.325 -27.638  1.00  0.00    -0.248 F 
BRANCH  13  15
HETATM   15  C12 UNL     1     -22.257   0.183 -27.946  1.00  0.00     0.123 C 
BRANCH  15  16
HETATM   16  C13 UNL     1     -21.356   0.411 -29.090  1.00  0.00     0.138 C 
HETATM   17  N1  UNL     1     -21.618  -0.076 -30.246  1.00  0.00    -0.251 N 
ATOM     18  H1  UNL     1     -20.981   0.096 -31.024  1.00  0.00     0.196 HD
BRANCH  16  19
HETATM   19  O1  UNL     1     -20.211   1.161 -28.923  1.00  0.00    -0.348 OA
ATOM     20  H1  UNL     1     -19.377   0.823 -29.226  1.00  0.00     0.219 HD
ENDBRANCH  16  19
BRANCH  17  21
HETATM   21  O2  UNL     1     -22.752  -0.828 -30.443  1.00  0.00    -0.288 OA
ATOM     22  H2  UNL     1     -23.422  -0.874 -29.771  1.00  0.00     0.244 HD
ENDBRANCH  17  21
ENDBRANCH  15  16
ENDBRANCH  13  15
ENDBRANCH  10  13
TORSDOF 5
ENDMDL
