MODEL 1
REMARK VINA RESULT: -6.625795870      0.000      0.000
REMARK  3 active torsions:
REMARK  status: ('A' for Active; 'I' for Inactive)
REMARK    1  A    between atoms: C4_5  and  N1_6 
REMARK    2  A    between atoms: N1_6  and  C5_8 
REMARK    3  A    between atoms: C11_14  and  N2_15 
ROOT
HETATM    1  F1  UNL     1     -23.206  -1.986 -31.458  1.00  0.00    -0.206 F 
HETATM    2  C1  UNL     1     -22.953  -1.502 -30.200  1.00  0.00     0.118 A 
HETATM    3  C2  UNL     1     -23.469  -2.109 -29.079  1.00  0.00     0.044 A 
HETATM    4  C3  UNL     1     -23.194  -1.594 -27.810  1.00  0.00     0.034 A 
HETATM    5  C4  UNL     1     -22.394  -0.462 -27.684  1.00  0.00     0.055 A 
HETATM    6  C11 UNL     1     -21.879   0.142 -28.814  1.00  0.00     0.063 A 
HETATM    7  C16 UNL     1     -22.161  -0.380 -30.069  1.00  0.00     0.074 A 
ENDROOT
BRANCH   5   8
HETATM    8  N1  UNL     1     -22.100   0.109 -26.428  1.00  0.00    -0.383 N 
ATOM      9  H1  UNL     1     -21.896   1.108 -26.400  1.00  0.00     0.160 HD
BRANCH   8  10
HETATM   10  C5  UNL     1     -22.064  -0.627 -25.162  1.00  0.00     0.081 C 
HETATM   11  C6  UNL     1     -22.729   0.200 -24.135  1.00  0.00     0.025 C 
HETATM   12  C7  UNL     1     -22.082   0.301 -22.802  1.00  0.00     0.002 C 
HETATM   13  C8  UNL     1     -20.642   0.767 -23.068  1.00  0.00     0.000 C 
HETATM   14  C9  UNL     1     -19.978  -0.401 -23.716  1.00  0.00     0.002 C 
HETATM   15  C10 UNL     1     -20.638  -0.971 -24.903  1.00  0.00     0.025 C 
ENDBRANCH   8  10
ENDBRANCH   5   8
BRANCH   6  16
HETATM   16  N2  UNL     1     -21.076   1.277 -28.680  1.00  0.00    -0.344 N 
HETATM   17  C12 UNL     1     -19.848   1.376 -29.023  1.00  0.00     0.077 C 
HETATM   18  C13 UNL     1     -19.021   2.597 -28.867  1.00  0.00     0.078 C 
HETATM   19  N3  UNL     1     -19.018   0.396 -29.603  1.00  0.00    -0.380 N 
HETATM   20  C14 UNL     1     -18.040   2.450 -30.012  1.00  0.00     0.027 C 
HETATM   21  C15 UNL     1     -17.694   0.963 -29.900  1.00  0.00     0.121 C 
ATOM     22  H3  UNL     1     -19.296  -0.567 -29.791  1.00  0.00     0.160 HD
ATOM     23  H2  UNL     1     -21.511   2.104 -28.271  1.00  0.00     0.167 HD
ENDBRANCH   6  16
TORSDOF 3
ENDMDL
MODEL 2
REMARK VINA RESULT: -6.601172563      1.945      4.369
REMARK  3 active torsions:
REMARK  status: ('A' for Active; 'I' for Inactive)
REMARK    1  A    between atoms: C4_5  and  N1_6 
REMARK    2  A    between atoms: N1_6  and  C5_8 
REMARK    3  A    between atoms: C11_14  and  N2_15 
ROOT
HETATM    1  F1  UNL     1     -19.913   2.063 -31.437  1.00  0.00    -0.206 F 
HETATM    2  C1  UNL     1     -20.210   1.581 -30.189  1.00  0.00     0.118 A 
HETATM    3  C2  UNL     1     -19.757   2.204 -29.050  1.00  0.00     0.044 A 
HETATM    4  C3  UNL     1     -20.076   1.688 -27.791  1.00  0.00     0.034 A 
HETATM    5  C4  UNL     1     -20.856   0.540 -27.693  1.00  0.00     0.055 A 
HETATM    6  C11 UNL     1     -21.308  -0.081 -28.842  1.00  0.00     0.063 A 
HETATM    7  C16 UNL     1     -20.983   0.442 -30.086  1.00  0.00     0.074 A 
ENDROOT
BRANCH   5   8
HETATM    8  N1  UNL     1     -21.194  -0.032 -26.449  1.00  0.00    -0.383 N 
ATOM      9  H1  UNL     1     -21.472  -1.013 -26.440  1.00  0.00     0.160 HD
BRANCH   8  10
HETATM   10  C5  UNL     1     -21.173   0.680 -25.169  1.00  0.00     0.081 C 
HETATM   11  C6  UNL     1     -20.393  -0.129 -24.210  1.00  0.00     0.025 C 
HETATM   12  C7  UNL     1     -20.933  -0.286 -22.836  1.00  0.00     0.002 C 
HETATM   13  C8  UNL     1     -22.364  -0.822 -23.005  1.00  0.00     0.000 C 
HETATM   14  C9  UNL     1     -23.132   0.321 -23.579  1.00  0.00     0.002 C 
HETATM   15  C10 UNL     1     -22.591   0.945 -24.799  1.00  0.00     0.025 C 
ENDBRANCH   8  10
ENDBRANCH   5   8
BRANCH   6  16
HETATM   16  N2  UNL     1     -22.091  -1.232 -28.737  1.00  0.00    -0.344 N 
HETATM   17  C12 UNL     1     -23.320  -1.342 -29.075  1.00  0.00     0.077 C 
HETATM   18  C13 UNL     1     -24.126  -2.580 -28.950  1.00  0.00     0.078 C 
HETATM   19  N3  UNL     1     -24.170  -0.359 -29.621  1.00  0.00    -0.380 N 
HETATM   20  C14 UNL     1     -25.116  -2.415 -30.085  1.00  0.00     0.027 C 
HETATM   21  C15 UNL     1     -25.486  -0.938 -29.927  1.00  0.00     0.121 C 
ATOM     22  H3  UNL     1     -23.909   0.614 -29.782  1.00  0.00     0.160 HD
ATOM     23  H2  UNL     1     -21.641  -2.064 -28.355  1.00  0.00     0.167 HD
ENDBRANCH   6  16
TORSDOF 3
ENDMDL
MODEL 3
REMARK VINA RESULT: -6.559078052      1.419      5.447
REMARK  3 active torsions:
REMARK  status: ('A' for Active; 'I' for Inactive)
REMARK    1  A    between atoms: C4_5  and  N1_6 
REMARK    2  A    between atoms: N1_6  and  C5_8 
REMARK    3  A    between atoms: C11_14  and  N2_15 
ROOT
HETATM    1  F1  UNL     1     -24.855  -2.294 -28.679  1.00  0.00    -0.206 F 
HETATM    2  C1  UNL     1     -23.666  -1.624 -28.803  1.00  0.00     0.118 A 
HETATM    3  C2  UNL     1     -23.188  -1.227 -30.030  1.00  0.00     0.044 A 
HETATM    4  C3  UNL     1     -21.972  -0.545 -30.125  1.00  0.00     0.034 A 
HETATM    5  C4  UNL     1     -21.245  -0.269 -28.971  1.00  0.00     0.055 A 
HETATM    6  C11 UNL     1     -21.730  -0.670 -27.742  1.00  0.00     0.063 A 
HETATM    7  C16 UNL     1     -22.940  -1.347 -27.662  1.00  0.00     0.074 A 
ENDROOT
BRANCH   5   8
HETATM    8  N1  UNL     1     -20.004   0.401 -29.012  1.00  0.00    -0.383 N 
ATOM      9  H1  UNL     1     -19.193  -0.083 -28.627  1.00  0.00     0.160 HD
BRANCH   8  10
HETATM   10  C5  UNL     1     -19.795   1.741 -29.568  1.00  0.00     0.081 C 
HETATM   11  C6  UNL     1     -20.194   1.712 -30.990  1.00  0.00     0.025 C 
HETATM   12  C7  UNL     1     -19.308   2.389 -31.971  1.00  0.00     0.002 C 
HETATM   13  C8  UNL     1     -17.908   1.790 -31.757  1.00  0.00     0.000 C 
HETATM   14  C9  UNL     1     -17.468   2.318 -30.432  1.00  0.00     0.002 C 
HETATM   15  C10 UNL     1     -18.377   2.105 -29.293  1.00  0.00     0.025 C 
ENDBRANCH   8  10
ENDBRANCH   5   8
BRANCH   6  16
HETATM   16  N2  UNL     1     -20.995  -0.389 -26.588  1.00  0.00    -0.344 N 
HETATM   17  C12 UNL     1     -21.328   0.431 -25.664  1.00  0.00     0.077 C 
HETATM   18  C13 UNL     1     -20.524   0.709 -24.450  1.00  0.00     0.078 C 
HETATM   19  N3  UNL     1     -22.483   1.233 -25.578  1.00  0.00    -0.380 N 
HETATM   20  C14 UNL     1     -21.601   1.074 -23.449  1.00  0.00     0.027 C 
HETATM   21  C15 UNL     1     -22.495   1.973 -24.308  1.00  0.00     0.121 C 
ATOM     22  H3  UNL     1     -23.208   1.292 -26.295  1.00  0.00     0.160 HD
ATOM     23  H2  UNL     1     -20.111  -0.883 -26.472  1.00  0.00     0.167 HD
ENDBRANCH   6  16
TORSDOF 3
ENDMDL
MODEL 4
REMARK VINA RESULT: -6.544662583      2.321      6.051
REMARK  3 active torsions:
REMARK  status: ('A' for Active; 'I' for Inactive)
REMARK    1  A    between atoms: C4_5  and  N1_6 
REMARK    2  A    between atoms: N1_6  and  C5_8 
REMARK    3  A    between atoms: C11_14  and  N2_15 
ROOT
HETATM    1  F1  UNL     1     -18.343   2.335 -28.642  1.00  0.00    -0.206 F 
HETATM    2  C1  UNL     1     -19.530   1.660 -28.770  1.00  0.00     0.118 A 
HETATM    3  C2  UNL     1     -20.002   1.262 -29.998  1.00  0.00     0.044 A 
HETATM    4  C3  UNL     1     -21.215   0.576 -30.097  1.00  0.00     0.034 A 
HETATM    5  C4  UNL     1     -21.945   0.296 -28.947  1.00  0.00     0.055 A 
HETATM    6  C11 UNL     1     -21.464   0.699 -27.716  1.00  0.00     0.063 A 
HETATM    7  C16 UNL     1     -20.258   1.380 -27.632  1.00  0.00     0.074 A 
ENDROOT
BRANCH   5   8
HETATM    8  N1  UNL     1     -23.183  -0.378 -28.992  1.00  0.00    -0.383 N 
ATOM      9  H1  UNL     1     -24.000   0.111 -28.627  1.00  0.00     0.160 HD
BRANCH   8  10
HETATM   10  C5  UNL     1     -23.381  -1.729 -29.524  1.00  0.00     0.081 C 
HETATM   11  C6  UNL     1     -23.001  -1.717 -30.951  1.00  0.00     0.025 C 
HETATM   12  C7  UNL     1     -23.889  -2.420 -31.910  1.00  0.00     0.002 C 
HETATM   13  C8  UNL     1     -25.294  -1.838 -31.687  1.00  0.00     0.000 C 
HETATM   14  C9  UNL     1     -25.710  -2.351 -30.349  1.00  0.00     0.002 C 
HETATM   15  C10 UNL     1     -24.790  -2.108 -29.225  1.00  0.00     0.025 C 
ENDBRANCH   8  10
ENDBRANCH   5   8
BRANCH   6  16
HETATM   16  N2  UNL     1     -22.202   0.414 -26.564  1.00  0.00    -0.344 N 
HETATM   17  C12 UNL     1     -21.894  -0.442 -25.664  1.00  0.00     0.077 C 
HETATM   18  C13 UNL     1     -22.699  -0.722 -24.451  1.00  0.00     0.078 C 
HETATM   19  N3  UNL     1     -20.768  -1.287 -25.608  1.00  0.00    -0.380 N 
HETATM   20  C14 UNL     1     -21.629  -1.153 -23.468  1.00  0.00     0.027 C 
HETATM   21  C15 UNL     1     -20.775  -2.060 -24.357  1.00  0.00     0.121 C 
ATOM     22  H3  UNL     1     -20.050  -1.354 -26.331  1.00  0.00     0.160 HD
ATOM     23  H2  UNL     1     -23.067   0.937 -26.429  1.00  0.00     0.167 HD
ENDBRANCH   6  16
TORSDOF 3
ENDMDL
MODEL 5
REMARK VINA RESULT: -6.382239648      3.010      4.319
REMARK  3 active torsions:
REMARK  status: ('A' for Active; 'I' for Inactive)
REMARK    1  A    between atoms: C4_5  and  N1_6 
REMARK    2  A    between atoms: N1_6  and  C5_8 
REMARK    3  A    between atoms: C11_14  and  N2_15 
ROOT
HETATM    1  F1  UNL     1     -19.079  -3.757 -26.414  1.00  0.00    -0.206 F 
HETATM    2  C1  UNL     1     -19.728  -2.623 -25.998  1.00  0.00     0.118 A 
HETATM    3  C2  UNL     1     -19.496  -2.075 -24.759  1.00  0.00     0.044 A 
HETATM    4  C3  UNL     1     -20.172  -0.919 -24.363  1.00  0.00     0.034 A 
HETATM    5  C4  UNL     1     -21.084  -0.322 -25.228  1.00  0.00     0.055 A 
HETATM    6  C11 UNL     1     -21.312  -0.878 -26.472  1.00  0.00     0.063 A 
HETATM    7  C16 UNL     1     -20.633  -2.027 -26.853  1.00  0.00     0.074 A 
ENDROOT
BRANCH   5   8
HETATM    8  N1  UNL     1     -21.805   0.836 -24.872  1.00  0.00    -0.383 N 
ATOM      9  H1  UNL     1     -21.777   1.627 -25.516  1.00  0.00     0.160 HD
BRANCH   8  10
HETATM   10  C5  UNL     1     -22.593   0.987 -23.646  1.00  0.00     0.081 C 
HETATM   11  C6  UNL     1     -21.688   1.464 -22.579  1.00  0.00     0.025 C 
HETATM   12  C7  UNL     1     -21.802   0.831 -21.241  1.00  0.00     0.002 C 
HETATM   13  C8  UNL     1     -21.661  -0.681 -21.476  1.00  0.00     0.000 C 
HETATM   14  C9  UNL     1     -22.916  -1.074 -22.181  1.00  0.00     0.002 C 
HETATM   15  C10 UNL     1     -23.262  -0.321 -23.399  1.00  0.00     0.025 C 
ENDBRANCH   8  10
ENDBRANCH   5   8
BRANCH   6  16
HETATM   16  N2  UNL     1     -22.227  -0.273 -27.337  1.00  0.00    -0.344 N 
HETATM   17  C12 UNL     1     -22.764  -0.814 -28.364  1.00  0.00     0.077 C 
HETATM   18  C13 UNL     1     -23.734  -0.145 -29.264  1.00  0.00     0.078 C 
HETATM   19  N3  UNL     1     -22.574  -2.116 -28.869  1.00  0.00    -0.380 N 
HETATM   20  C14 UNL     1     -24.553  -1.320 -29.757  1.00  0.00     0.027 C 
HETATM   21  C15 UNL     1     -23.447  -2.343 -30.030  1.00  0.00     0.121 C 
ATOM     22  H3  UNL     1     -21.925  -2.803 -28.484  1.00  0.00     0.160 HD
ATOM     23  H2  UNL     1     -22.492   0.690 -27.129  1.00  0.00     0.167 HD
ENDBRANCH   6  16
TORSDOF 3
ENDMDL
