MODEL 1
REMARK VINA RESULT: -8.637451217      0.000      0.000
REMARK  3 active torsions:
REMARK  status: ('A' for Active; 'I' for Inactive)
REMARK    1  A    between atoms: C2_2  and  C5_5 
REMARK    2  A    between atoms: C9_13  and  C10_14 
REMARK    3  A    between atoms: C9_13  and  N6_31 
ROOT
HETATM    1  C5  UNL     1      -4.375 -19.070 -20.718  1.00  0.00     0.081 C 
HETATM    2  C6  UNL     1      -3.939 -18.045 -21.406  1.00  0.00     0.102 C 
HETATM    3  C7  UNL     1      -3.257 -18.017 -22.710  1.00  0.00     0.104 C 
HETATM    4  N1  UNL     1      -2.717 -17.961 -23.732  1.00  0.00    -0.191 NA
HETATM    5  C8  UNL     1      -4.241 -16.852 -20.628  1.00  0.00     0.090 C 
HETATM    6  N2  UNL     1      -3.813 -15.682 -20.918  1.00  0.00    -0.397 N 
ATOM      7  H21 UNL     1      -4.025 -14.846 -20.374  1.00  0.00     0.156 HD
ATOM      8  H22 UNL     1      -3.222 -15.422 -21.707  1.00  0.00     0.156 HD
HETATM    9  C9  UNL     1      -5.111 -17.236 -19.467  1.00  0.00     0.244 C 
HETATM   10  O1  UNL     1      -4.960 -18.628 -19.525  1.00  0.00    -0.309 OA
ENDROOT
BRANCH   1  11
HETATM   11  C2  UNL     1      -4.293 -20.507 -21.084  1.00  0.00    -0.001 C 
HETATM   12  C1  UNL     1      -4.209 -20.832 -22.522  1.00  0.00     0.021 C 
HETATM   13  C3  UNL     1      -5.549 -21.194 -20.551  1.00  0.00     0.021 C 
HETATM   14  C4  UNL     1      -3.092 -21.164 -20.404  1.00  0.00     0.021 C 
ENDBRANCH   1  11
BRANCH   9  15
HETATM   15  C10 UNL     1      -4.447 -16.645 -18.273  1.00  0.00     0.164 A 
HETATM   16  N3  UNL     1      -4.187 -15.339 -18.104  1.00  0.00    -0.283 N 
HETATM   17  N4  UNL     1      -3.597 -15.121 -16.952  1.00  0.00    -0.287 N 
ATOM     18  H3  UNL     1      -4.418 -14.612 -18.781  1.00  0.00     0.188 HD
HETATM   19  C11 UNL     1      -3.464 -16.312 -16.344  1.00  0.00     0.100 A 
ATOM     20  H4  UNL     1      -3.296 -14.217 -16.587  1.00  0.00     0.188 HD
HETATM   21  N5  UNL     1      -3.982 -17.261 -17.140  1.00  0.00    -0.309 N 
HETATM   22  C14 UNL     1      -2.919 -16.914 -15.071  1.00  0.00     0.080 C 
HETATM   23  C12 UNL     1      -3.849 -18.512 -16.485  1.00  0.00     0.041 C 
HETATM   24  C13 UNL     1      -3.790 -18.141 -15.013  1.00  0.00     0.039 C 
HETATM   25  C15 UNL     1      -4.866 -19.563 -16.741  1.00  0.00     0.037 C 
HETATM   26  C19 UNL     1      -2.483 -19.099 -16.858  1.00  0.00     0.037 C 
HETATM   27  C16 UNL     1      -4.297 -20.905 -17.156  1.00  0.00     0.081 C 
HETATM   28  C17 UNL     1      -3.181 -21.360 -16.255  1.00  0.00     0.243 C 
HETATM   29  F1  UNL     1      -2.598 -22.462 -16.852  1.00  0.00    -0.206 F 
HETATM   30  F2  UNL     1      -3.703 -21.794 -15.051  1.00  0.00    -0.206 F 
HETATM   31  C18 UNL     1      -2.118 -20.312 -16.075  1.00  0.00     0.081 C 
ENDBRANCH   9  15
BRANCH   9  32
HETATM   32  N6  UNL     1      -6.418 -16.775 -19.732  1.00  0.00    -0.368 N 
HETATM   33  C20 UNL     1      -6.884 -16.724 -21.055  1.00  0.00     0.148 C 
HETATM   34  C21 UNL     1      -7.893 -15.568 -21.174  1.00  0.00     0.251 C 
HETATM   35  N7  UNL     1      -8.981 -15.915 -20.262  1.00  0.00    -0.072 N 
HETATM   36  C22 UNL     1      -8.453 -15.777 -18.920  1.00  0.00     0.251 C 
ATOM     37  H72 UNL     1      -9.829 -15.370 -20.421  1.00  0.00     0.277 HD
ATOM     38  H71 UNL     1      -9.384 -16.834 -20.446  1.00  0.00     0.277 HD
HETATM   39  C23 UNL     1      -7.359 -16.779 -18.681  1.00  0.00     0.148 C 
ENDBRANCH   9  32
TORSDOF 3
ENDMDL
MODEL 2
REMARK VINA RESULT: -8.616111788      3.603      6.910
REMARK  3 active torsions:
REMARK  status: ('A' for Active; 'I' for Inactive)
REMARK    1  A    between atoms: C2_2  and  C5_5 
REMARK    2  A    between atoms: C9_13  and  C10_14 
REMARK    3  A    between atoms: C9_13  and  N6_31 
ROOT
HETATM    1  C5  UNL     1      -5.212 -16.953 -18.583  1.00  0.00     0.081 C 
HETATM    2  C6  UNL     1      -3.924 -16.916 -18.817  1.00  0.00     0.102 C 
HETATM    3  C7  UNL     1      -2.800 -17.166 -17.900  1.00  0.00     0.104 C 
HETATM    4  N1  UNL     1      -1.895 -17.353 -17.204  1.00  0.00    -0.191 NA
HETATM    5  C8  UNL     1      -3.757 -16.554 -20.217  1.00  0.00     0.090 C 
HETATM    6  N2  UNL     1      -2.632 -16.267 -20.752  1.00  0.00    -0.397 N 
ATOM      7  H21 UNL     1      -2.515 -16.014 -21.734  1.00  0.00     0.156 HD
ATOM      8  H22 UNL     1      -1.720 -16.251 -20.296  1.00  0.00     0.156 HD
HETATM    9  C9  UNL     1      -5.100 -16.579 -20.889  1.00  0.00     0.244 C 
HETATM   10  O1  UNL     1      -5.916 -16.645 -19.752  1.00  0.00    -0.309 OA
ENDROOT
BRANCH   1  11
HETATM   11  C2  UNL     1      -5.889 -17.266 -17.298  1.00  0.00    -0.001 C 
HETATM   12  C1  UNL     1      -5.586 -18.569 -16.676  1.00  0.00     0.021 C 
HETATM   13  C3  UNL     1      -7.396 -17.240 -17.551  1.00  0.00     0.021 C 
HETATM   14  C4  UNL     1      -5.585 -16.188 -16.258  1.00  0.00     0.021 C 
ENDBRANCH   1  11
BRANCH   9  15
HETATM   15  C10 UNL     1      -5.207 -15.268 -21.587  1.00  0.00     0.164 A 
HETATM   16  N3  UNL     1      -4.198 -14.398 -21.750  1.00  0.00    -0.283 N 
HETATM   17  N4  UNL     1      -4.596 -13.333 -22.407  1.00  0.00    -0.287 N 
ATOM     18  H3  UNL     1      -3.248 -14.546 -21.410  1.00  0.00     0.188 HD
HETATM   19  C11 UNL     1      -5.899 -13.504 -22.684  1.00  0.00     0.100 A 
ATOM     20  H4  UNL     1      -4.023 -12.528 -22.658  1.00  0.00     0.188 HD
HETATM   21  N5  UNL     1      -6.293 -14.688 -22.189  1.00  0.00    -0.309 N 
HETATM   22  C14 UNL     1      -7.048 -12.793 -23.360  1.00  0.00     0.080 C 
HETATM   23  C12 UNL     1      -7.666 -14.865 -22.498  1.00  0.00     0.041 C 
HETATM   24  C13 UNL     1      -7.871 -14.000 -23.729  1.00  0.00     0.039 C 
HETATM   25  C15 UNL     1      -8.178 -16.242 -22.710  1.00  0.00     0.037 C 
HETATM   26  C19 UNL     1      -8.491 -14.242 -21.365  1.00  0.00     0.037 C 
HETATM   27  C16 UNL     1      -9.398 -16.597 -21.884  1.00  0.00     0.081 C 
HETATM   28  C17 UNL     1     -10.469 -15.544 -21.958  1.00  0.00     0.243 C 
HETATM   29  F1  UNL     1     -11.419 -15.859 -21.005  1.00  0.00    -0.206 F 
HETATM   30  F2  UNL     1     -11.105 -15.612 -23.184  1.00  0.00    -0.206 F 
HETATM   31  C18 UNL     1      -9.948 -14.166 -21.657  1.00  0.00     0.081 C 
ENDBRANCH   9  15
BRANCH   9  32
HETATM   32  N6  UNL     1      -5.151 -17.720 -21.716  1.00  0.00    -0.368 N 
HETATM   33  C20 UNL     1      -6.038 -18.764 -21.412  1.00  0.00     0.148 C 
HETATM   34  C21 UNL     1      -5.423 -20.088 -21.897  1.00  0.00     0.251 C 
HETATM   35  N7  UNL     1      -5.289 -19.938 -23.345  1.00  0.00    -0.072 N 
HETATM   36  C22 UNL     1      -4.236 -18.966 -23.563  1.00  0.00     0.251 C 
ATOM     37  H72 UNL     1      -5.129 -20.822 -23.829  1.00  0.00     0.277 HD
ATOM     38  H71 UNL     1      -6.164 -19.696 -23.809  1.00  0.00     0.277 HD
HETATM   39  C23 UNL     1      -4.644 -17.622 -23.030  1.00  0.00     0.148 C 
ENDBRANCH   9  32
TORSDOF 3
ENDMDL
MODEL 3
REMARK VINA RESULT: -8.313094032      2.332      3.438
REMARK  3 active torsions:
REMARK  status: ('A' for Active; 'I' for Inactive)
REMARK    1  A    between atoms: C2_2  and  C5_5 
REMARK    2  A    between atoms: C9_13  and  C10_14 
REMARK    3  A    between atoms: C9_13  and  N6_31 
ROOT
HETATM    1  C5  UNL     1      -5.235 -18.819 -20.942  1.00  0.00     0.081 C 
HETATM    2  C6  UNL     1      -5.101 -18.572 -22.221  1.00  0.00     0.102 C 
HETATM    3  C7  UNL     1      -4.716 -19.481 -23.313  1.00  0.00     0.104 C 
HETATM    4  N1  UNL     1      -4.414 -20.170 -24.192  1.00  0.00    -0.191 NA
HETATM    5  C8  UNL     1      -5.401 -17.161 -22.415  1.00  0.00     0.090 C 
HETATM    6  N2  UNL     1      -5.214 -16.535 -23.514  1.00  0.00    -0.397 N 
ATOM      7  H21 UNL     1      -5.425 -15.546 -23.650  1.00  0.00     0.156 HD
ATOM      8  H22 UNL     1      -4.843 -16.916 -24.383  1.00  0.00     0.156 HD
HETATM    9  C9  UNL     1      -5.948 -16.600 -21.134  1.00  0.00     0.244 C 
HETATM   10  O1  UNL     1      -5.616 -17.652 -20.270  1.00  0.00    -0.309 OA
ENDROOT
BRANCH   1  11
HETATM   11  C2  UNL     1      -5.027 -20.114 -20.243  1.00  0.00    -0.001 C 
HETATM   12  C1  UNL     1      -5.985 -21.198 -20.537  1.00  0.00     0.021 C 
HETATM   13  C3  UNL     1      -5.111 -19.848 -18.741  1.00  0.00     0.021 C 
HETATM   14  C4  UNL     1      -3.628 -20.657 -20.531  1.00  0.00     0.021 C 
ENDBRANCH   1  11
BRANCH   9  15
HETATM   15  C10 UNL     1      -5.142 -15.377 -20.871  1.00  0.00     0.164 A 
HETATM   16  N3  UNL     1      -4.650 -14.561 -21.818  1.00  0.00    -0.283 N 
HETATM   17  N4  UNL     1      -3.983 -13.566 -21.281  1.00  0.00    -0.287 N 
ATOM     18  H3  UNL     1      -4.777 -14.698 -22.820  1.00  0.00     0.188 HD
HETATM   19  C11 UNL     1      -4.036 -13.726 -19.948  1.00  0.00     0.100 A 
ATOM     20  H4  UNL     1      -3.513 -12.812 -21.782  1.00  0.00     0.188 HD
HETATM   21  N5  UNL     1      -4.746 -14.834 -19.677  1.00  0.00    -0.309 N 
HETATM   22  C14 UNL     1      -3.553 -13.071 -18.677  1.00  0.00     0.080 C 
HETATM   23  C12 UNL     1      -4.807 -14.988 -18.268  1.00  0.00     0.041 C 
HETATM   24  C13 UNL     1      -4.623 -13.574 -17.745  1.00  0.00     0.039 C 
HETATM   25  C15 UNL     1      -6.002 -15.637 -17.674  1.00  0.00     0.037 C 
HETATM   26  C19 UNL     1      -3.582 -15.797 -17.826  1.00  0.00     0.037 C 
HETATM   27  C16 UNL     1      -5.696 -16.786 -16.733  1.00  0.00     0.081 C 
HETATM   28  C17 UNL     1      -4.641 -16.434 -15.720  1.00  0.00     0.243 C 
HETATM   29  F1  UNL     1      -4.286 -17.604 -15.076  1.00  0.00    -0.206 F 
HETATM   30  F2  UNL     1      -5.181 -15.602 -14.756  1.00  0.00    -0.206 F 
HETATM   31  C18 UNL     1      -3.404 -15.856 -16.349  1.00  0.00     0.081 C 
ENDBRANCH   9  15
BRANCH   9  32
HETATM   32  N6  UNL     1      -7.334 -16.396 -21.306  1.00  0.00    -0.368 N 
HETATM   33  C20 UNL     1      -7.947 -16.754 -22.516  1.00  0.00     0.148 C 
HETATM   34  C21 UNL     1      -9.136 -15.808 -22.761  1.00  0.00     0.251 C 
HETATM   35  N7  UNL     1     -10.045 -16.038 -21.640  1.00  0.00    -0.072 N 
HETATM   36  C22 UNL     1      -9.399 -15.487 -20.466  1.00  0.00     0.251 C 
ATOM     37  H72 UNL     1     -10.982 -15.668 -21.798  1.00  0.00     0.277 HD
ATOM     38  H71 UNL     1     -10.312 -17.017 -21.532  1.00  0.00     0.277 HD
HETATM   39  C23 UNL     1      -8.138 -16.242 -20.157  1.00  0.00     0.148 C 
ENDBRANCH   9  32
TORSDOF 3
ENDMDL
MODEL 4
REMARK VINA RESULT: -8.205977038      2.470      5.875
REMARK  3 active torsions:
REMARK  status: ('A' for Active; 'I' for Inactive)
REMARK    1  A    between atoms: C2_2  and  C5_5 
REMARK    2  A    between atoms: C9_13  and  C10_14 
REMARK    3  A    between atoms: C9_13  and  N6_31 
ROOT
HETATM    1  C5  UNL     1      -6.782 -14.960 -19.330  1.00  0.00     0.081 C 
HETATM    2  C6  UNL     1      -5.842 -14.057 -19.194  1.00  0.00     0.102 C 
HETATM    3  C7  UNL     1      -5.958 -12.637 -18.823  1.00  0.00     0.104 C 
HETATM    4  N1  UNL     1      -6.015 -11.518 -18.537  1.00  0.00    -0.191 NA
HETATM    5  C8  UNL     1      -4.578 -14.711 -19.498  1.00  0.00     0.090 C 
HETATM    6  N2  UNL     1      -3.465 -14.093 -19.623  1.00  0.00    -0.397 N 
ATOM      7  H21 UNL     1      -2.579 -14.551 -19.835  1.00  0.00     0.156 HD
ATOM      8  H22 UNL     1      -3.306 -13.090 -19.533  1.00  0.00     0.156 HD
HETATM    9  C9  UNL     1      -4.813 -16.188 -19.632  1.00  0.00     0.244 C 
HETATM   10  O1  UNL     1      -6.213 -16.185 -19.699  1.00  0.00    -0.309 OA
ENDROOT
BRANCH   1  11
HETATM   11  C2  UNL     1      -8.244 -14.780 -19.139  1.00  0.00    -0.001 C 
HETATM   12  C1  UNL     1      -8.681 -14.047 -17.935  1.00  0.00     0.021 C 
HETATM   13  C3  UNL     1      -8.874 -16.170 -19.060  1.00  0.00     0.021 C 
HETATM   14  C4  UNL     1      -8.856 -14.072 -20.347  1.00  0.00     0.021 C 
ENDBRANCH   1  11
BRANCH   9  15
HETATM   15  C10 UNL     1      -4.186 -16.564 -20.928  1.00  0.00     0.164 A 
HETATM   16  N3  UNL     1      -3.526 -15.720 -21.737  1.00  0.00    -0.283 N 
HETATM   17  N4  UNL     1      -3.083 -16.342 -22.805  1.00  0.00    -0.287 N 
ATOM     18  H3  UNL     1      -3.387 -14.728 -21.547  1.00  0.00     0.188 HD
HETATM   19  C11 UNL     1      -3.458 -17.627 -22.699  1.00  0.00     0.100 A 
ATOM     20  H4  UNL     1      -2.553 -15.926 -23.572  1.00  0.00     0.188 HD
HETATM   21  N5  UNL     1      -4.137 -17.783 -21.551  1.00  0.00    -0.309 N 
HETATM   22  C14 UNL     1      -3.368 -18.932 -23.454  1.00  0.00     0.080 C 
HETATM   23  C12 UNL     1      -4.518 -19.146 -21.442  1.00  0.00     0.041 C 
HETATM   24  C13 UNL     1      -3.487 -19.875 -22.285  1.00  0.00     0.039 C 
HETATM   25  C15 UNL     1      -4.638 -19.746 -20.089  1.00  0.00     0.037 C 
HETATM   26  C19 UNL     1      -5.874 -19.316 -22.137  1.00  0.00     0.037 C 
HETATM   27  C16 UNL     1      -5.956 -20.445 -19.823  1.00  0.00     0.081 C 
HETATM   28  C17 UNL     1      -6.343 -21.386 -20.930  1.00  0.00     0.243 C 
HETATM   29  F1  UNL     1      -7.645 -21.785 -20.692  1.00  0.00    -0.206 F 
HETATM   30  F2  UNL     1      -5.564 -22.526 -20.866  1.00  0.00    -0.206 F 
HETATM   31  C18 UNL     1      -6.297 -20.735 -22.285  1.00  0.00     0.081 C 
ENDBRANCH   9  15
BRANCH   9  32
HETATM   32  N6  UNL     1      -4.282 -16.818 -18.487  1.00  0.00    -0.368 N 
HETATM   33  C20 UNL     1      -5.132 -17.521 -17.619  1.00  0.00     0.148 C 
HETATM   34  C21 UNL     1      -4.558 -17.435 -16.194  1.00  0.00     0.251 C 
HETATM   35  N7  UNL     1      -3.252 -18.086 -16.268  1.00  0.00    -0.072 N 
HETATM   36  C22 UNL     1      -2.396 -17.207 -17.040  1.00  0.00     0.251 C 
ATOM     37  H72 UNL     1      -2.867 -18.323 -15.354  1.00  0.00     0.277 HD
ATOM     38  H71 UNL     1      -3.294 -19.035 -16.638  1.00  0.00     0.277 HD
HETATM   39  C23 UNL     1      -2.898 -17.093 -18.452  1.00  0.00     0.148 C 
ENDBRANCH   9  32
TORSDOF 3
ENDMDL
MODEL 5
REMARK VINA RESULT: -8.040386274      1.635      2.295
REMARK  3 active torsions:
REMARK  status: ('A' for Active; 'I' for Inactive)
REMARK    1  A    between atoms: C2_2  and  C5_5 
REMARK    2  A    between atoms: C9_13  and  C10_14 
REMARK    3  A    between atoms: C9_13  and  N6_31 
ROOT
HETATM    1  C5  UNL     1      -4.964 -19.016 -20.588  1.00  0.00     0.081 C 
HETATM    2  C6  UNL     1      -4.667 -18.477 -21.744  1.00  0.00     0.102 C 
HETATM    3  C7  UNL     1      -4.088 -19.101 -22.945  1.00  0.00     0.104 C 
HETATM    4  N1  UNL     1      -3.632 -19.562 -23.903  1.00  0.00    -0.191 NA
HETATM    5  C8  UNL     1      -5.008 -17.065 -21.654  1.00  0.00     0.090 C 
HETATM    6  N2  UNL     1      -4.702 -16.197 -22.543  1.00  0.00    -0.397 N 
ATOM      7  H21 UNL     1      -4.941 -15.208 -22.481  1.00  0.00     0.156 HD
ATOM      8  H22 UNL     1      -4.194 -16.361 -23.412  1.00  0.00     0.156 HD
HETATM    9  C9  UNL     1      -5.756 -16.825 -20.375  1.00  0.00     0.244 C 
HETATM   10  O1  UNL     1      -5.494 -18.042 -19.732  1.00  0.00    -0.309 OA
ENDROOT
BRANCH   1  11
HETATM   11  C2  UNL     1      -4.791 -20.433 -20.179  1.00  0.00    -0.001 C 
HETATM   12  C1  UNL     1      -3.561 -21.117 -20.625  1.00  0.00     0.021 C 
HETATM   13  C3  UNL     1      -5.966 -21.227 -20.748  1.00  0.00     0.021 C 
HETATM   14  C4  UNL     1      -4.851 -20.560 -18.657  1.00  0.00     0.021 C 
ENDBRANCH   1  11
BRANCH   9  15
HETATM   15  C10 UNL     1      -5.057 -15.682 -19.726  1.00  0.00     0.164 A 
HETATM   16  N3  UNL     1      -4.666 -14.562 -20.354  1.00  0.00    -0.283 N 
HETATM   17  N4  UNL     1      -4.078 -13.735 -19.520  1.00  0.00    -0.287 N 
ATOM     18  H3  UNL     1      -4.808 -14.377 -21.347  1.00  0.00     0.188 HD
HETATM   19  C11 UNL     1      -4.081 -14.323 -18.312  1.00  0.00     0.100 A 
ATOM     20  H4  UNL     1      -3.692 -12.819 -19.748  1.00  0.00     0.188 HD
HETATM   21  N5  UNL     1      -4.680 -15.520 -18.418  1.00  0.00    -0.309 N 
HETATM   22  C14 UNL     1      -3.626 -14.071 -16.895  1.00  0.00     0.080 C 
HETATM   23  C12 UNL     1      -4.689 -16.127 -17.136  1.00  0.00     0.041 C 
HETATM   24  C13 UNL     1      -4.620 -14.948 -16.181  1.00  0.00     0.039 C 
HETATM   25  C15 UNL     1      -5.805 -17.043 -16.790  1.00  0.00     0.037 C 
HETATM   26  C19 UNL     1      -3.385 -16.916 -16.975  1.00  0.00     0.037 C 
HETATM   27  C16 UNL     1      -5.370 -18.400 -16.272  1.00  0.00     0.081 C 
HETATM   28  C17 UNL     1      -4.325 -18.297 -15.195  1.00  0.00     0.243 C 
HETATM   29  F1  UNL     1      -3.849 -19.574 -14.965  1.00  0.00    -0.206 F 
HETATM   30  F2  UNL     1      -4.912 -17.877 -14.015  1.00  0.00    -0.206 F 
HETATM   31  C18 UNL     1      -3.163 -17.432 -15.597  1.00  0.00     0.081 C 
ENDBRANCH   9  15
BRANCH   9  32
HETATM   32  N6  UNL     1      -7.113 -16.610 -20.698  1.00  0.00    -0.368 N 
HETATM   33  C20 UNL     1      -7.662 -17.214 -21.840  1.00  0.00     0.148 C 
HETATM   34  C21 UNL     1      -8.775 -16.303 -22.387  1.00  0.00     0.251 C 
HETATM   35  N7  UNL     1      -9.770 -16.231 -21.319  1.00  0.00    -0.072 N 
HETATM   36  C22 UNL     1      -9.175 -15.449 -20.254  1.00  0.00     0.251 C 
ATOM     37  H72 UNL     1     -10.671 -15.869 -21.631  1.00  0.00     0.277 HD
ATOM     38  H71 UNL     1     -10.099 -17.146 -21.012  1.00  0.00     0.277 HD
HETATM   39  C23 UNL     1      -7.983 -16.163 -19.681  1.00  0.00     0.148 C 
ENDBRANCH   9  32
TORSDOF 3
ENDMDL
