MODEL 1
REMARK VINA RESULT: -8.788789460      0.000      0.000
REMARK  4 active torsions:
REMARK  status: ('A' for Active; 'I' for Inactive)
REMARK    1  A    between atoms: C5_8  and  C6_9 
REMARK    2  A    between atoms: C10_13  and  N1_14 
REMARK    3  A    between atoms: C12_21  and  N4_22 
REMARK    4  A    between atoms: N4_22  and  C13_24 
ROOT
HETATM    1  N1  UNL     1      -5.590 -17.351 -20.787  1.00  0.00    -0.364 N 
ATOM      2  H1  UNL     1      -6.437 -17.509 -20.242  1.00  0.00     0.162 HD
HETATM    3  C11 UNL     1      -4.881 -16.402 -20.296  1.00  0.00     0.163 A 
HETATM    4  N2  UNL     1      -3.721 -15.853 -20.655  1.00  0.00    -0.278 N 
ATOM      5  H2  UNL     1      -3.226 -16.197 -21.478  1.00  0.00     0.189 HD
HETATM    6  N3  UNL     1      -3.229 -14.895 -19.968  1.00  0.00    -0.277 N 
ATOM      7  H3  UNL     1      -2.341 -14.471 -20.239  1.00  0.00     0.189 HD
HETATM    8  C12 UNL     1      -3.882 -14.455 -18.896  1.00  0.00     0.169 A 
HETATM    9  S2  UNL     1      -5.256 -15.456 -18.876  1.00  0.00    -0.015 SA
ENDROOT
BRANCH   1  10
HETATM   10  C10 UNL     1      -5.505 -18.215 -21.861  1.00  0.00     0.092 C 
HETATM   11  C6  UNL     1      -6.097 -19.569 -21.398  1.00  0.00     0.041 C 
HETATM   12  C7  UNL     1      -6.196 -20.335 -22.675  1.00  0.00     0.011 C 
HETATM   13  C8  UNL     1      -6.297 -19.324 -23.790  1.00  0.00     0.003 C 
HETATM   14  C9  UNL     1      -6.318 -17.959 -23.085  1.00  0.00     0.026 C 
BRANCH  11  15
HETATM   15  C5  UNL     1      -5.246 -20.198 -20.387  1.00  0.00    -0.049 A 
HETATM   16  C4  UNL     1      -4.318 -21.145 -20.807  1.00  0.00     0.010 A 
HETATM   17  C3  UNL     1      -3.473 -21.795 -19.946  1.00  0.00     0.040 A 
HETATM   18  C2  UNL     1      -3.541 -21.499 -18.596  1.00  0.00     0.111 A 
HETATM   19  O1  UNL     1      -2.825 -21.993 -17.538  1.00  0.00    -0.256 OA
HETATM   20  C19 UNL     1      -4.455 -20.559 -18.143  1.00  0.00     0.112 A 
HETATM   21  C1  UNL     1      -3.079 -21.159 -16.425  1.00  0.00     0.498 C 
HETATM   22  F1  UNL     1      -2.015 -20.290 -16.320  1.00  0.00    -0.147 F 
HETATM   23  F2  UNL     1      -3.216 -21.951 -15.303  1.00  0.00    -0.147 F 
HETATM   24  O3  UNL     1      -4.266 -20.501 -16.771  1.00  0.00    -0.256 OA
HETATM   25  C18 UNL     1      -5.286 -19.930 -19.049  1.00  0.00     0.047 A 
ENDBRANCH  11  15
ENDBRANCH   1  10
BRANCH   8  26
HETATM   26  N4  UNL     1      -3.530 -13.484 -18.072  1.00  0.00    -0.301 N 
ATOM     27  H4  UNL     1      -3.034 -12.666 -18.427  1.00  0.00     0.171 HD
BRANCH  26  28
HETATM   28  C13 UNL     1      -3.843 -13.585 -16.693  1.00  0.00     0.222 C 
HETATM   29  N5  UNL     1      -3.122 -14.392 -15.987  1.00  0.00    -0.342 N 
HETATM   30  C14 UNL     1      -3.360 -14.560 -14.588  1.00  0.00     0.154 C 
ATOM     31  H5  UNL     1      -2.371 -14.917 -16.435  1.00  0.00     0.164 HD
HETATM   32  S1  UNL     1      -3.117 -13.088 -13.563  1.00  0.00    -0.143 SA
HETATM   33  C16 UNL     1      -4.834 -14.491 -14.255  1.00  0.00     0.052 C 
HETATM   34  C15 UNL     1      -4.417 -14.148 -12.819  1.00  0.00     0.085 C 
HETATM   35  C17 UNL     1      -5.479 -13.272 -14.871  1.00  0.00     0.187 C 
HETATM   36  O2  UNL     1      -4.847 -12.888 -16.074  1.00  0.00    -0.322 OA
ENDBRANCH  26  28
ENDBRANCH   8  26
TORSDOF 4
ENDMDL
MODEL 2
REMARK VINA RESULT: -8.711236830      0.979      1.103
REMARK  4 active torsions:
REMARK  status: ('A' for Active; 'I' for Inactive)
REMARK    1  A    between atoms: C5_8  and  C6_9 
REMARK    2  A    between atoms: C10_13  and  N1_14 
REMARK    3  A    between atoms: C12_21  and  N4_22 
REMARK    4  A    between atoms: N4_22  and  C13_24 
ROOT
HETATM    1  N1  UNL     1      -5.729 -17.090 -20.788  1.00  0.00    -0.364 N 
ATOM      2  H1  UNL     1      -6.652 -17.111 -20.356  1.00  0.00     0.162 HD
HETATM    3  C11 UNL     1      -4.983 -16.185 -20.269  1.00  0.00     0.163 A 
HETATM    4  N2  UNL     1      -3.730 -15.795 -20.501  1.00  0.00    -0.278 N 
ATOM      5  H2  UNL     1      -3.176 -16.258 -21.222  1.00  0.00     0.189 HD
HETATM    6  N3  UNL     1      -3.222 -14.842 -19.819  1.00  0.00    -0.277 N 
ATOM      7  H3  UNL     1      -2.263 -14.539 -19.993  1.00  0.00     0.189 HD
HETATM    8  C12 UNL     1      -3.952 -14.247 -18.879  1.00  0.00     0.169 A 
HETATM    9  S2  UNL     1      -5.425 -15.090 -18.981  1.00  0.00    -0.015 SA
ENDROOT
BRANCH   1  10
HETATM   10  C10 UNL     1      -5.608 -18.045 -21.779  1.00  0.00     0.092 C 
HETATM   11  C6  UNL     1      -6.212 -19.355 -21.218  1.00  0.00     0.041 C 
HETATM   12  C7  UNL     1      -6.268 -20.231 -22.426  1.00  0.00     0.011 C 
HETATM   13  C8  UNL     1      -6.335 -19.321 -23.627  1.00  0.00     0.003 C 
HETATM   14  C9  UNL     1      -6.381 -17.900 -23.046  1.00  0.00     0.026 C 
BRANCH  11  15
HETATM   15  C5  UNL     1      -5.395 -19.890 -20.129  1.00  0.00    -0.049 A 
HETATM   16  C4  UNL     1      -4.501 -20.915 -20.421  1.00  0.00     0.010 A 
HETATM   17  C3  UNL     1      -3.688 -21.488 -19.478  1.00  0.00     0.040 A 
HETATM   18  C2  UNL     1      -3.755 -21.029 -18.174  1.00  0.00     0.111 A 
HETATM   19  O1  UNL     1      -3.067 -21.419 -17.056  1.00  0.00    -0.256 OA
HETATM   20  C19 UNL     1      -4.635 -20.008 -17.848  1.00  0.00     0.112 A 
HETATM   21  C1  UNL     1      -3.297 -20.449 -16.054  1.00  0.00     0.498 C 
HETATM   22  F1  UNL     1      -2.201 -19.615 -16.041  1.00  0.00    -0.147 F 
HETATM   23  F2  UNL     1      -3.473 -21.094 -14.847  1.00  0.00    -0.147 F 
HETATM   24  O3  UNL     1      -4.455 -19.793 -16.491  1.00  0.00    -0.256 OA
HETATM   25  C18 UNL     1      -5.435 -19.462 -18.833  1.00  0.00     0.047 A 
ENDBRANCH  11  15
ENDBRANCH   1  10
BRANCH   8  26
HETATM   26  N4  UNL     1      -3.598 -13.255 -18.083  1.00  0.00    -0.301 N 
ATOM     27  H4  UNL     1      -3.431 -12.325 -18.467  1.00  0.00     0.171 HD
BRANCH  26  28
HETATM   28  C13 UNL     1      -3.452 -13.488 -16.692  1.00  0.00     0.222 C 
HETATM   29  N5  UNL     1      -3.064 -12.489 -15.970  1.00  0.00    -0.342 N 
HETATM   30  C14 UNL     1      -2.890 -12.625 -14.558  1.00  0.00     0.154 C 
ATOM     31  H5  UNL     1      -2.880 -11.589 -16.414  1.00  0.00     0.164 HD
HETATM   32  S1  UNL     1      -4.381 -13.020 -13.611  1.00  0.00    -0.143 SA
HETATM   33  C16 UNL     1      -2.350 -13.989 -14.185  1.00  0.00     0.052 C 
HETATM   34  C15 UNL     1      -2.916 -13.746 -12.781  1.00  0.00     0.085 C 
HETATM   35  C17 UNL     1      -3.147 -15.091 -14.840  1.00  0.00     0.187 C 
HETATM   36  O2  UNL     1      -3.695 -14.688 -16.078  1.00  0.00    -0.322 OA
ENDBRANCH  26  28
ENDBRANCH   8  26
TORSDOF 4
ENDMDL
MODEL 3
REMARK VINA RESULT: -8.640653625      1.559      1.734
REMARK  4 active torsions:
REMARK  status: ('A' for Active; 'I' for Inactive)
REMARK    1  A    between atoms: C5_8  and  C6_9 
REMARK    2  A    between atoms: C10_13  and  N1_14 
REMARK    3  A    between atoms: C12_21  and  N4_22 
REMARK    4  A    between atoms: N4_22  and  C13_24 
ROOT
HETATM    1  N1  UNL     1      -5.653 -17.761 -20.640  1.00  0.00    -0.364 N 
ATOM      2  H1  UNL     1      -6.586 -17.862 -20.240  1.00  0.00     0.162 HD
HETATM    3  C11 UNL     1      -4.894 -17.044 -19.896  1.00  0.00     0.163 A 
HETATM    4  N2  UNL     1      -3.625 -16.648 -20.003  1.00  0.00    -0.278 N 
ATOM      5  H2  UNL     1      -3.070 -16.927 -20.812  1.00  0.00     0.189 HD
HETATM    6  N3  UNL     1      -3.106 -15.919 -19.092  1.00  0.00    -0.277 N 
ATOM      7  H3  UNL     1      -2.135 -15.612 -19.170  1.00  0.00     0.189 HD
HETATM    8  C12 UNL     1      -3.839 -15.562 -18.041  1.00  0.00     0.169 A 
HETATM    9  S2  UNL     1      -5.332 -16.303 -18.376  1.00  0.00    -0.015 SA
ENDROOT
BRANCH   1  10
HETATM   10  C10 UNL     1      -5.537 -18.432 -21.842  1.00  0.00     0.092 C 
HETATM   11  C6  UNL     1      -5.990 -19.891 -21.588  1.00  0.00     0.041 C 
HETATM   12  C7  UNL     1      -6.074 -20.450 -22.969  1.00  0.00     0.011 C 
HETATM   13  C8  UNL     1      -6.309 -19.288 -23.903  1.00  0.00     0.003 C 
HETATM   14  C9  UNL     1      -6.419 -18.061 -22.986  1.00  0.00     0.026 C 
BRANCH  11  15
HETATM   15  C5  UNL     1      -5.048 -20.591 -20.715  1.00  0.00    -0.049 A 
HETATM   16  C4  UNL     1      -3.981 -21.261 -21.305  1.00  0.00     0.010 A 
HETATM   17  C3  UNL     1      -3.040 -21.949 -20.582  1.00  0.00     0.040 A 
HETATM   18  C2  UNL     1      -3.153 -21.981 -19.203  1.00  0.00     0.111 A 
HETATM   19  O1  UNL     1      -2.365 -22.584 -18.259  1.00  0.00    -0.256 OA
HETATM   20  C19 UNL     1      -4.205 -21.324 -18.583  1.00  0.00     0.112 A 
HETATM   21  C1  UNL     1      -2.747 -22.075 -16.997  1.00  0.00     0.498 C 
HETATM   22  F1  UNL     1      -1.837 -21.096 -16.663  1.00  0.00    -0.147 F 
HETATM   23  F2  UNL     1      -2.754 -23.111 -16.086  1.00  0.00    -0.147 F 
HETATM   24  O3  UNL     1      -4.026 -21.550 -17.227  1.00  0.00    -0.256 OA
HETATM   25  C18 UNL     1      -5.128 -20.644 -19.353  1.00  0.00     0.047 A 
ENDBRANCH  11  15
ENDBRANCH   1  10
BRANCH   8  26
HETATM   26  N4  UNL     1      -3.474 -14.820 -17.011  1.00  0.00    -0.301 N 
ATOM     27  H4  UNL     1      -3.372 -13.810 -17.118  1.00  0.00     0.171 HD
BRANCH  26  28
HETATM   28  C13 UNL     1      -3.227 -15.432 -15.756  1.00  0.00     0.222 C 
HETATM   29  N5  UNL     1      -2.086 -16.020 -15.608  1.00  0.00    -0.342 N 
HETATM   30  C14 UNL     1      -1.743 -16.665 -14.379  1.00  0.00     0.154 C 
ATOM     31  H5  UNL     1      -1.419 -16.025 -16.381  1.00  0.00     0.164 HD
HETATM   32  S1  UNL     1      -1.630 -15.589 -12.928  1.00  0.00    -0.143 SA
HETATM   33  C16 UNL     1      -2.942 -17.326 -13.736  1.00  0.00     0.052 C 
HETATM   34  C15 UNL     1      -2.172 -17.263 -12.411  1.00  0.00     0.085 C 
HETATM   35  C17 UNL     1      -4.114 -16.377 -13.656  1.00  0.00     0.187 C 
HETATM   36  O2  UNL     1      -4.109 -15.436 -14.708  1.00  0.00    -0.322 OA
ENDBRANCH  26  28
ENDBRANCH   8  26
TORSDOF 4
ENDMDL
MODEL 4
REMARK VINA RESULT: -8.565182207      1.404      1.586
REMARK  4 active torsions:
REMARK  status: ('A' for Active; 'I' for Inactive)
REMARK    1  A    between atoms: C5_8  and  C6_9 
REMARK    2  A    between atoms: C10_13  and  N1_14 
REMARK    3  A    between atoms: C12_21  and  N4_22 
REMARK    4  A    between atoms: N4_22  and  C13_24 
ROOT
HETATM    1  N1  UNL     1      -4.401 -18.080 -20.649  1.00  0.00    -0.364 N 
ATOM      2  H1  UNL     1      -5.322 -18.374 -20.324  1.00  0.00     0.162 HD
HETATM    3  C11 UNL     1      -4.046 -16.968 -20.119  1.00  0.00     0.163 A 
HETATM    4  N2  UNL     1      -2.954 -16.211 -20.236  1.00  0.00    -0.278 N 
ATOM      5  H2  UNL     1      -2.196 -16.502 -20.853  1.00  0.00     0.189 HD
HETATM    6  N3  UNL     1      -2.859 -15.122 -19.575  1.00  0.00    -0.277 N 
ATOM      7  H3  UNL     1      -2.026 -14.539 -19.662  1.00  0.00     0.189 HD
HETATM    8  C12 UNL     1      -3.854 -14.754 -18.772  1.00  0.00     0.169 A 
HETATM    9  S2  UNL     1      -4.969 -16.022 -18.976  1.00  0.00    -0.015 SA
ENDROOT
BRANCH   1  10
HETATM   10  C10 UNL     1      -3.863 -18.983 -21.545  1.00  0.00     0.092 C 
HETATM   11  C6  UNL     1      -4.460 -20.369 -21.201  1.00  0.00     0.041 C 
HETATM   12  C7  UNL     1      -4.028 -21.206 -22.359  1.00  0.00     0.011 C 
HETATM   13  C8  UNL     1      -3.814 -20.271 -23.524  1.00  0.00     0.003 C 
HETATM   14  C9  UNL     1      -4.205 -18.883 -22.994  1.00  0.00     0.026 C 
BRANCH  11  15
HETATM   15  C5  UNL     1      -3.975 -20.845 -19.906  1.00  0.00    -0.049 A 
HETATM   16  C4  UNL     1      -3.187 -21.991 -19.880  1.00  0.00     0.010 A 
HETATM   17  C3  UNL     1      -2.680 -22.524 -18.723  1.00  0.00     0.040 A 
HETATM   18  C2  UNL     1      -2.962 -21.896 -17.523  1.00  0.00     0.111 A 
HETATM   19  O1  UNL     1      -2.589 -22.211 -16.243  1.00  0.00    -0.256 OA
HETATM   20  C19 UNL     1      -3.745 -20.751 -17.511  1.00  0.00     0.112 A 
HETATM   21  C1  UNL     1      -2.894 -21.101 -15.424  1.00  0.00     0.498 C 
HETATM   22  F1  UNL     1      -1.724 -20.397 -15.245  1.00  0.00    -0.147 F 
HETATM   23  F2  UNL     1      -3.411 -21.561 -14.230  1.00  0.00    -0.147 F 
HETATM   24  O3  UNL     1      -3.832 -20.383 -16.178  1.00  0.00    -0.256 OA
HETATM   25  C18 UNL     1      -4.233 -20.252 -18.703  1.00  0.00     0.047 A 
ENDBRANCH  11  15
ENDBRANCH   1  10
BRANCH   8  26
HETATM   26  N4  UNL     1      -3.931 -13.673 -18.018  1.00  0.00    -0.301 N 
ATOM     27  H4  UNL     1      -4.182 -12.776 -18.433  1.00  0.00     0.171 HD
BRANCH  26  28
HETATM   28  C13 UNL     1      -3.663 -13.765 -16.628  1.00  0.00     0.222 C 
HETATM   29  N5  UNL     1      -3.147 -12.724 -16.063  1.00  0.00    -0.342 N 
HETATM   30  C14 UNL     1      -2.843 -12.719 -14.666  1.00  0.00     0.154 C 
ATOM     31  H5  UNL     1      -2.954 -11.892 -16.621  1.00  0.00     0.164 HD
HETATM   32  S1  UNL     1      -4.255 -12.904 -13.549  1.00  0.00    -0.143 SA
HETATM   33  C16 UNL     1      -2.352 -14.070 -14.191  1.00  0.00     0.052 C 
HETATM   34  C15 UNL     1      -2.762 -13.638 -12.778  1.00  0.00     0.085 C 
HETATM   35  C17 UNL     1      -3.275 -15.177 -14.641  1.00  0.00     0.187 C 
HETATM   36  O2  UNL     1      -3.915 -14.872 -15.862  1.00  0.00    -0.322 OA
ENDBRANCH  26  28
ENDBRANCH   8  26
TORSDOF 4
ENDMDL
MODEL 5
REMARK VINA RESULT: -8.562141145      1.791      2.016
REMARK  4 active torsions:
REMARK  status: ('A' for Active; 'I' for Inactive)
REMARK    1  A    between atoms: C5_8  and  C6_9 
REMARK    2  A    between atoms: C10_13  and  N1_14 
REMARK    3  A    between atoms: C12_21  and  N4_22 
REMARK    4  A    between atoms: N4_22  and  C13_24 
ROOT
HETATM    1  N1  UNL     1      -6.480 -18.253 -20.030  1.00  0.00    -0.364 N 
ATOM      2  H1  UNL     1      -7.275 -18.834 -19.764  1.00  0.00     0.162 HD
HETATM    3  C11 UNL     1      -6.147 -17.447 -19.089  1.00  0.00     0.163 A 
HETATM    4  N2  UNL     1      -5.195 -16.521 -18.979  1.00  0.00    -0.278 N 
ATOM      5  H2  UNL     1      -4.554 -16.353 -19.754  1.00  0.00     0.189 HD
HETATM    6  N3  UNL     1      -5.085 -15.844 -17.901  1.00  0.00    -0.277 N 
ATOM      7  H3  UNL     1      -4.358 -15.133 -17.812  1.00  0.00     0.189 HD
HETATM    8  C12 UNL     1      -5.926 -16.073 -16.895  1.00  0.00     0.169 A 
HETATM    9  S2  UNL     1      -6.912 -17.307 -17.525  1.00  0.00    -0.015 SA
ENDROOT
BRANCH   1  10
HETATM   10  C10 UNL     1      -6.043 -18.539 -21.309  1.00  0.00     0.092 C 
HETATM   11  C6  UNL     1      -6.092 -20.078 -21.467  1.00  0.00     0.041 C 
HETATM   12  C7  UNL     1      -5.856 -20.262 -22.929  1.00  0.00     0.011 C 
HETATM   13  C8  UNL     1      -6.301 -18.993 -23.611  1.00  0.00     0.003 C 
HETATM   14  C9  UNL     1      -6.857 -18.112 -22.483  1.00  0.00     0.026 C 
BRANCH  11  15
HETATM   15  C5  UNL     1      -5.096 -20.727 -20.614  1.00  0.00    -0.049 A 
HETATM   16  C4  UNL     1      -4.009 -21.342 -21.225  1.00  0.00     0.010 A 
HETATM   17  C3  UNL     1      -3.019 -21.979 -20.522  1.00  0.00     0.040 A 
HETATM   18  C2  UNL     1      -3.100 -22.014 -19.142  1.00  0.00     0.111 A 
HETATM   19  O1  UNL     1      -2.263 -22.574 -18.214  1.00  0.00    -0.256 OA
HETATM   20  C19 UNL     1      -4.172 -21.412 -18.499  1.00  0.00     0.112 A 
HETATM   21  C1  UNL     1      -2.644 -22.084 -16.944  1.00  0.00     0.498 C 
HETATM   22  F1  UNL     1      -1.778 -21.059 -16.630  1.00  0.00    -0.147 F 
HETATM   23  F2  UNL     1      -2.577 -23.117 -16.033  1.00  0.00    -0.147 F 
HETATM   24  O3  UNL     1      -3.952 -21.626 -17.148  1.00  0.00    -0.256 OA
HETATM   25  C18 UNL     1      -5.145 -20.782 -19.250  1.00  0.00     0.047 A 
ENDBRANCH  11  15
ENDBRANCH   1  10
BRANCH   8  26
HETATM   26  N4  UNL     1      -5.963 -15.478 -15.717  1.00  0.00    -0.301 N 
ATOM     27  H4  UNL     1      -6.852 -15.155 -15.335  1.00  0.00     0.171 HD
BRANCH  26  28
HETATM   28  C13 UNL     1      -4.763 -15.290 -14.986  1.00  0.00     0.222 C 
HETATM   29  N5  UNL     1      -4.687 -15.864 -13.831  1.00  0.00    -0.342 N 
HETATM   30  C14 UNL     1      -3.517 -15.735 -13.020  1.00  0.00     0.154 C 
ATOM     31  H5  UNL     1      -5.474 -16.418 -13.492  1.00  0.00     0.164 HD
HETATM   32  S1  UNL     1      -1.995 -16.426 -13.714  1.00  0.00    -0.143 SA
HETATM   33  C16 UNL     1      -2.894 -14.362 -13.143  1.00  0.00     0.052 C 
HETATM   34  C15 UNL     1      -1.588 -14.992 -12.644  1.00  0.00     0.085 C 
HETATM   35  C17 UNL     1      -2.715 -13.970 -14.591  1.00  0.00     0.187 C 
HETATM   36  O2  UNL     1      -3.696 -14.551 -15.424  1.00  0.00    -0.322 OA
ENDBRANCH  26  28
ENDBRANCH   8  26
TORSDOF 4
ENDMDL
