MODEL 1
REMARK VINA RESULT: -6.781733489      0.000      0.000
REMARK  5 active torsions:
REMARK  status: ('A' for Active; 'I' for Inactive)
REMARK    1  A    between atoms: O1_2  and  C2_3 
REMARK    2  A    between atoms: C3_4  and  O2_5 
REMARK    3  A    between atoms: C4_7  and  O3_8 
REMARK    4  A    between atoms: C8_16  and  S1_17 
REMARK    5  A    between atoms: S1_17  and  O6_20 
ROOT
HETATM    1  C2  UNL     1      -3.612 -20.933 -16.796  1.00  0.00     0.124 A 
HETATM    2  C3  UNL     1      -3.221 -21.891 -17.716  1.00  0.00     0.136 A 
HETATM    3  C4  UNL     1      -3.288 -21.676 -19.089  1.00  0.00     0.131 A 
HETATM    4  C5  UNL     1      -3.762 -20.461 -19.521  1.00  0.00     0.096 A 
HETATM    5  C6  UNL     1      -4.159 -19.494 -18.605  1.00  0.00     0.083 A 
HETATM    6  C7  UNL     1      -4.085 -19.726 -17.248  1.00  0.00     0.076 A 
HETATM    7 BR1  UNL     1      -4.648 -18.342 -16.060  1.00  0.00    -0.045 Br
HETATM    8  N1  UNL     1      -4.703 -18.268 -19.118  1.00  0.00    -0.344 N 
ATOM      9  H1  UNL     1      -4.991 -17.539 -18.465  1.00  0.00     0.166 HD
HETATM   10  C8  UNL     1      -4.839 -18.063 -20.408  1.00  0.00     0.158 C 
HETATM   11  C10 UNL     1      -4.519 -19.023 -21.422  1.00  0.00     0.167 C 
HETATM   12  C11 UNL     1      -5.674 -19.688 -22.148  1.00  0.00     0.112 C 
HETATM   13 CL1  UNL     1      -7.267 -19.157 -21.703  1.00  0.00    -0.122 Cl
HETATM   14  C12 UNL     1      -5.337 -19.602 -23.623  1.00  0.00     0.022 C 
HETATM   15  C13 UNL     1      -4.311 -20.673 -23.901  1.00  0.00     0.003 C 
HETATM   16  C14 UNL     1      -3.019 -20.540 -23.171  1.00  0.00     0.020 C 
HETATM   17  C15 UNL     1      -3.082 -21.151 -21.737  1.00  0.00     0.124 C 
HETATM   18  N2  UNL     1      -3.774 -20.216 -20.921  1.00  0.00    -0.364 N 
ENDROOT
BRANCH  10  19
HETATM   19  S1  UNL     1      -5.500 -16.491 -20.779  1.00  0.00     0.311 S 
HETATM   20  O4  UNL     1      -5.663 -16.221 -22.223  1.00  0.00    -0.192 OA
HETATM   21  O5  UNL     1      -4.602 -15.451 -20.121  1.00  0.00    -0.192 OA
BRANCH  19  22
HETATM   22  O6  UNL     1      -7.013 -16.282 -20.045  1.00  0.00    -0.276 OA
HETATM   23  C9  UNL     1      -7.790 -15.597 -20.980  1.00  0.00     0.226 C 
ENDBRANCH  19  22
ENDBRANCH  10  19
BRANCH   3  24
HETATM   24  O3  UNL     1      -2.882 -22.672 -19.940  1.00  0.00    -0.356 OA
ATOM     25  H3  UNL     1      -3.467 -22.951 -20.635  1.00  0.00     0.218 HD
ENDBRANCH   3  24
BRANCH   1  26
HETATM   26  O1  UNL     1      -3.535 -21.175 -15.416  1.00  0.00    -0.352 OA
HETATM   27  C1  UNL     1      -2.384 -20.765 -14.666  1.00  0.00     0.210 C 
ENDBRANCH   1  26
BRANCH   2  28
HETATM   28  O2  UNL     1      -2.759 -23.079 -17.190  1.00  0.00    -0.356 OA
ATOM     29  H2  UNL     1      -1.828 -23.114 -17.001  1.00  0.00     0.218 HD
ENDBRANCH   2  28
TORSDOF 5
ENDMDL
MODEL 2
REMARK VINA RESULT: -6.779619255      2.674      4.805
REMARK  5 active torsions:
REMARK  status: ('A' for Active; 'I' for Inactive)
REMARK    1  A    between atoms: O1_2  and  C2_3 
REMARK    2  A    between atoms: C3_4  and  O2_5 
REMARK    3  A    between atoms: C4_7  and  O3_8 
REMARK    4  A    between atoms: C8_16  and  S1_17 
REMARK    5  A    between atoms: S1_17  and  O6_20 
ROOT
HETATM    1  C2  UNL     1      -3.531 -19.833 -14.851  1.00  0.00     0.124 A 
HETATM    2  C3  UNL     1      -4.135 -18.610 -14.611  1.00  0.00     0.136 A 
HETATM    3  C4  UNL     1      -4.882 -17.947 -15.579  1.00  0.00     0.131 A 
HETATM    4  C5  UNL     1      -5.010 -18.547 -16.808  1.00  0.00     0.096 A 
HETATM    5  C6  UNL     1      -4.405 -19.773 -17.059  1.00  0.00     0.083 A 
HETATM    6  C7  UNL     1      -3.669 -20.415 -16.087  1.00  0.00     0.076 A 
HETATM    7 BR1  UNL     1      -2.875 -22.098 -16.515  1.00  0.00    -0.045 Br
HETATM    8  N1  UNL     1      -4.523 -20.321 -18.381  1.00  0.00    -0.344 N 
ATOM      9  H1  UNL     1      -4.097 -21.224 -18.586  1.00  0.00     0.166 HD
HETATM   10  C8  UNL     1      -5.168 -19.685 -19.333  1.00  0.00     0.158 C 
HETATM   11  C10 UNL     1      -5.765 -18.391 -19.187  1.00  0.00     0.167 C 
HETATM   12  C11 UNL     1      -5.084 -17.222 -19.873  1.00  0.00     0.112 C 
HETATM   13 CL1  UNL     1      -3.675 -17.601 -20.817  1.00  0.00    -0.122 Cl
HETATM   14  C12 UNL     1      -6.183 -16.471 -20.598  1.00  0.00     0.022 C 
HETATM   15  C13 UNL     1      -6.921 -15.665 -19.559  1.00  0.00     0.003 C 
HETATM   16  C14 UNL     1      -7.592 -16.448 -18.483  1.00  0.00     0.020 C 
HETATM   17  C15 UNL     1      -6.618 -16.815 -17.321  1.00  0.00     0.124 C 
HETATM   18  N2  UNL     1      -5.823 -17.900 -17.778  1.00  0.00    -0.364 N 
ENDROOT
BRANCH  10  19
HETATM   19  S1  UNL     1      -5.192 -20.565 -20.840  1.00  0.00     0.311 S 
HETATM   20  O4  UNL     1      -5.764 -19.814 -21.977  1.00  0.00    -0.192 OA
HETATM   21  O5  UNL     1      -5.950 -21.864 -20.599  1.00  0.00    -0.192 OA
BRANCH  19  22
HETATM   22  O6  UNL     1      -3.630 -21.052 -21.281  1.00  0.00    -0.276 OA
HETATM   23  C9  UNL     1      -3.520 -20.765 -22.643  1.00  0.00     0.226 C 
ENDBRANCH  19  22
ENDBRANCH  10  19
BRANCH   3  24
HETATM   24  O3  UNL     1      -5.452 -16.738 -15.268  1.00  0.00    -0.356 OA
ATOM     25  H3  UNL     1      -5.786 -16.192 -15.970  1.00  0.00     0.218 HD
ENDBRANCH   3  24
BRANCH   1  26
HETATM   26  O1  UNL     1      -2.782 -20.483 -13.858  1.00  0.00    -0.352 OA
HETATM   27  C1  UNL     1      -1.413 -20.129 -13.626  1.00  0.00     0.210 C 
ENDBRANCH   1  26
BRANCH   2  28
HETATM   28  O2  UNL     1      -3.952 -18.086 -13.349  1.00  0.00    -0.356 OA
ATOM     29  H2  UNL     1      -4.529 -17.369 -13.110  1.00  0.00     0.218 HD
ENDBRANCH   2  28
TORSDOF 5
ENDMDL
MODEL 3
REMARK VINA RESULT: -6.745158005      0.629      1.053
REMARK  5 active torsions:
REMARK  status: ('A' for Active; 'I' for Inactive)
REMARK    1  A    between atoms: O1_2  and  C2_3 
REMARK    2  A    between atoms: C3_4  and  O2_5 
REMARK    3  A    between atoms: C4_7  and  O3_8 
REMARK    4  A    between atoms: C8_16  and  S1_17 
REMARK    5  A    between atoms: S1_17  and  O6_20 
ROOT
HETATM    1  C2  UNL     1      -3.615 -20.940 -16.802  1.00  0.00     0.124 A 
HETATM    2  C3  UNL     1      -3.237 -21.910 -17.716  1.00  0.00     0.136 A 
HETATM    3  C4  UNL     1      -3.321 -21.710 -19.090  1.00  0.00     0.131 A 
HETATM    4  C5  UNL     1      -3.797 -20.499 -19.530  1.00  0.00     0.096 A 
HETATM    5  C6  UNL     1      -4.181 -19.521 -18.621  1.00  0.00     0.083 A 
HETATM    6  C7  UNL     1      -4.091 -19.737 -17.263  1.00  0.00     0.076 A 
HETATM    7 BR1  UNL     1      -4.636 -18.338 -16.083  1.00  0.00    -0.045 Br
HETATM    8  N1  UNL     1      -4.729 -18.299 -19.141  1.00  0.00    -0.344 N 
ATOM      9  H1  UNL     1      -5.007 -17.562 -18.493  1.00  0.00     0.166 HD
HETATM   10  C8  UNL     1      -4.880 -18.109 -20.432  1.00  0.00     0.158 C 
HETATM   11  C10 UNL     1      -4.575 -19.082 -21.439  1.00  0.00     0.167 C 
HETATM   12  C11 UNL     1      -5.740 -19.753 -22.143  1.00  0.00     0.112 C 
HETATM   13 CL1  UNL     1      -7.327 -19.213 -21.684  1.00  0.00    -0.122 Cl
HETATM   14  C12 UNL     1      -5.421 -19.685 -23.623  1.00  0.00     0.022 C 
HETATM   15  C13 UNL     1      -4.401 -20.761 -23.900  1.00  0.00     0.003 C 
HETATM   16  C14 UNL     1      -3.099 -20.623 -23.188  1.00  0.00     0.020 C 
HETATM   17  C15 UNL     1      -3.146 -21.217 -21.746  1.00  0.00     0.124 C 
HETATM   18  N2  UNL     1      -3.826 -20.271 -20.933  1.00  0.00    -0.364 N 
ENDROOT
BRANCH  10  19
HETATM   19  S1  UNL     1      -5.542 -16.540 -20.813  1.00  0.00     0.311 S 
HETATM   20  O4  UNL     1      -6.912 -16.315 -20.306  1.00  0.00    -0.192 OA
HETATM   21  O5  UNL     1      -5.480 -16.373 -22.326  1.00  0.00    -0.192 OA
BRANCH  19  22
HETATM   22  O6  UNL     1      -4.559 -15.303 -20.201  1.00  0.00    -0.276 OA
HETATM   23  C9  UNL     1      -5.328 -14.662 -19.229  1.00  0.00     0.226 C 
ENDBRANCH  19  22
ENDBRANCH  10  19
BRANCH   3  24
HETATM   24  O3  UNL     1      -2.928 -22.717 -19.935  1.00  0.00    -0.356 OA
ATOM     25  H3  UNL     1      -3.476 -23.489 -20.018  1.00  0.00     0.218 HD
ENDBRANCH   3  24
BRANCH   1  26
HETATM   26  O1  UNL     1      -3.521 -21.166 -15.420  1.00  0.00    -0.352 OA
HETATM   27  C1  UNL     1      -2.360 -20.749 -14.689  1.00  0.00     0.210 C 
ENDBRANCH   1  26
BRANCH   2  28
HETATM   28  O2  UNL     1      -2.771 -23.092 -17.181  1.00  0.00    -0.356 OA
ATOM     29  H2  UNL     1      -2.324 -23.021 -16.345  1.00  0.00     0.218 HD
ENDBRANCH   2  28
TORSDOF 5
ENDMDL
MODEL 4
REMARK VINA RESULT: -6.674857383      2.917      5.638
REMARK  5 active torsions:
REMARK  status: ('A' for Active; 'I' for Inactive)
REMARK    1  A    between atoms: O1_2  and  C2_3 
REMARK    2  A    between atoms: C3_4  and  O2_5 
REMARK    3  A    between atoms: C4_7  and  O3_8 
REMARK    4  A    between atoms: C8_16  and  S1_17 
REMARK    5  A    between atoms: S1_17  and  O6_20 
ROOT
HETATM    1  C2  UNL     1      -3.716 -21.517 -20.225  1.00  0.00     0.124 A 
HETATM    2  C3  UNL     1      -2.998 -22.296 -19.333  1.00  0.00     0.136 A 
HETATM    3  C4  UNL     1      -2.846 -21.946 -17.995  1.00  0.00     0.131 A 
HETATM    4  C5  UNL     1      -3.440 -20.784 -17.569  1.00  0.00     0.096 A 
HETATM    5  C6  UNL     1      -4.161 -19.995 -18.458  1.00  0.00     0.083 A 
HETATM    6  C7  UNL     1      -4.300 -20.357 -19.780  1.00  0.00     0.076 A 
HETATM    7 BR1  UNL     1      -5.310 -19.217 -20.932  1.00  0.00    -0.045 Br
HETATM    8  N1  UNL     1      -4.707 -18.760 -17.967  1.00  0.00    -0.344 N 
ATOM      9  H1  UNL     1      -5.249 -18.169 -18.598  1.00  0.00     0.166 HD
HETATM   10  C8  UNL     1      -4.524 -18.373 -16.725  1.00  0.00     0.158 C 
HETATM   11  C10 UNL     1      -3.743 -19.086 -15.758  1.00  0.00     0.167 C 
HETATM   12  C11 UNL     1      -2.401 -18.496 -15.368  1.00  0.00     0.112 C 
HETATM   13 CL1  UNL     1      -1.987 -16.977 -16.104  1.00  0.00    -0.122 Cl
HETATM   14  C12 UNL     1      -2.359 -18.530 -13.854  1.00  0.00     0.022 C 
HETATM   15  C13 UNL     1      -2.053 -19.953 -13.456  1.00  0.00     0.003 C 
HETATM   16  C14 UNL     1      -3.057 -20.974 -13.868  1.00  0.00     0.020 C 
HETATM   17  C15 UNL     1      -2.834 -21.470 -15.331  1.00  0.00     0.124 C 
HETATM   18  N2  UNL     1      -3.338 -20.456 -16.190  1.00  0.00    -0.364 N 
ENDROOT
BRANCH  10  19
HETATM   19  S1  UNL     1      -5.304 -16.854 -16.367  1.00  0.00     0.311 S 
HETATM   20  O4  UNL     1      -5.092 -16.368 -14.987  1.00  0.00    -0.192 OA
HETATM   21  O5  UNL     1      -6.787 -17.018 -16.672  1.00  0.00    -0.192 OA
BRANCH  19  22
HETATM   22  O6  UNL     1      -4.777 -15.639 -17.424  1.00  0.00    -0.276 OA
HETATM   23  C9  UNL     1      -5.890 -15.311 -18.200  1.00  0.00     0.226 C 
ENDBRANCH  19  22
ENDBRANCH  10  19
BRANCH   3  24
HETATM   24  O3  UNL     1      -2.120 -22.768 -17.171  1.00  0.00    -0.356 OA
ATOM     25  H3  UNL     1      -2.226 -22.686 -16.230  1.00  0.00     0.218 HD
ENDBRANCH   3  24
BRANCH   1  26
HETATM   26  O1  UNL     1      -3.855 -21.892 -21.571  1.00  0.00    -0.352 OA
HETATM   27  C1  UNL     1      -3.213 -21.139 -22.608  1.00  0.00     0.210 C 
ENDBRANCH   1  26
BRANCH   2  28
HETATM   28  O2  UNL     1      -2.438 -23.444 -19.852  1.00  0.00    -0.356 OA
ATOM     29  H2  UNL     1      -2.667 -24.253 -19.410  1.00  0.00     0.218 HD
ENDBRANCH   2  28
TORSDOF 5
ENDMDL
MODEL 5
REMARK VINA RESULT: -6.553040664      1.036      1.091
REMARK  5 active torsions:
REMARK  status: ('A' for Active; 'I' for Inactive)
REMARK    1  A    between atoms: O1_2  and  C2_3 
REMARK    2  A    between atoms: C3_4  and  O2_5 
REMARK    3  A    between atoms: C4_7  and  O3_8 
REMARK    4  A    between atoms: C8_16  and  S1_17 
REMARK    5  A    between atoms: S1_17  and  O6_20 
ROOT
HETATM    1  C2  UNL     1      -4.170 -19.735 -16.751  1.00  0.00     0.124 A 
HETATM    2  C3  UNL     1      -3.831 -20.839 -17.516  1.00  0.00     0.136 A 
HETATM    3  C4  UNL     1      -3.835 -20.810 -18.906  1.00  0.00     0.131 A 
HETATM    4  C5  UNL     1      -4.190 -19.633 -19.518  1.00  0.00     0.096 A 
HETATM    5  C6  UNL     1      -4.534 -18.520 -18.759  1.00  0.00     0.083 A 
HETATM    6  C7  UNL     1      -4.524 -18.569 -17.381  1.00  0.00     0.076 A 
HETATM    7 BR1  UNL     1      -5.007 -16.994 -16.415  1.00  0.00    -0.045 Br
HETATM    8  N1  UNL     1      -4.956 -17.337 -19.455  1.00  0.00    -0.344 N 
ATOM      9  H1  UNL     1      -5.202 -16.505 -18.920  1.00  0.00     0.166 HD
HETATM   10  C8  UNL     1      -5.031 -17.301 -20.766  1.00  0.00     0.158 C 
HETATM   11  C10 UNL     1      -4.760 -18.415 -21.627  1.00  0.00     0.167 C 
HETATM   12  C11 UNL     1      -5.942 -19.080 -22.307  1.00  0.00     0.112 C 
HETATM   13 CL1  UNL     1      -7.499 -18.368 -22.008  1.00  0.00    -0.122 Cl
HETATM   14  C12 UNL     1      -5.552 -19.225 -23.764  1.00  0.00     0.022 C 
HETATM   15  C13 UNL     1      -4.611 -20.401 -23.849  1.00  0.00     0.003 C 
HETATM   16  C14 UNL     1      -3.337 -20.272 -23.088  1.00  0.00     0.020 C 
HETATM   17  C15 UNL     1      -3.498 -20.673 -21.589  1.00  0.00     0.124 C 
HETATM   18  N2  UNL     1      -4.136 -19.582 -20.937  1.00  0.00    -0.364 N 
ENDROOT
BRANCH  10  19
HETATM   19  S1  UNL     1      -5.544 -15.749 -21.374  1.00  0.00     0.311 S 
HETATM   20  O4  UNL     1      -5.764 -15.706 -22.835  1.00  0.00    -0.192 OA
HETATM   21  O5  UNL     1      -4.505 -14.722 -20.941  1.00  0.00    -0.192 OA
BRANCH  19  22
HETATM   22  O6  UNL     1      -6.981 -15.251 -20.626  1.00  0.00    -0.276 OA
HETATM   23  C9  UNL     1      -6.669 -14.056 -19.975  1.00  0.00     0.226 C 
ENDBRANCH  19  22
ENDBRANCH  10  19
BRANCH   3  24
HETATM   24  O3  UNL     1      -3.487 -21.943 -19.597  1.00  0.00    -0.356 OA
ATOM     25  H3  UNL     1      -3.983 -22.740 -19.454  1.00  0.00     0.218 HD
ENDBRANCH   3  24
BRANCH   1  26
HETATM   26  O1  UNL     1      -4.158 -19.790 -15.348  1.00  0.00    -0.352 OA
HETATM   27  C1  UNL     1      -2.963 -19.493 -14.615  1.00  0.00     0.210 C 
ENDBRANCH   1  26
BRANCH   2  28
HETATM   28  O2  UNL     1      -3.488 -21.975 -16.814  1.00  0.00    -0.356 OA
ATOM     29  H2  UNL     1      -2.714 -21.907 -16.267  1.00  0.00     0.218 HD
ENDBRANCH   2  28
TORSDOF 5
ENDMDL
