MODEL 1
REMARK VINA RESULT: -8.287278874      0.000      0.000
REMARK  13 active torsions:
REMARK  status: ('A' for Active; 'I' for Inactive)
REMARK    1  A    between atoms: C2_2  and  O1_3 
REMARK    2  A    between atoms: C2_2  and  N1_5 
REMARK    3  A    between atoms: N1_5  and  C3_7 
REMARK    4  A    between atoms: C3_7  and  O2_8 
REMARK    5  A    between atoms: C3_7  and  N2_10 
REMARK    6  A    between atoms: N2_10  and  C4_12 
REMARK       I    between atoms: N3_15  and  C7_16 
REMARK    7  A    between atoms: C7_16  and  C8_18 
REMARK    8  A    between atoms: C8_18  and  C9_19 
REMARK    9  A    between atoms: C9_19  and  C10_20 
REMARK   10  A    between atoms: C10_20  and  C11_22 
REMARK   11  A    between atoms: C16_27  and  O5_28 
REMARK   12  A    between atoms: O5_28  and  C17_29 
REMARK   13  A    between atoms: C22_35  and  O7_36 
ROOT
HETATM    1  C11 UNL     1       7.236  40.411  19.295  1.00  0.00     0.064 C 
HETATM    2  C12 UNL     1       8.019  39.467  18.413  1.00  0.00     0.013 C 
HETATM    3  C13 UNL     1       9.424  39.640  18.895  1.00  0.00     0.007 C 
HETATM    4  C14 UNL     1       9.512  41.065  19.347  1.00  0.00     0.001 C 
HETATM    5  C15 UNL     1      10.494  41.355  20.405  1.00  0.00     0.025 C 
HETATM    6  C16 UNL     1      10.721  40.355  21.473  1.00  0.00     0.137 C 
HETATM    7  C19 UNL     1      11.985  40.797  22.238  1.00  0.00     0.038 C 
HETATM    8  C20 UNL     1      11.777  42.159  22.837  1.00  0.00    -0.001 C 
HETATM    9  C21 UNL     1      12.946  42.578  23.641  1.00  0.00     0.037 C 
HETATM   10  C22 UNL     1      14.100  43.121  22.890  1.00  0.00     0.118 C 
HETATM   11  C23 UNL     1      13.864  43.374  21.445  1.00  0.00     0.032 C 
HETATM   12  C24 UNL     1      12.502  43.809  21.072  1.00  0.00     0.012 C 
HETATM   13  C25 UNL     1      11.373  43.209  21.856  1.00  0.00    -0.036 C 
HETATM   14  C26 UNL     1      10.775  44.359  22.684  1.00  0.00     0.016 C 
HETATM   15  C27 UNL     1      10.260  42.757  20.935  1.00  0.00     0.001 C 
HETATM   16  C28 UNL     1       8.926  42.868  21.580  1.00  0.00     0.007 C 
HETATM   17  C29 UNL     1       7.823  42.148  20.883  1.00  0.00     0.011 C 
HETATM   18  C30 UNL     1       8.119  41.608  19.534  1.00  0.00    -0.030 C 
HETATM   19  C31 UNL     1       7.813  42.721  18.519  1.00  0.00     0.016 C 
ENDROOT
BRANCH   1  20
HETATM   20  C10 UNL     1       5.943  40.669  18.672  1.00  0.00     0.132 C 
HETATM   21  O4  UNL     1       5.901  40.792  17.433  1.00  0.00    -0.298 OA
BRANCH  20  22
HETATM   22  C9  UNL     1       4.645  40.799  19.412  1.00  0.00     0.088 C 
BRANCH  22  23
HETATM   23  C8  UNL     1       4.532  39.755  20.483  1.00  0.00     0.110 C 
BRANCH  23  24
HETATM   24  C7  UNL     1       4.394  40.270  21.848  1.00  0.00     0.220 C 
HETATM   25  N3  UNL     1       4.032  39.362  22.887  1.00  0.00    -0.352 N 
HETATM   26  C6  UNL     1       3.799  37.962  22.639  1.00  0.00     0.127 C 
HETATM   27  C32 UNL     1       3.897  39.875  24.230  1.00  0.00     0.127 C 
HETATM   28  C5  UNL     1       4.696  37.138  23.544  1.00  0.00     0.045 C 
HETATM   29  C4  UNL     1       4.790  37.667  24.937  1.00  0.00     0.088 C 
HETATM   30  C33 UNL     1       3.856  38.782  25.266  1.00  0.00     0.045 C 
HETATM   31  O3  UNL     1       4.586  41.474  22.093  1.00  0.00    -0.273 OA
BRANCH  29  32
HETATM   32  N2  UNL     1       4.678  36.559  25.908  1.00  0.00    -0.352 N 
ATOM     33  H2  UNL     1       3.927  35.876  25.808  1.00  0.00     0.163 HD
BRANCH  32  34
HETATM   34  C3  UNL     1       5.582  36.438  26.957  1.00  0.00     0.218 C 
BRANCH  34  35
HETATM   35  N1  UNL     1       6.964  36.368  26.898  1.00  0.00    -0.307 N 
ATOM     36  H1  UNL     1       7.432  36.951  27.591  1.00  0.00     0.171 HD
BRANCH  35  37
HETATM   37  C2  UNL     1       7.845  35.658  26.077  1.00  0.00     0.114 C 
HETATM   38  C1  UNL     1       8.954  34.829  26.561  1.00  0.00     0.097 C 
BRANCH  37  39
HETATM   39  O1  UNL     1       7.680  35.729  24.783  1.00  0.00    -0.350 OA
ATOM     40  H1  UNL     1       7.316  36.536  24.440  1.00  0.00     0.219 HD
ENDBRANCH  37  39
ENDBRANCH  35  37
ENDBRANCH  34  35
BRANCH  34  41
HETATM   41  O2  UNL     1       5.075  36.381  28.155  1.00  0.00    -0.332 OA
ATOM     42  H2  UNL     1       5.165  37.174  28.671  1.00  0.00     0.220 HD
ENDBRANCH  34  41
ENDBRANCH  32  34
ENDBRANCH  29  32
ENDBRANCH  23  24
ENDBRANCH  22  23
ENDBRANCH  20  22
ENDBRANCH   1  20
BRANCH   6  43
HETATM   43  O5  UNL     1       9.752  40.206  22.443  1.00  0.00    -0.316 OA
BRANCH  43  44
HETATM   44  C17 UNL     1       8.856  39.190  22.487  1.00  0.00     0.255 C 
HETATM   45  C18 UNL     1       7.625  39.327  23.294  1.00  0.00     0.126 C 
HETATM   46  O6  UNL     1       9.043  38.133  21.859  1.00  0.00    -0.266 OA
ENDBRANCH  43  44
ENDBRANCH   6  43
BRANCH  10  47
HETATM   47  O7  UNL     1      15.202  42.239  22.985  1.00  0.00    -0.396 OA
ATOM     48  H7  UNL     1      15.276  41.722  22.192  1.00  0.00     0.210 HD
ENDBRANCH  10  47
TORSDOF 13
ENDMDL
MODEL 2
REMARK VINA RESULT: -8.050773601      2.922      4.905
REMARK  13 active torsions:
REMARK  status: ('A' for Active; 'I' for Inactive)
REMARK    1  A    between atoms: C2_2  and  O1_3 
REMARK    2  A    between atoms: C2_2  and  N1_5 
REMARK    3  A    between atoms: N1_5  and  C3_7 
REMARK    4  A    between atoms: C3_7  and  O2_8 
REMARK    5  A    between atoms: C3_7  and  N2_10 
REMARK    6  A    between atoms: N2_10  and  C4_12 
REMARK       I    between atoms: N3_15  and  C7_16 
REMARK    7  A    between atoms: C7_16  and  C8_18 
REMARK    8  A    between atoms: C8_18  and  C9_19 
REMARK    9  A    between atoms: C9_19  and  C10_20 
REMARK   10  A    between atoms: C10_20  and  C11_22 
REMARK   11  A    between atoms: C16_27  and  O5_28 
REMARK   12  A    between atoms: O5_28  and  C17_29 
REMARK   13  A    between atoms: C22_35  and  O7_36 
ROOT
HETATM    1  C11 UNL     1       8.855  39.704  21.952  1.00  0.00     0.064 C 
HETATM    2  C12 UNL     1       9.328  38.594  21.044  1.00  0.00     0.013 C 
HETATM    3  C13 UNL     1       9.734  39.323  19.803  1.00  0.00     0.007 C 
HETATM    4  C14 UNL     1       8.821  40.506  19.723  1.00  0.00     0.001 C 
HETATM    5  C15 UNL     1       9.348  41.693  19.031  1.00  0.00     0.025 C 
HETATM    6  C16 UNL     1      10.783  42.031  19.167  1.00  0.00     0.137 C 
HETATM    7  C19 UNL     1      11.088  43.116  18.113  1.00  0.00     0.038 C 
HETATM    8  C20 UNL     1      10.242  44.331  18.362  1.00  0.00    -0.001 C 
HETATM    9  C21 UNL     1      10.567  45.419  17.413  1.00  0.00     0.037 C 
HETATM   10  C22 UNL     1       9.965  45.316  16.065  1.00  0.00     0.118 C 
HETATM   11  C23 UNL     1       8.942  44.251  15.898  1.00  0.00     0.032 C 
HETATM   12  C24 UNL     1       8.102  43.960  17.079  1.00  0.00     0.012 C 
HETATM   13  C25 UNL     1       8.775  44.061  18.416  1.00  0.00    -0.036 C 
HETATM   14  C26 UNL     1       8.142  45.276  19.116  1.00  0.00     0.016 C 
HETATM   15  C27 UNL     1       8.426  42.871  19.284  1.00  0.00     0.001 C 
HETATM   16  C28 UNL     1       8.398  43.226  20.727  1.00  0.00     0.007 C 
HETATM   17  C29 UNL     1       8.390  42.067  21.664  1.00  0.00     0.011 C 
HETATM   18  C30 UNL     1       8.183  40.723  21.071  1.00  0.00    -0.030 C 
HETATM   19  C31 UNL     1       6.666  40.479  21.016  1.00  0.00     0.016 C 
ENDROOT
BRANCH   1  20
HETATM   20  C10 UNL     1       8.044  39.124  23.016  1.00  0.00     0.132 C 
HETATM   21  O4  UNL     1       8.097  37.892  23.191  1.00  0.00    -0.298 OA
BRANCH  20  22
HETATM   22  C9  UNL     1       7.140  39.901  23.926  1.00  0.00     0.088 C 
BRANCH  22  23
HETATM   23  C8  UNL     1       6.476  38.996  24.921  1.00  0.00     0.110 C 
BRANCH  23  24
HETATM   24  C7  UNL     1       6.468  39.484  26.302  1.00  0.00     0.220 C 
HETATM   25  N3  UNL     1       6.435  38.531  27.363  1.00  0.00    -0.352 N 
HETATM   26  C6  UNL     1       6.408  37.110  27.121  1.00  0.00     0.127 C 
HETATM   27  C32 UNL     1       6.428  39.016  28.723  1.00  0.00     0.127 C 
HETATM   28  C5  UNL     1       7.564  36.456  27.855  1.00  0.00     0.045 C 
HETATM   29  C4  UNL     1       7.785  36.998  29.229  1.00  0.00     0.088 C 
HETATM   30  C33 UNL     1       6.738  37.937  29.726  1.00  0.00     0.045 C 
HETATM   31  O3  UNL     1       6.488  40.704  26.544  1.00  0.00    -0.273 OA
BRANCH  29  32
HETATM   32  N2  UNL     1       8.017  35.890  30.179  1.00  0.00    -0.352 N 
ATOM     33  H2  UNL     1       7.319  35.683  30.893  1.00  0.00     0.163 HD
BRANCH  32  34
HETATM   34  C3  UNL     1       9.178  35.127  30.111  1.00  0.00     0.218 C 
BRANCH  34  35
HETATM   35  N1  UNL     1       9.768  34.555  28.996  1.00  0.00    -0.307 N 
ATOM     36  H1  UNL     1      10.348  35.203  28.464  1.00  0.00     0.171 HD
BRANCH  35  37
HETATM   37  C2  UNL     1       9.725  33.267  28.454  1.00  0.00     0.114 C 
HETATM   38  C1  UNL     1       9.669  32.965  27.020  1.00  0.00     0.097 C 
BRANCH  37  39
HETATM   39  O1  UNL     1       9.735  32.249  29.273  1.00  0.00    -0.350 OA
ATOM     40  H1  UNL     1       8.938  32.082  29.761  1.00  0.00     0.219 HD
ENDBRANCH  37  39
ENDBRANCH  35  37
ENDBRANCH  34  35
BRANCH  34  41
HETATM   41  O2  UNL     1       9.797  34.915  31.236  1.00  0.00    -0.332 OA
ATOM     42  H2  UNL     1      10.482  35.541  31.445  1.00  0.00     0.220 HD
ENDBRANCH  34  41
ENDBRANCH  32  34
ENDBRANCH  29  32
ENDBRANCH  23  24
ENDBRANCH  22  23
ENDBRANCH  20  22
ENDBRANCH   1  20
BRANCH   6  43
HETATM   43  O5  UNL     1      11.216  42.564  20.362  1.00  0.00    -0.316 OA
BRANCH  43  44
HETATM   44  C17 UNL     1      12.176  42.017  21.146  1.00  0.00     0.255 C 
HETATM   45  C18 UNL     1      11.873  41.676  22.553  1.00  0.00     0.126 C 
HETATM   46  O6  UNL     1      13.318  41.789  20.710  1.00  0.00    -0.266 OA
ENDBRANCH  43  44
ENDBRANCH   6  43
BRANCH  10  47
HETATM   47  O7  UNL     1      10.970  45.085  15.097  1.00  0.00    -0.396 OA
ATOM     48  H7  UNL     1      10.612  45.184  14.223  1.00  0.00     0.210 HD
ENDBRANCH  10  47
TORSDOF 13
ENDMDL
MODEL 3
REMARK VINA RESULT: -7.826650952      1.410      2.193
REMARK  13 active torsions:
REMARK  status: ('A' for Active; 'I' for Inactive)
REMARK    1  A    between atoms: C2_2  and  O1_3 
REMARK    2  A    between atoms: C2_2  and  N1_5 
REMARK    3  A    between atoms: N1_5  and  C3_7 
REMARK    4  A    between atoms: C3_7  and  O2_8 
REMARK    5  A    between atoms: C3_7  and  N2_10 
REMARK    6  A    between atoms: N2_10  and  C4_12 
REMARK       I    between atoms: N3_15  and  C7_16 
REMARK    7  A    between atoms: C7_16  and  C8_18 
REMARK    8  A    between atoms: C8_18  and  C9_19 
REMARK    9  A    between atoms: C9_19  and  C10_20 
REMARK   10  A    between atoms: C10_20  and  C11_22 
REMARK   11  A    between atoms: C16_27  and  O5_28 
REMARK   12  A    between atoms: O5_28  and  C17_29 
REMARK   13  A    between atoms: C22_35  and  O7_36 
ROOT
HETATM    1  C11 UNL     1       7.194  40.348  19.321  1.00  0.00     0.064 C 
HETATM    2  C12 UNL     1       7.995  39.452  18.407  1.00  0.00     0.013 C 
HETATM    3  C13 UNL     1       9.398  39.644  18.889  1.00  0.00     0.007 C 
HETATM    4  C14 UNL     1       9.454  41.056  19.385  1.00  0.00     0.001 C 
HETATM    5  C15 UNL     1      10.432  41.337  20.448  1.00  0.00     0.025 C 
HETATM    6  C16 UNL     1      10.689  40.310  21.483  1.00  0.00     0.137 C 
HETATM    7  C19 UNL     1      11.946  40.759  22.256  1.00  0.00     0.038 C 
HETATM    8  C20 UNL     1      11.707  42.096  22.898  1.00  0.00    -0.001 C 
HETATM    9  C21 UNL     1      12.870  42.519  23.711  1.00  0.00     0.037 C 
HETATM   10  C22 UNL     1      14.007  43.113  22.972  1.00  0.00     0.118 C 
HETATM   11  C23 UNL     1      13.757  43.405  21.536  1.00  0.00     0.032 C 
HETATM   12  C24 UNL     1      12.383  43.818  21.182  1.00  0.00     0.012 C 
HETATM   13  C25 UNL     1      11.273  43.166  21.952  1.00  0.00    -0.036 C 
HETATM   14  C26 UNL     1      10.651  44.275  22.818  1.00  0.00     0.016 C 
HETATM   15  C27 UNL     1      10.167  42.716  21.021  1.00  0.00     0.001 C 
HETATM   16  C28 UNL     1       8.834  42.773  21.675  1.00  0.00     0.007 C 
HETATM   17  C29 UNL     1       7.745  42.049  20.960  1.00  0.00     0.011 C 
HETATM   18  C30 UNL     1       8.048  41.558  19.594  1.00  0.00    -0.030 C 
HETATM   19  C31 UNL     1       7.710  42.695  18.616  1.00  0.00     0.016 C 
ENDROOT
BRANCH   1  20
HETATM   20  C10 UNL     1       5.892  40.593  18.712  1.00  0.00     0.132 C 
HETATM   21  O4  UNL     1       5.854  40.874  17.498  1.00  0.00    -0.298 OA
BRANCH  20  22
HETATM   22  C9  UNL     1       4.581  40.534  19.437  1.00  0.00     0.088 C 
BRANCH  22  23
HETATM   23  C8  UNL     1       4.640  39.555  20.572  1.00  0.00     0.110 C 
BRANCH  23  24
HETATM   24  C7  UNL     1       4.283  40.097  21.885  1.00  0.00     0.220 C 
HETATM   25  N3  UNL     1       3.691  39.224  22.846  1.00  0.00    -0.352 N 
HETATM   26  C6  UNL     1       3.431  37.835  22.566  1.00  0.00     0.127 C 
HETATM   27  C32 UNL     1       3.342  39.763  24.139  1.00  0.00     0.127 C 
HETATM   28  C5  UNL     1       4.103  36.978  23.624  1.00  0.00     0.045 C 
HETATM   29  C4  UNL     1       3.971  37.522  25.009  1.00  0.00     0.088 C 
HETATM   30  C33 UNL     1       3.055  38.689  25.157  1.00  0.00     0.045 C 
HETATM   31  O3  UNL     1       4.493  41.293  22.156  1.00  0.00    -0.273 OA
BRANCH  29  32
HETATM   32  N2  UNL     1       3.625  36.436  25.948  1.00  0.00    -0.352 N 
ATOM     33  H2  UNL     1       3.266  35.553  25.587  1.00  0.00     0.163 HD
BRANCH  32  34
HETATM   34  C3  UNL     1       3.782  36.605  27.320  1.00  0.00     0.218 C 
BRANCH  34  35
HETATM   35  N1  UNL     1       2.805  36.818  28.278  1.00  0.00    -0.307 N 
ATOM     36  H1  UNL     1       2.908  37.702  28.776  1.00  0.00     0.171 HD
BRANCH  35  37
HETATM   37  C2  UNL     1       1.706  36.063  28.698  1.00  0.00     0.114 C 
HETATM   38  C1  UNL     1       0.637  35.579  27.819  1.00  0.00     0.097 C 
BRANCH  37  39
HETATM   39  O1  UNL     1       1.611  35.760  29.966  1.00  0.00    -0.350 OA
ATOM     40  H1  UNL     1       2.097  36.302  30.575  1.00  0.00     0.219 HD
ENDBRANCH  37  39
ENDBRANCH  35  37
ENDBRANCH  34  35
BRANCH  34  41
HETATM   41  O2  UNL     1       5.002  36.559  27.772  1.00  0.00    -0.332 OA
ATOM     42  H2  UNL     1       5.518  37.343  27.625  1.00  0.00     0.220 HD
ENDBRANCH  34  41
ENDBRANCH  32  34
ENDBRANCH  29  32
ENDBRANCH  23  24
ENDBRANCH  22  23
ENDBRANCH  20  22
ENDBRANCH   1  20
BRANCH   6  43
HETATM   43  O5  UNL     1       9.728  40.107  22.451  1.00  0.00    -0.316 OA
BRANCH  43  44
HETATM   44  C17 UNL     1       8.836  39.087  22.449  1.00  0.00     0.255 C 
HETATM   45  C18 UNL     1       7.612  39.177  23.274  1.00  0.00     0.126 C 
HETATM   46  O6  UNL     1       9.020  38.066  21.764  1.00  0.00    -0.266 OA
ENDBRANCH  43  44
ENDBRANCH   6  43
BRANCH  10  47
HETATM   47  O7  UNL     1      15.130  42.256  23.035  1.00  0.00    -0.396 OA
ATOM     48  H7  UNL     1      15.932  42.762  22.980  1.00  0.00     0.210 HD
ENDBRANCH  10  47
TORSDOF 13
ENDMDL
MODEL 4
REMARK VINA RESULT: -7.798706315      2.093      2.364
REMARK  13 active torsions:
REMARK  status: ('A' for Active; 'I' for Inactive)
REMARK    1  A    between atoms: C2_2  and  O1_3 
REMARK    2  A    between atoms: C2_2  and  N1_5 
REMARK    3  A    between atoms: N1_5  and  C3_7 
REMARK    4  A    between atoms: C3_7  and  O2_8 
REMARK    5  A    between atoms: C3_7  and  N2_10 
REMARK    6  A    between atoms: N2_10  and  C4_12 
REMARK       I    between atoms: N3_15  and  C7_16 
REMARK    7  A    between atoms: C7_16  and  C8_18 
REMARK    8  A    between atoms: C8_18  and  C9_19 
REMARK    9  A    between atoms: C9_19  and  C10_20 
REMARK   10  A    between atoms: C10_20  and  C11_22 
REMARK   11  A    between atoms: C16_27  and  O5_28 
REMARK   12  A    between atoms: O5_28  and  C17_29 
REMARK   13  A    between atoms: C22_35  and  O7_36 
ROOT
HETATM    1  C11 UNL     1       7.564  40.515  19.039  1.00  0.00     0.064 C 
HETATM    2  C12 UNL     1       8.441  39.672  18.144  1.00  0.00     0.013 C 
HETATM    3  C13 UNL     1       9.808  39.885  18.712  1.00  0.00     0.007 C 
HETATM    4  C14 UNL     1       9.796  41.279  19.257  1.00  0.00     0.001 C 
HETATM    5  C15 UNL     1      10.705  41.549  20.383  1.00  0.00     0.025 C 
HETATM    6  C16 UNL     1      10.931  40.493  21.397  1.00  0.00     0.137 C 
HETATM    7  C19 UNL     1      12.129  40.948  22.256  1.00  0.00     0.038 C 
HETATM    8  C20 UNL     1      11.817  42.255  22.927  1.00  0.00    -0.001 C 
HETATM    9  C21 UNL     1      12.919  42.680  23.819  1.00  0.00     0.037 C 
HETATM   10  C22 UNL     1      14.078  43.328  23.168  1.00  0.00     0.118 C 
HETATM   11  C23 UNL     1      13.903  43.664  21.730  1.00  0.00     0.032 C 
HETATM   12  C24 UNL     1      12.540  44.053  21.312  1.00  0.00     0.012 C 
HETATM   13  C25 UNL     1      11.407  43.345  21.994  1.00  0.00    -0.036 C 
HETATM   14  C26 UNL     1      10.706  44.407  22.859  1.00  0.00     0.016 C 
HETATM   15  C27 UNL     1      10.368  42.899  20.986  1.00  0.00     0.001 C 
HETATM   16  C28 UNL     1       8.999  42.899  21.564  1.00  0.00     0.007 C 
HETATM   17  C29 UNL     1       7.974  42.171  20.763  1.00  0.00     0.011 C 
HETATM   18  C30 UNL     1       8.368  41.737  19.401  1.00  0.00    -0.030 C 
HETATM   19  C31 UNL     1       8.054  42.898  18.444  1.00  0.00     0.016 C 
ENDROOT
BRANCH   1  20
HETATM   20  C10 UNL     1       6.293  40.747  18.365  1.00  0.00     0.132 C 
HETATM   21  O4  UNL     1       6.299  40.873  17.125  1.00  0.00    -0.298 OA
BRANCH  20  22
HETATM   22  C9  UNL     1       4.963  40.847  19.051  1.00  0.00     0.088 C 
BRANCH  22  23
HETATM   23  C8  UNL     1       4.964  40.073  20.336  1.00  0.00     0.110 C 
BRANCH  23  24
HETATM   24  C7  UNL     1       3.986  40.514  21.333  1.00  0.00     0.220 C 
HETATM   25  N3  UNL     1       2.874  39.668  21.621  1.00  0.00    -0.352 N 
HETATM   26  C6  UNL     1       2.682  38.400  20.962  1.00  0.00     0.127 C 
HETATM   27  C32 UNL     1       1.914  40.106  22.605  1.00  0.00     0.127 C 
HETATM   28  C5  UNL     1       2.556  37.308  22.009  1.00  0.00     0.045 C 
HETATM   29  C4  UNL     1       1.723  37.698  23.185  1.00  0.00     0.088 C 
HETATM   30  C33 UNL     1       1.001  38.998  23.059  1.00  0.00     0.045 C 
HETATM   31  O3  UNL     1       4.123  41.604  21.916  1.00  0.00    -0.273 OA
BRANCH  29  32
HETATM   32  N2  UNL     1       0.804  36.598  23.542  1.00  0.00    -0.352 N 
ATOM     33  H2  UNL     1      -0.157  36.612  23.198  1.00  0.00     0.163 HD
BRANCH  32  34
HETATM   34  C3  UNL     1       1.232  35.544  24.342  1.00  0.00     0.218 C 
BRANCH  34  35
HETATM   35  N1  UNL     1       2.009  34.455  23.986  1.00  0.00    -0.307 N 
ATOM     36  H1  UNL     1       1.501  33.571  23.994  1.00  0.00     0.171 HD
BRANCH  35  37
HETATM   37  C2  UNL     1       3.352  34.325  23.618  1.00  0.00     0.114 C 
HETATM   38  C1  UNL     1       4.414  35.267  23.986  1.00  0.00     0.097 C 
BRANCH  37  39
HETATM   39  O1  UNL     1       3.699  33.295  22.893  1.00  0.00    -0.350 OA
ATOM     40  H1  UNL     1       4.426  32.772  23.210  1.00  0.00     0.219 HD
ENDBRANCH  37  39
ENDBRANCH  35  37
ENDBRANCH  34  35
BRANCH  34  41
HETATM   41  O2  UNL     1       0.859  35.576  25.588  1.00  0.00    -0.332 OA
ATOM     42  H2  UNL     1       1.106  36.360  26.066  1.00  0.00     0.220 HD
ENDBRANCH  34  41
ENDBRANCH  32  34
ENDBRANCH  29  32
ENDBRANCH  23  24
ENDBRANCH  22  23
ENDBRANCH  20  22
ENDBRANCH   1  20
BRANCH   6  43
HETATM   43  O5  UNL     1       9.923  40.232  22.301  1.00  0.00    -0.316 OA
BRANCH  43  44
HETATM   44  C17 UNL     1       9.056  39.194  22.209  1.00  0.00     0.255 C 
HETATM   45  C18 UNL     1       7.753  39.258  22.905  1.00  0.00     0.126 C 
HETATM   46  O6  UNL     1       9.330  38.177  21.547  1.00  0.00    -0.266 OA
ENDBRANCH  43  44
ENDBRANCH   6  43
BRANCH  10  47
HETATM   47  O7  UNL     1      15.220  42.500  23.266  1.00  0.00    -0.396 OA
ATOM     48  H7  UNL     1      15.990  42.964  22.960  1.00  0.00     0.210 HD
ENDBRANCH  10  47
TORSDOF 13
ENDMDL
MODEL 5
REMARK VINA RESULT: -7.715209913      2.950      4.607
REMARK  13 active torsions:
REMARK  status: ('A' for Active; 'I' for Inactive)
REMARK    1  A    between atoms: C2_2  and  O1_3 
REMARK    2  A    between atoms: C2_2  and  N1_5 
REMARK    3  A    between atoms: N1_5  and  C3_7 
REMARK    4  A    between atoms: C3_7  and  O2_8 
REMARK    5  A    between atoms: C3_7  and  N2_10 
REMARK    6  A    between atoms: N2_10  and  C4_12 
REMARK       I    between atoms: N3_15  and  C7_16 
REMARK    7  A    between atoms: C7_16  and  C8_18 
REMARK    8  A    between atoms: C8_18  and  C9_19 
REMARK    9  A    between atoms: C9_19  and  C10_20 
REMARK   10  A    between atoms: C10_20  and  C11_22 
REMARK   11  A    between atoms: C16_27  and  O5_28 
REMARK   12  A    between atoms: O5_28  and  C17_29 
REMARK   13  A    between atoms: C22_35  and  O7_36 
ROOT
HETATM    1  C11 UNL     1       8.915  40.486  21.988  1.00  0.00     0.064 C 
HETATM    2  C12 UNL     1      10.340  40.193  22.391  1.00  0.00     0.013 C 
HETATM    3  C13 UNL     1      11.128  41.184  21.596  1.00  0.00     0.007 C 
HETATM    4  C14 UNL     1      10.351  41.380  20.330  1.00  0.00     0.001 C 
HETATM    5  C15 UNL     1      10.500  42.687  19.669  1.00  0.00     0.025 C 
HETATM    6  C16 UNL     1      10.643  43.905  20.499  1.00  0.00     0.137 C 
HETATM    7  C19 UNL     1      11.073  45.043  19.551  1.00  0.00     0.038 C 
HETATM    8  C20 UNL     1      10.030  45.255  18.491  1.00  0.00    -0.001 C 
HETATM    9  C21 UNL     1      10.380  46.393  17.611  1.00  0.00     0.037 C 
HETATM   10  C22 UNL     1      11.364  46.118  16.541  1.00  0.00     0.118 C 
HETATM   11  C23 UNL     1      11.720  44.688  16.348  1.00  0.00     0.032 C 
HETATM   12  C24 UNL     1      10.643  43.707  16.596  1.00  0.00     0.012 C 
HETATM   13  C25 UNL     1       9.689  44.032  17.708  1.00  0.00    -0.036 C 
HETATM   14  C26 UNL     1       8.337  44.321  17.032  1.00  0.00     0.016 C 
HETATM   15  C27 UNL     1       9.450  42.820  18.582  1.00  0.00     0.001 C 
HETATM   16  C28 UNL     1       8.081  42.814  19.159  1.00  0.00     0.007 C 
HETATM   17  C29 UNL     1       7.869  41.850  20.277  1.00  0.00     0.011 C 
HETATM   18  C30 UNL     1       8.949  40.867  20.531  1.00  0.00    -0.030 C 
HETATM   19  C31 UNL     1       8.670  39.643  19.643  1.00  0.00     0.016 C 
ENDROOT
BRANCH   1  20
HETATM   20  C10 UNL     1       8.083  39.343  22.344  1.00  0.00     0.132 C 
HETATM   21  O4  UNL     1       8.635  38.233  22.478  1.00  0.00    -0.298 OA
BRANCH  20  22
HETATM   22  C9  UNL     1       6.600  39.395  22.564  1.00  0.00     0.088 C 
BRANCH  22  23
HETATM   23  C8  UNL     1       6.198  38.515  23.711  1.00  0.00     0.110 C 
BRANCH  23  24
HETATM   24  C7  UNL     1       6.463  39.063  25.043  1.00  0.00     0.220 C 
HETATM   25  N3  UNL     1       6.434  38.179  26.163  1.00  0.00    -0.352 N 
HETATM   26  C6  UNL     1       6.152  36.772  26.025  1.00  0.00     0.127 C 
HETATM   27  C32 UNL     1       6.696  38.723  27.474  1.00  0.00     0.127 C 
HETATM   28  C5  UNL     1       7.285  35.973  26.643  1.00  0.00     0.045 C 
HETATM   29  C4  UNL     1       7.781  36.536  27.934  1.00  0.00     0.088 C 
HETATM   30  C33 UNL     1       6.975  37.655  28.500  1.00  0.00     0.045 C 
HETATM   31  O3  UNL     1       6.706  40.273  25.194  1.00  0.00    -0.273 OA
BRANCH  29  32
HETATM   32  N2  UNL     1       7.972  35.451  28.918  1.00  0.00    -0.352 N 
ATOM     33  H2  UNL     1       7.170  35.093  29.436  1.00  0.00     0.163 HD
BRANCH  32  34
HETATM   34  C3  UNL     1       9.234  34.914  29.149  1.00  0.00     0.218 C 
BRANCH  34  35
HETATM   35  N1  UNL     1       9.778  33.746  28.640  1.00  0.00    -0.307 N 
ATOM     36  H1  UNL     1      10.389  33.261  29.297  1.00  0.00     0.171 HD
BRANCH  35  37
HETATM   37  C2  UNL     1       9.657  33.101  27.406  1.00  0.00     0.114 C 
HETATM   38  C1  UNL     1       9.772  33.762  26.102  1.00  0.00     0.097 C 
BRANCH  37  39
HETATM   39  O1  UNL     1       9.424  31.815  27.399  1.00  0.00    -0.350 OA
ATOM     40  H1  UNL     1       9.204  31.414  28.231  1.00  0.00     0.219 HD
ENDBRANCH  37  39
ENDBRANCH  35  37
ENDBRANCH  34  35
BRANCH  34  41
HETATM   41  O2  UNL     1      10.013  35.587  29.946  1.00  0.00    -0.332 OA
ATOM     42  H2  UNL     1      10.907  35.694  29.643  1.00  0.00     0.220 HD
ENDBRANCH  34  41
ENDBRANCH  32  34
ENDBRANCH  29  32
ENDBRANCH  23  24
ENDBRANCH  22  23
ENDBRANCH  20  22
ENDBRANCH   1  20
BRANCH   6  43
HETATM   43  O5  UNL     1       9.525  44.385  21.148  1.00  0.00    -0.316 OA
BRANCH  43  44
HETATM   44  C17 UNL     1       9.291  44.255  22.477  1.00  0.00     0.255 C 
HETATM   45  C18 UNL     1       7.901  44.212  22.979  1.00  0.00     0.126 C 
HETATM   46  O6  UNL     1      10.224  44.169  23.294  1.00  0.00    -0.266 OA
ENDBRANCH  43  44
ENDBRANCH   6  43
BRANCH  10  47
HETATM   47  O7  UNL     1      12.567  46.817  16.793  1.00  0.00    -0.396 OA
ATOM     48  H7  UNL     1      12.670  47.527  16.170  1.00  0.00     0.210 HD
ENDBRANCH  10  47
TORSDOF 13
ENDMDL
