MODEL 1
REMARK VINA RESULT: -8.601948710      0.000      0.000
REMARK  11 active torsions:
REMARK  status: ('A' for Active; 'I' for Inactive)
REMARK    1  A    between atoms: C2_2  and  C3_3 
REMARK    2  A    between atoms: C4_4  and  C5_5 
REMARK    3  A    between atoms: C5_5  and  C6_7 
REMARK    4  A    between atoms: C6_7  and  O2_8 
REMARK    5  A    between atoms: C6_7  and  O3_10 
REMARK    6  A    between atoms: C6_7  and  C7_12 
REMARK    7  A    between atoms: C8_13  and  C9_14 
REMARK    8  A    between atoms: C9_14  and  C10_15 
REMARK    9  A    between atoms: C10_15  and  C11_16 
REMARK   10  A    between atoms: C11_16  and  O4_17 
REMARK   11  A    between atoms: C11_16  and  C12_19 
ROOT
HETATM    1  C5  UNL     1       2.065  37.899  24.699  1.00  0.00     0.210 C 
HETATM    2  O1  UNL     1       1.472  37.877  25.784  1.00  0.00    -0.290 OA
ENDROOT
BRANCH   1   3
HETATM    3  C4  UNL     1       3.549  37.774  24.726  1.00  0.00     0.100 C 
HETATM    4  C3  UNL     1       3.897  36.420  25.280  1.00  0.00    -0.059 C 
HETATM    5  C26 UNL     1       5.238  36.562  25.871  1.00  0.00     0.078 C 
HETATM    6  C21 UNL     1       5.283  38.023  26.337  1.00  0.00     0.182 C 
HETATM    7  C25 UNL     1       6.445  36.403  25.036  1.00  0.00     0.015 C 
HETATM    8  C19 UNL     1       4.120  38.736  25.805  1.00  0.00     0.060 C 
HETATM    9  O6  UNL     1       5.613  37.984  27.653  1.00  0.00    -0.317 OA
HETATM   10  O7  UNL     1       6.532  38.609  26.097  1.00  0.00    -0.317 OA
HETATM   11  C20 UNL     1       4.567  40.003  25.121  1.00  0.00     0.016 C 
HETATM   12  C22 UNL     1       6.937  38.069  27.310  1.00  0.00     0.180 C 
HETATM   13  C23 UNL     1       7.726  36.831  27.180  1.00  0.00     0.052 C 
HETATM   14  C31 UNL     1       7.689  39.003  28.234  1.00  0.00     0.062 A 
HETATM   15  C24 UNL     1       7.603  36.022  25.941  1.00  0.00     0.011 C 
HETATM   16  C27 UNL     1       7.598  36.043  28.460  1.00  0.00    -0.009 C 
HETATM   17  C28 UNL     1       8.945  35.351  28.730  1.00  0.00     0.010 C 
HETATM   18  C29 UNL     1       7.276  36.942  29.638  1.00  0.00     0.011 C 
HETATM   19  C30 UNL     1       7.894  38.294  29.533  1.00  0.00     0.004 A 
HETATM   20  C32 UNL     1       7.143  39.544  29.468  1.00  0.00    -0.034 A 
HETATM   21  C33 UNL     1       7.887  40.781  30.004  1.00  0.00     0.016 C 
HETATM   22  C34 UNL     1       5.662  39.632  29.706  1.00  0.00     0.016 C 
BRANCH   4  23
HETATM   23  C2  UNL     1       3.536  35.240  24.546  1.00  0.00    -0.006 C 
HETATM   24  C1  UNL     1       3.714  35.049  23.261  1.00  0.00     0.011 C 
ENDBRANCH   4  23
ENDBRANCH   1   3
BRANCH   1  25
HETATM   25  C6  UNL     1       1.230  38.048  23.500  1.00  0.00     0.292 C 
BRANCH  25  26
HETATM   26  O2  UNL     1       0.725  36.776  23.133  1.00  0.00    -0.350 OA
ATOM     27  H2  UNL     1       0.121  36.883  22.409  1.00  0.00     0.214 HD
ENDBRANCH  25  26
BRANCH  25  28
HETATM   28  O3  UNL     1       0.138  38.883  23.651  1.00  0.00    -0.350 OA
ATOM     29  H3  UNL     1      -0.209  38.932  24.534  1.00  0.00     0.214 HD
ENDBRANCH  25  28
BRANCH  25  30
HETATM   30  C7  UNL     1       2.094  38.482  22.373  1.00  0.00    -0.030 C 
HETATM   31  C8  UNL     1       2.810  38.833  21.475  1.00  0.00    -0.101 C 
BRANCH  31  32
HETATM   32  C9  UNL     1       3.696  39.252  20.402  1.00  0.00     0.097 C 
BRANCH  32  33
HETATM   33  C10 UNL     1       5.130  39.416  20.848  1.00  0.00     0.045 C 
BRANCH  33  34
HETATM   34  C11 UNL     1       5.570  40.819  20.571  1.00  0.00     0.138 C 
BRANCH  34  35
HETATM   35  O4  UNL     1       5.275  41.553  21.749  1.00  0.00    -0.394 OA
ATOM     36  H4  UNL     1       4.595  42.169  21.503  1.00  0.00     0.210 HD
ENDBRANCH  34  35
BRANCH  34  37
HETATM   37  C12 UNL     1       7.054  40.937  20.354  1.00  0.00     0.046 C 
HETATM   38  C13 UNL     1       7.499  42.366  20.525  1.00  0.00     0.031 C 
HETATM   39  S1  UNL     1       7.927  39.967  21.652  1.00  0.00    -0.079 SA
HETATM   40  C14 UNL     1       8.774  38.862  20.531  1.00  0.00     0.191 C 
HETATM   41  O5  UNL     1       9.354  37.859  20.866  1.00  0.00    -0.285 OA
HETATM   42  C15 UNL     1       8.617  39.411  19.204  1.00  0.00     0.077 A 
HETATM   43  C16 UNL     1       9.056  40.776  18.830  1.00  0.00     0.025 A 
HETATM   44  C17 UNL     1       7.572  40.399  19.094  1.00  0.00    -0.013 A 
HETATM   45  C18 UNL     1       6.715  40.530  17.854  1.00  0.00     0.018 C 
ENDBRANCH  34  37
ENDBRANCH  33  34
ENDBRANCH  32  33
ENDBRANCH  31  32
ENDBRANCH  25  30
ENDBRANCH   1  25
TORSDOF 11
ENDMDL
MODEL 2
REMARK VINA RESULT: -8.450392469      1.739      2.456
REMARK  11 active torsions:
REMARK  status: ('A' for Active; 'I' for Inactive)
REMARK    1  A    between atoms: C2_2  and  C3_3 
REMARK    2  A    between atoms: C4_4  and  C5_5 
REMARK    3  A    between atoms: C5_5  and  C6_7 
REMARK    4  A    between atoms: C6_7  and  O2_8 
REMARK    5  A    between atoms: C6_7  and  O3_10 
REMARK    6  A    between atoms: C6_7  and  C7_12 
REMARK    7  A    between atoms: C8_13  and  C9_14 
REMARK    8  A    between atoms: C9_14  and  C10_15 
REMARK    9  A    between atoms: C10_15  and  C11_16 
REMARK   10  A    between atoms: C11_16  and  O4_17 
REMARK   11  A    between atoms: C11_16  and  C12_19 
ROOT
HETATM    1  C5  UNL     1       2.529  38.548  22.770  1.00  0.00     0.210 C 
HETATM    2  O1  UNL     1       1.648  38.603  23.636  1.00  0.00    -0.290 OA
ENDROOT
BRANCH   1   3
HETATM    3  C4  UNL     1       3.923  38.287  23.225  1.00  0.00     0.100 C 
HETATM    4  C3  UNL     1       3.927  37.011  24.022  1.00  0.00    -0.059 C 
HETATM    5  C26 UNL     1       5.072  37.117  24.941  1.00  0.00     0.078 C 
HETATM    6  C21 UNL     1       5.192  38.623  25.210  1.00  0.00     0.182 C 
HETATM    7  C25 UNL     1       6.423  36.712  24.502  1.00  0.00     0.015 C 
HETATM    8  C19 UNL     1       4.316  39.350  24.289  1.00  0.00     0.060 C 
HETATM    9  O6  UNL     1       5.158  38.763  26.559  1.00  0.00    -0.317 OA
HETATM   10  O7  UNL     1       6.528  39.040  25.254  1.00  0.00    -0.317 OA
HETATM   11  C20 UNL     1       5.095  40.442  23.600  1.00  0.00     0.016 C 
HETATM   12  C22 UNL     1       6.525  38.665  26.591  1.00  0.00     0.180 C 
HETATM   13  C23 UNL     1       7.145  37.353  26.845  1.00  0.00     0.052 C 
HETATM   14  C31 UNL     1       7.128  39.659  27.561  1.00  0.00     0.062 A 
HETATM   15  C24 UNL     1       7.241  36.372  25.735  1.00  0.00     0.011 C 
HETATM   16  C27 UNL     1       6.581  36.795  28.129  1.00  0.00    -0.009 C 
HETATM   17  C28 UNL     1       7.702  36.030  28.850  1.00  0.00     0.010 C 
HETATM   18  C29 UNL     1       6.086  37.898  29.045  1.00  0.00     0.011 C 
HETATM   19  C30 UNL     1       6.889  39.150  28.945  1.00  0.00     0.004 A 
HETATM   20  C32 UNL     1       6.358  40.440  28.514  1.00  0.00    -0.034 A 
HETATM   21  C33 UNL     1       7.096  41.669  29.074  1.00  0.00     0.016 C 
HETATM   22  C34 UNL     1       4.892  40.707  28.317  1.00  0.00     0.016 C 
BRANCH   4  23
HETATM   23  C2  UNL     1       3.613  35.770  23.374  1.00  0.00    -0.006 C 
HETATM   24  C1  UNL     1       2.686  34.920  23.746  1.00  0.00     0.011 C 
ENDBRANCH   4  23
ENDBRANCH   1   3
BRANCH   1  25
HETATM   25  C6  UNL     1       2.094  38.748  21.382  1.00  0.00     0.292 C 
BRANCH  25  26
HETATM   26  O2  UNL     1       1.881  37.482  20.782  1.00  0.00    -0.350 OA
ATOM     27  H2  UNL     1       1.115  37.533  20.223  1.00  0.00     0.214 HD
ENDBRANCH  25  26
BRANCH  25  28
HETATM   28  O3  UNL     1       0.919  39.462  21.236  1.00  0.00    -0.350 OA
ATOM     29  H3  UNL     1       0.394  39.219  20.483  1.00  0.00     0.214 HD
ENDBRANCH  25  28
BRANCH  25  30
HETATM   30  C7  UNL     1       3.207  39.374  20.623  1.00  0.00    -0.030 C 
HETATM   31  C8  UNL     1       4.093  39.888  19.997  1.00  0.00    -0.101 C 
BRANCH  31  32
HETATM   32  C9  UNL     1       5.148  40.527  19.227  1.00  0.00     0.097 C 
BRANCH  32  33
HETATM   33  C10 UNL     1       6.326  40.947  20.074  1.00  0.00     0.045 C 
BRANCH  33  34
HETATM   34  C11 UNL     1       7.353  39.857  20.058  1.00  0.00     0.138 C 
BRANCH  34  35
HETATM   35  O4  UNL     1       7.414  39.408  18.714  1.00  0.00    -0.394 OA
ATOM     36  H4  UNL     1       8.317  39.526  18.445  1.00  0.00     0.210 HD
ENDBRANCH  34  35
BRANCH  34  37
HETATM   37  C12 UNL     1       8.732  40.345  20.410  1.00  0.00     0.046 C 
HETATM   38  C13 UNL     1       9.753  39.754  19.473  1.00  0.00     0.031 C 
HETATM   39  S1  UNL     1       8.802  42.167  20.166  1.00  0.00    -0.079 SA
HETATM   40  C14 UNL     1       9.222  42.573  21.855  1.00  0.00     0.191 C 
HETATM   41  O5  UNL     1       9.195  43.686  22.320  1.00  0.00    -0.285 OA
HETATM   42  C15 UNL     1       9.580  41.334  22.507  1.00  0.00     0.077 A 
HETATM   43  C16 UNL     1      10.665  40.445  22.026  1.00  0.00     0.025 A 
HETATM   44  C17 UNL     1       9.156  40.151  21.798  1.00  0.00    -0.013 A 
HETATM   45  C18 UNL     1       8.697  38.903  22.519  1.00  0.00     0.018 C 
ENDBRANCH  34  37
ENDBRANCH  33  34
ENDBRANCH  32  33
ENDBRANCH  31  32
ENDBRANCH  25  30
ENDBRANCH   1  25
TORSDOF 11
ENDMDL
MODEL 3
REMARK VINA RESULT: -7.926441758      2.819      7.605
REMARK  11 active torsions:
REMARK  status: ('A' for Active; 'I' for Inactive)
REMARK    1  A    between atoms: C2_2  and  C3_3 
REMARK    2  A    between atoms: C4_4  and  C5_5 
REMARK    3  A    between atoms: C5_5  and  C6_7 
REMARK    4  A    between atoms: C6_7  and  O2_8 
REMARK    5  A    between atoms: C6_7  and  O3_10 
REMARK    6  A    between atoms: C6_7  and  C7_12 
REMARK    7  A    between atoms: C8_13  and  C9_14 
REMARK    8  A    between atoms: C9_14  and  C10_15 
REMARK    9  A    between atoms: C10_15  and  C11_16 
REMARK   10  A    between atoms: C11_16  and  O4_17 
REMARK   11  A    between atoms: C11_16  and  C12_19 
ROOT
HETATM    1  C5  UNL     1       5.730  37.231  26.134  1.00  0.00     0.210 C 
HETATM    2  O1  UNL     1       6.591  36.456  25.703  1.00  0.00    -0.290 OA
ENDROOT
BRANCH   1   3
HETATM    3  C4  UNL     1       5.269  38.318  25.225  1.00  0.00     0.100 C 
HETATM    4  C3  UNL     1       4.986  37.716  23.877  1.00  0.00    -0.059 C 
HETATM    5  C26 UNL     1       5.164  38.807  22.906  1.00  0.00     0.078 C 
HETATM    6  C21 UNL     1       6.234  39.701  23.546  1.00  0.00     0.182 C 
HETATM    7  C25 UNL     1       4.050  39.727  22.601  1.00  0.00     0.015 C 
HETATM    8  C19 UNL     1       6.463  39.268  24.926  1.00  0.00     0.060 C 
HETATM    9  O6  UNL     1       7.216  39.829  22.618  1.00  0.00    -0.317 OA
HETATM   10  O7  UNL     1       5.957  41.061  23.361  1.00  0.00    -0.317 OA
HETATM   11  C20 UNL     1       6.369  40.453  25.855  1.00  0.00     0.016 C 
HETATM   12  C22 UNL     1       6.594  40.950  22.133  1.00  0.00     0.180 C 
HETATM   13  C23 UNL     1       5.672  40.821  20.990  1.00  0.00     0.052 C 
HETATM   14  C31 UNL     1       7.594  42.037  21.802  1.00  0.00     0.062 A 
HETATM   15  C24 UNL     1       4.291  40.329  21.228  1.00  0.00     0.011 C 
HETATM   16  C27 UNL     1       6.398  40.132  19.862  1.00  0.00    -0.009 C 
HETATM   17  C28 UNL     1       5.910  40.743  18.538  1.00  0.00     0.010 C 
HETATM   18  C29 UNL     1       7.898  40.334  19.959  1.00  0.00     0.011 C 
HETATM   19  C30 UNL     1       8.278  41.658  20.529  1.00  0.00     0.004 A 
HETATM   20  C32 UNL     1       9.033  41.840  21.766  1.00  0.00    -0.034 A 
HETATM   21  C33 UNL     1       9.856  43.138  21.842  1.00  0.00     0.016 C 
HETATM   22  C34 UNL     1       9.696  40.711  22.504  1.00  0.00     0.016 C 
BRANCH   4  23
HETATM   23  C2  UNL     1       3.918  36.769  23.734  1.00  0.00    -0.006 C 
HETATM   24  C1  UNL     1       4.051  35.467  23.638  1.00  0.00     0.011 C 
ENDBRANCH   4  23
ENDBRANCH   1   3
BRANCH   1  25
HETATM   25  C6  UNL     1       5.257  36.989  27.503  1.00  0.00     0.292 C 
BRANCH  25  26
HETATM   26  O2  UNL     1       6.041  35.959  28.082  1.00  0.00    -0.350 OA
ATOM     27  H2  UNL     1       6.739  36.355  28.590  1.00  0.00     0.214 HD
ENDBRANCH  25  26
BRANCH  25  28
HETATM   28  O3  UNL     1       5.341  38.079  28.350  1.00  0.00    -0.350 OA
ATOM     29  H3  UNL     1       6.198  38.220  28.735  1.00  0.00     0.214 HD
ENDBRANCH  25  28
BRANCH  25  30
HETATM   30  C7  UNL     1       3.872  36.457  27.438  1.00  0.00    -0.030 C 
HETATM   31  C8  UNL     1       2.756  36.017  27.405  1.00  0.00    -0.101 C 
BRANCH  31  32
HETATM   32  C9  UNL     1       1.405  35.480  27.390  1.00  0.00     0.097 C 
BRANCH  32  33
HETATM   33  C10 UNL     1       0.394  36.402  28.031  1.00  0.00     0.045 C 
BRANCH  33  34
HETATM   34  C11 UNL     1      -0.538  36.913  26.977  1.00  0.00     0.138 C 
BRANCH  34  35
HETATM   35  O4  UNL     1      -1.818  36.955  27.585  1.00  0.00    -0.394 OA
ATOM     36  H4  UNL     1      -2.346  36.319  27.117  1.00  0.00     0.210 HD
ENDBRANCH  34  35
BRANCH  34  37
HETATM   37  C12 UNL     1      -0.222  38.320  26.546  1.00  0.00     0.046 C 
HETATM   38  C13 UNL     1      -1.491  39.077  26.256  1.00  0.00     0.031 C 
HETATM   39  S1  UNL     1       0.597  39.201  27.938  1.00  0.00    -0.079 SA
HETATM   40  C14 UNL     1       2.115  39.569  27.068  1.00  0.00     0.191 C 
HETATM   41  O5  UNL     1       3.122  39.979  27.590  1.00  0.00    -0.285 OA
HETATM   42  C15 UNL     1       1.878  39.280  25.672  1.00  0.00     0.077 A 
HETATM   43  C16 UNL     1       0.797  39.916  24.881  1.00  0.00     0.025 A 
HETATM   44  C17 UNL     1       0.714  38.464  25.429  1.00  0.00    -0.013 A 
HETATM   45  C18 UNL     1       0.671  37.432  24.323  1.00  0.00     0.018 C 
ENDBRANCH  34  37
ENDBRANCH  33  34
ENDBRANCH  32  33
ENDBRANCH  31  32
ENDBRANCH  25  30
ENDBRANCH   1  25
TORSDOF 11
ENDMDL
MODEL 4
REMARK VINA RESULT: -7.908100920      2.980      8.509
REMARK  11 active torsions:
REMARK  status: ('A' for Active; 'I' for Inactive)
REMARK    1  A    between atoms: C2_2  and  C3_3 
REMARK    2  A    between atoms: C4_4  and  C5_5 
REMARK    3  A    between atoms: C5_5  and  C6_7 
REMARK    4  A    between atoms: C6_7  and  O2_8 
REMARK    5  A    between atoms: C6_7  and  O3_10 
REMARK    6  A    between atoms: C6_7  and  C7_12 
REMARK    7  A    between atoms: C8_13  and  C9_14 
REMARK    8  A    between atoms: C9_14  and  C10_15 
REMARK    9  A    between atoms: C10_15  and  C11_16 
REMARK   10  A    between atoms: C11_16  and  O4_17 
REMARK   11  A    between atoms: C11_16  and  C12_19 
ROOT
HETATM    1  C5  UNL     1       5.484  40.350  21.448  1.00  0.00     0.210 C 
HETATM    2  O1  UNL     1       5.130  41.534  21.485  1.00  0.00    -0.290 OA
ENDROOT
BRANCH   1   3
HETATM    3  C4  UNL     1       6.946  40.073  21.390  1.00  0.00     0.100 C 
HETATM    4  C3  UNL     1       7.604  40.776  22.547  1.00  0.00    -0.059 C 
HETATM    5  C26 UNL     1       8.993  41.023  22.127  1.00  0.00     0.078 C 
HETATM    6  C21 UNL     1       8.895  41.191  20.605  1.00  0.00     0.182 C 
HETATM    7  C25 UNL     1      10.027  39.987  22.318  1.00  0.00     0.015 C 
HETATM    8  C19 UNL     1       7.554  40.806  20.162  1.00  0.00     0.060 C 
HETATM    9  O6  UNL     1       9.473  42.387  20.326  1.00  0.00    -0.317 OA
HETATM   10  O7  UNL     1       9.966  40.580  19.943  1.00  0.00    -0.317 OA
HETATM   11  C20 UNL     1       7.656  39.819  19.026  1.00  0.00     0.016 C 
HETATM   12  C22 UNL     1      10.676  41.752  20.162  1.00  0.00     0.180 C 
HETATM   13  C23 UNL     1      11.612  41.682  21.299  1.00  0.00     0.052 C 
HETATM   14  C31 UNL     1      11.434  42.302  18.972  1.00  0.00     0.062 A 
HETATM   15  C24 UNL     1      11.383  40.669  22.361  1.00  0.00     0.011 C 
HETATM   16  C27 UNL     1      11.857  43.081  21.807  1.00  0.00    -0.009 C 
HETATM   17  C28 UNL     1      13.322  43.171  22.264  1.00  0.00     0.010 C 
HETATM   18  C29 UNL     1      11.628  44.115  20.722  1.00  0.00     0.011 C 
HETATM   19  C30 UNL     1      11.994  43.631  19.361  1.00  0.00     0.004 A 
HETATM   20  C32 UNL     1      11.056  43.504  18.248  1.00  0.00    -0.034 A 
HETATM   21  C33 UNL     1      11.684  43.628  16.849  1.00  0.00     0.016 C 
HETATM   22  C34 UNL     1       9.653  44.041  18.284  1.00  0.00     0.016 C 
BRANCH   4  23
HETATM   23  C2  UNL     1       7.299  40.369  23.888  1.00  0.00    -0.006 C 
HETATM   24  C1  UNL     1       6.519  41.006  24.728  1.00  0.00     0.011 C 
ENDBRANCH   4  23
ENDBRANCH   1   3
BRANCH   1  25
HETATM   25  C6  UNL     1       4.413  39.346  21.462  1.00  0.00     0.292 C 
BRANCH  25  26
HETATM   26  O2  UNL     1       3.182  39.994  21.735  1.00  0.00    -0.350 OA
ATOM     27  H2  UNL     1       2.909  39.776  22.618  1.00  0.00     0.214 HD
ENDBRANCH  25  26
BRANCH  25  28
HETATM   28  O3  UNL     1       4.245  38.655  20.277  1.00  0.00    -0.350 OA
ATOM     29  H3  UNL     1       4.998  38.667  19.697  1.00  0.00     0.214 HD
ENDBRANCH  25  28
BRANCH  25  30
HETATM   30  C7  UNL     1       4.645  38.423  22.602  1.00  0.00    -0.030 C 
HETATM   31  C8  UNL     1       4.853  37.685  23.526  1.00  0.00    -0.101 C 
BRANCH  31  32
HETATM   32  C9  UNL     1       5.123  36.806  24.652  1.00  0.00     0.097 C 
BRANCH  32  33
HETATM   33  C10 UNL     1       4.492  37.282  25.939  1.00  0.00     0.045 C 
BRANCH  33  34
HETATM   34  C11 UNL     1       3.576  36.217  26.456  1.00  0.00     0.138 C 
BRANCH  34  35
HETATM   35  O4  UNL     1       3.678  36.277  27.870  1.00  0.00    -0.394 OA
ATOM     36  H4  UNL     1       2.785  36.312  28.191  1.00  0.00     0.210 HD
ENDBRANCH  34  35
BRANCH  34  37
HETATM   37  C12 UNL     1       2.131  36.472  26.121  1.00  0.00     0.046 C 
HETATM   38  C13 UNL     1       1.237  35.938  27.209  1.00  0.00     0.031 C 
HETATM   39  S1  UNL     1       1.843  38.289  26.062  1.00  0.00    -0.079 SA
HETATM   40  C14 UNL     1       1.298  38.343  24.360  1.00  0.00     0.191 C 
HETATM   41  O5  UNL     1       1.162  39.354  23.716  1.00  0.00    -0.285 OA
HETATM   42  C15 UNL     1       1.069  36.977  23.950  1.00  0.00     0.077 A 
HETATM   43  C16 UNL     1       0.129  36.065  24.644  1.00  0.00     0.025 A 
HETATM   44  C17 UNL     1       1.672  35.993  24.816  1.00  0.00    -0.013 A 
HETATM   45  C18 UNL     1       2.251  34.700  24.284  1.00  0.00     0.018 C 
ENDBRANCH  34  37
ENDBRANCH  33  34
ENDBRANCH  32  33
ENDBRANCH  31  32
ENDBRANCH  25  30
ENDBRANCH   1  25
TORSDOF 11
ENDMDL
MODEL 5
REMARK VINA RESULT: -7.820031695      3.267      8.076
REMARK  11 active torsions:
REMARK  status: ('A' for Active; 'I' for Inactive)
REMARK    1  A    between atoms: C2_2  and  C3_3 
REMARK    2  A    between atoms: C4_4  and  C5_5 
REMARK    3  A    between atoms: C5_5  and  C6_7 
REMARK    4  A    between atoms: C6_7  and  O2_8 
REMARK    5  A    between atoms: C6_7  and  O3_10 
REMARK    6  A    between atoms: C6_7  and  C7_12 
REMARK    7  A    between atoms: C8_13  and  C9_14 
REMARK    8  A    between atoms: C9_14  and  C10_15 
REMARK    9  A    between atoms: C10_15  and  C11_16 
REMARK   10  A    between atoms: C11_16  and  O4_17 
REMARK   11  A    between atoms: C11_16  and  C12_19 
ROOT
HETATM    1  C5  UNL     1       4.124  40.299  21.137  1.00  0.00     0.210 C 
HETATM    2  O1  UNL     1       4.052  41.314  21.838  1.00  0.00    -0.290 OA
ENDROOT
BRANCH   1   3
HETATM    3  C4  UNL     1       5.464  39.925  20.605  1.00  0.00     0.100 C 
HETATM    4  C3  UNL     1       6.456  40.004  21.733  1.00  0.00    -0.059 C 
HETATM    5  C26 UNL     1       7.760  40.263  21.101  1.00  0.00     0.078 C 
HETATM    6  C21 UNL     1       7.408  41.067  19.843  1.00  0.00     0.182 C 
HETATM    7  C25 UNL     1       8.587  39.145  20.605  1.00  0.00     0.015 C 
HETATM    8  C19 UNL     1       5.958  41.042  19.644  1.00  0.00     0.060 C 
HETATM    9  O6  UNL     1       8.146  42.204  19.909  1.00  0.00    -0.317 OA
HETATM   10  O7  UNL     1       8.190  40.687  18.745  1.00  0.00    -0.317 OA
HETATM   11  C20 UNL     1       5.644  40.623  18.230  1.00  0.00     0.016 C 
HETATM   12  C22 UNL     1       9.147  41.580  19.211  1.00  0.00     0.180 C 
HETATM   13  C23 UNL     1      10.249  40.942  19.951  1.00  0.00     0.052 C 
HETATM   14  C31 UNL     1       9.755  42.501  18.175  1.00  0.00     0.062 A 
HETATM   15  C24 UNL     1      10.033  39.605  20.560  1.00  0.00     0.011 C 
HETATM   16  C27 UNL     1      10.859  41.963  20.880  1.00  0.00    -0.009 C 
HETATM   17  C28 UNL     1      12.373  41.704  20.945  1.00  0.00     0.010 C 
HETATM   18  C29 UNL     1      10.636  43.376  20.376  1.00  0.00     0.011 C 
HETATM   19  C30 UNL     1      10.631  43.478  18.889  1.00  0.00     0.004 A 
HETATM   20  C32 UNL     1       9.491  43.927  18.095  1.00  0.00    -0.034 A 
HETATM   21  C33 UNL     1       9.851  44.566  16.742  1.00  0.00     0.016 C 
HETATM   22  C34 UNL     1       8.255  44.538  18.693  1.00  0.00     0.016 C 
BRANCH   4  23
HETATM   23  C2  UNL     1       6.340  39.101  22.843  1.00  0.00    -0.006 C 
HETATM   24  C1  UNL     1       7.149  39.042  23.874  1.00  0.00     0.011 C 
ENDBRANCH   4  23
ENDBRANCH   1   3
BRANCH   1  25
HETATM   25  C6  UNL     1       2.868  39.572  20.907  1.00  0.00     0.292 C 
BRANCH  25  26
HETATM   26  O2  UNL     1       2.124  40.251  19.910  1.00  0.00    -0.350 OA
ATOM     27  H2  UNL     1       1.251  40.423  20.243  1.00  0.00     0.214 HD
ENDBRANCH  25  26
BRANCH  25  28
HETATM   28  O3  UNL     1       3.021  38.268  20.472  1.00  0.00    -0.350 OA
ATOM     29  H3  UNL     1       2.372  37.658  20.803  1.00  0.00     0.214 HD
ENDBRANCH  25  28
BRANCH  25  30
HETATM   30  C7  UNL     1       2.048  39.641  22.143  1.00  0.00    -0.030 C 
HETATM   31  C8  UNL     1       1.397  39.713  23.149  1.00  0.00    -0.101 C 
BRANCH  31  32
HETATM   32  C9  UNL     1       0.617  39.824  24.371  1.00  0.00     0.097 C 
BRANCH  32  33
HETATM   33  C10 UNL     1       0.223  38.484  24.945  1.00  0.00     0.045 C 
BRANCH  33  34
HETATM   34  C11 UNL     1       1.110  38.171  26.109  1.00  0.00     0.138 C 
BRANCH  34  35
HETATM   35  O4  UNL     1       0.250  37.682  27.125  1.00  0.00    -0.394 OA
ATOM     36  H4  UNL     1       0.183  36.746  26.977  1.00  0.00     0.210 HD
ENDBRANCH  34  35
BRANCH  34  37
HETATM   37  C12 UNL     1       2.096  37.073  25.817  1.00  0.00     0.046 C 
HETATM   38  C13 UNL     1       2.311  36.221  27.041  1.00  0.00     0.031 C 
HETATM   39  S1  UNL     1       1.389  35.960  24.534  1.00  0.00    -0.079 SA
HETATM   40  C14 UNL     1       2.691  36.199  23.332  1.00  0.00     0.191 C 
HETATM   41  O5  UNL     1       2.634  35.844  22.180  1.00  0.00    -0.285 OA
HETATM   42  C15 UNL     1       3.769  36.878  24.013  1.00  0.00     0.077 A 
HETATM   43  C16 UNL     1       4.434  36.340  25.223  1.00  0.00     0.025 A 
HETATM   44  C17 UNL     1       3.386  37.487  25.263  1.00  0.00    -0.013 A 
HETATM   45  C18 UNL     1       3.982  38.795  25.736  1.00  0.00     0.018 C 
ENDBRANCH  34  37
ENDBRANCH  33  34
ENDBRANCH  32  33
ENDBRANCH  31  32
ENDBRANCH  25  30
ENDBRANCH   1  25
TORSDOF 11
ENDMDL
