MODEL 1
REMARK VINA RESULT: -7.997887264      0.000      0.000
REMARK  9 active torsions:
REMARK  status: ('A' for Active; 'I' for Inactive)
REMARK    1  A    between atoms: C2_2  and  C3_3 
REMARK    2  A    between atoms: C3_3  and  C4_5 
REMARK    3  A    between atoms: C15_16  and  O2_17 
REMARK    4  A    between atoms: C16_19  and  O3_20 
REMARK    5  A    between atoms: C19_23  and  C20_24 
REMARK    6  A    between atoms: C20_24  and  O5_26 
REMARK    7  A    between atoms: O5_26  and  C21_27 
REMARK    8  A    between atoms: C21_27  and  C22_28 
REMARK    9  A    between atoms: C29_37  and  O8_38 
ROOT
HETATM    1  C4  UNL     1      10.218  42.000  21.159  1.00  0.00     0.039 C 
HETATM    2  C5  UNL     1      10.245  43.314  21.861  1.00  0.00     0.028 C 
HETATM    3  C6  UNL     1      10.397  40.866  22.125  1.00  0.00    -0.006 C 
HETATM    4  C7  UNL     1       9.338  40.067  22.136  1.00  0.00    -0.074 C 
HETATM    5  C8  UNL     1       8.967  38.835  22.860  1.00  0.00     0.061 C 
HETATM    6  C9  UNL     1       7.497  38.790  23.091  1.00  0.00    -0.018 C 
HETATM    7  C10 UNL     1       6.593  39.655  22.657  1.00  0.00    -0.069 C 
HETATM    8  C11 UNL     1       5.239  39.258  23.110  1.00  0.00     0.027 C 
HETATM    9  C12 UNL     1       5.232  38.013  23.982  1.00  0.00     0.021 C 
HETATM   10  C13 UNL     1       3.840  38.092  24.497  1.00  0.00    -0.012 C 
HETATM   11  C14 UNL     1       2.878  37.860  23.411  1.00  0.00     0.046 C 
HETATM   12  C15 UNL     1       3.027  36.404  22.929  1.00  0.00     0.148 C 
HETATM   13  C16 UNL     1       2.985  35.428  24.043  1.00  0.00     0.150 C 
HETATM   14  C18 UNL     1       2.469  36.106  25.254  1.00  0.00     0.055 C 
HETATM   15  C19 UNL     1       3.395  37.283  25.634  1.00  0.00     0.059 C 
HETATM   16  C23 UNL     1       2.473  38.262  26.356  1.00  0.00     0.021 C 
HETATM   17  C24 UNL     1       2.552  39.589  25.562  1.00  0.00     0.012 C 
HETATM   18  C25 UNL     1       3.910  39.498  25.032  1.00  0.00    -0.025 C 
HETATM   19  C26 UNL     1       4.769  39.730  26.216  1.00  0.00     0.017 C 
HETATM   20  C27 UNL     1       4.428  40.284  23.883  1.00  0.00    -0.003 C 
HETATM   21  C28 UNL     1       3.309  40.913  23.063  1.00  0.00     0.019 C 
HETATM   22  C29 UNL     1       5.276  41.490  24.286  1.00  0.00     0.127 C 
HETATM   23  C30 UNL     1       5.565  42.407  23.124  1.00  0.00     0.034 C 
HETATM   24  C31 UNL     1       6.925  42.114  22.510  1.00  0.00     0.017 C 
HETATM   25  C32 UNL     1       6.965  40.816  21.778  1.00  0.00    -0.013 C 
HETATM   26  C33 UNL     1       6.044  40.820  20.541  1.00  0.00     0.021 C 
HETATM   27  C34 UNL     1       8.321  40.575  21.190  1.00  0.00     0.028 C 
HETATM   28  C35 UNL     1       8.927  41.697  20.431  1.00  0.00     0.031 C 
ENDROOT
BRANCH  15  29
HETATM   29  C20 UNL     1       4.386  36.637  26.482  1.00  0.00     0.269 C 
HETATM   30  O4  UNL     1       4.061  36.204  27.611  1.00  0.00    -0.264 OA
BRANCH  29  31
HETATM   31  O5  UNL     1       5.672  36.487  26.071  1.00  0.00    -0.310 OA
BRANCH  31  32
HETATM   32  C21 UNL     1       6.804  36.486  26.877  1.00  0.00     0.291 C 
BRANCH  32  33
HETATM   33  C22 UNL     1       7.954  35.746  26.306  1.00  0.00     0.198 C 
HETATM   34  O6  UNL     1       8.242  35.840  25.072  1.00  0.00    -0.646 OA
HETATM   35  O7  UNL     1       8.772  34.924  27.056  1.00  0.00    -0.646 OA
ENDBRANCH  32  33
ENDBRANCH  31  32
ENDBRANCH  29  31
ENDBRANCH  15  29
BRANCH  13  36
HETATM   36  O3  UNL     1       2.185  34.356  23.670  1.00  0.00    -0.388 OA
HETATM   37  C17 UNL     1       2.904  33.260  23.228  1.00  0.00     0.202 C 
ENDBRANCH  13  36
BRANCH  12  38
HETATM   38  O2  UNL     1       1.894  36.203  22.103  1.00  0.00    -0.393 OA
ATOM     39  H2  UNL     1       2.250  35.787  21.326  1.00  0.00     0.210 HD
ENDBRANCH  12  38
BRANCH  22  40
HETATM   40  O8  UNL     1       6.493  41.203  24.812  1.00  0.00    -0.395 OA
ATOM     41  H8  UNL     1       7.075  41.944  24.930  1.00  0.00     0.210 HD
ENDBRANCH  22  40
BRANCH   1  42
HETATM   42  C3  UNL     1      11.372  41.976  20.191  1.00  0.00     0.160 C 
HETATM   43  O1  UNL     1      12.524  41.772  20.702  1.00  0.00    -0.292 OA
BRANCH  42  44
HETATM   44  C2  UNL     1      11.204  42.169  18.774  1.00  0.00     0.041 C 
HETATM   45  C1  UNL     1      11.641  43.173  18.058  1.00  0.00     0.015 C 
ENDBRANCH  42  44
ENDBRANCH   1  42
TORSDOF 9
ENDMDL
MODEL 2
REMARK VINA RESULT: -7.994520895      4.108      9.768
REMARK  9 active torsions:
REMARK  status: ('A' for Active; 'I' for Inactive)
REMARK    1  A    between atoms: C2_2  and  C3_3 
REMARK    2  A    between atoms: C3_3  and  C4_5 
REMARK    3  A    between atoms: C15_16  and  O2_17 
REMARK    4  A    between atoms: C16_19  and  O3_20 
REMARK    5  A    between atoms: C19_23  and  C20_24 
REMARK    6  A    between atoms: C20_24  and  O5_26 
REMARK    7  A    between atoms: O5_26  and  C21_27 
REMARK    8  A    between atoms: C21_27  and  C22_28 
REMARK    9  A    between atoms: C29_37  and  O8_38 
ROOT
HETATM    1  C4  UNL     1      -2.898  36.897  27.993  1.00  0.00     0.039 C 
HETATM    2  C5  UNL     1      -3.498  38.117  27.386  1.00  0.00     0.028 C 
HETATM    3  C6  UNL     1      -2.107  36.122  26.981  1.00  0.00    -0.006 C 
HETATM    4  C7  UNL     1      -0.827  36.044  27.324  1.00  0.00    -0.074 C 
HETATM    5  C8  UNL     1       0.376  35.425  26.733  1.00  0.00     0.061 C 
HETATM    6  C9  UNL     1       1.586  36.230  27.054  1.00  0.00    -0.018 C 
HETATM    7  C10 UNL     1       1.649  37.305  27.825  1.00  0.00    -0.069 C 
HETATM    8  C11 UNL     1       3.039  37.819  27.882  1.00  0.00     0.027 C 
HETATM    9  C12 UNL     1       4.013  37.031  27.020  1.00  0.00     0.021 C 
HETATM   10  C13 UNL     1       5.168  37.965  27.053  1.00  0.00    -0.012 C 
HETATM   11  C14 UNL     1       5.741  38.022  28.405  1.00  0.00     0.046 C 
HETATM   12  C15 UNL     1       6.351  36.646  28.736  1.00  0.00     0.148 C 
HETATM   13  C16 UNL     1       7.260  36.155  27.674  1.00  0.00     0.150 C 
HETATM   14  C18 UNL     1       7.585  37.278  26.765  1.00  0.00     0.055 C 
HETATM   15  C19 UNL     1       6.292  37.829  26.123  1.00  0.00     0.059 C 
HETATM   16  C23 UNL     1       6.618  39.292  25.832  1.00  0.00     0.021 C 
HETATM   17  C24 UNL     1       5.562  40.126  26.598  1.00  0.00     0.012 C 
HETATM   18  C25 UNL     1       4.436  39.197  26.590  1.00  0.00    -0.025 C 
HETATM   19  C26 UNL     1       3.967  39.219  25.186  1.00  0.00     0.017 C 
HETATM   20  C27 UNL     1       3.266  39.272  27.503  1.00  0.00    -0.003 C 
HETATM   21  C28 UNL     1       3.526  40.176  28.701  1.00  0.00     0.019 C 
HETATM   22  C29 UNL     1       2.022  39.894  26.870  1.00  0.00     0.127 C 
HETATM   23  C30 UNL     1       0.947  40.195  27.884  1.00  0.00     0.034 C 
HETATM   24  C31 UNL     1      -0.086  39.079  27.945  1.00  0.00     0.017 C 
HETATM   25  C32 UNL     1       0.445  37.828  28.556  1.00  0.00    -0.013 C 
HETATM   26  C33 UNL     1       0.808  38.017  30.043  1.00  0.00     0.021 C 
HETATM   27  C34 UNL     1      -0.608  36.764  28.596  1.00  0.00     0.028 C 
HETATM   28  C35 UNL     1      -1.934  37.160  29.129  1.00  0.00     0.031 C 
ENDROOT
BRANCH  15  29
HETATM   29  C20 UNL     1       6.147  36.988  24.946  1.00  0.00     0.269 C 
HETATM   30  O4  UNL     1       7.036  36.980  24.065  1.00  0.00    -0.264 OA
BRANCH  29  31
HETATM   31  O5  UNL     1       5.056  36.195  24.778  1.00  0.00    -0.310 OA
BRANCH  31  32
HETATM   32  C21 UNL     1       4.293  36.070  23.624  1.00  0.00     0.291 C 
BRANCH  32  33
HETATM   33  C22 UNL     1       3.478  34.834  23.567  1.00  0.00     0.198 C 
HETATM   34  O6  UNL     1       2.260  34.839  23.926  1.00  0.00    -0.646 OA
HETATM   35  O7  UNL     1       3.973  33.621  23.130  1.00  0.00    -0.646 OA
ENDBRANCH  32  33
ENDBRANCH  31  32
ENDBRANCH  29  31
ENDBRANCH  15  29
BRANCH  13  36
HETATM   36  O3  UNL     1       8.397  35.623  28.267  1.00  0.00    -0.388 OA
HETATM   37  C17 UNL     1       9.017  34.655  27.497  1.00  0.00     0.202 C 
ENDBRANCH  13  36
BRANCH  12  38
HETATM   38  O2  UNL     1       7.107  36.885  29.910  1.00  0.00    -0.393 OA
ATOM     39  H2  UNL     1       7.757  37.522  29.635  1.00  0.00     0.210 HD
ENDBRANCH  12  38
BRANCH  22  40
HETATM   40  O8  UNL     1       1.406  39.143  25.924  1.00  0.00    -0.395 OA
ATOM     41  H8  UNL     1       0.481  39.317  25.799  1.00  0.00     0.210 HD
ENDBRANCH  22  40
BRANCH   1  42
HETATM   42  C3  UNL     1      -4.028  36.022  28.470  1.00  0.00     0.160 C 
HETATM   43  O1  UNL     1      -4.543  35.248  27.594  1.00  0.00    -0.292 OA
BRANCH  42  44
HETATM   44  C2  UNL     1      -4.510  36.044  29.827  1.00  0.00     0.041 C 
HETATM   45  C1  UNL     1      -5.401  35.246  30.361  1.00  0.00     0.015 C 
ENDBRANCH  42  44
ENDBRANCH   1  42
TORSDOF 9
ENDMDL
MODEL 3
REMARK VINA RESULT: -7.969873070      4.005      9.420
REMARK  9 active torsions:
REMARK  status: ('A' for Active; 'I' for Inactive)
REMARK    1  A    between atoms: C2_2  and  C3_3 
REMARK    2  A    between atoms: C3_3  and  C4_5 
REMARK    3  A    between atoms: C15_16  and  O2_17 
REMARK    4  A    between atoms: C16_19  and  O3_20 
REMARK    5  A    between atoms: C19_23  and  C20_24 
REMARK    6  A    between atoms: C20_24  and  O5_26 
REMARK    7  A    between atoms: O5_26  and  C21_27 
REMARK    8  A    between atoms: C21_27  and  C22_28 
REMARK    9  A    between atoms: C29_37  and  O8_38 
ROOT
HETATM    1  C4  UNL     1      -2.688  35.863  26.678  1.00  0.00     0.039 C 
HETATM    2  C5  UNL     1      -2.966  35.229  25.359  1.00  0.00     0.028 C 
HETATM    3  C6  UNL     1      -1.607  35.128  27.414  1.00  0.00    -0.006 C 
HETATM    4  C7  UNL     1      -0.554  35.906  27.630  1.00  0.00    -0.074 C 
HETATM    5  C8  UNL     1       0.757  35.730  28.287  1.00  0.00     0.061 C 
HETATM    6  C9  UNL     1       1.790  36.568  27.619  1.00  0.00    -0.018 C 
HETATM    7  C10 UNL     1       1.603  37.431  26.633  1.00  0.00    -0.069 C 
HETATM    8  C11 UNL     1       2.890  38.056  26.243  1.00  0.00     0.027 C 
HETATM    9  C12 UNL     1       4.083  37.526  27.022  1.00  0.00     0.021 C 
HETATM   10  C13 UNL     1       5.178  38.094  26.194  1.00  0.00    -0.012 C 
HETATM   11  C14 UNL     1       5.205  39.558  26.315  1.00  0.00     0.046 C 
HETATM   12  C15 UNL     1       5.588  39.922  27.762  1.00  0.00     0.148 C 
HETATM   13  C16 UNL     1       6.809  39.219  28.222  1.00  0.00     0.150 C 
HETATM   14  C18 UNL     1       7.497  38.636  27.048  1.00  0.00     0.055 C 
HETATM   15  C19 UNL     1       6.562  37.634  26.332  1.00  0.00     0.059 C 
HETATM   16  C23 UNL     1       7.033  37.661  24.881  1.00  0.00     0.021 C 
HETATM   17  C24 UNL     1       5.802  38.078  24.039  1.00  0.00     0.012 C 
HETATM   18  C25 UNL     1       4.724  37.545  24.867  1.00  0.00    -0.025 C 
HETATM   19  C26 UNL     1       4.818  36.081  24.672  1.00  0.00     0.017 C 
HETATM   20  C27 UNL     1       3.302  37.965  24.784  1.00  0.00    -0.003 C 
HETATM   21  C28 UNL     1       3.130  39.274  24.024  1.00  0.00     0.019 C 
HETATM   22  C29 UNL     1       2.412  36.998  24.003  1.00  0.00     0.127 C 
HETATM   23  C30 UNL     1       1.049  37.573  23.714  1.00  0.00     0.034 C 
HETATM   24  C31 UNL     1       0.024  37.116  24.741  1.00  0.00     0.017 C 
HETATM   25  C32 UNL     1       0.235  37.724  26.084  1.00  0.00    -0.013 C 
HETATM   26  C33 UNL     1       0.021  39.252  26.070  1.00  0.00     0.021 C 
HETATM   27  C34 UNL     1      -0.798  37.246  27.056  1.00  0.00     0.028 C 
HETATM   28  C35 UNL     1      -2.211  37.296  26.605  1.00  0.00     0.031 C 
ENDROOT
BRANCH  15  29
HETATM   29  C20 UNL     1       6.835  36.394  27.042  1.00  0.00     0.269 C 
HETATM   30  O4  UNL     1       6.102  36.039  27.993  1.00  0.00    -0.264 OA
BRANCH  29  31
HETATM   31  O5  UNL     1       7.879  35.598  26.691  1.00  0.00    -0.310 OA
BRANCH  31  32
HETATM   32  C21 UNL     1       8.751  34.947  27.555  1.00  0.00     0.291 C 
BRANCH  32  33
HETATM   33  C22 UNL     1       9.591  33.914  26.904  1.00  0.00     0.198 C 
HETATM   34  O6  UNL     1      10.163  33.012  27.591  1.00  0.00    -0.646 OA
HETATM   35  O7  UNL     1       9.803  33.861  25.540  1.00  0.00    -0.646 OA
ENDBRANCH  32  33
ENDBRANCH  31  32
ENDBRANCH  29  31
ENDBRANCH  15  29
BRANCH  13  36
HETATM   36  O3  UNL     1       7.618  40.120  28.901  1.00  0.00    -0.388 OA
HETATM   37  C17 UNL     1       7.987  39.687  30.161  1.00  0.00     0.202 C 
ENDBRANCH  13  36
BRANCH  12  38
HETATM   38  O2  UNL     1       5.859  41.312  27.700  1.00  0.00    -0.393 OA
ATOM     39  H2  UNL     1       6.704  41.397  28.125  1.00  0.00     0.210 HD
ENDBRANCH  12  38
BRANCH  22  40
HETATM   40  O8  UNL     1       2.166  35.809  24.607  1.00  0.00    -0.395 OA
ATOM     41  H8  UNL     1       2.877  35.180  24.581  1.00  0.00     0.210 HD
ENDBRANCH  22  40
BRANCH   1  42
HETATM   42  C3  UNL     1      -3.949  35.782  27.498  1.00  0.00     0.160 C 
HETATM   43  O1  UNL     1      -4.882  35.054  27.017  1.00  0.00    -0.292 OA
BRANCH  42  44
HETATM   44  C2  UNL     1      -4.110  36.475  28.750  1.00  0.00     0.041 C 
HETATM   45  C1  UNL     1      -4.508  35.966  29.888  1.00  0.00     0.015 C 
ENDBRANCH  42  44
ENDBRANCH   1  42
TORSDOF 9
ENDMDL
MODEL 4
REMARK VINA RESULT: -7.494130146      2.111      3.473
REMARK  9 active torsions:
REMARK  status: ('A' for Active; 'I' for Inactive)
REMARK    1  A    between atoms: C2_2  and  C3_3 
REMARK    2  A    between atoms: C3_3  and  C4_5 
REMARK    3  A    between atoms: C15_16  and  O2_17 
REMARK    4  A    between atoms: C16_19  and  O3_20 
REMARK    5  A    between atoms: C19_23  and  C20_24 
REMARK    6  A    between atoms: C20_24  and  O5_26 
REMARK    7  A    between atoms: O5_26  and  C21_27 
REMARK    8  A    between atoms: C21_27  and  C22_28 
REMARK    9  A    between atoms: C29_37  and  O8_38 
ROOT
HETATM    1  C4  UNL     1       9.790  42.788  18.827  1.00  0.00     0.039 C 
HETATM    2  C5  UNL     1       8.778  43.647  18.151  1.00  0.00     0.028 C 
HETATM    3  C6  UNL     1       9.923  43.147  20.278  1.00  0.00    -0.006 C 
HETATM    4  C7  UNL     1       9.593  42.127  21.060  1.00  0.00    -0.074 C 
HETATM    5  C8  UNL     1       9.538  41.906  22.519  1.00  0.00     0.061 C 
HETATM    6  C9  UNL     1       8.443  40.956  22.860  1.00  0.00    -0.018 C 
HETATM    7  C10 UNL     1       7.658  40.305  22.016  1.00  0.00    -0.069 C 
HETATM    8  C11 UNL     1       6.688  39.464  22.756  1.00  0.00     0.027 C 
HETATM    9  C12 UNL     1       6.801  39.595  24.267  1.00  0.00     0.021 C 
HETATM   10  C13 UNL     1       5.540  38.913  24.659  1.00  0.00    -0.012 C 
HETATM   11  C14 UNL     1       5.614  37.480  24.346  1.00  0.00     0.046 C 
HETATM   12  C15 UNL     1       6.691  36.838  25.242  1.00  0.00     0.148 C 
HETATM   13  C16 UNL     1       6.514  37.174  26.675  1.00  0.00     0.150 C 
HETATM   14  C18 UNL     1       5.161  37.743  26.869  1.00  0.00     0.055 C 
HETATM   15  C19 UNL     1       4.999  39.022  26.016  1.00  0.00     0.059 C 
HETATM   16  C23 UNL     1       3.500  39.092  25.736  1.00  0.00     0.021 C 
HETATM   17  C24 UNL     1       3.352  39.088  24.195  1.00  0.00     0.012 C 
HETATM   18  C25 UNL     1       4.604  39.731  23.808  1.00  0.00    -0.025 C 
HETATM   19  C26 UNL     1       4.407  41.148  24.188  1.00  0.00     0.017 C 
HETATM   20  C27 UNL     1       5.212  39.663  22.454  1.00  0.00    -0.003 C 
HETATM   21  C28 UNL     1       4.613  38.546  21.609  1.00  0.00     0.019 C 
HETATM   22  C29 UNL     1       4.971  40.906  21.600  1.00  0.00     0.127 C 
HETATM   23  C30 UNL     1       5.368  40.703  20.159  1.00  0.00     0.034 C 
HETATM   24  C31 UNL     1       6.768  41.234  19.889  1.00  0.00     0.017 C 
HETATM   25  C32 UNL     1       7.835  40.412  20.527  1.00  0.00    -0.013 C 
HETATM   26  C33 UNL     1       7.905  38.990  19.931  1.00  0.00     0.021 C 
HETATM   27  C34 UNL     1       9.191  40.971  20.230  1.00  0.00     0.028 C 
HETATM   28  C35 UNL     1       9.477  41.308  18.814  1.00  0.00     0.031 C 
ENDROOT
BRANCH  15  29
HETATM   29  C20 UNL     1       5.504  40.055  26.906  1.00  0.00     0.269 C 
HETATM   30  O4  UNL     1       4.786  41.037  27.202  1.00  0.00    -0.264 OA
BRANCH  29  31
HETATM   31  O5  UNL     1       6.753  39.978  27.434  1.00  0.00    -0.310 OA
BRANCH  31  32
HETATM   32  C21 UNL     1       7.147  40.409  28.695  1.00  0.00     0.291 C 
BRANCH  32  33
HETATM   33  C22 UNL     1       7.194  39.335  29.716  1.00  0.00     0.198 C 
HETATM   34  O6  UNL     1       8.253  39.114  30.381  1.00  0.00    -0.646 OA
HETATM   35  O7  UNL     1       6.116  38.522  30.008  1.00  0.00    -0.646 OA
ENDBRANCH  32  33
ENDBRANCH  31  32
ENDBRANCH  29  31
ENDBRANCH  15  29
BRANCH  13  36
HETATM   36  O3  UNL     1       6.706  36.026  27.431  1.00  0.00    -0.388 OA
HETATM   37  C17 UNL     1       7.891  36.030  28.145  1.00  0.00     0.202 C 
ENDBRANCH  13  36
BRANCH  12  38
HETATM   38  O2  UNL     1       6.488  35.447  25.071  1.00  0.00    -0.393 OA
ATOM     39  H2  UNL     1       6.367  35.125  25.956  1.00  0.00     0.210 HD
ENDBRANCH  12  38
BRANCH  22  40
HETATM   40  O8  UNL     1       5.634  42.024  21.988  1.00  0.00    -0.395 OA
ATOM     41  H8  UNL     1       5.550  42.773  21.411  1.00  0.00     0.210 HD
ENDBRANCH  22  40
BRANCH   1  42
HETATM   42  C3  UNL     1      11.118  43.039  18.161  1.00  0.00     0.160 C 
HETATM   43  O1  UNL     1      12.114  42.403  18.647  1.00  0.00    -0.292 OA
BRANCH  42  44
HETATM   44  C2  UNL     1      11.273  43.935  17.045  1.00  0.00     0.041 C 
HETATM   45  C1  UNL     1      12.389  44.261  16.444  1.00  0.00     0.015 C 
ENDBRANCH  42  44
ENDBRANCH   1  42
TORSDOF 9
ENDMDL
MODEL 5
REMARK VINA RESULT: -7.421195974      3.473      9.445
REMARK  9 active torsions:
REMARK  status: ('A' for Active; 'I' for Inactive)
REMARK    1  A    between atoms: C2_2  and  C3_3 
REMARK    2  A    between atoms: C3_3  and  C4_5 
REMARK    3  A    between atoms: C15_16  and  O2_17 
REMARK    4  A    between atoms: C16_19  and  O3_20 
REMARK    5  A    between atoms: C19_23  and  C20_24 
REMARK    6  A    between atoms: C20_24  and  O5_26 
REMARK    7  A    between atoms: O5_26  and  C21_27 
REMARK    8  A    between atoms: C21_27  and  C22_28 
REMARK    9  A    between atoms: C29_37  and  O8_38 
ROOT
HETATM    1  C4  UNL     1      -3.008  36.344  26.710  1.00  0.00     0.039 C 
HETATM    2  C5  UNL     1      -3.695  37.665  26.658  1.00  0.00     0.028 C 
HETATM    3  C6  UNL     1      -2.126  36.145  25.513  1.00  0.00    -0.006 C 
HETATM    4  C7  UNL     1      -0.854  36.010  25.866  1.00  0.00    -0.074 C 
HETATM    5  C8  UNL     1       0.414  35.793  25.140  1.00  0.00     0.061 C 
HETATM    6  C9  UNL     1       1.541  36.455  25.853  1.00  0.00    -0.018 C 
HETATM    7  C10 UNL     1       1.490  37.085  27.016  1.00  0.00    -0.069 C 
HETATM    8  C11 UNL     1       2.828  37.613  27.376  1.00  0.00     0.027 C 
HETATM    9  C12 UNL     1       3.889  37.349  26.319  1.00  0.00     0.021 C 
HETATM   10  C13 UNL     1       4.958  38.249  26.826  1.00  0.00    -0.012 C 
HETATM   11  C14 UNL     1       5.488  37.746  28.100  1.00  0.00     0.046 C 
HETATM   12  C15 UNL     1       6.205  36.408  27.838  1.00  0.00     0.148 C 
HETATM   13  C16 UNL     1       7.181  36.493  26.726  1.00  0.00     0.150 C 
HETATM   14  C18 UNL     1       7.432  37.919  26.417  1.00  0.00     0.055 C 
HETATM   15  C19 UNL     1       6.113  38.609  26.000  1.00  0.00     0.059 C 
HETATM   16  C23 UNL     1       6.319  40.069  26.393  1.00  0.00     0.021 C 
HETATM   17  C24 UNL     1       5.175  40.412  27.379  1.00  0.00     0.012 C 
HETATM   18  C25 UNL     1       4.134  39.508  26.900  1.00  0.00    -0.025 C 
HETATM   19  C26 UNL     1       3.703  40.111  25.618  1.00  0.00     0.017 C 
HETATM   20  C27 UNL     1       2.938  39.098  27.680  1.00  0.00    -0.003 C 
HETATM   21  C28 UNL     1       3.088  39.401  29.166  1.00  0.00     0.019 C 
HETATM   22  C29 UNL     1       1.662  39.850  27.305  1.00  0.00     0.127 C 
HETATM   23  C30 UNL     1       0.539  39.604  28.281  1.00  0.00     0.034 C 
HETATM   24  C31 UNL     1      -0.395  38.509  27.788  1.00  0.00     0.017 C 
HETATM   25  C32 UNL     1       0.226  37.155  27.826  1.00  0.00    -0.013 C 
HETATM   26  C33 UNL     1       0.532  36.697  29.267  1.00  0.00     0.021 C 
HETATM   27  C34 UNL     1      -0.731  36.113  27.336  1.00  0.00     0.028 C 
HETATM   28  C35 UNL     1      -2.101  36.147  27.904  1.00  0.00     0.031 C 
ENDROOT
BRANCH  15  29
HETATM   29  C20 UNL     1       6.072  38.360  24.568  1.00  0.00     0.269 C 
HETATM   30  O4  UNL     1       6.010  37.187  24.134  1.00  0.00    -0.264 OA
BRANCH  29  31
HETATM   31  O5  UNL     1       6.098  39.384  23.675  1.00  0.00    -0.310 OA
BRANCH  31  32
HETATM   32  C21 UNL     1       6.737  39.392  22.441  1.00  0.00     0.291 C 
BRANCH  32  33
HETATM   33  C22 UNL     1       8.210  39.249  22.521  1.00  0.00     0.198 C 
HETATM   34  O6  UNL     1       8.774  38.146  22.241  1.00  0.00    -0.646 OA
HETATM   35  O7  UNL     1       9.051  40.279  22.894  1.00  0.00    -0.646 OA
ENDBRANCH  32  33
ENDBRANCH  31  32
ENDBRANCH  29  31
ENDBRANCH  15  29
BRANCH  13  36
HETATM   36  O3  UNL     1       8.344  35.832  27.098  1.00  0.00    -0.388 OA
HETATM   37  C17 UNL     1       8.779  34.913  26.159  1.00  0.00     0.202 C 
ENDBRANCH  13  36
BRANCH  12  38
HETATM   38  O2  UNL     1       6.907  36.158  29.043  1.00  0.00    -0.393 OA
ATOM     39  H2  UNL     1       6.232  35.858  29.641  1.00  0.00     0.210 HD
ENDBRANCH  12  38
BRANCH  22  40
HETATM   40  O8  UNL     1       1.139  39.549  26.091  1.00  0.00    -0.395 OA
ATOM     41  H8  UNL     1       0.246  39.839  25.945  1.00  0.00     0.210 HD
ENDBRANCH  22  40
BRANCH   1  42
HETATM   42  C3  UNL     1      -4.070  35.276  26.689  1.00  0.00     0.160 C 
HETATM   43  O1  UNL     1      -4.748  35.143  27.763  1.00  0.00    -0.292 OA
BRANCH  42  44
HETATM   44  C2  UNL     1      -4.319  34.447  25.539  1.00  0.00     0.041 C 
HETATM   45  C1  UNL     1      -4.211  33.145  25.466  1.00  0.00     0.015 C 
ENDBRANCH  42  44
ENDBRANCH   1  42
TORSDOF 9
ENDMDL
