MODEL 1
REMARK VINA RESULT: -7.026102541      0.000      0.000
REMARK  10 active torsions:
REMARK  status: ('A' for Active; 'I' for Inactive)
REMARK    1  A    between atoms: C2_2  and  C3_4 
REMARK    2  A    between atoms: C3_4  and  C4_5 
REMARK    3  A    between atoms: C7_8  and  C8_9 
REMARK    4  A    between atoms: C8_9  and  C9_11 
REMARK    5  A    between atoms: C13_15  and  O3_16 
REMARK    6  A    between atoms: O3_16  and  C14_17 
REMARK    7  A    between atoms: C14_17  and  C15_19 
REMARK    8  A    between atoms: C22_26  and  O5_27 
REMARK    9  A    between atoms: C30_36  and  O6_37 
REMARK   10  A    between atoms: C32_40  and  C33_41 
ROOT
HETATM    1  C3  UNL     1       2.335  37.659  27.200  1.00  0.00     0.058 C 
HETATM    2  C12 UNL     1       3.414  36.560  27.381  1.00  0.00     0.053 C 
HETATM    3  C13 UNL     1       4.644  36.792  26.571  1.00  0.00     0.138 C 
HETATM    4  C19 UNL     1       4.358  36.418  25.166  1.00  0.00     0.020 C 
HETATM    5  C20 UNL     1       3.037  35.782  24.892  1.00  0.00     0.010 C 
HETATM    6  C21 UNL     1       1.836  36.590  25.099  1.00  0.00     0.039 C 
HETATM    7  C22 UNL     1       2.005  37.901  25.836  1.00  0.00     0.073 C 
HETATM    8  C23 UNL     1       2.637  38.853  24.923  1.00  0.00     0.045 C 
HETATM    9  C24 UNL     1       3.955  38.762  24.336  1.00  0.00     0.006 C 
HETATM   10  C25 UNL     1       4.588  37.463  24.131  1.00  0.00     0.001 C 
HETATM   11  C26 UNL     1       6.113  37.717  24.110  1.00  0.00     0.033 C 
HETATM   12  C27 UNL     1       6.375  38.802  23.094  1.00  0.00    -0.023 C 
HETATM   13  C28 UNL     1       5.472  39.594  22.638  1.00  0.00    -0.072 C 
HETATM   14  C29 UNL     1       5.792  40.652  21.627  1.00  0.00     0.066 C 
HETATM   15  C30 UNL     1       4.880  40.316  20.459  1.00  0.00     0.123 C 
HETATM   16  C31 UNL     1       4.130  39.027  20.662  1.00  0.00     0.048 C 
HETATM   17  C32 UNL     1       3.229  39.053  21.906  1.00  0.00     0.102 C 
HETATM   18  C34 UNL     1       3.999  39.572  23.025  1.00  0.00    -0.003 C 
HETATM   19  C35 UNL     1       3.650  41.005  23.389  1.00  0.00     0.021 C 
ENDROOT
BRANCH   1  20
HETATM   20  C2  UNL     1       1.170  37.005  27.892  1.00  0.00     0.135 C 
HETATM   21  C1  UNL     1       1.213  35.582  28.343  1.00  0.00     0.091 C 
HETATM   22  O1  UNL     1       0.163  37.609  28.108  1.00  0.00    -0.297 OA
ENDBRANCH   1  20
BRANCH   1  23
HETATM   23  C4  UNL     1       2.715  38.714  28.180  1.00  0.00     0.021 A 
HETATM   24  C5  UNL     1       2.520  38.777  29.612  1.00  0.00    -0.001 A 
HETATM   25  C6  UNL     1       2.043  40.018  30.331  1.00  0.00     0.011 C 
HETATM   26  C7  UNL     1       3.930  38.784  28.979  1.00  0.00     0.065 A 
BRANCH  26  27
HETATM   27  C8  UNL     1       4.680  40.026  29.203  1.00  0.00     0.136 C 
HETATM   28  O2  UNL     1       5.213  40.197  30.292  1.00  0.00    -0.297 OA
BRANCH  27  29
HETATM   29  C9  UNL     1       4.874  41.128  28.228  1.00  0.00     0.056 A 
HETATM   30  C10 UNL     1       6.248  41.603  27.933  1.00  0.00     0.013 A 
HETATM   31  C11 UNL     1       5.595  40.675  26.970  1.00  0.00     0.013 A 
ENDBRANCH  27  29
ENDBRANCH  26  27
ENDBRANCH   1  23
BRANCH   7  32
HETATM   32  O5  UNL     1       0.660  38.424  25.811  1.00  0.00    -0.389 OA
ATOM     33  H5  UNL     1       0.480  38.692  24.917  1.00  0.00     0.210 HD
ENDBRANCH   7  32
BRANCH   3  34
HETATM   34  O3  UNL     1       5.734  36.028  27.115  1.00  0.00    -0.312 OA
BRANCH  34  35
HETATM   35  C14 UNL     1       7.042  36.370  27.118  1.00  0.00     0.283 C 
HETATM   36  O4  UNL     1       7.860  35.625  26.558  1.00  0.00    -0.260 OA
BRANCH  35  37
HETATM   37  C15 UNL     1       7.458  37.603  27.776  1.00  0.00     0.084 C 
HETATM   38  C16 UNL     1       7.840  37.702  29.028  1.00  0.00    -0.082 C 
HETATM   39  C17 UNL     1       8.252  39.017  29.624  1.00  0.00     0.043 C 
HETATM   40  C18 UNL     1       7.878  36.525  29.894  1.00  0.00     0.043 C 
ENDBRANCH  35  37
ENDBRANCH  34  35
ENDBRANCH   3  34
BRANCH  17  41
HETATM   41  C33 UNL     1       1.973  39.695  21.499  1.00  0.00     0.178 C 
HETATM   42  O7  UNL     1       1.763  40.403  20.496  1.00  0.00    -0.648 OA
HETATM   43  O8  UNL     1       0.797  39.543  22.286  1.00  0.00    -0.648 OA
ENDBRANCH  17  41
BRANCH  15  44
HETATM   44  O6  UNL     1       5.724  40.101  19.360  1.00  0.00    -0.395 OA
ATOM     45  H6  UNL     1       5.471  39.260  18.996  1.00  0.00     0.210 HD
ENDBRANCH  15  44
TORSDOF 10
ENDMDL
MODEL 2
REMARK VINA RESULT: -6.939654044      1.327      1.729
REMARK  10 active torsions:
REMARK  status: ('A' for Active; 'I' for Inactive)
REMARK    1  A    between atoms: C2_2  and  C3_4 
REMARK    2  A    between atoms: C3_4  and  C4_5 
REMARK    3  A    between atoms: C7_8  and  C8_9 
REMARK    4  A    between atoms: C8_9  and  C9_11 
REMARK    5  A    between atoms: C13_15  and  O3_16 
REMARK    6  A    between atoms: O3_16  and  C14_17 
REMARK    7  A    between atoms: C14_17  and  C15_19 
REMARK    8  A    between atoms: C22_26  and  O5_27 
REMARK    9  A    between atoms: C30_36  and  O6_37 
REMARK   10  A    between atoms: C32_40  and  C33_41 
ROOT
HETATM    1  C3  UNL     1       2.986  37.773  26.793  1.00  0.00     0.058 C 
HETATM    2  C12 UNL     1       4.007  36.621  26.977  1.00  0.00     0.053 C 
HETATM    3  C13 UNL     1       5.321  36.877  26.322  1.00  0.00     0.138 C 
HETATM    4  C19 UNL     1       5.173  36.646  24.866  1.00  0.00     0.020 C 
HETATM    5  C20 UNL     1       3.871  36.090  24.399  1.00  0.00     0.010 C 
HETATM    6  C21 UNL     1       2.679  36.922  24.560  1.00  0.00     0.039 C 
HETATM    7  C22 UNL     1       2.808  38.153  25.432  1.00  0.00     0.073 C 
HETATM    8  C23 UNL     1       3.560  39.159  24.684  1.00  0.00     0.045 C 
HETATM    9  C24 UNL     1       4.929  39.071  24.228  1.00  0.00     0.006 C 
HETATM   10  C25 UNL     1       5.542  37.773  23.964  1.00  0.00     0.001 C 
HETATM   11  C26 UNL     1       7.067  37.967  24.124  1.00  0.00     0.033 C 
HETATM   12  C27 UNL     1       7.466  39.131  23.247  1.00  0.00    -0.023 C 
HETATM   13  C28 UNL     1       6.640  39.995  22.780  1.00  0.00    -0.072 C 
HETATM   14  C29 UNL     1       7.095  41.129  21.913  1.00  0.00     0.066 C 
HETATM   15  C30 UNL     1       6.301  40.938  20.631  1.00  0.00     0.123 C 
HETATM   16  C31 UNL     1       5.497  39.666  20.633  1.00  0.00     0.048 C 
HETATM   17  C32 UNL     1       4.471  39.613  21.776  1.00  0.00     0.102 C 
HETATM   18  C34 UNL     1       5.135  39.996  23.011  1.00  0.00    -0.003 C 
HETATM   19  C35 UNL     1       4.792  41.402  23.474  1.00  0.00     0.021 C 
ENDROOT
BRANCH   1  20
HETATM   20  C2  UNL     1       1.735  37.104  27.297  1.00  0.00     0.135 C 
HETATM   21  C1  UNL     1       1.691  35.647  27.618  1.00  0.00     0.091 C 
HETATM   22  O1  UNL     1       0.728  37.724  27.462  1.00  0.00    -0.297 OA
ENDBRANCH   1  20
BRANCH   1  23
HETATM   23  C4  UNL     1       3.291  38.718  27.903  1.00  0.00     0.021 A 
HETATM   24  C5  UNL     1       2.953  38.653  29.308  1.00  0.00    -0.001 A 
HETATM   25  C6  UNL     1       2.439  39.838  30.093  1.00  0.00     0.011 C 
HETATM   26  C7  UNL     1       4.421  38.668  28.821  1.00  0.00     0.065 A 
BRANCH  26  27
HETATM   27  C8  UNL     1       5.177  39.856  29.237  1.00  0.00     0.136 C 
HETATM   28  O2  UNL     1       5.708  39.853  30.340  1.00  0.00    -0.297 OA
BRANCH  27  29
HETATM   29  C9  UNL     1       5.378  41.096  28.446  1.00  0.00     0.056 A 
HETATM   30  C10 UNL     1       6.741  41.668  28.329  1.00  0.00     0.013 A 
HETATM   31  C11 UNL     1       6.209  40.863  27.197  1.00  0.00     0.013 A 
ENDBRANCH  27  29
ENDBRANCH  26  27
ENDBRANCH   1  23
BRANCH   7  32
HETATM   32  O5  UNL     1       1.489  38.728  25.321  1.00  0.00    -0.389 OA
ATOM     33  H5  UNL     1       1.390  39.030  24.425  1.00  0.00     0.210 HD
ENDBRANCH   7  32
BRANCH   3  34
HETATM   34  O3  UNL     1       6.325  36.024  26.898  1.00  0.00    -0.312 OA
BRANCH  34  35
HETATM   35  C14 UNL     1       7.397  36.410  27.627  1.00  0.00     0.283 C 
HETATM   36  O4  UNL     1       7.631  37.621  27.756  1.00  0.00    -0.260 OA
BRANCH  35  37
HETATM   37  C15 UNL     1       8.246  35.398  28.243  1.00  0.00     0.084 C 
HETATM   38  C16 UNL     1       9.040  34.578  27.594  1.00  0.00    -0.082 C 
HETATM   39  C17 UNL     1       9.881  33.563  28.313  1.00  0.00     0.043 C 
HETATM   40  C18 UNL     1       9.134  34.625  26.136  1.00  0.00     0.043 C 
ENDBRANCH  35  37
ENDBRANCH  34  35
ENDBRANCH   3  34
BRANCH  17  41
HETATM   41  C33 UNL     1       3.285  40.338  21.306  1.00  0.00     0.178 C 
HETATM   42  O7  UNL     1       2.351  40.804  21.986  1.00  0.00    -0.648 OA
HETATM   43  O8  UNL     1       3.094  40.587  19.917  1.00  0.00    -0.648 OA
ENDBRANCH  17  41
BRANCH  15  44
HETATM   44  O6  UNL     1       7.250  40.792  19.608  1.00  0.00    -0.395 OA
ATOM     45  H6  UNL     1       6.757  40.772  18.796  1.00  0.00     0.210 HD
ENDBRANCH  15  44
TORSDOF 10
ENDMDL
MODEL 3
REMARK VINA RESULT: -6.874009859      1.033      1.238
REMARK  10 active torsions:
REMARK  status: ('A' for Active; 'I' for Inactive)
REMARK    1  A    between atoms: C2_2  and  C3_4 
REMARK    2  A    between atoms: C3_4  and  C4_5 
REMARK    3  A    between atoms: C7_8  and  C8_9 
REMARK    4  A    between atoms: C8_9  and  C9_11 
REMARK    5  A    between atoms: C13_15  and  O3_16 
REMARK    6  A    between atoms: O3_16  and  C14_17 
REMARK    7  A    between atoms: C14_17  and  C15_19 
REMARK    8  A    between atoms: C22_26  and  O5_27 
REMARK    9  A    between atoms: C30_36  and  O6_37 
REMARK   10  A    between atoms: C32_40  and  C33_41 
ROOT
HETATM    1  C3  UNL     1       2.734  37.570  26.325  1.00  0.00     0.058 C 
HETATM    2  C12 UNL     1       3.799  36.483  26.618  1.00  0.00     0.053 C 
HETATM    3  C13 UNL     1       5.161  36.834  26.124  1.00  0.00     0.138 C 
HETATM    4  C19 UNL     1       5.200  36.616  24.658  1.00  0.00     0.020 C 
HETATM    5  C20 UNL     1       3.999  35.985  24.038  1.00  0.00     0.010 C 
HETATM    6  C21 UNL     1       2.745  36.737  24.065  1.00  0.00     0.039 C 
HETATM    7  C22 UNL     1       2.691  37.959  24.956  1.00  0.00     0.073 C 
HETATM    8  C23 UNL     1       3.458  39.023  24.308  1.00  0.00     0.045 C 
HETATM    9  C24 UNL     1       4.874  39.029  24.015  1.00  0.00     0.006 C 
HETATM   10  C25 UNL     1       5.596  37.778  23.815  1.00  0.00     0.001 C 
HETATM   11  C26 UNL     1       7.076  38.066  24.153  1.00  0.00     0.033 C 
HETATM   12  C27 UNL     1       7.498  39.266  23.339  1.00  0.00    -0.023 C 
HETATM   13  C28 UNL     1       6.677  40.084  22.785  1.00  0.00    -0.072 C 
HETATM   14  C29 UNL     1       7.155  41.257  21.986  1.00  0.00     0.066 C 
HETATM   15  C30 UNL     1       6.529  41.036  20.619  1.00  0.00     0.123 C 
HETATM   16  C31 UNL     1       5.815  39.716  20.516  1.00  0.00     0.048 C 
HETATM   17  C32 UNL     1       4.670  39.579  21.531  1.00  0.00     0.102 C 
HETATM   18  C34 UNL     1       5.159  39.985  22.838  1.00  0.00    -0.003 C 
HETATM   19  C35 UNL     1       4.673  41.358  23.269  1.00  0.00     0.021 C 
ENDROOT
BRANCH   1  20
HETATM   20  C2  UNL     1       1.480  36.815  26.674  1.00  0.00     0.135 C 
HETATM   21  C1  UNL     1       1.506  35.376  27.070  1.00  0.00     0.091 C 
HETATM   22  O1  UNL     1       0.412  37.349  26.648  1.00  0.00    -0.297 OA
ENDBRANCH   1  20
BRANCH   1  23
HETATM   23  C4  UNL     1       2.846  38.516  27.471  1.00  0.00     0.021 A 
HETATM   24  C5  UNL     1       2.387  38.391  28.837  1.00  0.00    -0.001 A 
HETATM   25  C6  UNL     1       1.694  39.506  29.585  1.00  0.00     0.011 C 
HETATM   26  C7  UNL     1       3.886  38.551  28.490  1.00  0.00     0.065 A 
BRANCH  26  27
HETATM   27  C8  UNL     1       4.485  39.794  28.990  1.00  0.00     0.136 C 
HETATM   28  O2  UNL     1       4.815  39.851  30.167  1.00  0.00    -0.297 OA
BRANCH  27  29
HETATM   29  C9  UNL     1       4.747  41.026  28.204  1.00  0.00     0.056 A 
HETATM   30  C10 UNL     1       6.091  41.651  28.263  1.00  0.00     0.013 A 
HETATM   31  C11 UNL     1       5.753  40.803  27.087  1.00  0.00     0.013 A 
ENDBRANCH  27  29
ENDBRANCH  26  27
ENDBRANCH   1  23
BRANCH   7  32
HETATM   32  O5  UNL     1       1.360  38.451  24.695  1.00  0.00    -0.389 OA
ATOM     33  H5  UNL     1       1.098  38.965  25.450  1.00  0.00     0.210 HD
ENDBRANCH   7  32
BRANCH   3  34
HETATM   34  O3  UNL     1       6.145  36.038  26.806  1.00  0.00    -0.312 OA
BRANCH  34  35
HETATM   35  C14 UNL     1       7.411  36.401  27.116  1.00  0.00     0.283 C 
HETATM   36  O4  UNL     1       8.349  35.674  26.758  1.00  0.00    -0.260 OA
BRANCH  35  37
HETATM   37  C15 UNL     1       7.639  37.635  27.859  1.00  0.00     0.084 C 
HETATM   38  C16 UNL     1       7.863  37.711  29.150  1.00  0.00    -0.082 C 
HETATM   39  C17 UNL     1       8.088  39.029  29.833  1.00  0.00     0.043 C 
HETATM   40  C18 UNL     1       7.902  36.505  29.976  1.00  0.00     0.043 C 
ENDBRANCH  35  37
ENDBRANCH  34  35
ENDBRANCH   3  34
BRANCH  17  41
HETATM   41  C33 UNL     1       3.501  40.234  20.931  1.00  0.00     0.178 C 
HETATM   42  O7  UNL     1       2.414  40.509  21.472  1.00  0.00    -0.648 OA
HETATM   43  O8  UNL     1       3.522  40.642  19.567  1.00  0.00    -0.648 OA
ENDBRANCH  17  41
BRANCH  15  44
HETATM   44  O6  UNL     1       7.598  40.967  19.713  1.00  0.00    -0.395 OA
ATOM     45  H6  UNL     1       7.390  41.578  19.016  1.00  0.00     0.210 HD
ENDBRANCH  15  44
TORSDOF 10
ENDMDL
MODEL 4
REMARK VINA RESULT: -6.795404145      1.064      1.302
REMARK  10 active torsions:
REMARK  status: ('A' for Active; 'I' for Inactive)
REMARK    1  A    between atoms: C2_2  and  C3_4 
REMARK    2  A    between atoms: C3_4  and  C4_5 
REMARK    3  A    between atoms: C7_8  and  C8_9 
REMARK    4  A    between atoms: C8_9  and  C9_11 
REMARK    5  A    between atoms: C13_15  and  O3_16 
REMARK    6  A    between atoms: O3_16  and  C14_17 
REMARK    7  A    between atoms: C14_17  and  C15_19 
REMARK    8  A    between atoms: C22_26  and  O5_27 
REMARK    9  A    between atoms: C30_36  and  O6_37 
REMARK   10  A    between atoms: C32_40  and  C33_41 
ROOT
HETATM    1  C3  UNL     1       2.114  37.731  27.436  1.00  0.00     0.058 C 
HETATM    2  C12 UNL     1       3.169  36.611  27.623  1.00  0.00     0.053 C 
HETATM    3  C13 UNL     1       4.397  36.804  26.800  1.00  0.00     0.138 C 
HETATM    4  C19 UNL     1       4.091  36.419  25.402  1.00  0.00     0.020 C 
HETATM    5  C20 UNL     1       2.754  35.809  25.147  1.00  0.00     0.010 C 
HETATM    6  C21 UNL     1       1.573  36.646  25.354  1.00  0.00     0.039 C 
HETATM    7  C22 UNL     1       1.777  37.964  26.072  1.00  0.00     0.073 C 
HETATM    8  C23 UNL     1       2.423  38.889  25.141  1.00  0.00     0.045 C 
HETATM    9  C24 UNL     1       3.734  38.761  24.545  1.00  0.00     0.006 C 
HETATM   10  C25 UNL     1       4.336  37.446  24.351  1.00  0.00     0.001 C 
HETATM   11  C26 UNL     1       5.865  37.664  24.315  1.00  0.00     0.033 C 
HETATM   12  C27 UNL     1       6.143  38.731  23.282  1.00  0.00    -0.023 C 
HETATM   13  C28 UNL     1       5.254  39.537  22.823  1.00  0.00    -0.072 C 
HETATM   14  C29 UNL     1       5.589  40.574  21.796  1.00  0.00     0.066 C 
HETATM   15  C30 UNL     1       4.659  40.244  20.640  1.00  0.00     0.123 C 
HETATM   16  C31 UNL     1       3.883  38.975  20.866  1.00  0.00     0.048 C 
HETATM   17  C32 UNL     1       2.993  39.037  22.117  1.00  0.00     0.102 C 
HETATM   18  C34 UNL     1       3.785  39.553  23.223  1.00  0.00    -0.003 C 
HETATM   19  C35 UNL     1       3.471  40.998  23.571  1.00  0.00     0.021 C 
ENDROOT
BRANCH   1  20
HETATM   20  C2  UNL     1       0.940  37.112  28.146  1.00  0.00     0.135 C 
HETATM   21  C1  UNL     1       0.796  35.634  28.299  1.00  0.00     0.091 C 
HETATM   22  O1  UNL     1       0.078  37.790  28.618  1.00  0.00    -0.297 OA
ENDBRANCH   1  20
BRANCH   1  23
HETATM   23  C4  UNL     1       2.525  38.790  28.399  1.00  0.00     0.021 A 
HETATM   24  C5  UNL     1       3.460  38.742  29.502  1.00  0.00    -0.001 A 
HETATM   25  C6  UNL     1       3.178  39.351  30.856  1.00  0.00     0.011 C 
HETATM   26  C7  UNL     1       3.669  39.685  28.295  1.00  0.00     0.065 A 
BRANCH  26  27
HETATM   27  C8  UNL     1       3.614  41.112  28.634  1.00  0.00     0.136 C 
HETATM   28  O2  UNL     1       4.633  41.656  29.038  1.00  0.00    -0.297 OA
BRANCH  27  29
HETATM   29  C9  UNL     1       2.425  41.996  28.536  1.00  0.00     0.056 A 
HETATM   30  C10 UNL     1       2.563  43.327  27.895  1.00  0.00     0.013 A 
HETATM   31  C11 UNL     1       1.976  42.214  27.101  1.00  0.00     0.013 A 
ENDBRANCH  27  29
ENDBRANCH  26  27
ENDBRANCH   1  23
BRANCH   7  32
HETATM   32  O5  UNL     1       0.445  38.516  26.051  1.00  0.00    -0.389 OA
ATOM     33  H5  UNL     1      -0.143  37.819  25.781  1.00  0.00     0.210 HD
ENDBRANCH   7  32
BRANCH   3  34
HETATM   34  O3  UNL     1       5.475  36.023  27.344  1.00  0.00    -0.312 OA
BRANCH  34  35
HETATM   35  C14 UNL     1       6.738  36.440  27.584  1.00  0.00     0.283 C 
HETATM   36  O4  UNL     1       7.652  36.047  26.844  1.00  0.00    -0.260 OA
BRANCH  35  37
HETATM   37  C15 UNL     1       6.994  37.340  28.703  1.00  0.00     0.084 C 
HETATM   38  C16 UNL     1       7.082  38.647  28.620  1.00  0.00    -0.082 C 
HETATM   39  C17 UNL     1       7.349  39.496  29.828  1.00  0.00     0.043 C 
HETATM   40  C18 UNL     1       6.921  39.328  27.336  1.00  0.00     0.043 C 
ENDBRANCH  35  37
ENDBRANCH  34  35
ENDBRANCH   3  34
BRANCH  17  41
HETATM   41  C33 UNL     1       1.749  39.702  21.712  1.00  0.00     0.178 C 
HETATM   42  O7  UNL     1       1.536  40.370  20.683  1.00  0.00    -0.648 OA
HETATM   43  O8  UNL     1       0.589  39.625  22.535  1.00  0.00    -0.648 OA
ENDBRANCH  17  41
BRANCH  15  44
HETATM   44  O6  UNL     1       5.490  39.996  19.537  1.00  0.00    -0.395 OA
ATOM     45  H6  UNL     1       4.919  39.676  18.847  1.00  0.00     0.210 HD
ENDBRANCH  15  44
TORSDOF 10
ENDMDL
MODEL 5
REMARK VINA RESULT: -6.516747395      2.288      4.377
REMARK  10 active torsions:
REMARK  status: ('A' for Active; 'I' for Inactive)
REMARK    1  A    between atoms: C2_2  and  C3_4 
REMARK    2  A    between atoms: C3_4  and  C4_5 
REMARK    3  A    between atoms: C7_8  and  C8_9 
REMARK    4  A    between atoms: C8_9  and  C9_11 
REMARK    5  A    between atoms: C13_15  and  O3_16 
REMARK    6  A    between atoms: O3_16  and  C14_17 
REMARK    7  A    between atoms: C14_17  and  C15_19 
REMARK    8  A    between atoms: C22_26  and  O5_27 
REMARK    9  A    between atoms: C30_36  and  O6_37 
REMARK   10  A    between atoms: C32_40  and  C33_41 
ROOT
HETATM    1  C3  UNL     1       3.266  37.034  25.311  1.00  0.00     0.058 C 
HETATM    2  C12 UNL     1       4.527  36.352  25.900  1.00  0.00     0.053 C 
HETATM    3  C13 UNL     1       5.328  37.242  26.788  1.00  0.00     0.138 C 
HETATM    4  C19 UNL     1       6.109  38.173  25.938  1.00  0.00     0.020 C 
HETATM    5  C20 UNL     1       6.059  37.945  24.466  1.00  0.00     0.010 C 
HETATM    6  C21 UNL     1       4.776  38.135  23.790  1.00  0.00     0.039 C 
HETATM    7  C22 UNL     1       3.548  38.272  24.665  1.00  0.00     0.073 C 
HETATM    8  C23 UNL     1       3.569  39.605  25.266  1.00  0.00     0.045 C 
HETATM    9  C24 UNL     1       4.551  40.137  26.184  1.00  0.00     0.006 C 
HETATM   10  C25 UNL     1       5.919  39.629  26.185  1.00  0.00     0.001 C 
HETATM   11  C26 UNL     1       6.487  39.901  27.597  1.00  0.00     0.033 C 
HETATM   12  C27 UNL     1       6.275  41.367  27.892  1.00  0.00    -0.023 C 
HETATM   13  C28 UNL     1       5.453  42.118  27.251  1.00  0.00    -0.072 C 
HETATM   14  C29 UNL     1       5.288  43.568  27.588  1.00  0.00     0.066 C 
HETATM   15  C30 UNL     1       5.624  44.277  26.287  1.00  0.00     0.123 C 
HETATM   16  C31 UNL     1       6.120  43.334  25.225  1.00  0.00     0.048 C 
HETATM   17  C32 UNL     1       5.090  42.253  24.862  1.00  0.00     0.102 C 
HETATM   18  C34 UNL     1       4.571  41.677  26.091  1.00  0.00    -0.003 C 
HETATM   19  C35 UNL     1       3.170  42.150  26.439  1.00  0.00     0.021 C 
ENDROOT
BRANCH   1  20
HETATM   20  C2  UNL     1       2.864  36.010  24.284  1.00  0.00     0.135 C 
HETATM   21  C1  UNL     1       3.803  34.949  23.814  1.00  0.00     0.091 C 
HETATM   22  O1  UNL     1       1.768  36.011  23.809  1.00  0.00    -0.297 OA
ENDBRANCH   1  20
BRANCH   1  23
HETATM   23  C4  UNL     1       2.220  36.842  26.354  1.00  0.00     0.021 A 
HETATM   24  C5  UNL     1       1.238  35.793  26.514  1.00  0.00    -0.001 A 
HETATM   25  C6  UNL     1      -0.206  36.056  26.873  1.00  0.00     0.011 C 
HETATM   26  C7  UNL     1       2.326  36.063  27.579  1.00  0.00     0.065 A 
BRANCH  26  27
HETATM   27  C8  UNL     1       1.798  36.513  28.873  1.00  0.00     0.136 C 
HETATM   28  O2  UNL     1       1.405  35.671  29.669  1.00  0.00    -0.297 OA
BRANCH  27  29
HETATM   29  C9  UNL     1       1.687  37.918  29.339  1.00  0.00     0.056 A 
HETATM   30  C10 UNL     1       2.237  38.288  30.667  1.00  0.00     0.013 A 
HETATM   31  C11 UNL     1       3.037  38.605  29.452  1.00  0.00     0.013 A 
ENDBRANCH  27  29
ENDBRANCH  26  27
ENDBRANCH   1  23
BRANCH   7  32
HETATM   32  O5  UNL     1       2.513  38.484  23.683  1.00  0.00    -0.389 OA
ATOM     33  H5  UNL     1       2.940  38.765  22.882  1.00  0.00     0.210 HD
ENDBRANCH   7  32
BRANCH   3  34
HETATM   34  O3  UNL     1       6.181  36.448  27.630  1.00  0.00    -0.312 OA
BRANCH  34  35
HETATM   35  C14 UNL     1       7.533  36.422  27.623  1.00  0.00     0.283 C 
HETATM   36  O4  UNL     1       8.152  37.157  28.407  1.00  0.00    -0.260 OA
BRANCH  35  37
HETATM   37  C15 UNL     1       8.226  35.535  26.697  1.00  0.00     0.084 C 
HETATM   38  C16 UNL     1       9.038  34.563  27.044  1.00  0.00    -0.082 C 
HETATM   39  C17 UNL     1       9.711  33.696  26.019  1.00  0.00     0.043 C 
HETATM   40  C18 UNL     1       9.317  34.287  28.452  1.00  0.00     0.043 C 
ENDBRANCH  35  37
ENDBRANCH  34  35
ENDBRANCH   3  34
BRANCH  17  41
HETATM   41  C33 UNL     1       4.185  42.854  23.875  1.00  0.00     0.178 C 
HETATM   42  O7  UNL     1       3.841  44.047  23.775  1.00  0.00    -0.648 OA
HETATM   43  O8  UNL     1       3.579  42.051  22.868  1.00  0.00    -0.648 OA
ENDBRANCH  17  41
BRANCH  15  44
HETATM   44  O6  UNL     1       6.700  45.128  26.579  1.00  0.00    -0.395 OA
ATOM     45  H6  UNL     1       7.437  44.800  26.077  1.00  0.00     0.210 HD
ENDBRANCH  15  44
TORSDOF 10
ENDMDL
