MODEL 1
REMARK VINA RESULT: -7.254994108      0.000      0.000
REMARK  10 active torsions:
REMARK  status: ('A' for Active; 'I' for Inactive)
REMARK    1  A    between atoms: C5_5  and  C16_30 
REMARK    2  A    between atoms: C8_10  and  C9_13 
REMARK    3  A    between atoms: C9_13  and  N3_14 
REMARK       I    between atoms: N3_14  and  C10_16 
REMARK    4  A    between atoms: C10_16  and  C11_18 
REMARK    5  A    between atoms: C11_18  and  N4_19 
REMARK    6  A    between atoms: N4_19  and  N5_20 
REMARK    7  A    between atoms: N5_20  and  C12_22 
REMARK    8  A    between atoms: C12_22  and  N6_24 
REMARK    9  A    between atoms: N6_24  and  C13_26 
REMARK   10  A    between atoms: C13_26  and  C14_27 
ROOT
HETATM    1  C9  UNL     1     -13.921  18.571 -48.671  1.00  0.00     0.072 C 
HETATM    2  C15 UNL     1     -13.358  18.853 -47.365  1.00  0.00     0.045 C 
HETATM    3  C16 UNL     1     -12.843  20.171 -47.881  1.00  0.00    -0.027 C 
HETATM    4  C17 UNL     1     -11.421  20.425 -47.399  1.00  0.00     0.016 C 
HETATM    5  C18 UNL     1     -12.767  19.496 -49.232  1.00  0.00     0.045 C 
ENDROOT
BRANCH   1   6
HETATM    6  C8  UNL     1     -15.259  19.322 -48.894  1.00  0.00     0.205 C 
HETATM    7  N1  UNL     1     -15.984  19.523 -47.698  1.00  0.00    -0.379 N 
HETATM    8  C7  UNL     1     -16.511  18.408 -47.042  1.00  0.00     0.067 C 
ATOM      9  H1  UNL     1     -16.119  20.461 -47.321  1.00  0.00     0.160 HD
HETATM   10  C5  UNL     1     -16.179  17.061 -47.693  1.00  0.00    -0.003 C 
HETATM   11  C4  UNL     1     -17.002  16.835 -48.888  1.00  0.00     0.045 C 
HETATM   12  C6  UNL     1     -16.688  16.040 -46.646  1.00  0.00     0.021 C 
HETATM   13  C2  UNL     1     -17.109  18.001 -49.836  1.00  0.00     0.021 C 
HETATM   14  C1  UNL     1     -18.347  18.870 -49.542  1.00  0.00     0.037 C 
HETATM   15  C3  UNL     1     -17.452  17.359 -51.189  1.00  0.00     0.037 C 
HETATM   16  N2  UNL     1     -15.918  18.722 -49.995  1.00  0.00    -0.392 N 
ATOM     17  H2  UNL     1     -15.516  18.818 -50.928  1.00  0.00     0.156 HD
ENDBRANCH   1   6
BRANCH   1  18
HETATM   18  N3  UNL     1     -13.855  17.319 -49.344  1.00  0.00    -0.347 N 
HETATM   19  C10 UNL     1     -12.736  16.603 -49.695  1.00  0.00     0.234 C 
HETATM   20  O1  UNL     1     -11.588  16.938 -49.412  1.00  0.00    -0.272 OA
ATOM     21  H3  UNL     1     -14.750  16.901 -49.597  1.00  0.00     0.163 HD
BRANCH  19  22
HETATM   22  C11 UNL     1     -12.925  15.339 -50.504  1.00  0.00     0.237 C 
BRANCH  22  23
HETATM   23  N4  UNL     1     -11.603  14.961 -51.052  1.00  0.00    -0.130 NA
BRANCH  23  24
HETATM   24  N5  UNL     1     -11.326  15.636 -52.202  1.00  0.00    -0.280 N 
ATOM     25  H5  UNL     1     -11.895  15.275 -52.968  1.00  0.00     0.184 HD
BRANCH  24  26
HETATM   26  C12 UNL     1     -10.518  16.654 -52.650  1.00  0.00     0.183 C 
HETATM   27  S1  UNL     1     -10.516  16.867 -54.337  1.00  0.00    -0.040 SA
BRANCH  26  28
HETATM   28  N6  UNL     1      -9.686  17.566 -51.986  1.00  0.00    -0.365 N 
ATOM     29  H6  UNL     1      -8.796  17.223 -51.625  1.00  0.00     0.161 HD
BRANCH  28  30
HETATM   30  C13 UNL     1     -10.005  18.962 -51.778  1.00  0.00     0.133 C 
BRANCH  30  31
HETATM   31  C14 UNL     1      -9.267  19.429 -50.494  1.00  0.00     0.104 C 
HETATM   32 BR1  UNL     1      -7.888  18.142 -50.066  1.00  0.00    -0.095 Br
ENDBRANCH  30  31
ENDBRANCH  28  30
ENDBRANCH  26  28
ENDBRANCH  24  26
ENDBRANCH  23  24
ENDBRANCH  22  23
ENDBRANCH  19  22
ENDBRANCH   1  18
TORSDOF 10
ENDMDL
MODEL 2
REMARK VINA RESULT: -6.973908221      1.139      1.144
REMARK  10 active torsions:
REMARK  status: ('A' for Active; 'I' for Inactive)
REMARK    1  A    between atoms: C5_5  and  C16_30 
REMARK    2  A    between atoms: C8_10  and  C9_13 
REMARK    3  A    between atoms: C9_13  and  N3_14 
REMARK       I    between atoms: N3_14  and  C10_16 
REMARK    4  A    between atoms: C10_16  and  C11_18 
REMARK    5  A    between atoms: C11_18  and  N4_19 
REMARK    6  A    between atoms: N4_19  and  N5_20 
REMARK    7  A    between atoms: N5_20  and  C12_22 
REMARK    8  A    between atoms: C12_22  and  N6_24 
REMARK    9  A    between atoms: N6_24  and  C13_26 
REMARK   10  A    between atoms: C13_26  and  C14_27 
ROOT
HETATM    1  C9  UNL     1     -13.902  18.581 -48.666  1.00  0.00     0.072 C 
HETATM    2  C15 UNL     1     -13.353  18.882 -47.359  1.00  0.00     0.045 C 
HETATM    3  C16 UNL     1     -12.838  20.196 -47.888  1.00  0.00    -0.027 C 
HETATM    4  C17 UNL     1     -11.421  20.461 -47.395  1.00  0.00     0.016 C 
HETATM    5  C18 UNL     1     -12.746  19.503 -49.228  1.00  0.00     0.045 C 
ENDROOT
BRANCH   1   6
HETATM    6  C8  UNL     1     -15.240  19.325 -48.913  1.00  0.00     0.205 C 
HETATM    7  N1  UNL     1     -15.982  19.530 -47.728  1.00  0.00    -0.379 N 
HETATM    8  C7  UNL     1     -16.513  18.417 -47.072  1.00  0.00     0.067 C 
ATOM      9  H1  UNL     1     -16.127  20.470 -47.359  1.00  0.00     0.160 HD
HETATM   10  C5  UNL     1     -16.166  17.067 -47.709  1.00  0.00    -0.003 C 
HETATM   11  C4  UNL     1     -16.972  16.829 -48.914  1.00  0.00     0.045 C 
HETATM   12  C6  UNL     1     -16.685  16.051 -46.662  1.00  0.00     0.021 C 
HETATM   13  C2  UNL     1     -17.071  17.988 -49.870  1.00  0.00     0.021 C 
HETATM   14  C1  UNL     1     -18.317  18.853 -49.599  1.00  0.00     0.037 C 
HETATM   15  C3  UNL     1     -17.393  17.335 -51.224  1.00  0.00     0.037 C 
HETATM   16  N2  UNL     1     -15.882  18.714 -50.019  1.00  0.00    -0.392 N 
ATOM     17  H2  UNL     1     -15.468  18.806 -50.946  1.00  0.00     0.156 HD
ENDBRANCH   1   6
BRANCH   1  18
HETATM   18  N3  UNL     1     -13.825  17.320 -49.322  1.00  0.00    -0.347 N 
HETATM   19  C10 UNL     1     -12.700  16.627 -49.696  1.00  0.00     0.234 C 
HETATM   20  O1  UNL     1     -11.552  16.995 -49.455  1.00  0.00    -0.272 OA
ATOM     21  H3  UNL     1     -14.717  16.876 -49.541  1.00  0.00     0.163 HD
BRANCH  19  22
HETATM   22  C11 UNL     1     -12.881  15.346 -50.480  1.00  0.00     0.237 C 
BRANCH  22  23
HETATM   23  N4  UNL     1     -11.565  14.985 -51.051  1.00  0.00    -0.130 NA
BRANCH  23  24
HETATM   24  N5  UNL     1     -11.347  15.610 -52.241  1.00  0.00    -0.280 N 
ATOM     25  H5  UNL     1     -11.849  15.130 -52.988  1.00  0.00     0.184 HD
BRANCH  24  26
HETATM   26  C12 UNL     1     -10.660  16.688 -52.747  1.00  0.00     0.183 C 
HETATM   27  S1  UNL     1     -10.572  16.739 -54.445  1.00  0.00    -0.040 SA
BRANCH  26  28
HETATM   28  N6  UNL     1     -10.011  17.770 -52.136  1.00  0.00    -0.365 N 
ATOM     29  H6  UNL     1     -10.276  18.006 -51.180  1.00  0.00     0.161 HD
BRANCH  28  30
HETATM   30  C13 UNL     1      -8.991  18.575 -52.772  1.00  0.00     0.133 C 
BRANCH  30  31
HETATM   31  C14 UNL     1      -9.551  20.016 -52.920  1.00  0.00     0.104 C 
HETATM   32 BR1  UNL     1      -8.617  20.902 -54.363  1.00  0.00    -0.095 Br
ENDBRANCH  30  31
ENDBRANCH  28  30
ENDBRANCH  26  28
ENDBRANCH  24  26
ENDBRANCH  23  24
ENDBRANCH  22  23
ENDBRANCH  19  22
ENDBRANCH   1  18
TORSDOF 10
ENDMDL
MODEL 3
REMARK VINA RESULT: -6.733703585      1.850      2.153
REMARK  10 active torsions:
REMARK  status: ('A' for Active; 'I' for Inactive)
REMARK    1  A    between atoms: C5_5  and  C16_30 
REMARK    2  A    between atoms: C8_10  and  C9_13 
REMARK    3  A    between atoms: C9_13  and  N3_14 
REMARK       I    between atoms: N3_14  and  C10_16 
REMARK    4  A    between atoms: C10_16  and  C11_18 
REMARK    5  A    between atoms: C11_18  and  N4_19 
REMARK    6  A    between atoms: N4_19  and  N5_20 
REMARK    7  A    between atoms: N5_20  and  C12_22 
REMARK    8  A    between atoms: C12_22  and  N6_24 
REMARK    9  A    between atoms: N6_24  and  C13_26 
REMARK   10  A    between atoms: C13_26  and  C14_27 
ROOT
HETATM    1  C9  UNL     1     -13.907  18.614 -48.674  1.00  0.00     0.072 C 
HETATM    2  C15 UNL     1     -13.387  18.911 -47.354  1.00  0.00     0.045 C 
HETATM    3  C16 UNL     1     -12.886  20.239 -47.859  1.00  0.00    -0.027 C 
HETATM    4  C17 UNL     1     -11.483  20.524 -47.339  1.00  0.00     0.016 C 
HETATM    5  C18 UNL     1     -12.759  19.563 -49.206  1.00  0.00     0.045 C 
ENDROOT
BRANCH   1   6
HETATM    6  C8  UNL     1     -15.254  19.337 -48.936  1.00  0.00     0.205 C 
HETATM    7  N1  UNL     1     -16.009  19.537 -47.758  1.00  0.00    -0.379 N 
HETATM    8  C7  UNL     1     -16.529  18.421 -47.100  1.00  0.00     0.067 C 
ATOM      9  H1  UNL     1     -16.171  20.477 -47.396  1.00  0.00     0.160 HD
HETATM   10  C5  UNL     1     -16.157  17.072 -47.726  1.00  0.00    -0.003 C 
HETATM   11  C4  UNL     1     -16.949  16.816 -48.936  1.00  0.00     0.045 C 
HETATM   12  C6  UNL     1     -16.668  16.055 -46.677  1.00  0.00     0.021 C 
HETATM   13  C2  UNL     1     -17.058  17.968 -49.900  1.00  0.00     0.021 C 
HETATM   14  C1  UNL     1     -18.318  18.816 -49.644  1.00  0.00     0.037 C 
HETATM   15  C3  UNL     1     -17.359  17.302 -51.253  1.00  0.00     0.037 C 
HETATM   16  N2  UNL     1     -15.878  18.710 -50.044  1.00  0.00    -0.392 N 
ATOM     17  H2  UNL     1     -15.457  18.802 -50.968  1.00  0.00     0.156 HD
ENDBRANCH   1   6
BRANCH   1  18
HETATM   18  N3  UNL     1     -13.796  17.363 -49.343  1.00  0.00    -0.347 N 
HETATM   19  C10 UNL     1     -12.656  16.651 -49.624  1.00  0.00     0.234 C 
HETATM   20  O1  UNL     1     -11.528  16.990 -49.272  1.00  0.00    -0.272 OA
ATOM     21  H3  UNL     1     -14.673  16.942 -49.651  1.00  0.00     0.163 HD
BRANCH  19  22
HETATM   22  C11 UNL     1     -12.790  15.387 -50.444  1.00  0.00     0.237 C 
BRANCH  22  23
HETATM   23  N4  UNL     1     -11.468  15.105 -51.046  1.00  0.00    -0.130 NA
BRANCH  23  24
HETATM   24  N5  UNL     1     -11.359  15.646 -52.291  1.00  0.00    -0.280 N 
ATOM     25  H5  UNL     1     -12.047  15.228 -52.918  1.00  0.00     0.184 HD
BRANCH  24  26
HETATM   26  C12 UNL     1     -10.611  16.581 -52.965  1.00  0.00     0.183 C 
HETATM   27  S1  UNL     1      -9.584  17.512 -51.979  1.00  0.00    -0.040 SA
BRANCH  26  28
HETATM   28  N6  UNL     1     -10.519  16.924 -54.322  1.00  0.00    -0.365 N 
ATOM     29  H6  UNL     1     -11.372  16.892 -54.879  1.00  0.00     0.161 HD
BRANCH  28  30
HETATM   30  C13 UNL     1      -9.295  17.319 -54.983  1.00  0.00     0.133 C 
BRANCH  30  31
HETATM   31  C14 UNL     1      -9.347  16.774 -56.437  1.00  0.00     0.104 C 
HETATM   32 BR1  UNL     1     -10.244  15.060 -56.427  1.00  0.00    -0.095 Br
ENDBRANCH  30  31
ENDBRANCH  28  30
ENDBRANCH  26  28
ENDBRANCH  24  26
ENDBRANCH  23  24
ENDBRANCH  22  23
ENDBRANCH  19  22
ENDBRANCH   1  18
TORSDOF 10
ENDMDL
MODEL 4
REMARK VINA RESULT: -6.465647196      2.143      2.626
REMARK  10 active torsions:
REMARK  status: ('A' for Active; 'I' for Inactive)
REMARK    1  A    between atoms: C5_5  and  C16_30 
REMARK    2  A    between atoms: C8_10  and  C9_13 
REMARK    3  A    between atoms: C9_13  and  N3_14 
REMARK       I    between atoms: N3_14  and  C10_16 
REMARK    4  A    between atoms: C10_16  and  C11_18 
REMARK    5  A    between atoms: C11_18  and  N4_19 
REMARK    6  A    between atoms: N4_19  and  N5_20 
REMARK    7  A    between atoms: N5_20  and  C12_22 
REMARK    8  A    between atoms: C12_22  and  N6_24 
REMARK    9  A    between atoms: N6_24  and  C13_26 
REMARK   10  A    between atoms: C13_26  and  C14_27 
ROOT
HETATM    1  C9  UNL     1     -13.914  18.559 -48.702  1.00  0.00     0.072 C 
HETATM    2  C15 UNL     1     -13.381  18.833 -47.382  1.00  0.00     0.045 C 
HETATM    3  C16 UNL     1     -12.862  20.158 -47.876  1.00  0.00    -0.027 C 
HETATM    4  C17 UNL     1     -11.451  20.415 -47.361  1.00  0.00     0.016 C 
HETATM    5  C18 UNL     1     -12.753  19.495 -49.230  1.00  0.00     0.045 C 
ENDROOT
BRANCH   1   6
HETATM    6  C8  UNL     1     -15.250  19.306 -48.948  1.00  0.00     0.205 C 
HETATM    7  N1  UNL     1     -15.982  19.531 -47.760  1.00  0.00    -0.379 N 
HETATM    8  C7  UNL     1     -16.513  18.430 -47.085  1.00  0.00     0.067 C 
ATOM      9  H1  UNL     1     -16.119  20.477 -47.403  1.00  0.00     0.160 HD
HETATM   10  C5  UNL     1     -16.177  17.070 -47.706  1.00  0.00    -0.003 C 
HETATM   11  C4  UNL     1     -16.994  16.820 -48.900  1.00  0.00     0.045 C 
HETATM   12  C6  UNL     1     -16.692  16.071 -46.640  1.00  0.00     0.021 C 
HETATM   13  C2  UNL     1     -17.095  17.966 -49.872  1.00  0.00     0.021 C 
HETATM   14  C1  UNL     1     -18.335  18.841 -49.603  1.00  0.00     0.037 C 
HETATM   15  C3  UNL     1     -17.432  17.296 -51.214  1.00  0.00     0.037 C 
HETATM   16  N2  UNL     1     -15.904  18.683 -50.040  1.00  0.00    -0.392 N 
ATOM     17  H2  UNL     1     -15.497  18.760 -50.972  1.00  0.00     0.156 HD
ENDBRANCH   1   6
BRANCH   1  18
HETATM   18  N3  UNL     1     -13.827  17.313 -49.384  1.00  0.00    -0.347 N 
HETATM   19  C10 UNL     1     -12.700  16.585 -49.677  1.00  0.00     0.234 C 
HETATM   20  O1  UNL     1     -11.565  16.899 -49.325  1.00  0.00    -0.272 OA
ATOM     21  H3  UNL     1     -14.712  16.911 -49.694  1.00  0.00     0.163 HD
BRANCH  19  22
HETATM   22  C11 UNL     1     -12.860  15.332 -50.511  1.00  0.00     0.237 C 
BRANCH  22  23
HETATM   23  N4  UNL     1     -11.546  15.038 -51.127  1.00  0.00    -0.130 NA
BRANCH  23  24
HETATM   24  N5  UNL     1     -11.147  16.041 -51.956  1.00  0.00    -0.280 N 
ATOM     25  H5  UNL     1     -10.938  16.881 -51.417  1.00  0.00     0.184 HD
BRANCH  24  26
HETATM   26  C12 UNL     1     -10.939  16.273 -53.295  1.00  0.00     0.183 C 
HETATM   27  S1  UNL     1      -9.861  17.544 -53.635  1.00  0.00    -0.040 SA
BRANCH  26  28
HETATM   28  N6  UNL     1     -11.440  15.661 -54.452  1.00  0.00    -0.365 N 
ATOM     29  H6  UNL     1     -11.416  14.642 -54.500  1.00  0.00     0.161 HD
BRANCH  28  30
HETATM   30  C13 UNL     1     -11.990  16.377 -55.582  1.00  0.00     0.133 C 
BRANCH  30  31
HETATM   31  C14 UNL     1     -13.366  15.741 -55.919  1.00  0.00     0.104 C 
HETATM   32 BR1  UNL     1     -14.607  17.150 -56.383  1.00  0.00    -0.095 Br
ENDBRANCH  30  31
ENDBRANCH  28  30
ENDBRANCH  26  28
ENDBRANCH  24  26
ENDBRANCH  23  24
ENDBRANCH  22  23
ENDBRANCH  19  22
ENDBRANCH   1  18
TORSDOF 10
ENDMDL
MODEL 5
REMARK VINA RESULT: -6.357795180      1.432      1.492
REMARK  10 active torsions:
REMARK  status: ('A' for Active; 'I' for Inactive)
REMARK    1  A    between atoms: C5_5  and  C16_30 
REMARK    2  A    between atoms: C8_10  and  C9_13 
REMARK    3  A    between atoms: C9_13  and  N3_14 
REMARK       I    between atoms: N3_14  and  C10_16 
REMARK    4  A    between atoms: C10_16  and  C11_18 
REMARK    5  A    between atoms: C11_18  and  N4_19 
REMARK    6  A    between atoms: N4_19  and  N5_20 
REMARK    7  A    between atoms: N5_20  and  C12_22 
REMARK    8  A    between atoms: C12_22  and  N6_24 
REMARK    9  A    between atoms: N6_24  and  C13_26 
REMARK   10  A    between atoms: C13_26  and  C14_27 
ROOT
HETATM    1  C9  UNL     1     -13.932  18.678 -48.655  1.00  0.00     0.072 C 
HETATM    2  C15 UNL     1     -13.414  19.001 -47.340  1.00  0.00     0.045 C 
HETATM    3  C16 UNL     1     -12.930  20.327 -47.867  1.00  0.00    -0.027 C 
HETATM    4  C17 UNL     1     -11.530  20.638 -47.352  1.00  0.00     0.016 C 
HETATM    5  C18 UNL     1     -12.796  19.632 -49.202  1.00  0.00     0.045 C 
ENDROOT
BRANCH   1   6
HETATM    6  C8  UNL     1     -15.288  19.380 -48.926  1.00  0.00     0.205 C 
HETATM    7  N1  UNL     1     -16.052  19.574 -47.753  1.00  0.00    -0.379 N 
HETATM    8  C7  UNL     1     -16.559  18.452 -47.094  1.00  0.00     0.067 C 
ATOM      9  H1  UNL     1     -16.229  20.513 -47.396  1.00  0.00     0.160 HD
HETATM   10  C5  UNL     1     -16.164  17.107 -47.713  1.00  0.00    -0.003 C 
HETATM   11  C4  UNL     1     -16.946  16.835 -48.926  1.00  0.00     0.045 C 
HETATM   12  C6  UNL     1     -16.667  16.086 -46.663  1.00  0.00     0.021 C 
HETATM   13  C2  UNL     1     -17.066  17.982 -49.895  1.00  0.00     0.021 C 
HETATM   14  C1  UNL     1     -18.340  18.812 -49.649  1.00  0.00     0.037 C 
HETATM   15  C3  UNL     1     -17.350  17.306 -51.247  1.00  0.00     0.037 C 
HETATM   16  N2  UNL     1     -15.897  18.740 -50.035  1.00  0.00    -0.392 N 
ATOM     17  H2  UNL     1     -15.472  18.835 -50.958  1.00  0.00     0.156 HD
ENDBRANCH   1   6
BRANCH   1  18
HETATM   18  N3  UNL     1     -13.806  17.417 -49.303  1.00  0.00    -0.347 N 
HETATM   19  C10 UNL     1     -12.659  16.712 -49.568  1.00  0.00     0.234 C 
HETATM   20  O1  UNL     1     -11.536  17.066 -49.215  1.00  0.00    -0.272 OA
ATOM     21  H3  UNL     1     -14.678  16.984 -49.609  1.00  0.00     0.163 HD
BRANCH  19  22
HETATM   22  C11 UNL     1     -12.777  15.434 -50.370  1.00  0.00     0.237 C 
BRANCH  22  23
HETATM   23  N4  UNL     1     -11.696  15.441 -51.380  1.00  0.00    -0.130 NA
BRANCH  23  24
HETATM   24  N5  UNL     1     -10.472  15.287 -50.803  1.00  0.00    -0.280 N 
ATOM     25  H5  UNL     1     -10.354  14.327 -50.479  1.00  0.00     0.184 HD
BRANCH  24  26
HETATM   26  C12 UNL     1      -9.347  16.024 -50.522  1.00  0.00     0.183 C 
HETATM   27  S1  UNL     1      -8.334  15.349 -49.334  1.00  0.00    -0.040 SA
BRANCH  26  28
HETATM   28  N6  UNL     1      -8.857  17.237 -51.028  1.00  0.00    -0.365 N 
ATOM     29  H6  UNL     1      -8.944  17.404 -52.030  1.00  0.00     0.161 HD
BRANCH  28  30
HETATM   30  C13 UNL     1      -8.236  18.266 -50.224  1.00  0.00     0.133 C 
BRANCH  30  31
HETATM   31  C14 UNL     1      -9.155  19.518 -50.268  1.00  0.00     0.104 C 
HETATM   32 BR1  UNL     1      -9.900  19.680 -52.045  1.00  0.00    -0.095 Br
ENDBRANCH  30  31
ENDBRANCH  28  30
ENDBRANCH  26  28
ENDBRANCH  24  26
ENDBRANCH  23  24
ENDBRANCH  22  23
ENDBRANCH  19  22
ENDBRANCH   1  18
TORSDOF 10
ENDMDL
