MODEL 1
REMARK VINA RESULT: -6.962942984      0.000      0.000
REMARK  7 active torsions:
REMARK  status: ('A' for Active; 'I' for Inactive)
REMARK    1  A    between atoms: C2_4  and  N2_5 
REMARK    2  A    between atoms: C2_4  and  C17_34 
REMARK    3  A    between atoms: N2_5  and  C3_7 
REMARK    4  A    between atoms: C3_7  and  C4_8 
REMARK    5  A    between atoms: C13_20  and  C14_21 
REMARK    6  A    between atoms: C15_24  and  N4_25 
REMARK       I    between atoms: N4_25  and  C16_27 
REMARK       I    between atoms: C16_27  and  N5_29 
REMARK    7  A    between atoms: N5_29  and  N6_31 
ROOT
HETATM    1  C4  UNL     1     -10.640  16.859 -50.779  1.00  0.00     0.036 C 
HETATM    2  C5  UNL     1      -9.770  15.898 -49.948  1.00  0.00     0.111 C 
HETATM    3  C6  UNL     1      -8.935  16.627 -48.964  1.00  0.00     0.218 C 
HETATM    4  O1  UNL     1      -9.482  17.602 -48.365  1.00  0.00    -0.274 OA
HETATM    5  N3  UNL     1      -7.598  16.340 -48.636  1.00  0.00    -0.361 N 
ATOM      6  H3  UNL     1      -7.379  16.343 -47.639  1.00  0.00     0.162 HD
HETATM    7  C7  UNL     1      -6.497  16.043 -49.509  1.00  0.00     0.122 C 
HETATM    8  C8  UNL     1      -5.549  17.165 -49.742  1.00  0.00     0.020 C 
HETATM    9  C9  UNL     1      -5.489  17.678 -51.191  1.00  0.00     0.002 C 
HETATM   10  C10 UNL     1      -6.923  18.011 -51.530  1.00  0.00     0.000 C 
HETATM   11  C11 UNL     1      -7.201  18.529 -52.897  1.00  0.00     0.001 C 
HETATM   12  C12 UNL     1      -8.450  18.012 -53.499  1.00  0.00     0.017 C 
HETATM   13  C13 UNL     1      -9.766  18.174 -52.835  1.00  0.00     0.110 C 
HETATM   14  C15 UNL     1     -10.270  16.920 -52.209  1.00  0.00     0.106 C 
ENDROOT
BRANCH   1  15
HETATM   15  C3  UNL     1     -12.021  16.216 -50.713  1.00  0.00     0.128 C 
BRANCH  15  16
HETATM   16  N2  UNL     1     -12.663  16.341 -49.452  1.00  0.00    -0.379 N 
ATOM     17  H2  UNL     1     -12.813  15.527 -48.856  1.00  0.00     0.160 HD
BRANCH  16  18
HETATM   18  C2  UNL     1     -13.106  17.678 -49.033  1.00  0.00     0.076 C 
HETATM   19  N1  UNL     1     -12.269  18.544 -48.733  1.00  0.00    -0.384 N 
HETATM   20  C1  UNL     1     -12.190  19.857 -48.308  1.00  0.00     0.147 C 
ATOM     21  H1  UNL     1     -11.329  18.161 -48.835  1.00  0.00     0.160 HD
BRANCH  18  22
HETATM   22  C17 UNL     1     -14.561  17.857 -48.986  1.00  0.00     0.055 C 
HETATM   23  C18 UNL     1     -15.466  16.718 -49.337  1.00  0.00     0.032 C 
HETATM   24  C19 UNL     1     -16.358  17.085 -48.143  1.00  0.00     0.084 C 
HETATM   25 CL1  UNL     1     -17.613  18.259 -48.529  1.00  0.00    -0.125 Cl
HETATM   26  C20 UNL     1     -15.098  17.731 -47.553  1.00  0.00     0.032 C 
ENDBRANCH  18  22
ENDBRANCH  16  18
ENDBRANCH  15  16
ENDBRANCH   1  15
BRANCH  14  27
HETATM   27  N4  UNL     1     -11.304  16.296 -53.059  1.00  0.00    -0.336 N 
HETATM   28  C16 UNL     1     -11.055  15.812 -54.361  1.00  0.00     0.334 C 
HETATM   29  O4  UNL     1      -9.936  15.860 -54.930  1.00  0.00    -0.246 OA
HETATM   30  N5  UNL     1     -12.095  15.223 -55.124  1.00  0.00    -0.258 N 
ATOM     31  H5  UNL     1     -13.019  15.165 -54.696  1.00  0.00     0.191 HD
ATOM     32  H4  UNL     1     -12.249  16.210 -52.685  1.00  0.00     0.164 HD
BRANCH  30  33
HETATM   33  N6  UNL     1     -11.951  14.723 -56.399  1.00  0.00    -0.341 N 
ATOM     34  H62 UNL     1     -11.244  13.999 -56.526  1.00  0.00     0.177 HD
ATOM     35  H61 UNL     1     -12.494  15.024 -57.208  1.00  0.00     0.177 HD
ENDBRANCH  30  33
ENDBRANCH  14  27
BRANCH  13  36
HETATM   36  C14 UNL     1     -10.013  19.434 -52.164  1.00  0.00     0.179 C 
HETATM   37  O2  UNL     1     -10.375  20.406 -52.842  1.00  0.00    -0.648 OA
HETATM   38  O3  UNL     1      -9.898  19.718 -50.835  1.00  0.00    -0.648 OA
ENDBRANCH  13  36
TORSDOF 7
ENDMDL
MODEL 2
REMARK VINA RESULT: -6.527538978      2.040      4.984
REMARK  7 active torsions:
REMARK  status: ('A' for Active; 'I' for Inactive)
REMARK    1  A    between atoms: C2_4  and  N2_5 
REMARK    2  A    between atoms: C2_4  and  C17_34 
REMARK    3  A    between atoms: N2_5  and  C3_7 
REMARK    4  A    between atoms: C3_7  and  C4_8 
REMARK    5  A    between atoms: C13_20  and  C14_21 
REMARK    6  A    between atoms: C15_24  and  N4_25 
REMARK       I    between atoms: N4_25  and  C16_27 
REMARK       I    between atoms: C16_27  and  N5_29 
REMARK    7  A    between atoms: N5_29  and  N6_31 
ROOT
HETATM    1  C4  UNL     1     -10.980  16.769 -50.151  1.00  0.00     0.036 C 
HETATM    2  C5  UNL     1     -11.516  17.243 -51.514  1.00  0.00     0.111 C 
HETATM    3  C6  UNL     1     -11.034  16.382 -52.621  1.00  0.00     0.218 C 
HETATM    4  O1  UNL     1     -10.998  15.135 -52.397  1.00  0.00    -0.274 OA
HETATM    5  N3  UNL     1     -10.614  16.821 -53.890  1.00  0.00    -0.361 N 
ATOM      6  H3  UNL     1     -10.971  16.284 -54.681  1.00  0.00     0.162 HD
HETATM    7  C7  UNL     1      -9.753  17.919 -54.228  1.00  0.00     0.122 C 
HETATM    8  C8  UNL     1      -8.355  17.548 -54.577  1.00  0.00     0.020 C 
HETATM    9  C9  UNL     1      -7.279  18.072 -53.612  1.00  0.00     0.002 C 
HETATM   10  C10 UNL     1      -7.719  17.577 -52.255  1.00  0.00     0.000 C 
HETATM   11  C11 UNL     1      -6.874  17.941 -51.085  1.00  0.00     0.001 C 
HETATM   12  C12 UNL     1      -7.640  18.283 -49.867  1.00  0.00     0.017 C 
HETATM   13  C13 UNL     1      -8.612  17.340 -49.262  1.00  0.00     0.110 C 
HETATM   14  C15 UNL     1     -10.032  17.711 -49.518  1.00  0.00     0.106 C 
ENDROOT
BRANCH   1  15
HETATM   15  C3  UNL     1     -12.229  16.755 -49.277  1.00  0.00     0.128 C 
BRANCH  15  16
HETATM   16  N2  UNL     1     -13.403  16.315 -49.944  1.00  0.00    -0.379 N 
ATOM     17  H2  UNL     1     -13.352  15.629 -50.698  1.00  0.00     0.160 HD
BRANCH  16  18
HETATM   18  C2  UNL     1     -14.691  16.876 -49.518  1.00  0.00     0.076 C 
HETATM   19  N1  UNL     1     -15.708  16.691 -50.207  1.00  0.00    -0.384 N 
HETATM   20  C1  UNL     1     -17.056  16.993 -50.229  1.00  0.00     0.147 C 
ATOM     21  H1  UNL     1     -15.469  16.132 -51.026  1.00  0.00     0.160 HD
BRANCH  18  22
HETATM   22  C17 UNL     1     -14.643  17.654 -48.276  1.00  0.00     0.055 C 
HETATM   23  C18 UNL     1     -15.251  19.021 -48.226  1.00  0.00     0.032 C 
HETATM   24  C19 UNL     1     -15.843  18.685 -46.850  1.00  0.00     0.084 C 
HETATM   25 CL1  UNL     1     -14.771  19.065 -45.505  1.00  0.00    -0.125 Cl
HETATM   26  C20 UNL     1     -15.744  17.221 -47.297  1.00  0.00     0.032 C 
ENDBRANCH  18  22
ENDBRANCH  16  18
ENDBRANCH  15  16
ENDBRANCH   1  15
BRANCH  14  27
HETATM   27  N4  UNL     1     -10.624  18.350 -48.326  1.00  0.00    -0.336 N 
HETATM   28  C16 UNL     1     -10.682  19.748 -48.138  1.00  0.00     0.334 C 
HETATM   29  O4  UNL     1     -10.240  20.589 -48.959  1.00  0.00    -0.246 OA
HETATM   30  N5  UNL     1     -11.266  20.296 -46.967  1.00  0.00    -0.258 N 
ATOM     31  H5  UNL     1     -11.637  19.644 -46.276  1.00  0.00     0.191 HD
ATOM     32  H4  UNL     1     -11.012  17.749 -47.599  1.00  0.00     0.164 HD
BRANCH  30  33
HETATM   33  N6  UNL     1     -11.368  21.641 -46.694  1.00  0.00    -0.341 N 
ATOM     34  H62 UNL     1     -10.492  22.157 -46.611  1.00  0.00     0.177 HD
ATOM     35  H61 UNL     1     -12.246  22.146 -46.571  1.00  0.00     0.177 HD
ENDBRANCH  30  33
ENDBRANCH  14  27
BRANCH  13  36
HETATM   36  C14 UNL     1      -8.251  15.938 -49.254  1.00  0.00     0.179 C 
HETATM   37  O2  UNL     1      -7.169  15.606 -48.748  1.00  0.00    -0.648 OA
HETATM   38  O3  UNL     1      -8.960  14.882 -49.746  1.00  0.00    -0.648 OA
ENDBRANCH  13  36
TORSDOF 7
ENDMDL
MODEL 3
REMARK VINA RESULT: -6.426087958      1.443      1.926
REMARK  7 active torsions:
REMARK  status: ('A' for Active; 'I' for Inactive)
REMARK    1  A    between atoms: C2_4  and  N2_5 
REMARK    2  A    between atoms: C2_4  and  C17_34 
REMARK    3  A    between atoms: N2_5  and  C3_7 
REMARK    4  A    between atoms: C3_7  and  C4_8 
REMARK    5  A    between atoms: C13_20  and  C14_21 
REMARK    6  A    between atoms: C15_24  and  N4_25 
REMARK       I    between atoms: N4_25  and  C16_27 
REMARK       I    between atoms: C16_27  and  N5_29 
REMARK    7  A    between atoms: N5_29  and  N6_31 
ROOT
HETATM    1  C4  UNL     1     -10.774  16.609 -50.960  1.00  0.00     0.036 C 
HETATM    2  C5  UNL     1      -9.909  15.635 -50.139  1.00  0.00     0.111 C 
HETATM    3  C6  UNL     1      -9.164  16.336 -49.066  1.00  0.00     0.218 C 
HETATM    4  O1  UNL     1      -9.787  17.247 -48.443  1.00  0.00    -0.274 OA
HETATM    5  N3  UNL     1      -7.835  16.084 -48.677  1.00  0.00    -0.361 N 
ATOM      6  H3  UNL     1      -7.674  16.033 -47.671  1.00  0.00     0.162 HD
HETATM    7  C7  UNL     1      -6.675  15.888 -49.500  1.00  0.00     0.122 C 
HETATM    8  C8  UNL     1      -5.767  17.060 -49.610  1.00  0.00     0.020 C 
HETATM    9  C9  UNL     1      -5.650  17.665 -51.019  1.00  0.00     0.002 C 
HETATM   10  C10 UNL     1      -7.075  17.959 -51.421  1.00  0.00     0.000 C 
HETATM   11  C11 UNL     1      -7.299  18.549 -52.769  1.00  0.00     0.001 C 
HETATM   12  C12 UNL     1      -8.488  18.020 -53.473  1.00  0.00     0.017 C 
HETATM   13  C13 UNL     1      -9.845  18.085 -52.879  1.00  0.00     0.110 C 
HETATM   14  C15 UNL     1     -10.327  16.775 -52.360  1.00  0.00     0.106 C 
ENDROOT
BRANCH   1  15
HETATM   15  C3  UNL     1     -12.125  15.907 -51.014  1.00  0.00     0.128 C 
BRANCH  15  16
HETATM   16  N2  UNL     1     -12.764  15.774 -49.753  1.00  0.00    -0.379 N 
ATOM     17  H2  UNL     1     -12.620  14.945 -49.176  1.00  0.00     0.160 HD
BRANCH  16  18
HETATM   18  C2  UNL     1     -13.640  16.865 -49.304  1.00  0.00     0.076 C 
HETATM   19  N1  UNL     1     -14.873  16.750 -49.398  1.00  0.00    -0.384 N 
HETATM   20  C1  UNL     1     -16.037  17.447 -49.134  1.00  0.00     0.147 C 
ATOM     21  H1  UNL     1     -15.102  15.843 -49.803  1.00  0.00     0.160 HD
BRANCH  18  22
HETATM   22  C17 UNL     1     -12.938  18.044 -48.788  1.00  0.00     0.055 C 
HETATM   23  C18 UNL     1     -13.624  19.374 -48.771  1.00  0.00     0.032 C 
HETATM   24  C19 UNL     1     -13.059  19.626 -47.366  1.00  0.00     0.084 C 
HETATM   25 CL1  UNL     1     -11.474  20.394 -47.366  1.00  0.00    -0.125 Cl
HETATM   26  C20 UNL     1     -12.982  18.098 -47.253  1.00  0.00     0.032 C 
ENDBRANCH  18  22
ENDBRANCH  16  18
ENDBRANCH  15  16
ENDBRANCH   1  15
BRANCH  14  27
HETATM   27  N4  UNL     1     -11.282  16.163 -53.305  1.00  0.00    -0.336 N 
HETATM   28  C16 UNL     1     -10.915  15.671 -54.576  1.00  0.00     0.334 C 
HETATM   29  O4  UNL     1      -9.746  15.702 -55.034  1.00  0.00    -0.246 OA
HETATM   30  N5  UNL     1     -11.885  15.094 -55.435  1.00  0.00    -0.258 N 
ATOM     31  H5  UNL     1     -12.846  15.051 -55.099  1.00  0.00     0.191 HD
ATOM     32  H4  UNL     1     -12.260  16.092 -53.024  1.00  0.00     0.164 HD
BRANCH  30  33
HETATM   33  N6  UNL     1     -11.625  14.589 -56.689  1.00  0.00    -0.341 N 
ATOM     34  H62 UNL     1     -11.400  15.268 -57.416  1.00  0.00     0.177 HD
ATOM     35  H61 UNL     1     -11.643  13.599 -56.934  1.00  0.00     0.177 HD
ENDBRANCH  30  33
ENDBRANCH  14  27
BRANCH  13  36
HETATM   36  C14 UNL     1     -10.186  19.290 -52.150  1.00  0.00     0.179 C 
HETATM   37  O2  UNL     1     -10.459  20.315 -52.791  1.00  0.00    -0.648 OA
HETATM   38  O3  UNL     1     -10.251  19.467 -50.799  1.00  0.00    -0.648 OA
ENDBRANCH  13  36
TORSDOF 7
ENDMDL
MODEL 4
REMARK VINA RESULT: -6.325226133      1.909      4.805
REMARK  7 active torsions:
REMARK  status: ('A' for Active; 'I' for Inactive)
REMARK    1  A    between atoms: C2_4  and  N2_5 
REMARK    2  A    between atoms: C2_4  and  C17_34 
REMARK    3  A    between atoms: N2_5  and  C3_7 
REMARK    4  A    between atoms: C3_7  and  C4_8 
REMARK    5  A    between atoms: C13_20  and  C14_21 
REMARK    6  A    between atoms: C15_24  and  N4_25 
REMARK       I    between atoms: N4_25  and  C16_27 
REMARK       I    between atoms: C16_27  and  N5_29 
REMARK    7  A    between atoms: N5_29  and  N6_31 
ROOT
HETATM    1  C4  UNL     1     -10.760  16.753 -50.004  1.00  0.00     0.036 C 
HETATM    2  C5  UNL     1     -11.393  17.244 -51.318  1.00  0.00     0.111 C 
HETATM    3  C6  UNL     1     -11.009  16.386 -52.465  1.00  0.00     0.218 C 
HETATM    4  O1  UNL     1     -10.971  15.137 -52.253  1.00  0.00    -0.274 OA
HETATM    5  N3  UNL     1     -10.682  16.829 -53.760  1.00  0.00    -0.361 N 
ATOM      6  H3  UNL     1     -11.106  16.302 -54.525  1.00  0.00     0.162 HD
HETATM    7  C7  UNL     1      -9.836  17.919 -54.156  1.00  0.00     0.122 C 
HETATM    8  C8  UNL     1      -8.475  17.535 -54.615  1.00  0.00     0.020 C 
HETATM    9  C9  UNL     1      -7.321  18.039 -53.732  1.00  0.00     0.002 C 
HETATM   10  C10 UNL     1      -7.661  17.538 -52.348  1.00  0.00     0.000 C 
HETATM   11  C11 UNL     1      -6.724  17.884 -51.245  1.00  0.00     0.001 C 
HETATM   12  C12 UNL     1      -7.389  18.225 -49.968  1.00  0.00     0.017 C 
HETATM   13  C13 UNL     1      -8.324  17.289 -49.297  1.00  0.00     0.110 C 
HETATM   14  C15 UNL     1      -9.754  17.679 -49.440  1.00  0.00     0.106 C 
ENDROOT
BRANCH   1  15
HETATM   15  C3  UNL     1     -11.938  16.748 -49.037  1.00  0.00     0.128 C 
BRANCH  15  16
HETATM   16  N2  UNL     1     -13.148  17.246 -49.588  1.00  0.00    -0.379 N 
ATOM     17  H2  UNL     1     -13.297  17.264 -50.598  1.00  0.00     0.160 HD
BRANCH  16  18
HETATM   18  C2  UNL     1     -14.179  17.736 -48.663  1.00  0.00     0.076 C 
HETATM   19  N1  UNL     1     -13.880  18.010 -47.489  1.00  0.00    -0.384 N 
HETATM   20  C1  UNL     1     -14.451  18.470 -46.318  1.00  0.00     0.147 C 
ATOM     21  H1  UNL     1     -12.885  17.839 -47.341  1.00  0.00     0.160 HD
BRANCH  18  22
HETATM   22  C17 UNL     1     -15.524  17.835 -49.237  1.00  0.00     0.055 C 
HETATM   23  C18 UNL     1     -16.687  17.217 -48.527  1.00  0.00     0.032 C 
HETATM   24  C19 UNL     1     -17.518  18.470 -48.837  1.00  0.00     0.084 C 
HETATM   25 CL1  UNL     1     -18.364  18.397 -50.379  1.00  0.00    -0.125 Cl
HETATM   26  C20 UNL     1     -16.168  19.195 -48.930  1.00  0.00     0.032 C 
ENDBRANCH  18  22
ENDBRANCH  16  18
ENDBRANCH  15  16
ENDBRANCH   1  15
BRANCH  14  27
HETATM   27  N4  UNL     1     -10.244  18.316 -48.202  1.00  0.00    -0.336 N 
HETATM   28  C16 UNL     1     -10.650  19.666 -48.126  1.00  0.00     0.334 C 
HETATM   29  O4  UNL     1     -10.637  20.461 -49.098  1.00  0.00    -0.246 OA
HETATM   30  N5  UNL     1     -11.112  20.214 -46.902  1.00  0.00    -0.258 N 
ATOM     31  H5  UNL     1     -11.137  19.598 -46.090  1.00  0.00     0.191 HD
ATOM     32  H4  UNL     1     -10.293  17.750 -47.355  1.00  0.00     0.164 HD
BRANCH  30  33
HETATM   33  N6  UNL     1     -11.527  21.515 -46.729  1.00  0.00    -0.341 N 
ATOM     34  H62 UNL     1     -10.893  22.243 -47.059  1.00  0.00     0.177 HD
ATOM     35  H61 UNL     1     -12.410  21.793 -46.302  1.00  0.00     0.177 HD
ENDBRANCH  30  33
ENDBRANCH  14  27
BRANCH  13  36
HETATM   36  C14 UNL     1      -7.980  15.883 -49.326  1.00  0.00     0.179 C 
HETATM   37  O2  UNL     1      -6.896  15.526 -48.844  1.00  0.00    -0.648 OA
HETATM   38  O3  UNL     1      -8.710  14.847 -49.832  1.00  0.00    -0.648 OA
ENDBRANCH  13  36
TORSDOF 7
ENDMDL
MODEL 5
REMARK VINA RESULT: -5.758422054      2.212      4.705
REMARK  7 active torsions:
REMARK  status: ('A' for Active; 'I' for Inactive)
REMARK    1  A    between atoms: C2_4  and  N2_5 
REMARK    2  A    between atoms: C2_4  and  C17_34 
REMARK    3  A    between atoms: N2_5  and  C3_7 
REMARK    4  A    between atoms: C3_7  and  C4_8 
REMARK    5  A    between atoms: C13_20  and  C14_21 
REMARK    6  A    between atoms: C15_24  and  N4_25 
REMARK       I    between atoms: N4_25  and  C16_27 
REMARK       I    between atoms: C16_27  and  N5_29 
REMARK    7  A    between atoms: N5_29  and  N6_31 
ROOT
HETATM    1  C4  UNL     1     -11.110  17.161 -50.145  1.00  0.00     0.036 C 
HETATM    2  C5  UNL     1     -11.996  16.387 -51.138  1.00  0.00     0.111 C 
HETATM    3  C6  UNL     1     -11.227  15.344 -51.859  1.00  0.00     0.218 C 
HETATM    4  O1  UNL     1     -10.381  14.688 -51.179  1.00  0.00    -0.274 OA
HETATM    5  N3  UNL     1     -11.347  15.019 -53.223  1.00  0.00    -0.361 N 
ATOM      6  H3  UNL     1     -11.382  14.022 -53.435  1.00  0.00     0.162 HD
HETATM    7  C7  UNL     1     -11.427  15.895 -54.357  1.00  0.00     0.122 C 
HETATM    8  C8  UNL     1     -10.170  16.040 -55.140  1.00  0.00     0.020 C 
HETATM    9  C9  UNL     1      -9.555  17.450 -55.132  1.00  0.00     0.002 C 
HETATM   10  C10 UNL     1      -9.402  17.784 -53.667  1.00  0.00     0.000 C 
HETATM   11  C11 UNL     1      -8.836  19.117 -53.324  1.00  0.00     0.001 C 
HETATM   12  C12 UNL     1      -9.479  19.769 -52.162  1.00  0.00     0.017 C 
HETATM   13  C13 UNL     1      -9.548  19.112 -50.833  1.00  0.00     0.110 C 
HETATM   14  C15 UNL     1     -10.900  18.579 -50.508  1.00  0.00     0.106 C 
ENDROOT
BRANCH   1  15
HETATM   15  C3  UNL     1     -11.943  17.157 -48.868  1.00  0.00     0.128 C 
BRANCH  15  16
HETATM   16  N2  UNL     1     -13.295  16.765 -49.054  1.00  0.00    -0.379 N 
ATOM     17  H2  UNL     1     -13.537  15.990 -49.672  1.00  0.00     0.160 HD
BRANCH  16  18
HETATM   18  C2  UNL     1     -14.336  17.509 -48.332  1.00  0.00     0.076 C 
HETATM   19  N1  UNL     1     -14.104  17.956 -47.196  1.00  0.00    -0.384 N 
HETATM   20  C1  UNL     1     -14.713  18.670 -46.182  1.00  0.00     0.147 C 
ATOM     21  H1  UNL     1     -13.151  17.719 -46.923  1.00  0.00     0.160 HD
BRANCH  18  22
HETATM   22  C17 UNL     1     -15.610  17.635 -49.045  1.00  0.00     0.055 C 
HETATM   23  C18 UNL     1     -16.892  17.299 -48.351  1.00  0.00     0.032 C 
HETATM   24  C19 UNL     1     -17.534  18.547 -48.973  1.00  0.00     0.084 C 
HETATM   25 CL1  UNL     1     -18.262  18.259 -50.551  1.00  0.00    -0.125 Cl
HETATM   26  C20 UNL     1     -16.102  19.090 -49.067  1.00  0.00     0.032 C 
ENDBRANCH  18  22
ENDBRANCH  16  18
ENDBRANCH  15  16
ENDBRANCH   1  15
BRANCH  14  27
HETATM   27  N4  UNL     1     -11.602  19.483 -49.575  1.00  0.00    -0.336 N 
HETATM   28  C16 UNL     1     -10.960  20.516 -48.858  1.00  0.00     0.334 C 
HETATM   29  O4  UNL     1      -9.734  20.774 -48.939  1.00  0.00    -0.246 OA
HETATM   30  N5  UNL     1     -11.696  21.349 -47.977  1.00  0.00    -0.258 N 
ATOM     31  H5  UNL     1     -12.696  21.171 -47.885  1.00  0.00     0.191 HD
ATOM     32  H4  UNL     1     -12.605  19.353 -49.440  1.00  0.00     0.164 HD
BRANCH  30  33
HETATM   33  N6  UNL     1     -11.161  22.379 -47.237  1.00  0.00    -0.341 N 
ATOM     34  H62 UNL     1     -11.807  22.891 -46.636  1.00  0.00     0.177 HD
ATOM     35  H61 UNL     1     -10.181  22.660 -47.251  1.00  0.00     0.177 HD
ENDBRANCH  30  33
ENDBRANCH  14  27
BRANCH  13  36
HETATM   36  C14 UNL     1      -8.384  18.361 -50.410  1.00  0.00     0.179 C 
HETATM   37  O2  UNL     1      -7.418  18.978 -49.938  1.00  0.00    -0.648 OA
HETATM   38  O3  UNL     1      -8.187  17.012 -50.460  1.00  0.00    -0.648 OA
ENDBRANCH  13  36
TORSDOF 7
ENDMDL
