MODEL 1
REMARK VINA RESULT: -7.080912355      0.000      0.000
REMARK  5 active torsions:
REMARK  status: ('A' for Active; 'I' for Inactive)
REMARK    1  A    between atoms: N1_2  and  C2_4 
REMARK    2  A    between atoms: C3_7  and  C4_8 
REMARK    3  A    between atoms: C4_8  and  S1_9 
REMARK    4  A    between atoms: S1_9  and  C5_10 
REMARK    5  A    between atoms: C7_20  and  O1_21 
ROOT
HETATM    1  C4  UNL     1      17.401   8.566  55.977  1.00  0.00     0.142 C 
ENDROOT
BRANCH   1   2
HETATM    2  C3  UNL     1      16.259   9.569  56.067  1.00  0.00     0.061 A 
HETATM    3  N2  UNL     1      16.552  10.823  56.374  1.00  0.00    -0.337 N 
HETATM    4  C2  UNL     1      15.594  11.728  56.411  1.00  0.00     0.146 A 
ATOM      5  H2  UNL     1      17.515  11.088  56.581  1.00  0.00     0.168 HD
HETATM    6  S3  UNL     1      14.209  10.852  56.010  1.00  0.00    -0.028 SA
HETATM    7  C7  UNL     1      14.953   9.292  55.804  1.00  0.00     0.136 A 
BRANCH   4   8
HETATM    8  N1  UNL     1      15.634  13.012  56.672  1.00  0.00    -0.375 N 
HETATM    9  C1  UNL     1      14.958  13.525  57.836  1.00  0.00     0.148 C 
ATOM     10  H1  UNL     1      16.142  13.645  56.054  1.00  0.00     0.161 HD
ENDBRANCH   4   8
BRANCH   7  11
HETATM   11  O1  UNL     1      14.290   8.104  55.463  1.00  0.00    -0.347 OA
HETATM   12  C8  UNL     1      13.690   8.057  54.196  1.00  0.00     0.211 C 
ENDBRANCH   7  11
ENDBRANCH   1   2
BRANCH   1  13
HETATM   13  S1  UNL     1      18.954   9.205  56.491  1.00  0.00    -0.097 SA
BRANCH  13  14
HETATM   14  C5  UNL     1      20.306   8.599  55.452  1.00  0.00     0.130 A 
HETATM   15  N3  UNL     1      20.442   7.299  55.117  1.00  0.00    -0.286 N 
HETATM   16  N4  UNL     1      21.400   6.925  54.401  1.00  0.00    -0.279 N 
ATOM     17  H3  UNL     1      19.761   6.616  55.449  1.00  0.00     0.188 HD
HETATM   18  C6  UNL     1      22.286   7.833  53.972  1.00  0.00     0.159 A 
ATOM     19  H4  UNL     1      21.505   5.941  54.149  1.00  0.00     0.189 HD
HETATM   20  N5  UNL     1      23.342   7.642  53.229  1.00  0.00    -0.379 N 
HETATM   21  S2  UNL     1      21.641   9.267  54.676  1.00  0.00    -0.027 SA
ATOM     22  H52 UNL     1      23.725   6.792  52.812  1.00  0.00     0.158 HD
ATOM     23  H51 UNL     1      24.017   8.334  52.902  1.00  0.00     0.158 HD
ENDBRANCH  13  14
ENDBRANCH   1  13
TORSDOF 5
ENDMDL
MODEL 2
REMARK VINA RESULT: -6.742387899      1.782      3.024
REMARK  5 active torsions:
REMARK  status: ('A' for Active; 'I' for Inactive)
REMARK    1  A    between atoms: N1_2  and  C2_4 
REMARK    2  A    between atoms: C3_7  and  C4_8 
REMARK    3  A    between atoms: C4_8  and  S1_9 
REMARK    4  A    between atoms: S1_9  and  C5_10 
REMARK    5  A    between atoms: C7_20  and  O1_21 
ROOT
HETATM    1  C4  UNL     1      17.895  10.004  56.201  1.00  0.00     0.142 C 
ENDROOT
BRANCH   1   2
HETATM    2  C3  UNL     1      16.388  10.114  56.012  1.00  0.00     0.061 A 
HETATM    3  N2  UNL     1      15.778   9.179  55.300  1.00  0.00    -0.337 N 
HETATM    4  C2  UNL     1      14.467   9.216  55.160  1.00  0.00     0.146 A 
ATOM      5  H2  UNL     1      16.319   8.434  54.863  1.00  0.00     0.168 HD
HETATM    6  S3  UNL     1      14.015  10.586  56.034  1.00  0.00    -0.028 SA
HETATM    7  C7  UNL     1      15.600  11.075  56.565  1.00  0.00     0.136 A 
BRANCH   4   8
HETATM    8  N1  UNL     1      13.648   8.413  54.525  1.00  0.00    -0.375 N 
HETATM    9  C1  UNL     1      12.235   8.695  54.518  1.00  0.00     0.148 C 
ATOM     10  H1  UNL     1      14.009   7.593  54.039  1.00  0.00     0.161 HD
ENDBRANCH   4   8
BRANCH   7  11
HETATM   11  O1  UNL     1      15.892  12.198  57.352  1.00  0.00    -0.347 OA
HETATM   12  C8  UNL     1      15.040  13.304  57.218  1.00  0.00     0.211 C 
ENDBRANCH   7  11
ENDBRANCH   1   2
BRANCH   1  13
HETATM   13  S1  UNL     1      18.473   8.354  56.380  1.00  0.00    -0.097 SA
BRANCH  13  14
HETATM   14  C5  UNL     1      19.974   8.062  55.413  1.00  0.00     0.130 A 
HETATM   15  N3  UNL     1      20.359   6.830  55.018  1.00  0.00    -0.286 N 
HETATM   16  N4  UNL     1      21.413   6.676  54.356  1.00  0.00    -0.279 N 
ATOM     17  H3  UNL     1      19.790   6.019  55.260  1.00  0.00     0.188 HD
HETATM   18  C6  UNL     1      22.150   7.750  54.045  1.00  0.00     0.159 A 
ATOM     19  H4  UNL     1      21.705   5.744  54.059  1.00  0.00     0.189 HD
HETATM   20  N5  UNL     1      23.268   7.794  53.373  1.00  0.00    -0.379 N 
HETATM   21  S2  UNL     1      21.217   9.001  54.776  1.00  0.00    -0.027 SA
ATOM     22  H52 UNL     1      23.821   7.053  52.941  1.00  0.00     0.158 HD
ATOM     23  H51 UNL     1      23.829   8.612  53.136  1.00  0.00     0.158 HD
ENDBRANCH  13  14
ENDBRANCH   1  13
TORSDOF 5
ENDMDL
MODEL 3
REMARK VINA RESULT: -6.672067641      2.300      3.061
REMARK  5 active torsions:
REMARK  status: ('A' for Active; 'I' for Inactive)
REMARK    1  A    between atoms: N1_2  and  C2_4 
REMARK    2  A    between atoms: C3_7  and  C4_8 
REMARK    3  A    between atoms: C4_8  and  S1_9 
REMARK    4  A    between atoms: S1_9  and  C5_10 
REMARK    5  A    between atoms: C7_20  and  O1_21 
ROOT
HETATM    1  C4  UNL     1      16.410  11.603  56.705  1.00  0.00     0.142 C 
ENDROOT
BRANCH   1   2
HETATM    2  C3  UNL     1      15.293  10.709  56.183  1.00  0.00     0.061 A 
HETATM    3  N2  UNL     1      14.050  11.156  56.257  1.00  0.00    -0.337 N 
HETATM    4  C2  UNL     1      13.064  10.430  55.769  1.00  0.00     0.146 A 
ATOM      5  H2  UNL     1      13.855  12.059  56.690  1.00  0.00     0.168 HD
HETATM    6  S3  UNL     1      13.843   9.059  55.170  1.00  0.00    -0.028 SA
HETATM    7  C7  UNL     1      15.475   9.497  55.592  1.00  0.00     0.136 A 
BRANCH   4   8
HETATM    8  N1  UNL     1      11.774  10.657  55.713  1.00  0.00    -0.375 N 
HETATM    9  C1  UNL     1      11.056  10.404  54.490  1.00  0.00     0.148 C 
ATOM     10  H1  UNL     1      11.281  11.013  56.532  1.00  0.00     0.161 HD
ENDBRANCH   4   8
BRANCH   7  11
HETATM   11  O1  UNL     1      16.621   8.725  55.354  1.00  0.00    -0.347 OA
HETATM   12  C8  UNL     1      16.651   7.445  55.927  1.00  0.00     0.211 C 
ENDBRANCH   7  11
ENDBRANCH   1   2
BRANCH   1  13
HETATM   13  S1  UNL     1      17.596  10.760  57.690  1.00  0.00    -0.097 SA
BRANCH  13  14
HETATM   14  C5  UNL     1      18.945  10.089  56.688  1.00  0.00     0.130 A 
HETATM   15  N3  UNL     1      19.141  10.441  55.400  1.00  0.00    -0.286 N 
HETATM   16  N4  UNL     1      20.085   9.942  54.743  1.00  0.00    -0.279 N 
ATOM     17  H3  UNL     1      18.517  11.116  54.958  1.00  0.00     0.188 HD
HETATM   18  C6  UNL     1      20.897   9.058  55.337  1.00  0.00     0.159 A 
ATOM     19  H4  UNL     1      20.233  10.206  53.768  1.00  0.00     0.189 HD
HETATM   20  N5  UNL     1      21.922   8.433  54.825  1.00  0.00    -0.379 N 
HETATM   21  S2  UNL     1      20.202   8.993  56.913  1.00  0.00    -0.027 SA
ATOM     22  H52 UNL     1      22.333   8.471  53.892  1.00  0.00     0.158 HD
ATOM     23  H51 UNL     1      22.540   7.759  55.278  1.00  0.00     0.158 HD
ENDBRANCH  13  14
ENDBRANCH   1  13
TORSDOF 5
ENDMDL
MODEL 4
REMARK VINA RESULT: -6.544254445      3.123      7.308
REMARK  5 active torsions:
REMARK  status: ('A' for Active; 'I' for Inactive)
REMARK    1  A    between atoms: N1_2  and  C2_4 
REMARK    2  A    between atoms: C3_7  and  C4_8 
REMARK    3  A    between atoms: C4_8  and  S1_9 
REMARK    4  A    between atoms: S1_9  and  C5_10 
REMARK    5  A    between atoms: C7_20  and  O1_21 
ROOT
HETATM    1  C4  UNL     1      17.196  10.311  56.051  1.00  0.00     0.142 C 
ENDROOT
BRANCH   1   2
HETATM    2  C3  UNL     1      18.648   9.950  56.336  1.00  0.00     0.061 A 
HETATM    3  N2  UNL     1      19.305   9.244  55.430  1.00  0.00    -0.337 N 
HETATM    4  C2  UNL     1      20.578   8.958  55.621  1.00  0.00     0.146 A 
ATOM      5  H2  UNL     1      18.829   8.923  54.587  1.00  0.00     0.168 HD
HETATM    6  S3  UNL     1      20.924   9.677  57.107  1.00  0.00    -0.028 SA
HETATM    7  C7  UNL     1      19.350  10.343  57.434  1.00  0.00     0.136 A 
BRANCH   4   8
HETATM    8  N1  UNL     1      21.431   8.296  54.878  1.00  0.00    -0.375 N 
HETATM    9  C1  UNL     1      20.970   7.198  54.068  1.00  0.00     0.148 C 
ATOM     10  H1  UNL     1      22.417   8.557  54.874  1.00  0.00     0.161 HD
ENDBRANCH   4   8
BRANCH   7  11
HETATM   11  O1  UNL     1      18.987  11.075  58.573  1.00  0.00    -0.347 OA
HETATM   12  C8  UNL     1      18.196  10.414  59.525  1.00  0.00     0.211 C 
ENDBRANCH   7  11
ENDBRANCH   1   2
BRANCH   1  13
HETATM   13  S1  UNL     1      16.099   8.940  56.101  1.00  0.00    -0.097 SA
BRANCH  13  14
HETATM   14  C5  UNL     1      14.417   9.410  55.627  1.00  0.00     0.130 A 
HETATM   15  N3  UNL     1      13.747  10.421  56.220  1.00  0.00    -0.286 N 
HETATM   16  N4  UNL     1      12.580  10.705  55.863  1.00  0.00    -0.279 N 
ATOM     17  H3  UNL     1      14.195  10.957  56.963  1.00  0.00     0.188 HD
HETATM   18  C6  UNL     1      12.007   9.993  54.884  1.00  0.00     0.159 A 
ATOM     19  H4  UNL     1      12.073  11.468  56.312  1.00  0.00     0.189 HD
HETATM   20  N5  UNL     1      10.810  10.132  54.380  1.00  0.00    -0.379 N 
HETATM   21  S2  UNL     1      13.270   8.881  54.515  1.00  0.00    -0.027 SA
ATOM     22  H52 UNL     1      10.062  10.789  54.599  1.00  0.00     0.158 HD
ATOM     23  H51 UNL     1      10.374   9.589  53.634  1.00  0.00     0.158 HD
ENDBRANCH  13  14
ENDBRANCH   1  13
TORSDOF 5
ENDMDL
MODEL 5
REMARK VINA RESULT: -6.438846028      3.142      7.576
REMARK  5 active torsions:
REMARK  status: ('A' for Active; 'I' for Inactive)
REMARK    1  A    between atoms: N1_2  and  C2_4 
REMARK    2  A    between atoms: C3_7  and  C4_8 
REMARK    3  A    between atoms: C4_8  and  S1_9 
REMARK    4  A    between atoms: S1_9  and  C5_10 
REMARK    5  A    between atoms: C7_20  and  O1_21 
ROOT
HETATM    1  C4  UNL     1      16.751  10.090  56.255  1.00  0.00     0.142 C 
ENDROOT
BRANCH   1   2
HETATM    2  C3  UNL     1      18.176   9.577  56.096  1.00  0.00     0.061 A 
HETATM    3  N2  UNL     1      18.357   8.274  55.945  1.00  0.00    -0.337 N 
HETATM    4  C2  UNL     1      19.573   7.801  55.754  1.00  0.00     0.146 A 
ATOM      5  H2  UNL     1      17.560   7.639  55.976  1.00  0.00     0.168 HD
HETATM    6  S3  UNL     1      20.541   9.183  55.777  1.00  0.00    -0.028 SA
HETATM    7  C7  UNL     1      19.287  10.361  56.043  1.00  0.00     0.136 A 
BRANCH   4   8
HETATM    8  N1  UNL     1      20.000   6.576  55.570  1.00  0.00    -0.375 N 
HETATM    9  C1  UNL     1      20.560   6.199  54.297  1.00  0.00     0.148 C 
ATOM     10  H1  UNL     1      19.934   5.892  56.324  1.00  0.00     0.161 HD
ENDBRANCH   4   8
BRANCH   7  11
HETATM   11  O1  UNL     1      19.473  11.744  56.170  1.00  0.00    -0.347 OA
HETATM   12  C8  UNL     1      20.790  12.191  56.355  1.00  0.00     0.211 C 
ENDBRANCH   7  11
ENDBRANCH   1   2
BRANCH   1  13
HETATM   13  S1  UNL     1      15.528   8.830  56.192  1.00  0.00    -0.097 SA
BRANCH  13  14
HETATM   14  C5  UNL     1      13.925   9.478  55.660  1.00  0.00     0.130 A 
HETATM   15  N3  UNL     1      13.277  10.459  56.324  1.00  0.00    -0.286 N 
HETATM   16  N4  UNL     1      12.164  10.870  55.922  1.00  0.00    -0.279 N 
ATOM     17  H3  UNL     1      13.697  10.868  57.159  1.00  0.00     0.188 HD
HETATM   18  C6  UNL     1      11.626  10.323  54.823  1.00  0.00     0.159 A 
ATOM     19  H4  UNL     1      11.673  11.610  56.424  1.00  0.00     0.189 HD
HETATM   20  N5  UNL     1      10.486  10.610  54.255  1.00  0.00    -0.379 N 
HETATM   21  S2  UNL     1      12.840   9.172  54.411  1.00  0.00    -0.027 SA
ATOM     22  H52 UNL     1       9.767  11.292  54.499  1.00  0.00     0.158 HD
ATOM     23  H51 UNL     1      10.077  10.195  53.418  1.00  0.00     0.158 HD
ENDBRANCH  13  14
ENDBRANCH   1  13
TORSDOF 5
ENDMDL
