MODEL 1
REMARK VINA RESULT: -7.581449485      0.000      0.000
REMARK  8 active torsions:
REMARK  status: ('A' for Active; 'I' for Inactive)
REMARK    1  A    between atoms: O1_2  and  C2_3 
REMARK    2  A    between atoms: C2_3  and  C3_5 
REMARK    3  A    between atoms: C4_7  and  C5_8 
REMARK    4  A    between atoms: C5_8  and  C6_9 
REMARK    5  A    between atoms: C6_9  and  C8_12 
REMARK    6  A    between atoms: C10_16  and  C11_17 
REMARK    7  A    between atoms: C11_17  and  O6_18 
REMARK    8  A    between atoms: N2_20  and  O7_22 
ROOT
HETATM    1  C6  UNL     1      13.693   9.283  55.321  1.00  0.00     0.266 C 
HETATM    2  C7  UNL     1      12.852  10.293  56.014  1.00  0.00     0.087 C 
HETATM    3  N1  UNL     1      12.177  11.078  56.546  1.00  0.00    -0.195 NA
ENDROOT
BRANCH   1   4
HETATM    4  C5  UNL     1      14.925   9.330  55.601  1.00  0.00    -0.089 C 
BRANCH   4   5
HETATM    5  C4  UNL     1      16.271   9.359  55.906  1.00  0.00     0.120 A 
HETATM    6  O3  UNL     1      17.185   8.421  55.694  1.00  0.00    -0.295 OA
HETATM    7  C3  UNL     1      18.367   8.783  56.120  1.00  0.00     0.166 A 
HETATM    8  C10 UNL     1      18.323  10.037  56.668  1.00  0.00     0.060 A 
HETATM    9  C9  UNL     1      16.978  10.404  56.530  1.00  0.00     0.064 A 
BRANCH   7  10
HETATM   10  C2  UNL     1      19.555   7.915  56.000  1.00  0.00     0.318 C 
HETATM   11  O2  UNL     1      19.697   6.785  56.428  1.00  0.00    -0.257 OA
BRANCH  10  12
HETATM   12  O1  UNL     1      20.669   8.446  55.307  1.00  0.00    -0.321 OA
HETATM   13  C1  UNL     1      21.146   7.746  54.151  1.00  0.00     0.213 C 
ENDBRANCH  10  12
ENDBRANCH   7  10
BRANCH   8  14
HETATM   14  C11 UNL     1      19.326  10.874  57.298  1.00  0.00     0.173 C 
HETATM   15  N2  UNL     1      20.296  11.361  56.675  1.00  0.00    -0.247 N 
ATOM     16  H2  UNL     1      20.924  11.926  57.247  1.00  0.00     0.196 HD
BRANCH  14  17
HETATM   17  O6  UNL     1      19.259  11.181  58.643  1.00  0.00    -0.344 OA
ATOM     18  H6  UNL     1      19.111  10.506  59.295  1.00  0.00     0.219 HD
ENDBRANCH  14  17
BRANCH  15  19
HETATM   19  O7  UNL     1      20.647  11.267  55.400  1.00  0.00    -0.288 OA
ATOM     20  H7  UNL     1      20.972  11.921  54.794  1.00  0.00     0.244 HD
ENDBRANCH  15  19
ENDBRANCH   8  14
ENDBRANCH   4   5
ENDBRANCH   1   4
BRANCH   1  21
HETATM   21  C8  UNL     1      12.974   8.419  54.438  1.00  0.00     0.203 C 
HETATM   22  O4  UNL     1      11.731   8.502  54.340  1.00  0.00    -0.646 OA
HETATM   23  O5  UNL     1      13.623   7.473  53.675  1.00  0.00    -0.646 OA
ENDBRANCH   1  21
TORSDOF 8
ENDMDL
MODEL 2
REMARK VINA RESULT: -7.454760866      1.493      1.795
REMARK  8 active torsions:
REMARK  status: ('A' for Active; 'I' for Inactive)
REMARK    1  A    between atoms: O1_2  and  C2_3 
REMARK    2  A    between atoms: C2_3  and  C3_5 
REMARK    3  A    between atoms: C4_7  and  C5_8 
REMARK    4  A    between atoms: C5_8  and  C6_9 
REMARK    5  A    between atoms: C6_9  and  C8_12 
REMARK    6  A    between atoms: C10_16  and  C11_17 
REMARK    7  A    between atoms: C11_17  and  O6_18 
REMARK    8  A    between atoms: N2_20  and  O7_22 
ROOT
HETATM    1  C6  UNL     1      13.646   9.446  55.189  1.00  0.00     0.266 C 
HETATM    2  C7  UNL     1      13.287   8.282  54.338  1.00  0.00     0.087 C 
HETATM    3  N1  UNL     1      12.986   7.377  53.671  1.00  0.00    -0.195 NA
ENDROOT
BRANCH   1   4
HETATM    4  C5  UNL     1      14.852   9.480  55.569  1.00  0.00    -0.089 C 
BRANCH   4   5
HETATM    5  C4  UNL     1      16.174   9.509  55.964  1.00  0.00     0.120 A 
HETATM    6  O3  UNL     1      17.119   8.602  55.751  1.00  0.00    -0.295 OA
HETATM    7  C3  UNL     1      18.262   8.952  56.278  1.00  0.00     0.166 A 
HETATM    8  C10 UNL     1      18.157  10.165  56.905  1.00  0.00     0.060 A 
HETATM    9  C9  UNL     1      16.817  10.519  56.702  1.00  0.00     0.064 A 
BRANCH   7  10
HETATM   10  C2  UNL     1      19.473   8.113  56.179  1.00  0.00     0.318 C 
HETATM   11  O2  UNL     1      19.570   6.919  56.390  1.00  0.00    -0.257 OA
BRANCH  10  12
HETATM   12  O1  UNL     1      20.672   8.761  55.794  1.00  0.00    -0.321 OA
HETATM   13  C1  UNL     1      21.184   8.513  54.478  1.00  0.00     0.213 C 
ENDBRANCH  10  12
ENDBRANCH   7  10
BRANCH   8  14
HETATM   14  C11 UNL     1      19.100  10.972  57.656  1.00  0.00     0.173 C 
HETATM   15  N2  UNL     1      20.010  11.638  57.113  1.00  0.00    -0.247 N 
ATOM     16  H2  UNL     1      20.601  12.155  57.765  1.00  0.00     0.196 HD
BRANCH  14  17
HETATM   17  O6  UNL     1      19.039  11.047  59.034  1.00  0.00    -0.344 OA
ATOM     18  H6  UNL     1      18.395  11.593  59.468  1.00  0.00     0.219 HD
ENDBRANCH  14  17
BRANCH  15  19
HETATM   19  O7  UNL     1      20.337  11.786  55.837  1.00  0.00    -0.288 OA
ATOM     20  H7  UNL     1      21.008  11.366  55.313  1.00  0.00     0.244 HD
ENDBRANCH  15  19
ENDBRANCH   8  14
ENDBRANCH   4   5
ENDBRANCH   1   4
BRANCH   1  21
HETATM   21  C8  UNL     1      12.565  10.344  55.451  1.00  0.00     0.203 C 
HETATM   22  O4  UNL     1      11.719  10.595  54.567  1.00  0.00    -0.646 OA
HETATM   23  O5  UNL     1      12.425  10.958  56.676  1.00  0.00    -0.646 OA
ENDBRANCH   1  21
TORSDOF 8
ENDMDL
MODEL 3
REMARK VINA RESULT: -7.434365864      0.654      1.276
REMARK  8 active torsions:
REMARK  status: ('A' for Active; 'I' for Inactive)
REMARK    1  A    between atoms: O1_2  and  C2_3 
REMARK    2  A    between atoms: C2_3  and  C3_5 
REMARK    3  A    between atoms: C4_7  and  C5_8 
REMARK    4  A    between atoms: C5_8  and  C6_9 
REMARK    5  A    between atoms: C6_9  and  C8_12 
REMARK    6  A    between atoms: C10_16  and  C11_17 
REMARK    7  A    between atoms: C11_17  and  O6_18 
REMARK    8  A    between atoms: N2_20  and  O7_22 
ROOT
HETATM    1  C6  UNL     1      13.666   9.268  55.298  1.00  0.00     0.266 C 
HETATM    2  C7  UNL     1      12.845  10.300  55.984  1.00  0.00     0.087 C 
HETATM    3  N1  UNL     1      12.187  11.101  56.511  1.00  0.00    -0.195 NA
ENDROOT
BRANCH   1   4
HETATM    4  C5  UNL     1      14.899   9.292  55.577  1.00  0.00    -0.089 C 
BRANCH   4   5
HETATM    5  C4  UNL     1      16.240   9.309  55.900  1.00  0.00     0.120 A 
HETATM    6  O3  UNL     1      17.155   8.375  55.675  1.00  0.00    -0.295 OA
HETATM    7  C3  UNL     1      18.331   8.722  56.127  1.00  0.00     0.166 A 
HETATM    8  C10 UNL     1      18.283   9.960  56.709  1.00  0.00     0.060 A 
HETATM    9  C9  UNL     1      16.941  10.334  56.563  1.00  0.00     0.064 A 
BRANCH   7  10
HETATM   10  C2  UNL     1      19.520   7.854  55.998  1.00  0.00     0.318 C 
HETATM   11  O2  UNL     1      19.659   6.719  56.411  1.00  0.00    -0.257 OA
BRANCH  10  12
HETATM   12  O1  UNL     1      20.636   8.395  55.316  1.00  0.00    -0.321 OA
HETATM   13  C1  UNL     1      21.115   7.711  54.151  1.00  0.00     0.213 C 
ENDBRANCH  10  12
ENDBRANCH   7  10
BRANCH   8  14
HETATM   14  C11 UNL     1      19.279  10.776  57.376  1.00  0.00     0.173 C 
HETATM   15  N2  UNL     1      19.181  11.131  58.571  1.00  0.00    -0.247 N 
ATOM     16  H2  UNL     1      19.954  11.706  58.907  1.00  0.00     0.196 HD
BRANCH  14  17
HETATM   17  O6  UNL     1      20.409  11.210  56.710  1.00  0.00    -0.344 OA
ATOM     18  H6  UNL     1      20.826  10.673  56.046  1.00  0.00     0.219 HD
ENDBRANCH  14  17
BRANCH  15  19
HETATM   19  O7  UNL     1      18.243  10.888  59.476  1.00  0.00    -0.288 OA
ATOM     20  H7  UNL     1      18.306  10.721  60.409  1.00  0.00     0.244 HD
ENDBRANCH  15  19
ENDBRANCH   8  14
ENDBRANCH   4   5
ENDBRANCH   1   4
BRANCH   1  21
HETATM   21  C8  UNL     1      12.929   8.412  54.421  1.00  0.00     0.203 C 
HETATM   22  O4  UNL     1      11.687   8.513  54.330  1.00  0.00    -0.646 OA
HETATM   23  O5  UNL     1      13.559   7.456  53.656  1.00  0.00    -0.646 OA
ENDBRANCH   1  21
TORSDOF 8
ENDMDL
MODEL 4
REMARK VINA RESULT: -7.285443353      2.082      2.672
REMARK  8 active torsions:
REMARK  status: ('A' for Active; 'I' for Inactive)
REMARK    1  A    between atoms: O1_2  and  C2_3 
REMARK    2  A    between atoms: C2_3  and  C3_5 
REMARK    3  A    between atoms: C4_7  and  C5_8 
REMARK    4  A    between atoms: C5_8  and  C6_9 
REMARK    5  A    between atoms: C6_9  and  C8_12 
REMARK    6  A    between atoms: C10_16  and  C11_17 
REMARK    7  A    between atoms: C11_17  and  O6_18 
REMARK    8  A    between atoms: N2_20  and  O7_22 
ROOT
HETATM    1  C6  UNL     1      13.943   9.516  55.185  1.00  0.00     0.266 C 
HETATM    2  C7  UNL     1      13.835   8.305  54.331  1.00  0.00     0.087 C 
HETATM    3  N1  UNL     1      13.731   7.360  53.660  1.00  0.00    -0.195 NA
ENDROOT
BRANCH   1   4
HETATM    4  C5  UNL     1      15.107   9.775  55.603  1.00  0.00    -0.089 C 
BRANCH   4   5
HETATM    5  C4  UNL     1      16.377  10.078  56.051  1.00  0.00     0.120 A 
HETATM    6  O3  UNL     1      17.401  10.565  55.363  1.00  0.00    -0.295 OA
HETATM    7  C3  UNL     1      18.463  10.722  56.108  1.00  0.00     0.166 A 
HETATM    8  C10 UNL     1      18.214  10.334  57.397  1.00  0.00     0.060 A 
HETATM    9  C9  UNL     1      16.876   9.921  57.358  1.00  0.00     0.064 A 
BRANCH   7  10
HETATM   10  C2  UNL     1      19.735  11.251  55.576  1.00  0.00     0.318 C 
HETATM   11  O2  UNL     1      20.418  12.146  56.037  1.00  0.00    -0.257 OA
BRANCH  10  12
HETATM   12  O1  UNL     1      20.231  10.657  54.390  1.00  0.00    -0.321 OA
HETATM   13  C1  UNL     1      21.253   9.660  54.508  1.00  0.00     0.213 C 
ENDBRANCH  10  12
ENDBRANCH   7  10
BRANCH   8  14
HETATM   14  C11 UNL     1      19.041  10.278  58.587  1.00  0.00     0.173 C 
HETATM   15  N2  UNL     1      20.073   9.575  58.667  1.00  0.00    -0.247 N 
ATOM     16  H2  UNL     1      20.554   9.631  59.565  1.00  0.00     0.196 HD
BRANCH  14  17
HETATM   17  O6  UNL     1      18.724  11.013  59.713  1.00  0.00    -0.344 OA
ATOM     18  H6  UNL     1      17.919  10.857  60.191  1.00  0.00     0.219 HD
ENDBRANCH  14  17
BRANCH  15  19
HETATM   19  O7  UNL     1      20.648   8.770  57.785  1.00  0.00    -0.288 OA
ATOM     20  H7  UNL     1      21.422   8.887  57.247  1.00  0.00     0.244 HD
ENDBRANCH  15  19
ENDBRANCH   8  14
ENDBRANCH   4   5
ENDBRANCH   1   4
BRANCH   1  21
HETATM   21  C8  UNL     1      12.704  10.196  55.406  1.00  0.00     0.203 C 
HETATM   22  O4  UNL     1      12.522  10.861  56.447  1.00  0.00    -0.646 OA
HETATM   23  O5  UNL     1      11.681  10.138  54.485  1.00  0.00    -0.646 OA
ENDBRANCH   1  21
TORSDOF 8
ENDMDL
MODEL 5
REMARK VINA RESULT: -7.160669016      2.156      3.157
REMARK  8 active torsions:
REMARK  status: ('A' for Active; 'I' for Inactive)
REMARK    1  A    between atoms: O1_2  and  C2_3 
REMARK    2  A    between atoms: C2_3  and  C3_5 
REMARK    3  A    between atoms: C4_7  and  C5_8 
REMARK    4  A    between atoms: C5_8  and  C6_9 
REMARK    5  A    between atoms: C6_9  and  C8_12 
REMARK    6  A    between atoms: C10_16  and  C11_17 
REMARK    7  A    between atoms: C11_17  and  O6_18 
REMARK    8  A    between atoms: N2_20  and  O7_22 
ROOT
HETATM    1  C6  UNL     1      14.766  11.113  56.425  1.00  0.00     0.266 C 
HETATM    2  C7  UNL     1      14.784  12.529  56.876  1.00  0.00     0.087 C 
HETATM    3  N1  UNL     1      14.780  13.639  57.225  1.00  0.00    -0.195 NA
ENDROOT
BRANCH   1   4
HETATM    4  C5  UNL     1      15.887  10.529  56.447  1.00  0.00    -0.089 C 
BRANCH   4   5
HETATM    5  C4  UNL     1      17.114   9.900  56.490  1.00  0.00     0.120 A 
HETATM    6  O3  UNL     1      18.233  10.313  57.070  1.00  0.00    -0.295 OA
HETATM    7  C3  UNL     1      19.214   9.465  56.904  1.00  0.00     0.166 A 
HETATM    8  C10 UNL     1      18.803   8.384  56.172  1.00  0.00     0.060 A 
HETATM    9  C9  UNL     1      17.456   8.665  55.908  1.00  0.00     0.064 A 
BRANCH   7  10
HETATM   10  C2  UNL     1      20.565   9.695  57.455  1.00  0.00     0.318 C 
HETATM   11  O2  UNL     1      20.975   9.406  58.563  1.00  0.00    -0.257 OA
BRANCH  10  12
HETATM   12  O1  UNL     1      21.505  10.326  56.605  1.00  0.00    -0.321 OA
HETATM   13  C1  UNL     1      21.152  11.587  56.022  1.00  0.00     0.213 C 
ENDBRANCH  10  12
ENDBRANCH   7  10
BRANCH   8  14
HETATM   14  C11 UNL     1      19.489   7.200  55.691  1.00  0.00     0.173 C 
HETATM   15  N2  UNL     1      20.468   7.248  54.915  1.00  0.00    -0.247 N 
ATOM     16  H2  UNL     1      20.849   6.337  54.657  1.00  0.00     0.196 HD
BRANCH  14  17
HETATM   17  O6  UNL     1      19.087   5.935  56.076  1.00  0.00    -0.344 OA
ATOM     18  H6  UNL     1      19.364   5.562  56.904  1.00  0.00     0.219 HD
ENDBRANCH  14  17
BRANCH  15  19
HETATM   19  O7  UNL     1      21.096   8.280  54.369  1.00  0.00    -0.288 OA
ATOM     20  H7  UNL     1      21.599   8.350  53.567  1.00  0.00     0.244 HD
ENDBRANCH  15  19
ENDBRANCH   8  14
ENDBRANCH   4   5
ENDBRANCH   1   4
BRANCH   1  21
HETATM   21  C8  UNL     1      13.477  10.635  56.029  1.00  0.00     0.203 C 
HETATM   22  O4  UNL     1      12.444  11.047  56.598  1.00  0.00    -0.646 OA
HETATM   23  O5  UNL     1      13.336   9.711  55.018  1.00  0.00    -0.646 OA
ENDBRANCH   1  21
TORSDOF 8
ENDMDL
