MODEL 1
REMARK VINA RESULT: -7.804300435      0.000      0.000
REMARK  7 active torsions:
REMARK  status: ('A' for Active; 'I' for Inactive)
REMARK    1  A    between atoms: O1_2  and  C2_3 
REMARK    2  A    between atoms: C2_3  and  C3_5 
REMARK    3  A    between atoms: C5_9  and  O3_10 
REMARK    4  A    between atoms: C6_13  and  C7_14 
REMARK    5  A    between atoms: C7_14  and  C8_16 
REMARK    6  A    between atoms: C8_16  and  S1_17 
REMARK    7  A    between atoms: C11_20  and  O6_21 
ROOT
HETATM    1  C3  UNL     1      17.745  10.272  56.601  1.00  0.00     0.143 A 
HETATM    2  N1  UNL     1      17.421  11.467  57.063  1.00  0.00    -0.344 N 
ATOM      3  H1  UNL     1      18.086  12.111  57.492  1.00  0.00     0.166 HD
HETATM    4  C4  UNL     1      16.120  11.735  56.902  1.00  0.00     0.108 A 
HETATM    5  C5  UNL     1      15.106  12.665  57.097  1.00  0.00     0.212 A 
HETATM    6  O4  UNL     1      14.015  12.158  56.637  1.00  0.00    -0.281 OA
HETATM    7  C6  UNL     1      14.194  10.937  56.133  1.00  0.00     0.140 A 
HETATM    8  C10 UNL     1      15.539  10.627  56.284  1.00  0.00     0.069 A 
HETATM    9  C11 UNL     1      16.552   9.696  56.089  1.00  0.00     0.114 A 
ENDROOT
BRANCH   7  10
HETATM   10  C7  UNL     1      13.180  10.097  55.542  1.00  0.00     0.193 C 
HETATM   11  O5  UNL     1      13.364   9.133  54.783  1.00  0.00    -0.289 OA
BRANCH  10  12
HETATM   12  C8  UNL     1      11.739  10.377  55.846  1.00  0.00     0.159 C 
BRANCH  12  13
HETATM   13  S1  UNL     1      10.682  10.097  54.431  1.00  0.00    -0.166 SA
HETATM   14  C9  UNL     1       9.367   8.950  54.843  1.00  0.00     0.090 C 
ENDBRANCH  12  13
ENDBRANCH  10  12
ENDBRANCH   7  10
BRANCH   5  15
HETATM   15  O3  UNL     1      15.339  13.893  57.693  1.00  0.00    -0.339 OA
ATOM     16  H3  UNL     1      14.737  14.271  58.323  1.00  0.00     0.220 HD
ENDBRANCH   5  15
BRANCH   9  17
HETATM   17  O6  UNL     1      16.470   8.477  55.529  1.00  0.00    -0.357 OA
ATOM     18  H6  UNL     1      16.001   7.740  55.903  1.00  0.00     0.217 HD
ENDBRANCH   9  17
BRANCH   1  19
HETATM   19  C2  UNL     1      19.027   9.577  56.568  1.00  0.00     0.312 C 
HETATM   20  O2  UNL     1      19.401   8.953  55.544  1.00  0.00    -0.258 OA
BRANCH  19  21
HETATM   21  O1  UNL     1      19.888   9.570  57.653  1.00  0.00    -0.321 OA
HETATM   22  C1  UNL     1      21.275   9.816  57.545  1.00  0.00     0.213 C 
ENDBRANCH  19  21
ENDBRANCH   1  19
TORSDOF 7
ENDMDL
MODEL 2
REMARK VINA RESULT: -7.481627836      2.789      6.220
REMARK  7 active torsions:
REMARK  status: ('A' for Active; 'I' for Inactive)
REMARK    1  A    between atoms: O1_2  and  C2_3 
REMARK    2  A    between atoms: C2_3  and  C3_5 
REMARK    3  A    between atoms: C5_9  and  O3_10 
REMARK    4  A    between atoms: C6_13  and  C7_14 
REMARK    5  A    between atoms: C7_14  and  C8_16 
REMARK    6  A    between atoms: C8_16  and  S1_17 
REMARK    7  A    between atoms: C11_20  and  O6_21 
ROOT
HETATM    1  C3  UNL     1      13.301   9.854  55.332  1.00  0.00     0.143 A 
HETATM    2  N1  UNL     1      13.443  11.038  55.901  1.00  0.00    -0.344 N 
ATOM      3  H1  UNL     1      12.685  11.712  56.009  1.00  0.00     0.166 HD
HETATM    4  C4  UNL     1      14.697  11.250  56.319  1.00  0.00     0.108 A 
HETATM    5  C5  UNL     1      15.565  12.138  56.941  1.00  0.00     0.212 A 
HETATM    6  O4  UNL     1      16.726  11.583  56.990  1.00  0.00    -0.281 OA
HETATM    7  C6  UNL     1      16.732  10.367  56.444  1.00  0.00     0.140 A 
HETATM    8  C10 UNL     1      15.441  10.114  55.998  1.00  0.00     0.069 A 
HETATM    9  C11 UNL     1      14.573   9.226  55.376  1.00  0.00     0.114 A 
ENDROOT
BRANCH   7  10
HETATM   10  C7  UNL     1      17.866   9.481  56.337  1.00  0.00     0.193 C 
HETATM   11  O5  UNL     1      17.881   8.353  55.819  1.00  0.00    -0.289 OA
BRANCH  10  12
HETATM   12  C8  UNL     1      19.186   9.924  56.892  1.00  0.00     0.159 C 
BRANCH  12  13
HETATM   13  S1  UNL     1      20.100  10.939  55.736  1.00  0.00    -0.166 SA
HETATM   14  C9  UNL     1      21.104   9.918  54.657  1.00  0.00     0.090 C 
ENDBRANCH  12  13
ENDBRANCH  10  12
ENDBRANCH   7  10
BRANCH   5  15
HETATM   15  O3  UNL     1      15.149  13.380  57.393  1.00  0.00    -0.339 OA
ATOM     16  H3  UNL     1      14.497  13.476  58.077  1.00  0.00     0.220 HD
ENDBRANCH   5  15
BRANCH   9  17
HETATM   17  O6  UNL     1      14.838   7.999  54.893  1.00  0.00    -0.357 OA
ATOM     18  H6  UNL     1      15.458   7.814  54.197  1.00  0.00     0.217 HD
ENDBRANCH   9  17
BRANCH   1  19
HETATM   19  C2  UNL     1      12.130   9.213  54.743  1.00  0.00     0.312 C 
HETATM   20  O2  UNL     1      12.187   8.038  54.301  1.00  0.00    -0.258 OA
BRANCH  19  21
HETATM   21  O1  UNL     1      10.910   9.860  54.642  1.00  0.00    -0.321 OA
HETATM   22  C1  UNL     1       9.668   9.200  54.773  1.00  0.00     0.213 C 
ENDBRANCH  19  21
ENDBRANCH   1  19
TORSDOF 7
ENDMDL
MODEL 3
REMARK VINA RESULT: -7.331402308      1.057      1.345
REMARK  7 active torsions:
REMARK  status: ('A' for Active; 'I' for Inactive)
REMARK    1  A    between atoms: O1_2  and  C2_3 
REMARK    2  A    between atoms: C2_3  and  C3_5 
REMARK    3  A    between atoms: C5_9  and  O3_10 
REMARK    4  A    between atoms: C6_13  and  C7_14 
REMARK    5  A    between atoms: C7_14  and  C8_16 
REMARK    6  A    between atoms: C8_16  and  S1_17 
REMARK    7  A    between atoms: C11_20  and  O6_21 
ROOT
HETATM    1  C3  UNL     1      18.292  10.294  56.864  1.00  0.00     0.143 A 
HETATM    2  N1  UNL     1      17.714  11.444  57.166  1.00  0.00    -0.344 N 
ATOM      3  H1  UNL     1      18.195  12.220  57.620  1.00  0.00     0.166 HD
HETATM    4  C4  UNL     1      16.425  11.470  56.807  1.00  0.00     0.108 A 
HETATM    5  C5  UNL     1      15.257  12.221  56.776  1.00  0.00     0.212 A 
HETATM    6  O4  UNL     1      14.343  11.502  56.222  1.00  0.00    -0.281 OA
HETATM    7  C6  UNL     1      14.790  10.300  55.861  1.00  0.00     0.140 A 
HETATM    8  C10 UNL     1      16.130  10.238  56.221  1.00  0.00     0.069 A 
HETATM    9  C11 UNL     1      17.298   9.487  56.251  1.00  0.00     0.114 A 
ENDROOT
BRANCH   7  10
HETATM   10  C7  UNL     1      14.026   9.258  55.218  1.00  0.00     0.193 C 
HETATM   11  O5  UNL     1      14.251   8.038  55.258  1.00  0.00    -0.289 OA
BRANCH  10  12
HETATM   12  C8  UNL     1      12.824   9.638  54.406  1.00  0.00     0.159 C 
BRANCH  12  13
HETATM   13  S1  UNL     1      11.419  10.056  55.432  1.00  0.00    -0.166 SA
HETATM   14  C9  UNL     1       9.918   9.331  54.772  1.00  0.00     0.090 C 
ENDBRANCH  12  13
ENDBRANCH  10  12
ENDBRANCH   7  10
BRANCH   5  15
HETATM   15  O3  UNL     1      15.196  13.508  57.283  1.00  0.00    -0.339 OA
ATOM     16  H3  UNL     1      15.095  14.268  56.721  1.00  0.00     0.220 HD
ENDBRANCH   5  15
BRANCH   9  17
HETATM   17  O6  UNL     1      17.500   8.237  55.799  1.00  0.00    -0.357 OA
ATOM     18  H6  UNL     1      16.809   7.637  55.543  1.00  0.00     0.217 HD
ENDBRANCH   9  17
BRANCH   1  19
HETATM   19  C2  UNL     1      19.661   9.832  57.069  1.00  0.00     0.312 C 
HETATM   20  O2  UNL     1      20.214   9.918  58.194  1.00  0.00    -0.258 OA
BRANCH  19  21
HETATM   21  O1  UNL     1      20.412   9.280  56.044  1.00  0.00    -0.321 OA
HETATM   22  C1  UNL     1      20.777   9.992  54.880  1.00  0.00     0.213 C 
ENDBRANCH  19  21
ENDBRANCH   1  19
TORSDOF 7
ENDMDL
MODEL 4
REMARK VINA RESULT: -7.288420041      3.022      6.790
REMARK  7 active torsions:
REMARK  status: ('A' for Active; 'I' for Inactive)
REMARK    1  A    between atoms: O1_2  and  C2_3 
REMARK    2  A    between atoms: C2_3  and  C3_5 
REMARK    3  A    between atoms: C5_9  and  O3_10 
REMARK    4  A    between atoms: C6_13  and  C7_14 
REMARK    5  A    between atoms: C7_14  and  C8_16 
REMARK    6  A    between atoms: C8_16  and  S1_17 
REMARK    7  A    between atoms: C11_20  and  O6_21 
ROOT
HETATM    1  C3  UNL     1      14.261   9.807  55.850  1.00  0.00     0.143 A 
HETATM    2  N1  UNL     1      14.689   8.569  55.677  1.00  0.00    -0.344 N 
ATOM      3  H1  UNL     1      14.087   7.791  55.409  1.00  0.00     0.166 HD
HETATM    4  C4  UNL     1      16.005   8.456  55.893  1.00  0.00     0.108 A 
HETATM    5  C5  UNL     1      17.095   7.595  55.917  1.00  0.00     0.212 A 
HETATM    6  O4  UNL     1      18.132   8.284  56.246  1.00  0.00    -0.281 OA
HETATM    7  C6  UNL     1      17.845   9.568  56.455  1.00  0.00     0.140 A 
HETATM    8  C10 UNL     1      16.482   9.721  56.238  1.00  0.00     0.069 A 
HETATM    9  C11 UNL     1      15.392  10.583  56.215  1.00  0.00     0.114 A 
ENDROOT
BRANCH   7  10
HETATM   10  C7  UNL     1      18.775  10.604  56.836  1.00  0.00     0.193 C 
HETATM   11  O5  UNL     1      19.027  10.989  57.988  1.00  0.00    -0.289 OA
BRANCH  10  12
HETATM   12  C8  UNL     1      19.543  11.317  55.764  1.00  0.00     0.159 C 
BRANCH  12  13
HETATM   13  S1  UNL     1      21.187  10.647  55.549  1.00  0.00    -0.166 SA
HETATM   14  C9  UNL     1      21.127   9.110  54.626  1.00  0.00     0.090 C 
ENDBRANCH  12  13
ENDBRANCH  10  12
ENDBRANCH   7  10
BRANCH   5  15
HETATM   15  O3  UNL     1      16.974   6.247  55.621  1.00  0.00    -0.339 OA
ATOM     16  H3  UNL     1      16.476   5.937  54.874  1.00  0.00     0.220 HD
ENDBRANCH   5  15
BRANCH   9  17
HETATM   17  O6  UNL     1      15.364  11.901  56.477  1.00  0.00    -0.357 OA
ATOM     18  H6  UNL     1      15.050  12.285  57.288  1.00  0.00     0.217 HD
ENDBRANCH   9  17
BRANCH   1  19
HETATM   19  C2  UNL     1      12.925  10.381  55.723  1.00  0.00     0.312 C 
HETATM   20  O2  UNL     1      12.426  11.075  56.645  1.00  0.00    -0.258 OA
BRANCH  19  21
HETATM   21  O1  UNL     1      12.148  10.192  54.593  1.00  0.00    -0.321 OA
HETATM   22  C1  UNL     1      10.797   9.783  54.640  1.00  0.00     0.213 C 
ENDBRANCH  19  21
ENDBRANCH   1  19
TORSDOF 7
ENDMDL
MODEL 5
REMARK VINA RESULT: -7.212412504      2.910      6.353
REMARK  7 active torsions:
REMARK  status: ('A' for Active; 'I' for Inactive)
REMARK    1  A    between atoms: O1_2  and  C2_3 
REMARK    2  A    between atoms: C2_3  and  C3_5 
REMARK    3  A    between atoms: C5_9  and  O3_10 
REMARK    4  A    between atoms: C6_13  and  C7_14 
REMARK    5  A    between atoms: C7_14  and  C8_16 
REMARK    6  A    between atoms: C8_16  and  S1_17 
REMARK    7  A    between atoms: C11_20  and  O6_21 
ROOT
HETATM    1  C3  UNL     1      12.971  10.193  55.270  1.00  0.00     0.143 A 
HETATM    2  N1  UNL     1      13.556  11.180  55.926  1.00  0.00    -0.344 N 
ATOM      3  H1  UNL     1      13.103  12.068  56.140  1.00  0.00     0.166 HD
HETATM    4  C4  UNL     1      14.811  10.878  56.277  1.00  0.00     0.108 A 
HETATM    5  C5  UNL     1      15.963  11.321  56.914  1.00  0.00     0.212 A 
HETATM    6  O4  UNL     1      16.840  10.379  56.840  1.00  0.00    -0.281 OA
HETATM    7  C6  UNL     1      16.381   9.307  56.195  1.00  0.00     0.140 A 
HETATM    8  C10 UNL     1      15.075   9.588  55.815  1.00  0.00     0.069 A 
HETATM    9  C11 UNL     1      13.923   9.144  55.177  1.00  0.00     0.114 A 
ENDROOT
BRANCH   7  10
HETATM   10  C7  UNL     1      17.106   8.086  55.939  1.00  0.00     0.193 C 
HETATM   11  O5  UNL     1      16.619   6.971  55.693  1.00  0.00    -0.289 OA
BRANCH  10  12
HETATM   12  C8  UNL     1      18.604   8.114  55.962  1.00  0.00     0.159 C 
BRANCH  12  13
HETATM   13  S1  UNL     1      19.317   6.510  55.615  1.00  0.00    -0.166 SA
HETATM   14  C9  UNL     1      20.688   6.663  54.470  1.00  0.00     0.090 C 
ENDBRANCH  12  13
ENDBRANCH  10  12
ENDBRANCH   7  10
BRANCH   5  15
HETATM   15  O3  UNL     1      16.047  12.575  57.495  1.00  0.00    -0.339 OA
ATOM     16  H3  UNL     1      15.298  12.996  57.899  1.00  0.00     0.220 HD
ENDBRANCH   5  15
BRANCH   9  17
HETATM   17  O6  UNL     1      13.703   7.962  54.577  1.00  0.00    -0.357 OA
ATOM     18  H6  UNL     1      14.291   7.556  53.950  1.00  0.00     0.217 HD
ENDBRANCH   9  17
BRANCH   1  19
HETATM   19  C2  UNL     1      11.629  10.085  54.707  1.00  0.00     0.312 C 
HETATM   20  O2  UNL     1      11.088  11.060  54.128  1.00  0.00    -0.258 OA
BRANCH  19  21
HETATM   21  O1  UNL     1      10.893   8.914  54.780  1.00  0.00    -0.321 OA
HETATM   22  C1  UNL     1       9.482   8.887  54.829  1.00  0.00     0.213 C 
ENDBRANCH  19  21
ENDBRANCH   1  19
TORSDOF 7
ENDMDL
