MODEL 1
REMARK VINA RESULT: -6.915374633      0.000      0.000
REMARK  3 active torsions:
REMARK  status: ('A' for Active; 'I' for Inactive)
REMARK    1  A    between atoms: C2_2  and  S1_3 
REMARK    2  A    between atoms: S1_3  and  C3_4 
REMARK    3  A    between atoms: N3_16  and  C10_17 
ROOT
HETATM    1  C3  UNL     1      34.735  83.125  -6.590  1.00  0.00     0.151 A 
HETATM    2  N1  UNL     1      35.571  82.897  -5.561  1.00  0.00    -0.303 N 
ATOM      3  H1  UNL     1      36.576  82.849  -5.732  1.00  0.00     0.171 HD
HETATM    4  C4  UNL     1      35.106  82.732  -4.308  1.00  0.00     0.261 A 
HETATM    5  O1  UNL     1      35.893  82.519  -3.349  1.00  0.00    -0.267 OA
HETATM    6  C5  UNL     1      33.748  82.797  -4.066  1.00  0.00     0.078 A 
HETATM    7  C6  UNL     1      32.980  82.675  -2.932  1.00  0.00     0.045 A 
HETATM    8  C7  UNL     1      31.656  82.834  -3.287  1.00  0.00     0.008 A 
HETATM    9  C8  UNL     1      30.493  82.779  -2.389  1.00  0.00     0.068 C 
HETATM   10  N2  UNL     1      31.602  83.050  -4.620  1.00  0.00    -0.345 N 
ATOM     11  H2  UNL     1      30.756  83.202  -5.168  1.00  0.00     0.167 HD
HETATM   12  C9  UNL     1      32.868  83.029  -5.100  1.00  0.00     0.126 A 
HETATM   13  N3  UNL     1      33.413  83.188  -6.347  1.00  0.00    -0.308 N 
ENDROOT
BRANCH  13  14
HETATM   14  C10 UNL     1      32.513  83.431  -7.443  1.00  0.00     0.093 C 
HETATM   15  C11 UNL     1      31.368  82.469  -7.556  1.00  0.00     0.026 C 
HETATM   16  C12 UNL     1      31.000  82.151  -8.977  1.00  0.00     0.002 C 
HETATM   17  C13 UNL     1      31.330  83.239  -9.957  1.00  0.00     0.000 C 
HETATM   18  C14 UNL     1      30.797  84.597  -9.584  1.00  0.00     0.000 C 
HETATM   19  C15 UNL     1      31.915  85.323  -8.847  1.00  0.00     0.002 C 
HETATM   20  C16 UNL     1      31.882  84.808  -7.421  1.00  0.00     0.026 C 
ENDBRANCH  13  14
BRANCH   1  21
HETATM   21  S1  UNL     1      35.395  83.346  -8.256  1.00  0.00    -0.094 SA
BRANCH  21  22
HETATM   22  C2  UNL     1      36.338  84.889  -8.282  1.00  0.00     0.078 C 
HETATM   23  C1  UNL     1      35.612  85.940  -7.494  1.00  0.00     0.016 C 
ENDBRANCH  21  22
ENDBRANCH   1  21
TORSDOF 3
ENDMDL
MODEL 2
REMARK VINA RESULT: -6.842299898      2.013      4.477
REMARK  3 active torsions:
REMARK  status: ('A' for Active; 'I' for Inactive)
REMARK    1  A    between atoms: C2_2  and  S1_3 
REMARK    2  A    between atoms: S1_3  and  C3_4 
REMARK    3  A    between atoms: N3_16  and  C10_17 
ROOT
HETATM    1  C3  UNL     1      33.768  83.632  -4.725  1.00  0.00     0.151 A 
HETATM    2  N1  UNL     1      34.767  83.933  -3.876  1.00  0.00    -0.303 N 
ATOM      3  H1  UNL     1      34.872  83.396  -3.014  1.00  0.00     0.171 HD
HETATM    4  C4  UNL     1      35.632  84.929  -4.142  1.00  0.00     0.261 A 
HETATM    5  O1  UNL     1      36.566  85.206  -3.344  1.00  0.00    -0.267 OA
HETATM    6  C5  UNL     1      35.501  85.660  -5.307  1.00  0.00     0.078 A 
HETATM    7  C6  UNL     1      36.202  86.709  -5.853  1.00  0.00     0.045 A 
HETATM    8  C7  UNL     1      35.613  87.043  -7.055  1.00  0.00     0.008 A 
HETATM    9  C8  UNL     1      36.038  88.109  -7.974  1.00  0.00     0.068 C 
HETATM   10  N2  UNL     1      34.563  86.217  -7.252  1.00  0.00    -0.345 N 
ATOM     11  H2  UNL     1      33.936  86.226  -8.056  1.00  0.00     0.167 HD
HETATM   12  C9  UNL     1      34.487  85.374  -6.196  1.00  0.00     0.126 A 
HETATM   13  N3  UNL     1      33.645  84.347  -5.858  1.00  0.00    -0.308 N 
ENDROOT
BRANCH  13  14
HETATM   14  C10 UNL     1      32.579  84.031  -6.771  1.00  0.00     0.093 C 
HETATM   15  C11 UNL     1      31.500  85.067  -6.878  1.00  0.00     0.026 C 
HETATM   16  C12 UNL     1      30.130  84.479  -7.058  1.00  0.00     0.002 C 
HETATM   17  C13 UNL     1      30.120  83.132  -7.721  1.00  0.00     0.000 C 
HETATM   18  C14 UNL     1      30.876  83.071  -9.022  1.00  0.00     0.000 C 
HETATM   19  C15 UNL     1      32.278  82.575  -8.695  1.00  0.00     0.002 C 
HETATM   20  C16 UNL     1      33.045  83.784  -8.191  1.00  0.00     0.026 C 
ENDBRANCH  13  14
BRANCH   1  21
HETATM   21  S1  UNL     1      32.629  82.285  -4.337  1.00  0.00    -0.094 SA
BRANCH  21  22
HETATM   22  C2  UNL     1      32.085  82.491  -2.625  1.00  0.00     0.078 C 
HETATM   23  C1  UNL     1      30.622  82.823  -2.595  1.00  0.00     0.016 C 
ENDBRANCH  21  22
ENDBRANCH   1  21
TORSDOF 3
ENDMDL
MODEL 3
REMARK VINA RESULT: -6.802258180      2.597      5.202
REMARK  3 active torsions:
REMARK  status: ('A' for Active; 'I' for Inactive)
REMARK    1  A    between atoms: C2_2  and  S1_3 
REMARK    2  A    between atoms: S1_3  and  C3_4 
REMARK    3  A    between atoms: N3_16  and  C10_17 
ROOT
HETATM    1  C3  UNL     1      33.433  84.641  -5.658  1.00  0.00     0.151 A 
HETATM    2  N1  UNL     1      33.669  85.449  -6.708  1.00  0.00    -0.303 N 
ATOM      3  H1  UNL     1      34.550  85.963  -6.756  1.00  0.00     0.171 HD
HETATM    4  C4  UNL     1      32.766  85.591  -7.696  1.00  0.00     0.261 A 
HETATM    5  O1  UNL     1      32.993  86.348  -8.676  1.00  0.00    -0.267 OA
HETATM    6  C5  UNL     1      31.573  84.897  -7.640  1.00  0.00     0.078 A 
HETATM    7  C6  UNL     1      30.477  84.828  -8.467  1.00  0.00     0.045 A 
HETATM    8  C7  UNL     1      29.564  83.960  -7.903  1.00  0.00     0.008 A 
HETATM    9  C8  UNL     1      28.250  83.590  -8.450  1.00  0.00     0.068 C 
HETATM   10  N2  UNL     1      30.084  83.499  -6.744  1.00  0.00    -0.345 N 
ATOM     11  H2  UNL     1      29.636  82.841  -6.107  1.00  0.00     0.167 HD
HETATM   12  C9  UNL     1      31.303  84.063  -6.577  1.00  0.00     0.126 A 
HETATM   13  N3  UNL     1      32.269  83.968  -5.609  1.00  0.00    -0.308 N 
ENDROOT
BRANCH  13  14
HETATM   14  C10 UNL     1      32.009  83.103  -4.490  1.00  0.00     0.093 C 
HETATM   15  C11 UNL     1      30.679  83.298  -3.825  1.00  0.00     0.026 C 
HETATM   16  C12 UNL     1      30.728  83.119  -2.335  1.00  0.00     0.002 C 
HETATM   17  C13 UNL     1      31.818  82.201  -1.862  1.00  0.00     0.000 C 
HETATM   18  C14 UNL     1      31.838  80.855  -2.538  1.00  0.00     0.000 C 
HETATM   19  C15 UNL     1      32.827  80.956  -3.693  1.00  0.00     0.002 C 
HETATM   20  C16 UNL     1      32.078  81.628  -4.829  1.00  0.00     0.026 C 
ENDBRANCH  13  14
BRANCH   1  21
HETATM   21  S1  UNL     1      34.670  84.472  -4.353  1.00  0.00    -0.094 SA
BRANCH  21  22
HETATM   22  C2  UNL     1      35.688  83.027  -4.735  1.00  0.00     0.078 C 
HETATM   23  C1  UNL     1      36.036  82.304  -3.467  1.00  0.00     0.016 C 
ENDBRANCH  21  22
ENDBRANCH   1  21
TORSDOF 3
ENDMDL
MODEL 4
REMARK VINA RESULT: -6.652628559      1.978      4.248
REMARK  3 active torsions:
REMARK  status: ('A' for Active; 'I' for Inactive)
REMARK    1  A    between atoms: C2_2  and  S1_3 
REMARK    2  A    between atoms: S1_3  and  C3_4 
REMARK    3  A    between atoms: N3_16  and  C10_17 
ROOT
HETATM    1  C3  UNL     1      32.144  84.098  -5.767  1.00  0.00     0.151 A 
HETATM    2  N1  UNL     1      31.155  83.641  -4.978  1.00  0.00    -0.303 N 
ATOM      3  H1  UNL     1      30.196  83.947  -5.149  1.00  0.00     0.171 HD
HETATM    4  C4  UNL     1      31.407  82.788  -3.968  1.00  0.00     0.261 A 
HETATM    5  O1  UNL     1      30.477  82.364  -3.233  1.00  0.00    -0.267 OA
HETATM    6  C5  UNL     1      32.701  82.368  -3.731  1.00  0.00     0.078 A 
HETATM    7  C6  UNL     1      33.270  81.525  -2.805  1.00  0.00     0.045 A 
HETATM    8  C7  UNL     1      34.628  81.474  -3.045  1.00  0.00     0.008 A 
HETATM    9  C8  UNL     1      35.623  80.694  -2.293  1.00  0.00     0.068 C 
HETATM   10  N2  UNL     1      34.898  82.272  -4.100  1.00  0.00    -0.345 N 
ATOM     11  H2  UNL     1      35.819  82.435  -4.508  1.00  0.00     0.167 HD
HETATM   12  C9  UNL     1      33.735  82.819  -4.523  1.00  0.00     0.126 A 
HETATM   13  N3  UNL     1      33.403  83.684  -5.532  1.00  0.00    -0.308 N 
ENDROOT
BRANCH  13  14
HETATM   14  C10 UNL     1      34.466  84.169  -6.371  1.00  0.00     0.093 C 
HETATM   15  C11 UNL     1      35.547  84.928  -5.662  1.00  0.00     0.026 C 
HETATM   16  C12 UNL     1      36.094  86.073  -6.466  1.00  0.00     0.002 C 
HETATM   17  C13 UNL     1      35.983  85.890  -7.951  1.00  0.00     0.000 C 
HETATM   18  C14 UNL     1      36.547  84.591  -8.465  1.00  0.00     0.000 C 
HETATM   19  C15 UNL     1      35.386  83.608  -8.551  1.00  0.00     0.002 C 
HETATM   20  C16 UNL     1      35.178  83.078  -7.145  1.00  0.00     0.026 C 
ENDBRANCH  13  14
BRANCH   1  21
HETATM   21  S1  UNL     1      31.768  85.238  -7.117  1.00  0.00    -0.094 SA
BRANCH  21  22
HETATM   22  C2  UNL     1      30.998  84.290  -8.450  1.00  0.00     0.078 C 
HETATM   23  C1  UNL     1      31.652  82.944  -8.557  1.00  0.00     0.016 C 
ENDBRANCH  21  22
ENDBRANCH   1  21
TORSDOF 3
ENDMDL
MODEL 5
REMARK VINA RESULT: -6.650426533      1.663      1.903
REMARK  3 active torsions:
REMARK  status: ('A' for Active; 'I' for Inactive)
REMARK    1  A    between atoms: C2_2  and  S1_3 
REMARK    2  A    between atoms: S1_3  and  C3_4 
REMARK    3  A    between atoms: N3_16  and  C10_17 
ROOT
HETATM    1  C3  UNL     1      34.781  84.765  -5.580  1.00  0.00     0.151 A 
HETATM    2  N1  UNL     1      35.766  84.646  -4.672  1.00  0.00    -0.303 N 
ATOM      3  H1  UNL     1      36.527  85.326  -4.666  1.00  0.00     0.171 HD
HETATM    4  C4  UNL     1      35.766  83.646  -3.772  1.00  0.00     0.261 A 
HETATM    5  O1  UNL     1      36.691  83.538  -2.924  1.00  0.00    -0.267 OA
HETATM    6  C5  UNL     1      34.740  82.722  -3.771  1.00  0.00     0.078 A 
HETATM    7  C6  UNL     1      34.459  81.617  -3.003  1.00  0.00     0.045 A 
HETATM    8  C7  UNL     1      33.280  81.063  -3.458  1.00  0.00     0.008 A 
HETATM    9  C8  UNL     1      32.608  79.868  -2.925  1.00  0.00     0.068 C 
HETATM   10  N2  UNL     1      32.836  81.810  -4.492  1.00  0.00    -0.345 N 
ATOM     11  H2  UNL     1      31.987  81.643  -5.031  1.00  0.00     0.167 HD
HETATM   12  C9  UNL     1      33.717  82.819  -4.689  1.00  0.00     0.126 A 
HETATM   13  N3  UNL     1      33.783  83.863  -5.574  1.00  0.00    -0.308 N 
ENDROOT
BRANCH  13  14
HETATM   14  C10 UNL     1      32.726  83.985  -6.542  1.00  0.00     0.093 C 
HETATM   15  C11 UNL     1      32.669  82.893  -7.569  1.00  0.00     0.026 C 
HETATM   16  C12 UNL     1      32.258  83.379  -8.929  1.00  0.00     0.002 C 
HETATM   17  C13 UNL     1      31.396  84.608  -8.909  1.00  0.00     0.000 C 
HETATM   18  C14 UNL     1      30.187  84.508  -8.016  1.00  0.00     0.000 C 
HETATM   19  C15 UNL     1      30.577  85.115  -6.674  1.00  0.00     0.002 C 
HETATM   20  C16 UNL     1      31.340  84.036  -5.931  1.00  0.00     0.026 C 
ENDBRANCH  13  14
BRANCH   1  21
HETATM   21  S1  UNL     1      34.811  86.124  -6.770  1.00  0.00    -0.094 SA
BRANCH  21  22
HETATM   22  C2  UNL     1      36.206  85.854  -7.889  1.00  0.00     0.078 C 
HETATM   23  C1  UNL     1      36.314  84.395  -8.222  1.00  0.00     0.016 C 
ENDBRANCH  21  22
ENDBRANCH   1  21
TORSDOF 3
ENDMDL
