MODEL 1
REMARK VINA RESULT: -8.574602346      0.000      0.000
REMARK  3 active torsions:
REMARK  status: ('A' for Active; 'I' for Inactive)
REMARK    1  A    between atoms: C6_11  and  N3_12 
REMARK       I    between atoms: N3_12  and  C7_14 
REMARK    2  A    between atoms: C7_14  and  O2_16 
REMARK    3  A    between atoms: O2_16  and  C8_17 
ROOT
HETATM    1  C1  UNL     1     -19.136 106.261   8.769  1.00  0.00     0.079 C 
HETATM    2  C2  UNL     1     -19.897 106.322   7.472  1.00  0.00     0.203 C 
HETATM    3  F1  UNL     1     -20.581 107.523   7.337  1.00  0.00    -0.217 F 
HETATM    4  N1  UNL     1     -18.979 106.138   6.396  1.00  0.00    -0.300 N 
ATOM      5  H1  UNL     1     -18.098 106.646   6.312  1.00  0.00     0.183 HD
HETATM    6  N2  UNL     1     -19.359 105.307   5.585  1.00  0.00    -0.326 N 
ATOM      7  H2  UNL     1     -18.824 105.052   4.755  1.00  0.00     0.180 HD
HETATM    8  C3  UNL     1     -20.611 104.729   5.906  1.00  0.00     0.066 C 
HETATM    9  C4  UNL     1     -20.523 103.222   5.849  1.00  0.00     0.036 C 
HETATM   10  C5  UNL     1     -21.249 102.644   4.677  1.00  0.00     0.028 C 
HETATM   11  C6  UNL     1     -20.969 103.385   3.390  1.00  0.00     0.086 C 
HETATM   12  C14 UNL     1     -21.156 104.874   3.538  1.00  0.00     0.028 C 
HETATM   13  C15 UNL     1     -21.641 105.237   4.927  1.00  0.00     0.036 C 
HETATM   14  C16 UNL     1     -20.891 105.211   7.325  1.00  0.00     0.183 C 
HETATM   15  C17 UNL     1     -22.280 105.678   7.342  1.00  0.00     0.071 C 
HETATM   16  N4  UNL     1     -23.377 106.069   7.355  1.00  0.00    -0.197 NA
ENDROOT
BRANCH  11  17
HETATM   17  N3  UNL     1     -21.858 102.864   2.373  1.00  0.00    -0.332 N 
HETATM   18  C7  UNL     1     -21.502 102.821   0.997  1.00  0.00     0.361 C 
HETATM   19  O1  UNL     1     -20.389 103.238   0.585  1.00  0.00    -0.238 OA
ATOM     20  H3  UNL     1     -22.774 102.514   2.654  1.00  0.00     0.165 HD
BRANCH  18  21
HETATM   21  O2  UNL     1     -22.376 102.314   0.049  1.00  0.00    -0.299 OA
BRANCH  21  22
HETATM   22  C8  UNL     1     -22.621 100.954  -0.109  1.00  0.00     0.133 C 
HETATM   23  C9  UNL     1     -21.408 100.094   0.168  1.00  0.00     0.032 C 
HETATM   24  C10 UNL     1     -21.751  98.642   0.070  1.00  0.00     0.002 C 
HETATM   25  C11 UNL     1     -23.101  98.477  -0.586  1.00  0.00     0.000 C 
HETATM   26  C12 UNL     1     -24.212  99.131   0.178  1.00  0.00     0.002 C 
HETATM   27  C13 UNL     1     -23.742 100.444   0.769  1.00  0.00     0.032 C 
ENDBRANCH  21  22
ENDBRANCH  18  21
ENDBRANCH  11  17
TORSDOF 3
ENDMDL
MODEL 2
REMARK VINA RESULT: -8.150728840      1.493      2.005
REMARK  3 active torsions:
REMARK  status: ('A' for Active; 'I' for Inactive)
REMARK    1  A    between atoms: C6_11  and  N3_12 
REMARK       I    between atoms: N3_12  and  C7_14 
REMARK    2  A    between atoms: C7_14  and  O2_16 
REMARK    3  A    between atoms: O2_16  and  C8_17 
ROOT
HETATM    1  C1  UNL     1     -18.792 105.709  10.454  1.00  0.00     0.079 C 
HETATM    2  C2  UNL     1     -19.217 106.056   9.051  1.00  0.00     0.203 C 
HETATM    3  F1  UNL     1     -19.153 107.424   8.822  1.00  0.00    -0.217 F 
HETATM    4  N1  UNL     1     -18.382 105.349   8.135  1.00  0.00    -0.300 N 
ATOM      5  H1  UNL     1     -17.364 105.327   8.200  1.00  0.00     0.183 HD
HETATM    6  N2  UNL     1     -19.017 104.772   7.265  1.00  0.00    -0.326 N 
ATOM      7  H2  UNL     1     -18.578 104.220   6.528  1.00  0.00     0.180 HD
HETATM    8  C3  UNL     1     -20.418 104.943   7.373  1.00  0.00     0.066 C 
HETATM    9  C4  UNL     1     -21.114 103.603   7.314  1.00  0.00     0.036 C 
HETATM   10  C5  UNL     1     -21.858 103.394   6.033  1.00  0.00     0.028 C 
HETATM   11  C6  UNL     1     -21.053 103.790   4.817  1.00  0.00     0.086 C 
HETATM   12  C14 UNL     1     -20.463 105.171   4.950  1.00  0.00     0.028 C 
HETATM   13  C15 UNL     1     -20.884 105.832   6.247  1.00  0.00     0.036 C 
HETATM   14  C16 UNL     1     -20.609 105.603   8.733  1.00  0.00     0.183 C 
HETATM   15  C17 UNL     1     -21.541 106.715   8.533  1.00  0.00     0.071 C 
HETATM   16  N4  UNL     1     -22.267 107.612   8.373  1.00  0.00    -0.197 NA
ENDROOT
BRANCH  11  17
HETATM   17  N3  UNL     1     -21.927 103.724   3.664  1.00  0.00    -0.332 N 
HETATM   18  C7  UNL     1     -21.706 102.819   2.590  1.00  0.00     0.361 C 
HETATM   19  O1  UNL     1     -20.733 102.021   2.583  1.00  0.00    -0.238 OA
ATOM     20  H3  UNL     1     -22.731 104.351   3.620  1.00  0.00     0.165 HD
BRANCH  18  21
HETATM   21  O2  UNL     1     -22.563 102.780   1.502  1.00  0.00    -0.299 OA
BRANCH  21  22
HETATM   22  C8  UNL     1     -23.204 101.619   1.079  1.00  0.00     0.133 C 
HETATM   23  C9  UNL     1     -24.698 101.791   0.916  1.00  0.00     0.032 C 
HETATM   24  C10 UNL     1     -25.322 100.543   0.378  1.00  0.00     0.002 C 
HETATM   25  C11 UNL     1     -24.340  99.400   0.467  1.00  0.00     0.000 C 
HETATM   26  C12 UNL     1     -23.089  99.632  -0.325  1.00  0.00     0.002 C 
HETATM   27  C13 UNL     1     -22.668 101.085  -0.229  1.00  0.00     0.032 C 
ENDBRANCH  21  22
ENDBRANCH  18  21
ENDBRANCH  11  17
TORSDOF 3
ENDMDL
MODEL 3
REMARK VINA RESULT: -8.013728024      5.182      6.336
REMARK  3 active torsions:
REMARK  status: ('A' for Active; 'I' for Inactive)
REMARK    1  A    between atoms: C6_11  and  N3_12 
REMARK       I    between atoms: N3_12  and  C7_14 
REMARK    2  A    between atoms: C7_14  and  O2_16 
REMARK    3  A    between atoms: O2_16  and  C8_17 
ROOT
HETATM    1  C1  UNL     1     -29.266 107.551   5.868  1.00  0.00     0.079 C 
HETATM    2  C2  UNL     1     -29.238 106.203   5.199  1.00  0.00     0.203 C 
HETATM    3  F1  UNL     1     -30.459 105.552   5.310  1.00  0.00    -0.217 F 
HETATM    4  N1  UNL     1     -28.881 106.382   3.829  1.00  0.00    -0.300 N 
ATOM      5  H1  UNL     1     -29.320 107.071   3.217  1.00  0.00     0.183 HD
HETATM    6  N2  UNL     1     -27.995 105.623   3.466  1.00  0.00    -0.326 N 
ATOM      7  H2  UNL     1     -27.620 105.617   2.518  1.00  0.00     0.180 HD
HETATM    8  C3  UNL     1     -27.537 104.754   4.485  1.00  0.00     0.066 C 
HETATM    9  C4  UNL     1     -26.030 104.804   4.577  1.00  0.00     0.036 C 
HETATM   10  C5  UNL     1     -25.378 103.556   4.072  1.00  0.00     0.028 C 
HETATM   11  C6  UNL     1     -25.959 103.082   2.760  1.00  0.00     0.086 C 
HETATM   12  C14 UNL     1     -27.464 103.001   2.800  1.00  0.00     0.028 C 
HETATM   13  C15 UNL     1     -28.003 103.355   4.171  1.00  0.00     0.036 C 
HETATM   14  C16 UNL     1     -28.184 105.295   5.755  1.00  0.00     0.183 C 
HETATM   15  C17 UNL     1     -28.738 104.142   6.468  1.00  0.00     0.071 C 
HETATM   16  N4  UNL     1     -29.198 103.230   7.027  1.00  0.00    -0.197 NA
ENDROOT
BRANCH  11  17
HETATM   17  N3  UNL     1     -25.391 101.783   2.464  1.00  0.00    -0.332 N 
HETATM   18  C7  UNL     1     -25.562 101.144   1.206  1.00  0.00     0.361 C 
HETATM   19  O1  UNL     1     -26.221 101.675   0.275  1.00  0.00    -0.238 OA
ATOM     20  H3  UNL     1     -24.848 101.309   3.186  1.00  0.00     0.165 HD
BRANCH  18  21
HETATM   21  O2  UNL     1     -25.003  99.901   0.955  1.00  0.00    -0.299 OA
BRANCH  21  22
HETATM   22  C8  UNL     1     -23.660  99.720   0.639  1.00  0.00     0.133 C 
HETATM   23  C9  UNL     1     -23.397  98.448  -0.136  1.00  0.00     0.032 C 
HETATM   24  C10 UNL     1     -21.956  98.349  -0.523  1.00  0.00     0.002 C 
HETATM   25  C11 UNL     1     -21.148  99.369   0.242  1.00  0.00     0.000 C 
HETATM   26  C12 UNL     1     -21.571 100.781  -0.027  1.00  0.00     0.002 C 
HETATM   27  C13 UNL     1     -23.078 100.862  -0.163  1.00  0.00     0.032 C 
ENDBRANCH  21  22
ENDBRANCH  18  21
ENDBRANCH  11  17
TORSDOF 3
ENDMDL
MODEL 4
REMARK VINA RESULT: -8.012475714      5.821      9.080
REMARK  3 active torsions:
REMARK  status: ('A' for Active; 'I' for Inactive)
REMARK    1  A    between atoms: C6_11  and  N3_12 
REMARK       I    between atoms: N3_12  and  C7_14 
REMARK    2  A    between atoms: C7_14  and  O2_16 
REMARK    3  A    between atoms: O2_16  and  C8_17 
ROOT
HETATM    1  C1  UNL     1     -22.575  98.013  -0.192  1.00  0.00     0.079 C 
HETATM    2  C2  UNL     1     -23.367  99.290  -0.283  1.00  0.00     0.203 C 
HETATM    3  F1  UNL     1     -23.359  99.805  -1.572  1.00  0.00    -0.217 F 
HETATM    4  N1  UNL     1     -24.701  99.030   0.152  1.00  0.00    -0.300 N 
ATOM      5  H1  UNL     1     -25.260  98.244  -0.181  1.00  0.00     0.183 HD
HETATM    6  N2  UNL     1     -25.102  99.849   0.964  1.00  0.00    -0.326 N 
ATOM      7  H2  UNL     1     -26.034  99.814   1.379  1.00  0.00     0.180 HD
HETATM    8  C3  UNL     1     -24.154 100.853   1.278  1.00  0.00     0.066 C 
HETATM    9  C4  UNL     1     -24.007 100.983   2.776  1.00  0.00     0.036 C 
HETATM   10  C5  UNL     1     -24.605 102.247   3.308  1.00  0.00     0.028 C 
HETATM   11  C6  UNL     1     -25.974 102.532   2.738  1.00  0.00     0.086 C 
HETATM   12  C14 UNL     1     -25.994 102.445   1.233  1.00  0.00     0.028 C 
HETATM   13  C15 UNL     1     -24.615 102.157   0.676  1.00  0.00     0.036 C 
HETATM   14  C16 UNL     1     -22.862 100.358   0.639  1.00  0.00     0.183 C 
HETATM   15  C17 UNL     1     -22.281 101.500  -0.071  1.00  0.00     0.071 C 
HETATM   16  N4  UNL     1     -21.826 102.400  -0.652  1.00  0.00    -0.197 NA
ENDROOT
BRANCH  11  17
HETATM   17  N3  UNL     1     -26.371 103.855   3.172  1.00  0.00    -0.332 N 
HETATM   18  C7  UNL     1     -27.031 104.086   4.410  1.00  0.00     0.361 C 
HETATM   19  O1  UNL     1     -27.309 103.148   5.201  1.00  0.00    -0.238 OA
ATOM     20  H3  UNL     1     -26.170 104.652   2.568  1.00  0.00     0.165 HD
BRANCH  18  21
HETATM   21  O2  UNL     1     -27.396 105.366   4.797  1.00  0.00    -0.299 OA
BRANCH  21  22
HETATM   22  C8  UNL     1     -28.667 105.892   4.584  1.00  0.00     0.133 C 
HETATM   23  C9  UNL     1     -29.676 105.448   5.620  1.00  0.00     0.032 C 
HETATM   24  C10 UNL     1     -30.997 106.111   5.393  1.00  0.00     0.002 C 
HETATM   25  C11 UNL     1     -31.019 106.759   4.030  1.00  0.00     0.000 C 
HETATM   26  C12 UNL     1     -29.972 107.818   3.863  1.00  0.00     0.002 C 
HETATM   27  C13 UNL     1     -28.689 107.403   4.554  1.00  0.00     0.032 C 
ENDBRANCH  21  22
ENDBRANCH  18  21
ENDBRANCH  11  17
TORSDOF 3
ENDMDL
MODEL 5
REMARK VINA RESULT: -8.011936606      1.756      2.805
REMARK  3 active torsions:
REMARK  status: ('A' for Active; 'I' for Inactive)
REMARK    1  A    between atoms: C6_11  and  N3_12 
REMARK       I    between atoms: N3_12  and  C7_14 
REMARK    2  A    between atoms: C7_14  and  O2_16 
REMARK    3  A    between atoms: O2_16  and  C8_17 
ROOT
HETATM    1  C1  UNL     1     -20.080 107.244   7.549  1.00  0.00     0.079 C 
HETATM    2  C2  UNL     1     -20.427 105.827   7.177  1.00  0.00     0.203 C 
HETATM    3  F1  UNL     1     -19.815 104.913   8.023  1.00  0.00    -0.217 F 
HETATM    4  N1  UNL     1     -21.846 105.681   7.214  1.00  0.00    -0.300 N 
ATOM      5  H1  UNL     1     -22.425 105.993   7.993  1.00  0.00     0.183 HD
HETATM    6  N2  UNL     1     -22.293 105.143   6.212  1.00  0.00    -0.326 N 
ATOM      7  H2  UNL     1     -23.287 104.961   6.074  1.00  0.00     0.180 HD
HETATM    8  C3  UNL     1     -21.304 104.796   5.262  1.00  0.00     0.066 C 
HETATM    9  C4  UNL     1     -21.688 105.310   3.894  1.00  0.00     0.036 C 
HETATM   10  C5  UNL     1     -22.094 104.216   2.958  1.00  0.00     0.028 C 
HETATM   11  C6  UNL     1     -23.036 103.220   3.594  1.00  0.00     0.086 C 
HETATM   12  C14 UNL     1     -22.523 102.718   4.920  1.00  0.00     0.028 C 
HETATM   13  C15 UNL     1     -21.159 103.294   5.242  1.00  0.00     0.036 C 
HETATM   14  C16 UNL     1     -20.040 105.480   5.772  1.00  0.00     0.183 C 
HETATM   15  C17 UNL     1     -18.967 104.486   5.702  1.00  0.00     0.071 C 
HETATM   16  N4  UNL     1     -18.115 103.692   5.666  1.00  0.00    -0.197 NA
ENDROOT
BRANCH  11  17
HETATM   17  N3  UNL     1     -23.210 102.119   2.670  1.00  0.00    -0.332 N 
HETATM   18  C7  UNL     1     -24.313 102.040   1.776  1.00  0.00     0.361 C 
HETATM   19  O1  UNL     1     -25.203 102.928   1.739  1.00  0.00    -0.238 OA
ATOM     20  H3  UNL     1     -22.516 101.371   2.661  1.00  0.00     0.165 HD
BRANCH  18  21
HETATM   21  O2  UNL     1     -24.449 100.973   0.903  1.00  0.00    -0.299 OA
BRANCH  21  22
HETATM   22  C8  UNL     1     -23.403 100.113   0.583  1.00  0.00     0.133 C 
HETATM   23  C9  UNL     1     -23.842  98.922  -0.241  1.00  0.00     0.032 C 
HETATM   24  C10 UNL     1     -22.667  98.082  -0.629  1.00  0.00     0.002 C 
HETATM   25  C11 UNL     1     -21.458  98.487   0.178  1.00  0.00     0.000 C 
HETATM   26  C12 UNL     1     -21.055  99.914  -0.036  1.00  0.00     0.002 C 
HETATM   27  C13 UNL     1     -22.283 100.792  -0.171  1.00  0.00     0.032 C 
ENDBRANCH  21  22
ENDBRANCH  18  21
ENDBRANCH  11  17
TORSDOF 3
ENDMDL
