MODEL 1
REMARK VINA RESULT: -7.309803213      0.000      0.000
REMARK  2 active torsions:
REMARK  status: ('A' for Active; 'I' for Inactive)
REMARK    1  A    between atoms: C4_5  and  C5_6 
REMARK    2  A    between atoms: N3_13  and  N4_14 
ROOT
HETATM    1  C5  UNL     1     -25.377 102.209   1.585  1.00  0.00     0.163 A 
HETATM    2  N1  UNL     1     -26.450 102.742   0.870  1.00  0.00    -0.281 N 
ATOM      3  H1  UNL     1     -26.612 102.617  -0.129  1.00  0.00     0.188 HD
HETATM    4  N2  UNL     1     -27.217 103.428   1.681  1.00  0.00    -0.273 N 
ATOM      5  H2  UNL     1     -28.067 103.920   1.408  1.00  0.00     0.189 HD
HETATM    6  C6  UNL     1     -26.716 103.386   2.920  1.00  0.00     0.214 A 
HETATM    7  S2  UNL     1     -27.288 104.088   4.266  1.00  0.00    -0.037 SA
HETATM    8  N3  UNL     1     -25.577 102.619   2.823  1.00  0.00    -0.210 N 
ENDROOT
BRANCH   8   9
HETATM    9  N4  UNL     1     -24.844 102.333   3.966  1.00  0.00    -0.298 N 
HETATM   10  C7  UNL     1     -23.959 103.150   4.454  1.00  0.00     0.004 C 
HETATM   11  C8  UNL     1     -23.594 104.460   3.909  1.00  0.00     0.054 C 
HETATM   12  C13 UNL     1     -23.263 102.688   5.683  1.00  0.00     0.054 C 
HETATM   13  C9  UNL     1     -22.090 104.617   3.883  1.00  0.00     0.010 C 
HETATM   14  C10 UNL     1     -21.423 104.311   5.175  1.00  0.00    -0.018 C 
HETATM   15  C11 UNL     1     -20.218 103.381   4.997  1.00  0.00     0.010 C 
HETATM   16  C12 UNL     1     -22.329 103.746   6.221  1.00  0.00     0.010 C 
ATOM     17  H4  UNL     1     -25.007 101.446   4.442  1.00  0.00     0.187 HD
ENDBRANCH   8   9
BRANCH   1  18
HETATM   18  C4  UNL     1     -24.371 101.362   0.969  1.00  0.00     0.074 A 
HETATM   19  S1  UNL     1     -24.766  99.745   0.438  1.00  0.00    -0.096 SA
HETATM   20  C3  UNL     1     -23.223  99.238  -0.071  1.00  0.00     0.059 A 
HETATM   21  C2  UNL     1     -22.445 100.335   0.181  1.00  0.00    -0.032 A 
HETATM   22  C1  UNL     1     -20.965 100.252  -0.158  1.00  0.00     0.050 C 
HETATM   23  C14 UNL     1     -23.055 101.417   0.714  1.00  0.00     0.061 A 
HETATM   24 CL1  UNL     1     -22.123 102.930   0.981  1.00  0.00    -0.082 Cl
ENDBRANCH   1  18
TORSDOF 2
ENDMDL
MODEL 2
REMARK VINA RESULT: -7.286301424      3.477      4.741
REMARK  2 active torsions:
REMARK  status: ('A' for Active; 'I' for Inactive)
REMARK    1  A    between atoms: C4_5  and  C5_6 
REMARK    2  A    between atoms: N3_13  and  N4_14 
ROOT
HETATM    1  C5  UNL     1     -24.000 101.519   5.523  1.00  0.00     0.163 A 
HETATM    2  N1  UNL     1     -24.208 100.273   6.115  1.00  0.00    -0.281 N 
ATOM      3  H1  UNL     1     -24.777  99.523   5.722  1.00  0.00     0.188 HD
HETATM    4  N2  UNL     1     -23.562 100.217   7.253  1.00  0.00    -0.273 N 
ATOM      5  H2  UNL     1     -23.550  99.414   7.882  1.00  0.00     0.189 HD
HETATM    6  C6  UNL     1     -22.918 101.370   7.464  1.00  0.00     0.214 A 
HETATM    7  S2  UNL     1     -21.998 101.797   8.730  1.00  0.00    -0.037 SA
HETATM    8  N3  UNL     1     -23.210 102.152   6.370  1.00  0.00    -0.210 N 
ENDROOT
BRANCH   8   9
HETATM    9  N4  UNL     1     -22.639 103.411   6.256  1.00  0.00    -0.298 N 
HETATM   10  C7  UNL     1     -21.504 103.614   5.657  1.00  0.00     0.004 C 
HETATM   11  C8  UNL     1     -20.663 102.596   5.023  1.00  0.00     0.054 C 
HETATM   12  C13 UNL     1     -21.035 105.025   5.625  1.00  0.00     0.054 C 
HETATM   13  C9  UNL     1     -19.216 102.792   5.417  1.00  0.00     0.010 C 
HETATM   14  C10 UNL     1     -18.713 104.176   5.220  1.00  0.00    -0.018 C 
HETATM   15  C11 UNL     1     -17.963 104.698   6.450  1.00  0.00     0.010 C 
HETATM   16  C12 UNL     1     -19.761 105.166   4.826  1.00  0.00     0.010 C 
ATOM     17  H4  UNL     1     -23.131 104.209   6.659  1.00  0.00     0.187 HD
ENDBRANCH   8   9
BRANCH   1  18
HETATM   18  C4  UNL     1     -24.556 101.872   4.229  1.00  0.00     0.074 A 
HETATM   19  S1  UNL     1     -23.549 101.903   2.801  1.00  0.00    -0.096 SA
HETATM   20  C3  UNL     1     -24.689 102.471   1.672  1.00  0.00     0.059 A 
HETATM   21  C2  UNL     1     -25.818 102.619   2.430  1.00  0.00    -0.032 A 
HETATM   22  C1  UNL     1     -27.077 103.121   1.742  1.00  0.00     0.050 C 
HETATM   23  C14 UNL     1     -25.728 102.305   3.742  1.00  0.00     0.061 A 
HETATM   24 CL1  UNL     1     -27.192 102.377   4.781  1.00  0.00    -0.082 Cl
ENDBRANCH   1  18
TORSDOF 2
ENDMDL
MODEL 3
REMARK VINA RESULT: -7.278643960      1.200      2.130
REMARK  2 active torsions:
REMARK  status: ('A' for Active; 'I' for Inactive)
REMARK    1  A    between atoms: C4_5  and  C5_6 
REMARK    2  A    between atoms: N3_13  and  N4_14 
ROOT
HETATM    1  C5  UNL     1     -25.468 102.415   1.503  1.00  0.00     0.163 A 
HETATM    2  N1  UNL     1     -26.742 102.474   0.938  1.00  0.00    -0.281 N 
ATOM      3  H1  UNL     1     -27.035 101.981   0.094  1.00  0.00     0.188 HD
HETATM    4  N2  UNL     1     -27.504 103.260   1.657  1.00  0.00    -0.273 N 
ATOM      5  H2  UNL     1     -28.481 103.472   1.459  1.00  0.00     0.189 HD
HETATM    6  C6  UNL     1     -26.806 103.740   2.692  1.00  0.00     0.214 A 
HETATM    7  S2  UNL     1     -27.296 104.762   3.854  1.00  0.00    -0.037 SA
HETATM    8  N3  UNL     1     -25.550 103.194   2.566  1.00  0.00    -0.210 N 
ENDROOT
BRANCH   8   9
HETATM    9  N4  UNL     1     -24.589 103.456   3.531  1.00  0.00    -0.298 N 
HETATM   10  C7  UNL     1     -24.217 102.572   4.408  1.00  0.00     0.004 C 
HETATM   11  C8  UNL     1     -24.724 101.203   4.530  1.00  0.00     0.054 C 
HETATM   12  C13 UNL     1     -23.176 103.018   5.372  1.00  0.00     0.054 C 
HETATM   13  C9  UNL     1     -25.020 100.879   5.977  1.00  0.00     0.010 C 
HETATM   14  C10 UNL     1     -23.901 101.176   6.909  1.00  0.00    -0.018 C 
HETATM   15  C11 UNL     1     -24.369 101.955   8.143  1.00  0.00     0.010 C 
HETATM   16  C12 UNL     1     -22.748 101.892   6.284  1.00  0.00     0.010 C 
ATOM     17  H4  UNL     1     -24.156 104.379   3.553  1.00  0.00     0.187 HD
ENDBRANCH   8   9
BRANCH   1  18
HETATM   18  C4  UNL     1     -24.407 101.591   0.954  1.00  0.00     0.074 A 
HETATM   19  S1  UNL     1     -24.746  99.994   0.331  1.00  0.00    -0.096 SA
HETATM   20  C3  UNL     1     -23.160  99.504  -0.048  1.00  0.00     0.059 A 
HETATM   21  C2  UNL     1     -22.413 100.590   0.316  1.00  0.00    -0.032 A 
HETATM   22  C1  UNL     1     -20.907 100.518   0.116  1.00  0.00     0.050 C 
HETATM   23  C14 UNL     1     -23.073 101.653   0.828  1.00  0.00     0.061 A 
HETATM   24 CL1  UNL     1     -22.173 103.153   1.236  1.00  0.00    -0.082 Cl
ENDBRANCH   1  18
TORSDOF 2
ENDMDL
MODEL 4
REMARK VINA RESULT: -7.198902702      2.529      4.657
REMARK  2 active torsions:
REMARK  status: ('A' for Active; 'I' for Inactive)
REMARK    1  A    between atoms: C4_5  and  C5_6 
REMARK    2  A    between atoms: N3_13  and  N4_14 
ROOT
HETATM    1  C5  UNL     1     -24.777 101.508   2.521  1.00  0.00     0.163 A 
HETATM    2  N1  UNL     1     -24.938 100.370   1.731  1.00  0.00    -0.281 N 
ATOM      3  H1  UNL     1     -25.638  99.644   1.881  1.00  0.00     0.188 HD
HETATM    4  N2  UNL     1     -24.051 100.378   0.767  1.00  0.00    -0.273 N 
ATOM      5  H2  UNL     1     -23.955  99.658   0.052  1.00  0.00     0.189 HD
HETATM    6  C6  UNL     1     -23.291 101.474   0.862  1.00  0.00     0.214 A 
HETATM    7  S2  UNL     1     -22.052 101.930  -0.081  1.00  0.00    -0.037 SA
HETATM    8  N3  UNL     1     -23.771 102.152   1.959  1.00  0.00    -0.210 N 
ENDROOT
BRANCH   8   9
HETATM    9  N4  UNL     1     -23.223 103.380   2.299  1.00  0.00    -0.298 N 
HETATM   10  C7  UNL     1     -22.372 103.523   3.271  1.00  0.00     0.004 C 
HETATM   11  C8  UNL     1     -21.861 102.461   4.141  1.00  0.00     0.054 C 
HETATM   12  C13 UNL     1     -21.883 104.908   3.502  1.00  0.00     0.054 C 
HETATM   13  C9  UNL     1     -21.886 102.908   5.585  1.00  0.00     0.010 C 
HETATM   14  C10 UNL     1     -21.241 104.225   5.826  1.00  0.00    -0.018 C 
HETATM   15  C11 UNL     1     -22.115 105.148   6.683  1.00  0.00     0.010 C 
HETATM   16  C12 UNL     1     -20.831 104.950   4.585  1.00  0.00     0.010 C 
ATOM     17  H4  UNL     1     -23.499 104.204   1.765  1.00  0.00     0.187 HD
ENDBRANCH   8   9
BRANCH   1  18
HETATM   18  C4  UNL     1     -25.641 101.805   3.649  1.00  0.00     0.074 A 
HETATM   19  S1  UNL     1     -25.324 101.117   5.224  1.00  0.00    -0.096 SA
HETATM   20  C3  UNL     1     -26.680 101.715   6.063  1.00  0.00     0.059 A 
HETATM   21  C2  UNL     1     -27.338 102.432   5.102  1.00  0.00    -0.032 A 
HETATM   22  C1  UNL     1     -28.631 103.130   5.496  1.00  0.00     0.050 C 
HETATM   23  C14 UNL     1     -26.787 102.467   3.868  1.00  0.00     0.061 A 
HETATM   24 CL1  UNL     1     -27.539 103.469   2.581  1.00  0.00    -0.082 Cl
ENDBRANCH   1  18
TORSDOF 2
ENDMDL
MODEL 5
REMARK VINA RESULT: -7.098839136      2.428      4.641
REMARK  2 active torsions:
REMARK  status: ('A' for Active; 'I' for Inactive)
REMARK    1  A    between atoms: C4_5  and  C5_6 
REMARK    2  A    between atoms: N3_13  and  N4_14 
ROOT
HETATM    1  C5  UNL     1     -24.795 101.500   2.153  1.00  0.00     0.163 A 
HETATM    2  N1  UNL     1     -24.967 100.298   1.467  1.00  0.00    -0.281 N 
ATOM      3  H1  UNL     1     -25.768  99.674   1.566  1.00  0.00     0.188 HD
HETATM    4  N2  UNL     1     -23.942 100.095   0.677  1.00  0.00    -0.273 N 
ATOM      5  H2  UNL     1     -23.823  99.287   0.067  1.00  0.00     0.189 HD
HETATM    6  C6  UNL     1     -23.076 101.107   0.792  1.00  0.00     0.214 A 
HETATM    7  S2  UNL     1     -21.654 101.310   0.039  1.00  0.00    -0.037 SA
HETATM    8  N3  UNL     1     -23.639 101.961   1.713  1.00  0.00    -0.210 N 
ENDROOT
BRANCH   8   9
HETATM    9  N4  UNL     1     -23.003 103.156   2.017  1.00  0.00    -0.298 N 
HETATM   10  C7  UNL     1     -22.312 103.325   3.104  1.00  0.00     0.004 C 
HETATM   11  C8  UNL     1     -22.089 102.329   4.156  1.00  0.00     0.054 C 
HETATM   12  C13 UNL     1     -21.697 104.668   3.275  1.00  0.00     0.054 C 
HETATM   13  C9  UNL     1     -22.293 102.951   5.519  1.00  0.00     0.010 C 
HETATM   14  C10 UNL     1     -21.536 104.211   5.734  1.00  0.00    -0.018 C 
HETATM   15  C11 UNL     1     -22.415 105.320   6.323  1.00  0.00     0.010 C 
HETATM   16  C12 UNL     1     -20.839 104.730   4.518  1.00  0.00     0.010 C 
ATOM     17  H4  UNL     1     -23.082 103.933   1.361  1.00  0.00     0.187 HD
ENDBRANCH   8   9
BRANCH   1  18
HETATM   18  C4  UNL     1     -25.786 102.022   3.077  1.00  0.00     0.074 A 
HETATM   19  S1  UNL     1     -26.967 103.197   2.551  1.00  0.00    -0.096 SA
HETATM   20  C3  UNL     1     -27.741 103.494   4.038  1.00  0.00     0.059 A 
HETATM   21  C2  UNL     1     -27.065 102.674   4.900  1.00  0.00    -0.032 A 
HETATM   22  C1  UNL     1     -27.491 102.669   6.360  1.00  0.00     0.050 C 
HETATM   23  C14 UNL     1     -26.064 101.925   4.386  1.00  0.00     0.061 A 
HETATM   24 CL1  UNL     1     -25.197 100.751   5.432  1.00  0.00    -0.082 Cl
ENDBRANCH   1  18
TORSDOF 2
ENDMDL
