MODEL 1
REMARK VINA RESULT: -7.986038602      0.000      0.000
REMARK  2 active torsions:
REMARK  status: ('A' for Active; 'I' for Inactive)
REMARK    1  A    between atoms: C5_5  and  N1_6 
REMARK    2  A    between atoms: N1_6  and  N2_8 
ROOT
HETATM    1  N2  UNL     1     -26.150 101.340   3.868  1.00  0.00    -0.297 N 
ATOM      2  H2  UNL     1     -26.966 101.363   3.257  1.00  0.00     0.187 HD
HETATM    3  C6  UNL     1     -25.028 101.640   3.351  1.00  0.00     0.073 C 
HETATM    4  C7  UNL     1     -24.949 102.006   1.899  1.00  0.00     0.104 C 
HETATM    5  C8  UNL     1     -23.717 101.322   1.389  1.00  0.00    -0.030 C 
HETATM    6  C9  UNL     1     -23.852 100.174   0.784  1.00  0.00     0.192 C 
HETATM    7  F1  UNL     1     -25.106  99.602   0.616  1.00  0.00    -0.219 F 
HETATM    8  C10 UNL     1     -22.413 101.969   1.592  1.00  0.00     0.057 C 
HETATM    9  C11 UNL     1     -21.319 101.178   0.934  1.00  0.00     0.023 C 
HETATM   10  C12 UNL     1     -21.362 101.485  -0.546  1.00  0.00     0.002 C 
HETATM   11  C13 UNL     1     -20.633 102.826  -0.707  1.00  0.00     0.000 C 
HETATM   12  C14 UNL     1     -20.995 103.663   0.499  1.00  0.00     0.002 C 
HETATM   13  C15 UNL     1     -22.379 103.371   1.018  1.00  0.00     0.023 C 
HETATM   14  C16 UNL     1     -22.196 102.020   3.087  1.00  0.00     0.204 C 
HETATM   15  O1  UNL     1     -21.098 102.318   3.489  1.00  0.00    -0.284 OA
HETATM   16  S1  UNL     1     -23.488 101.659   4.262  1.00  0.00    -0.036 SA
ENDROOT
BRANCH   1  17
HETATM   17  N1  UNL     1     -26.356 100.989   5.184  1.00  0.00    -0.293 N 
ATOM     18  H1  UNL     1     -25.864 100.183   5.570  1.00  0.00     0.187 HD
BRANCH  17  19
HETATM   19  C5  UNL     1     -27.259 101.742   6.031  1.00  0.00     0.089 A 
HETATM   20  C4  UNL     1     -28.361 102.463   5.649  1.00  0.00     0.039 A 
HETATM   21  C3  UNL     1     -29.060 103.074   6.616  1.00  0.00     0.017 A 
HETATM   22  C2  UNL     1     -28.612 102.928   7.902  1.00  0.00    -0.019 A 
HETATM   23  C1  UNL     1     -29.216 103.510   9.158  1.00  0.00     0.056 C 
HETATM   24  S2  UNL     1     -27.236 101.944   7.725  1.00  0.00    -0.076 SA
ENDBRANCH  17  19
ENDBRANCH   1  17
TORSDOF 2
ENDMDL
MODEL 2
REMARK VINA RESULT: -7.911654356      1.013      1.051
REMARK  2 active torsions:
REMARK  status: ('A' for Active; 'I' for Inactive)
REMARK    1  A    between atoms: C5_5  and  N1_6 
REMARK    2  A    between atoms: N1_6  and  N2_8 
ROOT
HETATM    1  N2  UNL     1     -26.319 101.823   3.629  1.00  0.00    -0.297 N 
ATOM      2  H2  UNL     1     -27.119 101.893   2.999  1.00  0.00     0.187 HD
HETATM    3  C6  UNL     1     -25.164 101.961   3.120  1.00  0.00     0.073 C 
HETATM    4  C7  UNL     1     -25.021 102.217   1.649  1.00  0.00     0.104 C 
HETATM    5  C8  UNL     1     -23.864 101.368   1.214  1.00  0.00    -0.030 C 
HETATM    6  C9  UNL     1     -24.116 100.204   0.683  1.00  0.00     0.192 C 
HETATM    7  F1  UNL     1     -25.423  99.763   0.523  1.00  0.00    -0.219 F 
HETATM    8  C10 UNL     1     -22.500 101.880   1.405  1.00  0.00     0.057 C 
HETATM    9  C11 UNL     1     -21.490 100.931   0.826  1.00  0.00     0.023 C 
HETATM   10  C12 UNL     1     -21.475 101.139  -0.671  1.00  0.00     0.002 C 
HETATM   11  C13 UNL     1     -20.598 102.379  -0.903  1.00  0.00     0.000 C 
HETATM   12  C14 UNL     1     -20.884 103.330   0.237  1.00  0.00     0.002 C 
HETATM   13  C15 UNL     1     -22.301 103.228   0.742  1.00  0.00     0.023 C 
HETATM   14  C16 UNL     1     -22.303 102.008   2.898  1.00  0.00     0.204 C 
HETATM   15  O1  UNL     1     -21.184 102.211   3.306  1.00  0.00    -0.284 OA
HETATM   16  S1  UNL     1     -23.646 101.872   4.064  1.00  0.00    -0.036 SA
ENDROOT
BRANCH   1  17
HETATM   17  N1  UNL     1     -26.585 101.586   4.960  1.00  0.00    -0.293 N 
ATOM     18  H1  UNL     1     -26.158 100.782   5.421  1.00  0.00     0.187 HD
BRANCH  17  19
HETATM   19  C5  UNL     1     -27.460 102.457   5.718  1.00  0.00     0.089 A 
HETATM   20  C4  UNL     1     -28.429 102.094   6.618  1.00  0.00     0.039 A 
HETATM   21  C3  UNL     1     -29.114 103.081   7.213  1.00  0.00     0.017 A 
HETATM   22  C2  UNL     1     -28.787 104.367   6.871  1.00  0.00    -0.019 A 
HETATM   23  C1  UNL     1     -29.404 105.643   7.395  1.00  0.00     0.056 C 
HETATM   24  S2  UNL     1     -27.540 104.162   5.734  1.00  0.00    -0.076 SA
ENDBRANCH  17  19
ENDBRANCH   1  17
TORSDOF 2
ENDMDL
MODEL 3
REMARK VINA RESULT: -7.490013630      2.964      7.621
REMARK  2 active torsions:
REMARK  status: ('A' for Active; 'I' for Inactive)
REMARK    1  A    between atoms: C5_5  and  N1_6 
REMARK    2  A    between atoms: N1_6  and  N2_8 
ROOT
HETATM    1  N2  UNL     1     -22.983 102.814   3.094  1.00  0.00    -0.297 N 
ATOM      2  H2  UNL     1     -22.232 102.674   3.771  1.00  0.00     0.187 HD
HETATM    3  C6  UNL     1     -24.150 103.014   3.554  1.00  0.00     0.073 C 
HETATM    4  C7  UNL     1     -24.376 103.037   5.036  1.00  0.00     0.104 C 
HETATM    5  C8  UNL     1     -25.655 102.285   5.249  1.00  0.00    -0.030 C 
HETATM    6  C9  UNL     1     -25.584 101.026   5.582  1.00  0.00     0.192 C 
HETATM    7  F1  UNL     1     -24.355 100.399   5.736  1.00  0.00    -0.219 F 
HETATM    8  C10 UNL     1     -26.930 102.994   5.074  1.00  0.00     0.057 C 
HETATM    9  C11 UNL     1     -28.087 102.100   5.419  1.00  0.00     0.023 C 
HETATM   10  C12 UNL     1     -28.195 102.056   6.927  1.00  0.00     0.002 C 
HETATM   11  C13 UNL     1     -28.935 103.343   7.322  1.00  0.00     0.000 C 
HETATM   12  C14 UNL     1     -28.450 104.426   6.384  1.00  0.00     0.002 C 
HETATM   13  C15 UNL     1     -27.021 104.227   5.951  1.00  0.00     0.023 C 
HETATM   14  C16 UNL     1     -26.994 103.394   3.618  1.00  0.00     0.204 C 
HETATM   15  O1  UNL     1     -28.045 103.805   3.189  1.00  0.00    -0.284 OA
HETATM   16  S1  UNL     1     -25.590 103.281   2.524  1.00  0.00    -0.036 SA
ENDROOT
BRANCH   1  17
HETATM   17  N1  UNL     1     -22.643 102.769   1.760  1.00  0.00    -0.293 N 
ATOM     18  H1  UNL     1     -22.513 103.642   1.247  1.00  0.00     0.187 HD
BRANCH  17  19
HETATM   19  C5  UNL     1     -22.468 101.508   1.070  1.00  0.00     0.089 A 
HETATM   20  C4  UNL     1     -21.290 100.909   0.704  1.00  0.00     0.039 A 
HETATM   21  C3  UNL     1     -21.372  99.726   0.080  1.00  0.00     0.017 A 
HETATM   22  C2  UNL     1     -22.624  99.216  -0.140  1.00  0.00    -0.019 A 
HETATM   23  C1  UNL     1     -22.982  97.913  -0.816  1.00  0.00     0.056 C 
HETATM   24  S2  UNL     1     -23.647 100.398   0.529  1.00  0.00    -0.076 SA
ENDBRANCH  17  19
ENDBRANCH   1  17
TORSDOF 2
ENDMDL
MODEL 4
REMARK VINA RESULT: -7.429989144      3.319      4.244
REMARK  2 active torsions:
REMARK  status: ('A' for Active; 'I' for Inactive)
REMARK    1  A    between atoms: C5_5  and  N1_6 
REMARK    2  A    between atoms: N1_6  and  N2_8 
ROOT
HETATM    1  N2  UNL     1     -24.344 103.117   2.931  1.00  0.00    -0.297 N 
ATOM      2  H2  UNL     1     -24.346 103.637   2.054  1.00  0.00     0.187 HD
HETATM    3  C6  UNL     1     -23.364 103.307   3.717  1.00  0.00     0.073 C 
HETATM    4  C7  UNL     1     -22.274 104.264   3.336  1.00  0.00     0.104 C 
HETATM    5  C8  UNL     1     -21.000 103.589   3.742  1.00  0.00    -0.030 C 
HETATM    6  C9  UNL     1     -20.330 102.934   2.835  1.00  0.00     0.192 C 
HETATM    7  F1  UNL     1     -20.787 102.865   1.526  1.00  0.00    -0.219 F 
HETATM    8  C10 UNL     1     -20.559 103.691   5.141  1.00  0.00     0.057 C 
HETATM    9  C11 UNL     1     -19.223 103.031   5.326  1.00  0.00     0.023 C 
HETATM   10  C12 UNL     1     -18.168 103.984   4.811  1.00  0.00     0.002 C 
HETATM   11  C13 UNL     1     -17.943 104.997   5.944  1.00  0.00     0.000 C 
HETATM   12  C14 UNL     1     -19.294 105.246   6.576  1.00  0.00     0.002 C 
HETATM   13  C15 UNL     1     -20.430 105.132   5.591  1.00  0.00     0.023 C 
HETATM   14  C16 UNL     1     -21.611 102.987   5.966  1.00  0.00     0.204 C 
HETATM   15  O1  UNL     1     -21.361 102.758   7.125  1.00  0.00    -0.284 OA
HETATM   16  S1  UNL     1     -23.188 102.488   5.299  1.00  0.00    -0.036 SA
ENDROOT
BRANCH   1  17
HETATM   17  N1  UNL     1     -25.405 102.269   3.163  1.00  0.00    -0.293 N 
ATOM     18  H1  UNL     1     -25.418 101.351   2.718  1.00  0.00     0.187 HD
BRANCH  17  19
HETATM   19  C5  UNL     1     -26.502 102.656   4.026  1.00  0.00     0.089 A 
HETATM   20  C4  UNL     1     -27.042 101.943   5.065  1.00  0.00     0.039 A 
HETATM   21  C3  UNL     1     -28.054 102.511   5.737  1.00  0.00     0.017 A 
HETATM   22  C2  UNL     1     -28.462 103.753   5.328  1.00  0.00    -0.019 A 
HETATM   23  C1  UNL     1     -29.569 104.597   5.914  1.00  0.00     0.056 C 
HETATM   24  S2  UNL     1     -27.425 104.091   4.023  1.00  0.00    -0.076 SA
ENDBRANCH  17  19
ENDBRANCH   1  17
TORSDOF 2
ENDMDL
MODEL 5
REMARK VINA RESULT: -7.322012099      3.067      7.804
REMARK  2 active torsions:
REMARK  status: ('A' for Active; 'I' for Inactive)
REMARK    1  A    between atoms: C5_5  and  N1_6 
REMARK    2  A    between atoms: N1_6  and  N2_8 
ROOT
HETATM    1  N2  UNL     1     -25.803 102.906   1.877  1.00  0.00    -0.297 N 
ATOM      2  H2  UNL     1     -26.514 103.221   1.217  1.00  0.00     0.187 HD
HETATM    3  C6  UNL     1     -26.154 102.772   3.091  1.00  0.00     0.073 C 
HETATM    4  C7  UNL     1     -27.566 103.073   3.498  1.00  0.00     0.104 C 
HETATM    5  C8  UNL     1     -27.449 103.807   4.800  1.00  0.00    -0.030 C 
HETATM    6  C9  UNL     1     -27.494 105.111   4.781  1.00  0.00     0.192 C 
HETATM    7  F1  UNL     1     -27.646 105.800   3.586  1.00  0.00    -0.219 F 
HETATM    8  C10 UNL     1     -27.289 103.031   6.037  1.00  0.00     0.057 C 
HETATM    9  C11 UNL     1     -27.284 103.937   7.236  1.00  0.00     0.023 C 
HETATM   10  C12 UNL     1     -28.718 104.314   7.529  1.00  0.00     0.002 C 
HETATM   11  C13 UNL     1     -29.305 103.123   8.301  1.00  0.00     0.000 C 
HETATM   12  C14 UNL     1     -28.701 101.875   7.696  1.00  0.00     0.002 C 
HETATM   13  C15 UNL     1     -28.406 102.024   6.225  1.00  0.00     0.023 C 
HETATM   14  C16 UNL     1     -25.965 102.314   5.917  1.00  0.00     0.204 C 
HETATM   15  O1  UNL     1     -25.519 101.779   6.904  1.00  0.00    -0.284 OA
HETATM   16  S1  UNL     1     -25.049 102.229   4.389  1.00  0.00    -0.036 SA
ENDROOT
BRANCH   1  17
HETATM   17  N1  UNL     1     -24.543 102.662   1.376  1.00  0.00    -0.293 N 
ATOM     18  H1  UNL     1     -23.856 103.417   1.358  1.00  0.00     0.187 HD
BRANCH  17  19
HETATM   19  C5  UNL     1     -24.174 101.355   0.873  1.00  0.00     0.089 A 
HETATM   20  C4  UNL     1     -25.002 100.293   0.611  1.00  0.00     0.039 A 
HETATM   21  C3  UNL     1     -24.434  99.176   0.136  1.00  0.00     0.017 A 
HETATM   22  C2  UNL     1     -23.076  99.189  -0.046  1.00  0.00    -0.019 A 
HETATM   23  C1  UNL     1     -22.206  98.068  -0.565  1.00  0.00     0.056 C 
HETATM   24  S2  UNL     1     -22.634 100.755   0.448  1.00  0.00    -0.076 SA
ENDBRANCH  17  19
ENDBRANCH   1  17
TORSDOF 2
ENDMDL
