MODEL 1
REMARK VINA RESULT: -6.536330360      0.000      0.000
REMARK  4 active torsions:
REMARK  status: ('A' for Active; 'I' for Inactive)
REMARK    1  A    between atoms: S1_2  and  C2_3 
REMARK    2  A    between atoms: C8_13  and  N2_14 
REMARK       I    between atoms: N2_14  and  C9_16 
REMARK    3  A    between atoms: C9_16  and  O2_18 
REMARK    4  A    between atoms: O2_18  and  C10_19 
ROOT
HETATM    1  C2  UNL     1     -21.972 103.640   2.603  1.00  0.00     0.112 A 
HETATM    2  N1  UNL     1     -23.014 102.836   2.671  1.00  0.00    -0.346 N 
ATOM      3  H1  UNL     1     -23.802 103.071   3.274  1.00  0.00     0.167 HD
HETATM    4  C3  UNL     1     -23.036 101.741   1.969  1.00  0.00     0.047 A 
HETATM    5  C4  UNL     1     -21.954 101.471   1.176  1.00  0.00     0.011 A 
HETATM    6  S2  UNL     1     -20.955 102.835   1.497  1.00  0.00    -0.068 SA
HETATM    7  C5  UNL     1     -21.886 100.237   0.331  1.00  0.00     0.068 C 
HETATM    8  C6  UNL     1     -23.190  99.858  -0.268  1.00  0.00     0.089 C 
HETATM    9 CL1  UNL     1     -23.216  98.062  -0.402  1.00  0.00    -0.125 Cl
HETATM   10  C7  UNL     1     -24.393 100.353   0.461  1.00  0.00     0.052 C 
HETATM   11  C8  UNL     1     -24.123 100.691   1.904  1.00  0.00     0.139 C 
ENDROOT
BRANCH  11  12
HETATM   12  N2  UNL     1     -25.315 101.124   2.547  1.00  0.00    -0.327 N 
HETATM   13  C9  UNL     1     -25.486 101.236   3.955  1.00  0.00     0.361 C 
HETATM   14  O1  UNL     1     -24.504 100.928   4.676  1.00  0.00    -0.238 OA
ATOM     15  H2  UNL     1     -26.107 101.373   1.955  1.00  0.00     0.165 HD
BRANCH  13  16
HETATM   16  O2  UNL     1     -26.639 101.654   4.557  1.00  0.00    -0.294 OA
BRANCH  16  17
HETATM   17  C10 UNL     1     -27.118 102.978   4.586  1.00  0.00     0.061 C 
HETATM   18  C11 UNL     1     -28.355 103.021   5.455  1.00  0.00     0.046 C 
HETATM   19  C12 UNL     1     -26.115 103.943   5.170  1.00  0.00     0.046 C 
HETATM   20  C13 UNL     1     -27.494 103.496   3.219  1.00  0.00     0.046 C 
ENDBRANCH  16  17
ENDBRANCH  13  16
ENDBRANCH  11  12
BRANCH   1  21
HETATM   21  S1  UNL     1     -21.774 105.187   3.501  1.00  0.00    -0.109 SA
HETATM   22  C1  UNL     1     -20.595 104.930   4.856  1.00  0.00     0.097 C 
ENDBRANCH   1  21
TORSDOF 4
ENDMDL
MODEL 2
REMARK VINA RESULT: -6.495411707      3.073      5.734
REMARK  4 active torsions:
REMARK  status: ('A' for Active; 'I' for Inactive)
REMARK    1  A    between atoms: S1_2  and  C2_3 
REMARK    2  A    between atoms: C8_13  and  N2_14 
REMARK       I    between atoms: N2_14  and  C9_16 
REMARK    3  A    between atoms: C9_16  and  O2_18 
REMARK    4  A    between atoms: O2_18  and  C10_19 
ROOT
HETATM    1  C2  UNL     1     -24.910 101.521   3.872  1.00  0.00     0.112 A 
HETATM    2  N1  UNL     1     -23.706 102.056   3.857  1.00  0.00    -0.346 N 
ATOM      3  H1  UNL     1     -23.280 102.379   4.725  1.00  0.00     0.167 HD
HETATM    4  C3  UNL     1     -23.061 102.173   2.733  1.00  0.00     0.047 A 
HETATM    5  C4  UNL     1     -23.676 101.723   1.596  1.00  0.00     0.011 A 
HETATM    6  S2  UNL     1     -25.172 101.152   2.228  1.00  0.00    -0.068 SA
HETATM    7  C5  UNL     1     -23.015 101.814   0.256  1.00  0.00     0.068 C 
HETATM    8  C6  UNL     1     -21.554 101.559   0.299  1.00  0.00     0.089 C 
HETATM    9 CL1  UNL     1     -20.799 102.554  -0.998  1.00  0.00    -0.125 Cl
HETATM   10  C7  UNL     1     -20.902 101.818   1.615  1.00  0.00     0.052 C 
HETATM   11  C8  UNL     1     -21.684 102.753   2.498  1.00  0.00     0.139 C 
ENDROOT
BRANCH  11  12
HETATM   12  N2  UNL     1     -20.993 102.983   3.720  1.00  0.00    -0.327 N 
HETATM   13  C9  UNL     1     -20.900 104.239   4.380  1.00  0.00     0.361 C 
HETATM   14  O1  UNL     1     -21.476 105.215   3.835  1.00  0.00    -0.238 OA
ATOM     15  H2  UNL     1     -20.528 102.186   4.156  1.00  0.00     0.165 HD
BRANCH  13  16
HETATM   16  O2  UNL     1     -20.231 104.443   5.554  1.00  0.00    -0.294 OA
BRANCH  16  17
HETATM   17  C10 UNL     1     -18.833 104.432   5.715  1.00  0.00     0.061 C 
HETATM   18  C11 UNL     1     -18.495 105.134   7.011  1.00  0.00     0.046 C 
HETATM   19  C12 UNL     1     -18.270 103.034   5.793  1.00  0.00     0.046 C 
HETATM   20  C13 UNL     1     -18.107 105.145   4.600  1.00  0.00     0.046 C 
ENDBRANCH  16  17
ENDBRANCH  13  16
ENDBRANCH  11  12
BRANCH   1  21
HETATM   21  S1  UNL     1     -25.940 101.283   5.329  1.00  0.00    -0.109 SA
HETATM   22  C1  UNL     1     -27.425 102.313   5.168  1.00  0.00     0.097 C 
ENDBRANCH   1  21
TORSDOF 4
ENDMDL
MODEL 3
REMARK VINA RESULT: -6.196002420      1.073      1.124
REMARK  4 active torsions:
REMARK  status: ('A' for Active; 'I' for Inactive)
REMARK    1  A    between atoms: S1_2  and  C2_3 
REMARK    2  A    between atoms: C8_13  and  N2_14 
REMARK       I    between atoms: N2_14  and  C9_16 
REMARK    3  A    between atoms: C9_16  and  O2_18 
REMARK    4  A    between atoms: O2_18  and  C10_19 
ROOT
HETATM    1  C2  UNL     1     -22.213 103.713   3.985  1.00  0.00     0.112 A 
HETATM    2  N1  UNL     1     -23.251 102.911   3.852  1.00  0.00    -0.346 N 
ATOM      3  H1  UNL     1     -24.038 102.983   4.496  1.00  0.00     0.167 HD
HETATM    4  C3  UNL     1     -23.270 102.027   2.898  1.00  0.00     0.047 A 
HETATM    5  C4  UNL     1     -22.190 101.972   2.059  1.00  0.00     0.011 A 
HETATM    6  S2  UNL     1     -21.196 103.217   2.710  1.00  0.00    -0.068 SA
HETATM    7  C5  UNL     1     -22.119 100.989   0.931  1.00  0.00     0.068 C 
HETATM    8  C6  UNL     1     -23.423 100.765   0.260  1.00  0.00     0.089 C 
HETATM    9 CL1  UNL     1     -23.440  99.061  -0.321  1.00  0.00    -0.125 Cl
HETATM   10  C7  UNL     1     -24.626 101.055   1.093  1.00  0.00     0.052 C 
HETATM   11  C8  UNL     1     -24.352 101.021   2.573  1.00  0.00     0.139 C 
ENDROOT
BRANCH  11  12
HETATM   12  N2  UNL     1     -25.543 101.271   3.308  1.00  0.00    -0.327 N 
HETATM   13  C9  UNL     1     -25.721 100.995   4.691  1.00  0.00     0.361 C 
HETATM   14  O1  UNL     1     -24.745 100.492   5.303  1.00  0.00    -0.238 OA
ATOM     15  H2  UNL     1     -26.331 101.681   2.805  1.00  0.00     0.165 HD
BRANCH  13  16
HETATM   16  O2  UNL     1     -26.873 101.242   5.383  1.00  0.00    -0.294 OA
BRANCH  16  17
HETATM   17  C10 UNL     1     -27.415 102.514   5.649  1.00  0.00     0.061 C 
HETATM   18  C11 UNL     1     -28.452 102.374   6.741  1.00  0.00     0.046 C 
HETATM   19  C12 UNL     1     -26.376 103.497   6.128  1.00  0.00     0.046 C 
HETATM   20  C13 UNL     1     -28.090 103.127   4.446  1.00  0.00     0.046 C 
ENDBRANCH  16  17
ENDBRANCH  13  16
ENDBRANCH  11  12
BRANCH   1  21
HETATM   21  S1  UNL     1     -22.020 104.986   5.243  1.00  0.00    -0.109 SA
HETATM   22  C1  UNL     1     -20.255 105.367   5.422  1.00  0.00     0.097 C 
ENDBRANCH   1  21
TORSDOF 4
ENDMDL
MODEL 4
REMARK VINA RESULT: -6.142604697      2.901      4.404
REMARK  4 active torsions:
REMARK  status: ('A' for Active; 'I' for Inactive)
REMARK    1  A    between atoms: S1_2  and  C2_3 
REMARK    2  A    between atoms: C8_13  and  N2_14 
REMARK       I    between atoms: N2_14  and  C9_16 
REMARK    3  A    between atoms: C9_16  and  O2_18 
REMARK    4  A    between atoms: O2_18  and  C10_19 
ROOT
HETATM    1  C2  UNL     1     -23.249 100.880   1.161  1.00  0.00     0.112 A 
HETATM    2  N1  UNL     1     -23.628 101.628   2.178  1.00  0.00    -0.346 N 
ATOM      3  H1  UNL     1     -24.597 101.607   2.494  1.00  0.00     0.167 HD
HETATM    4  C3  UNL     1     -22.764 102.392   2.779  1.00  0.00     0.047 A 
HETATM    5  C4  UNL     1     -21.476 102.382   2.318  1.00  0.00     0.011 A 
HETATM    6  S2  UNL     1     -21.592 101.254   1.023  1.00  0.00    -0.068 SA
HETATM    7  C5  UNL     1     -20.409 103.228   2.944  1.00  0.00     0.068 C 
HETATM    8  C6  UNL     1     -20.527 103.330   4.419  1.00  0.00     0.089 C 
HETATM    9 CL1  UNL     1     -19.908 104.953   4.894  1.00  0.00    -0.125 Cl
HETATM   10  C7  UNL     1     -21.896 103.103   4.966  1.00  0.00     0.052 C 
HETATM   11  C8  UNL     1     -22.989 103.319   3.954  1.00  0.00     0.139 C 
ENDROOT
BRANCH  11  12
HETATM   12  N2  UNL     1     -24.266 103.119   4.546  1.00  0.00    -0.327 N 
HETATM   13  C9  UNL     1     -25.231 104.140   4.768  1.00  0.00     0.361 C 
HETATM   14  O1  UNL     1     -24.924 105.304   4.408  1.00  0.00    -0.238 OA
ATOM     15  H2  UNL     1     -24.509 102.171   4.835  1.00  0.00     0.165 HD
BRANCH  13  16
HETATM   16  O2  UNL     1     -26.454 103.930   5.339  1.00  0.00    -0.294 OA
BRANCH  16  17
HETATM   17  C10 UNL     1     -27.672 103.789   4.646  1.00  0.00     0.061 C 
HETATM   18  C11 UNL     1     -28.506 102.743   5.351  1.00  0.00     0.046 C 
HETATM   19  C12 UNL     1     -28.472 105.068   4.615  1.00  0.00     0.046 C 
HETATM   20  C13 UNL     1     -27.484 103.344   3.215  1.00  0.00     0.046 C 
ENDBRANCH  16  17
ENDBRANCH  13  16
ENDBRANCH  11  12
BRANCH   1  21
HETATM   21  S1  UNL     1     -24.306  99.770   0.218  1.00  0.00    -0.109 SA
HETATM   22  C1  UNL     1     -23.312  98.366  -0.360  1.00  0.00     0.097 C 
ENDBRANCH   1  21
TORSDOF 4
ENDMDL
MODEL 5
REMARK VINA RESULT: -6.113165844      4.030      6.247
REMARK  4 active torsions:
REMARK  status: ('A' for Active; 'I' for Inactive)
REMARK    1  A    between atoms: S1_2  and  C2_3 
REMARK    2  A    between atoms: C8_13  and  N2_14 
REMARK       I    between atoms: N2_14  and  C9_16 
REMARK    3  A    between atoms: C9_16  and  O2_18 
REMARK    4  A    between atoms: O2_18  and  C10_19 
ROOT
HETATM    1  C2  UNL     1     -22.885 101.007   7.984  1.00  0.00     0.112 A 
HETATM    2  N1  UNL     1     -23.036 101.209   6.690  1.00  0.00    -0.346 N 
ATOM      3  H1  UNL     1     -22.260 101.030   6.052  1.00  0.00     0.167 HD
HETATM    4  C3  UNL     1     -24.173 101.638   6.227  1.00  0.00     0.047 A 
HETATM    5  C4  UNL     1     -25.181 101.863   7.125  1.00  0.00     0.011 A 
HETATM    6  S2  UNL     1     -24.414 101.436   8.605  1.00  0.00    -0.068 SA
HETATM    7  C5  UNL     1     -26.526 102.357   6.690  1.00  0.00     0.068 C 
HETATM    8  C6  UNL     1     -26.978 101.782   5.398  1.00  0.00     0.089 C 
HETATM    9 CL1  UNL     1     -27.986 103.030   4.580  1.00  0.00    -0.125 Cl
HETATM   10  C7  UNL     1     -25.888 101.306   4.498  1.00  0.00     0.052 C 
HETATM   11  C8  UNL     1     -24.551 101.933   4.792  1.00  0.00     0.139 C 
ENDROOT
BRANCH  11  12
HETATM   12  N2  UNL     1     -23.566 101.462   3.881  1.00  0.00    -0.327 N 
HETATM   13  C9  UNL     1     -22.608 102.281   3.221  1.00  0.00     0.361 C 
HETATM   14  O1  UNL     1     -22.641 103.512   3.470  1.00  0.00    -0.238 OA
ATOM     15  H2  UNL     1     -23.545 100.461   3.684  1.00  0.00     0.165 HD
BRANCH  13  16
HETATM   16  O2  UNL     1     -21.669 101.812   2.347  1.00  0.00    -0.294 OA
BRANCH  16  17
HETATM   17  C10 UNL     1     -21.774 101.823   0.943  1.00  0.00     0.061 C 
HETATM   18  C11 UNL     1     -21.201 100.530   0.409  1.00  0.00     0.046 C 
HETATM   19  C12 UNL     1     -23.204 101.919   0.471  1.00  0.00     0.046 C 
HETATM   20  C13 UNL     1     -21.015 102.963   0.308  1.00  0.00     0.046 C 
ENDBRANCH  16  17
ENDBRANCH  13  16
ENDBRANCH  11  12
BRANCH   1  21
HETATM   21  S1  UNL     1     -21.388 100.420   8.792  1.00  0.00    -0.109 SA
HETATM   22  C1  UNL     1     -21.538  98.634   9.072  1.00  0.00     0.097 C 
ENDBRANCH   1  21
TORSDOF 4
ENDMDL
