MODEL 1
REMARK VINA RESULT: -6.373285318      0.000      0.000
REMARK  7 active torsions:
REMARK  status: ('A' for Active; 'I' for Inactive)
REMARK    1  A    between atoms: C2_2  and  C3_3 
REMARK    2  A    between atoms: C3_3  and  C4_4 
REMARK    3  A    between atoms: C7_8  and  C8_9 
REMARK    4  A    between atoms: C12_14  and  O2_15 
REMARK    5  A    between atoms: C14_18  and  O3_19 
REMARK    6  A    between atoms: C15_21  and  C16_22 
REMARK    7  A    between atoms: C16_22  and  N1_23 
ROOT
HETATM    1  C8  UNL     1      48.756  56.258  34.107  1.00  0.00    -0.013 A 
HETATM    2  C9  UNL     1      48.752  57.077  33.002  1.00  0.00     0.027 A 
HETATM    3  C10 UNL     1      49.215  58.365  33.069  1.00  0.00     0.005 A 
HETATM    4  C11 UNL     1      49.321  59.401  32.142  1.00  0.00     0.157 A 
HETATM    5  O1  UNL     1      49.839  60.433  32.770  1.00  0.00    -0.299 OA
HETATM    6  C12 UNL     1      50.069  60.130  34.030  1.00  0.00     0.197 A 
HETATM    7  C13 UNL     1      49.689  58.824  34.274  1.00  0.00     0.068 A 
HETATM    8  C14 UNL     1      49.691  57.982  35.391  1.00  0.00     0.090 A 
HETATM    9  C15 UNL     1      49.232  56.690  35.349  1.00  0.00     0.005 A 
ENDROOT
BRANCH   1  10
HETATM   10  C7  UNL     1      48.140  54.918  33.922  1.00  0.00    -0.012 A 
HETATM   11  C4  UNL     1      48.839  53.810  33.606  1.00  0.00    -0.037 A 
HETATM   12  C5  UNL     1      48.123  52.673  33.367  1.00  0.00     0.057 A 
HETATM   13  S1  UNL     1      46.504  53.167  33.590  1.00  0.00    -0.112 SA
HETATM   14  C6  UNL     1      46.781  54.808  33.980  1.00  0.00     0.062 A 
BRANCH  11  15
HETATM   15  C3  UNL     1      50.362  53.757  33.593  1.00  0.00     0.066 C 
BRANCH  15  16
HETATM   16  C2  UNL     1      50.846  52.498  33.019  1.00  0.00    -0.032 C 
HETATM   17  C1  UNL     1      52.033  52.043  33.325  1.00  0.00     0.007 C 
ENDBRANCH  15  16
ENDBRANCH  11  15
ENDBRANCH   1  10
BRANCH   9  18
HETATM   18  C16 UNL     1      49.200  55.704  36.414  1.00  0.00     0.171 C 
BRANCH  18  19
HETATM   19  N1  UNL     1      48.147  55.764  37.363  1.00  0.00    -0.347 N 
HETATM   20  C17 UNL     1      47.282  54.789  37.651  1.00  0.00     0.109 A 
HETATM   21  C18 UNL     1      46.374  55.214  38.591  1.00  0.00     0.106 A 
HETATM   22  N2  UNL     1      46.736  56.497  38.848  1.00  0.00    -0.361 N 
HETATM   23  C19 UNL     1      47.808  56.819  38.104  1.00  0.00     0.182 A 
ATOM     24  H2  UNL     1      46.268  57.119  39.506  1.00  0.00     0.166 HD
ENDBRANCH  18  19
ENDBRANCH   9  18
BRANCH   8  25
HETATM   25  O3  UNL     1      50.173  58.468  36.561  1.00  0.00    -0.359 OA
ATOM     26  H3  UNL     1      50.043  57.954  37.350  1.00  0.00     0.217 HD
ENDBRANCH   8  25
BRANCH   6  27
HETATM   27  O2  UNL     1      50.605  61.009  34.926  1.00  0.00    -0.340 OA
ATOM     28  H2  UNL     1      51.481  61.368  34.845  1.00  0.00     0.220 HD
ENDBRANCH   6  27
TORSDOF 7
ENDMDL
MODEL 2
REMARK VINA RESULT: -6.225588558      5.977      8.851
REMARK  7 active torsions:
REMARK  status: ('A' for Active; 'I' for Inactive)
REMARK    1  A    between atoms: C2_2  and  C3_3 
REMARK    2  A    between atoms: C3_3  and  C4_4 
REMARK    3  A    between atoms: C7_8  and  C8_9 
REMARK    4  A    between atoms: C12_14  and  O2_15 
REMARK    5  A    between atoms: C14_18  and  O3_19 
REMARK    6  A    between atoms: C15_21  and  C16_22 
REMARK    7  A    between atoms: C16_22  and  N1_23 
ROOT
HETATM    1  C8  UNL     1      47.314  61.848  39.250  1.00  0.00    -0.013 A 
HETATM    2  C9  UNL     1      47.942  62.778  40.045  1.00  0.00     0.027 A 
HETATM    3  C10 UNL     1      47.620  62.916  41.371  1.00  0.00     0.005 A 
HETATM    4  C11 UNL     1      48.068  63.755  42.389  1.00  0.00     0.157 A 
HETATM    5  O1  UNL     1      47.393  63.445  43.473  1.00  0.00    -0.299 OA
HETATM    6  C12 UNL     1      46.546  62.470  43.218  1.00  0.00     0.197 A 
HETATM    7  C13 UNL     1      46.650  62.096  41.893  1.00  0.00     0.068 A 
HETATM    8  C14 UNL     1      46.019  61.151  41.076  1.00  0.00     0.090 A 
HETATM    9  C15 UNL     1      46.322  60.996  39.747  1.00  0.00     0.005 A 
ENDROOT
BRANCH   1  10
HETATM   10  C7  UNL     1      47.687  61.867  37.812  1.00  0.00    -0.012 A 
HETATM   11  C4  UNL     1      47.240  62.785  36.934  1.00  0.00    -0.037 A 
HETATM   12  C5  UNL     1      47.586  62.612  35.625  1.00  0.00     0.057 A 
HETATM   13  S1  UNL     1      48.524  61.187  35.646  1.00  0.00    -0.112 SA
HETATM   14  C6  UNL     1      48.450  60.847  37.320  1.00  0.00     0.062 A 
BRANCH  11  15
HETATM   15  C3  UNL     1      46.457  64.026  37.348  1.00  0.00     0.066 C 
BRANCH  15  16
HETATM   16  C2  UNL     1      46.953  65.223  36.661  1.00  0.00    -0.032 C 
HETATM   17  C1  UNL     1      47.565  66.165  37.330  1.00  0.00     0.007 C 
ENDBRANCH  15  16
ENDBRANCH  11  15
ENDBRANCH   1  10
BRANCH   9  18
HETATM   18  C16 UNL     1      45.772  60.046  38.796  1.00  0.00     0.171 C 
BRANCH  18  19
HETATM   19  N1  UNL     1      46.007  58.663  39.006  1.00  0.00    -0.347 N 
HETATM   20  C17 UNL     1      45.207  57.811  39.651  1.00  0.00     0.109 A 
HETATM   21  C18 UNL     1      45.772  56.560  39.695  1.00  0.00     0.106 A 
HETATM   22  N2  UNL     1      46.956  56.706  39.045  1.00  0.00    -0.361 N 
HETATM   23  C19 UNL     1      47.088  57.978  38.632  1.00  0.00     0.182 A 
ATOM     24  H2  UNL     1      47.639  55.964  38.894  1.00  0.00     0.166 HD
ENDBRANCH  18  19
ENDBRANCH   9  18
BRANCH   8  25
HETATM   25  O3  UNL     1      45.070  60.355  41.628  1.00  0.00    -0.359 OA
ATOM     26  H3  UNL     1      44.159  60.535  41.429  1.00  0.00     0.217 HD
ENDBRANCH   8  25
BRANCH   6  27
HETATM   27  O2  UNL     1      45.709  61.940  44.157  1.00  0.00    -0.340 OA
ATOM     28  H2  UNL     1      45.997  61.336  44.832  1.00  0.00     0.220 HD
ENDBRANCH   6  27
TORSDOF 7
ENDMDL
MODEL 3
REMARK VINA RESULT: -6.182154896     12.571     15.300
REMARK  7 active torsions:
REMARK  status: ('A' for Active; 'I' for Inactive)
REMARK    1  A    between atoms: C2_2  and  C3_3 
REMARK    2  A    between atoms: C3_3  and  C4_4 
REMARK    3  A    between atoms: C7_8  and  C8_9 
REMARK    4  A    between atoms: C12_14  and  O2_15 
REMARK    5  A    between atoms: C14_18  and  O3_19 
REMARK    6  A    between atoms: C15_21  and  C16_22 
REMARK    7  A    between atoms: C16_22  and  N1_23 
ROOT
HETATM    1  C8  UNL     1      48.921  66.945  43.458  1.00  0.00    -0.013 A 
HETATM    2  C9  UNL     1      48.609  65.731  42.893  1.00  0.00     0.027 A 
HETATM    3  C10 UNL     1      47.914  64.778  43.591  1.00  0.00     0.005 A 
HETATM    4  C11 UNL     1      47.477  63.489  43.289  1.00  0.00     0.157 A 
HETATM    5  O1  UNL     1      46.857  63.030  44.354  1.00  0.00    -0.299 OA
HETATM    6  C12 UNL     1      46.868  63.933  45.311  1.00  0.00     0.197 A 
HETATM    7  C13 UNL     1      47.530  65.065  44.878  1.00  0.00     0.068 A 
HETATM    8  C14 UNL     1      47.850  66.305  45.442  1.00  0.00     0.090 A 
HETATM    9  C15 UNL     1      48.546  67.274  44.765  1.00  0.00     0.005 A 
ENDROOT
BRANCH   1  10
HETATM   10  C7  UNL     1      49.760  67.850  42.628  1.00  0.00    -0.012 A 
HETATM   11  C4  UNL     1      49.431  68.239  41.381  1.00  0.00    -0.037 A 
HETATM   12  C5  UNL     1      50.351  68.988  40.704  1.00  0.00     0.057 A 
HETATM   13  S1  UNL     1      51.640  69.133  41.812  1.00  0.00    -0.112 SA
HETATM   14  C6  UNL     1      50.977  68.237  43.108  1.00  0.00     0.062 A 
BRANCH  11  15
HETATM   15  C3  UNL     1      48.073  67.961  40.748  1.00  0.00     0.066 C 
BRANCH  15  16
HETATM   16  C2  UNL     1      47.802  68.884  39.641  1.00  0.00    -0.032 C 
HETATM   17  C1  UNL     1      46.830  69.754  39.727  1.00  0.00     0.007 C 
ENDBRANCH  15  16
ENDBRANCH  11  15
ENDBRANCH   1  10
BRANCH   9  18
HETATM   18  C16 UNL     1      48.921  68.603  45.213  1.00  0.00     0.171 C 
BRANCH  18  19
HETATM   19  N1  UNL     1      49.537  68.741  46.483  1.00  0.00    -0.347 N 
HETATM   20  C17 UNL     1      50.611  68.079  46.921  1.00  0.00     0.109 A 
HETATM   21  C18 UNL     1      50.904  68.440  48.214  1.00  0.00     0.106 A 
HETATM   22  N2  UNL     1      49.948  69.351  48.531  1.00  0.00    -0.361 N 
HETATM   23  C19 UNL     1      49.129  69.527  47.480  1.00  0.00     0.182 A 
ATOM     24  H2  UNL     1      49.865  69.827  49.428  1.00  0.00     0.166 HD
ENDBRANCH  18  19
ENDBRANCH   9  18
BRANCH   8  25
HETATM   25  O3  UNL     1      47.449  66.556  46.713  1.00  0.00    -0.359 OA
ATOM     26  H3  UNL     1      47.947  67.179  47.228  1.00  0.00     0.217 HD
ENDBRANCH   8  25
BRANCH   6  27
HETATM   27  O2  UNL     1      46.298  63.734  46.536  1.00  0.00    -0.340 OA
ATOM     28  H2  UNL     1      46.580  64.187  47.322  1.00  0.00     0.220 HD
ENDBRANCH   6  27
TORSDOF 7
ENDMDL
MODEL 4
REMARK VINA RESULT: -6.106950415     11.454     13.675
REMARK  7 active torsions:
REMARK  status: ('A' for Active; 'I' for Inactive)
REMARK    1  A    between atoms: C2_2  and  C3_3 
REMARK    2  A    between atoms: C3_3  and  C4_4 
REMARK    3  A    between atoms: C7_8  and  C8_9 
REMARK    4  A    between atoms: C12_14  and  O2_15 
REMARK    5  A    between atoms: C14_18  and  O3_19 
REMARK    6  A    between atoms: C15_21  and  C16_22 
REMARK    7  A    between atoms: C16_22  and  N1_23 
ROOT
HETATM    1  C8  UNL     1      48.369  65.917  43.375  1.00  0.00    -0.013 A 
HETATM    2  C9  UNL     1      47.982  66.023  42.060  1.00  0.00     0.027 A 
HETATM    3  C10 UNL     1      48.446  67.035  41.260  1.00  0.00     0.005 A 
HETATM    4  C11 UNL     1      48.225  67.391  39.931  1.00  0.00     0.157 A 
HETATM    5  O1  UNL     1      48.937  68.470  39.694  1.00  0.00    -0.299 OA
HETATM    6  C12 UNL     1      49.594  68.828  40.777  1.00  0.00     0.197 A 
HETATM    7  C13 UNL     1      49.316  67.947  41.804  1.00  0.00     0.068 A 
HETATM    8  C14 UNL     1      49.706  67.829  43.143  1.00  0.00     0.090 A 
HETATM    9  C15 UNL     1      49.254  66.827  43.964  1.00  0.00     0.005 A 
ENDROOT
BRANCH   1  10
HETATM   10  C7  UNL     1      47.720  64.832  44.157  1.00  0.00    -0.012 A 
HETATM   11  C4  UNL     1      47.500  63.593  43.677  1.00  0.00    -0.037 A 
HETATM   12  C5  UNL     1      46.799  62.734  44.475  1.00  0.00     0.057 A 
HETATM   13  S1  UNL     1      46.469  63.665  45.867  1.00  0.00    -0.112 SA
HETATM   14  C6  UNL     1      47.229  65.122  45.397  1.00  0.00     0.062 A 
BRANCH  11  15
HETATM   15  C3  UNL     1      48.064  63.097  42.350  1.00  0.00     0.066 C 
BRANCH  15  16
HETATM   16  C2  UNL     1      47.094  62.257  41.640  1.00  0.00    -0.032 C 
HETATM   17  C1  UNL     1      47.302  61.913  40.396  1.00  0.00     0.007 C 
ENDBRANCH  15  16
ENDBRANCH  11  15
ENDBRANCH   1  10
BRANCH   9  18
HETATM   18  C16 UNL     1      49.593  66.569  45.352  1.00  0.00     0.171 C 
BRANCH  18  19
HETATM   19  N1  UNL     1      49.534  67.644  46.275  1.00  0.00    -0.347 N 
HETATM   20  C17 UNL     1      50.503  68.029  47.109  1.00  0.00     0.109 A 
HETATM   21  C18 UNL     1      50.080  69.081  47.885  1.00  0.00     0.106 A 
HETATM   22  N2  UNL     1      48.806  69.306  47.475  1.00  0.00    -0.361 N 
HETATM   23  C19 UNL     1      48.485  68.436  46.503  1.00  0.00     0.182 A 
ATOM     24  H2  UNL     1      48.186  70.025  47.848  1.00  0.00     0.166 HD
ENDBRANCH  18  19
ENDBRANCH   9  18
BRANCH   8  25
HETATM   25  O3  UNL     1      50.571  68.744  43.644  1.00  0.00    -0.359 OA
ATOM     26  H3  UNL     1      50.328  69.208  44.437  1.00  0.00     0.217 HD
ENDBRANCH   8  25
BRANCH   6  27
HETATM   27  O2  UNL     1      50.415  69.917  40.830  1.00  0.00    -0.340 OA
ATOM     28  H2  UNL     1      51.328  69.870  41.092  1.00  0.00     0.220 HD
ENDBRANCH   6  27
TORSDOF 7
ENDMDL
MODEL 5
REMARK VINA RESULT: -6.069682298     12.198     14.908
REMARK  7 active torsions:
REMARK  status: ('A' for Active; 'I' for Inactive)
REMARK    1  A    between atoms: C2_2  and  C3_3 
REMARK    2  A    between atoms: C3_3  and  C4_4 
REMARK    3  A    between atoms: C7_8  and  C8_9 
REMARK    4  A    between atoms: C12_14  and  O2_15 
REMARK    5  A    between atoms: C14_18  and  O3_19 
REMARK    6  A    between atoms: C15_21  and  C16_22 
REMARK    7  A    between atoms: C16_22  and  N1_23 
ROOT
HETATM    1  C8  UNL     1      49.064  67.051  42.300  1.00  0.00    -0.013 A 
HETATM    2  C9  UNL     1      48.533  65.850  41.892  1.00  0.00     0.027 A 
HETATM    3  C10 UNL     1      47.997  64.965  42.792  1.00  0.00     0.005 A 
HETATM    4  C11 UNL     1      47.415  63.704  42.674  1.00  0.00     0.157 A 
HETATM    5  O1  UNL     1      47.082  63.315  43.884  1.00  0.00    -0.299 OA
HETATM    6  C12 UNL     1      47.412  64.237  44.765  1.00  0.00     0.197 A 
HETATM    7  C13 UNL     1      47.999  65.309  44.121  1.00  0.00     0.068 A 
HETATM    8  C14 UNL     1      48.539  66.535  44.526  1.00  0.00     0.090 A 
HETATM    9  C15 UNL     1      49.082  67.436  43.645  1.00  0.00     0.005 A 
ENDROOT
BRANCH   1  10
HETATM   10  C7  UNL     1      49.698  67.875  41.237  1.00  0.00    -0.012 A 
HETATM   11  C4  UNL     1      49.004  68.556  40.305  1.00  0.00    -0.037 A 
HETATM   12  C5  UNL     1      49.725  69.183  39.330  1.00  0.00     0.057 A 
HETATM   13  S1  UNL     1      51.342  68.814  39.733  1.00  0.00    -0.112 SA
HETATM   14  C6  UNL     1      51.058  67.871  41.130  1.00  0.00     0.062 A 
BRANCH  11  15
HETATM   15  C3  UNL     1      47.489  68.725  40.346  1.00  0.00     0.066 C 
BRANCH  15  16
HETATM   16  C2  UNL     1      47.047  69.793  39.444  1.00  0.00    -0.032 C 
HETATM   17  C1  UNL     1      46.330  70.788  39.896  1.00  0.00     0.007 C 
ENDBRANCH  15  16
ENDBRANCH  11  15
ENDBRANCH   1  10
BRANCH   9  18
HETATM   18  C16 UNL     1      49.647  68.744  43.919  1.00  0.00     0.171 C 
BRANCH  18  19
HETATM   19  N1  UNL     1      50.763  68.832  44.791  1.00  0.00    -0.347 N 
HETATM   20  C17 UNL     1      50.755  69.284  46.047  1.00  0.00     0.109 A 
HETATM   21  C18 UNL     1      52.023  69.261  46.575  1.00  0.00     0.106 A 
HETATM   22  N2  UNL     1      52.794  68.774  45.568  1.00  0.00    -0.361 N 
HETATM   23  C19 UNL     1      52.025  68.517  44.497  1.00  0.00     0.182 A 
ATOM     24  H2  UNL     1      53.802  68.627  45.618  1.00  0.00     0.166 HD
ENDBRANCH  18  19
ENDBRANCH   9  18
BRANCH   8  25
HETATM   25  O3  UNL     1      48.517  66.842  45.846  1.00  0.00    -0.359 OA
ATOM     26  H3  UNL     1      48.924  66.239  46.456  1.00  0.00     0.217 HD
ENDBRANCH   8  25
BRANCH   6  27
HETATM   27  O2  UNL     1      47.188  64.107  46.105  1.00  0.00    -0.340 OA
ATOM     28  H2  UNL     1      46.411  64.441  46.539  1.00  0.00     0.220 HD
ENDBRANCH   6  27
TORSDOF 7
ENDMDL
