MODEL 1
REMARK VINA RESULT: -8.345029909      0.000      0.000
REMARK  3 active torsions:
REMARK  status: ('A' for Active; 'I' for Inactive)
REMARK    1  A    between atoms: C2_5  and  N2_6 
REMARK    2  A    between atoms: N3_9  and  C5_10 
REMARK    3  A    between atoms: N6_23  and  C14_24 
ROOT
HETATM    1 CL1  UNL     1      21.861   9.005  -8.788  1.00  0.00    -0.045 Cl
HETATM    2  C1  UNL     1      22.730  10.405  -9.384  1.00  0.00     0.182 A 
HETATM    3  N1  UNL     1      23.299  11.274  -8.540  1.00  0.00    -0.317 N 
ATOM      4  H1  UNL     1      23.207  11.094  -7.540  1.00  0.00     0.170 HD
HETATM    5  C2  UNL     1      23.987  12.377  -8.921  1.00  0.00     0.136 A 
HETATM    6  C12 UNL     1      24.092  12.593 -10.290  1.00  0.00     0.122 A 
HETATM    7  N5  UNL     1      24.668  13.534 -11.042  1.00  0.00    -0.346 N 
ATOM      8  H5  UNL     1      25.185  14.338 -10.685  1.00  0.00     0.167 HD
HETATM    9  C13 UNL     1      24.463  13.257 -12.341  1.00  0.00     0.185 A 
HETATM   10  N6  UNL     1      23.747  12.126 -12.457  1.00  0.00    -0.322 N 
HETATM   11  C21 UNL     1      23.517  11.716 -11.180  1.00  0.00     0.142 A 
HETATM   12  N7  UNL     1      22.849  10.639 -10.690  1.00  0.00    -0.317 N 
ATOM     13  H7  UNL     1      22.421   9.986 -11.347  1.00  0.00     0.170 HD
ENDROOT
BRANCH   5  14
HETATM   14  N2  UNL     1      24.568  13.262  -7.994  1.00  0.00    -0.362 N 
HETATM   15  C3  UNL     1      23.735  13.915  -7.016  1.00  0.00     0.144 C 
HETATM   16  C4  UNL     1      24.383  13.672  -5.669  1.00  0.00     0.144 C 
HETATM   17  N3  UNL     1      25.673  14.306  -5.677  1.00  0.00    -0.364 N 
HETATM   18  C10 UNL     1      26.333  14.575  -6.931  1.00  0.00     0.144 C 
HETATM   19  C11 UNL     1      25.975  13.541  -7.988  1.00  0.00     0.144 C 
BRANCH  17  20
HETATM   20  C5  UNL     1      26.285  14.655  -4.445  1.00  0.00     0.102 A 
HETATM   21  C6  UNL     1      26.839  13.730  -3.588  1.00  0.00     0.048 A 
HETATM   22  C7  UNL     1      27.439  14.073  -2.375  1.00  0.00     0.005 A 
HETATM   23  C8  UNL     1      27.468  15.404  -2.043  1.00  0.00     0.017 A 
HETATM   24  C9  UNL     1      26.915  16.327  -2.898  1.00  0.00     0.089 A 
HETATM   25  N4  UNL     1      26.350  15.962  -4.047  1.00  0.00    -0.352 N 
ATOM     26  H4  UNL     1      25.952  16.681  -4.651  1.00  0.00     0.166 HD
ENDBRANCH  17  20
ENDBRANCH   5  14
BRANCH  10  27
HETATM   27  C14 UNL     1      23.275  11.425 -13.634  1.00  0.00     0.092 C 
HETATM   28  C15 UNL     1      24.092  11.759 -14.842  1.00  0.00     0.026 C 
HETATM   29  C16 UNL     1      23.379  11.297 -16.100  1.00  0.00     0.002 C 
HETATM   30  C17 UNL     1      22.650  12.463 -16.718  1.00  0.00     0.000 C 
HETATM   31  C18 UNL     1      21.295  12.643 -16.032  1.00  0.00     0.000 C 
HETATM   32  C19 UNL     1      21.557  12.980 -14.584  1.00  0.00     0.002 C 
HETATM   33  C20 UNL     1      21.784  11.681 -13.851  1.00  0.00     0.026 C 
ENDBRANCH  10  27
TORSDOF 3
ENDMDL
MODEL 2
REMARK VINA RESULT: -7.735502555      3.338      4.546
REMARK  3 active torsions:
REMARK  status: ('A' for Active; 'I' for Inactive)
REMARK    1  A    between atoms: C2_5  and  N2_6 
REMARK    2  A    between atoms: N3_9  and  C5_10 
REMARK    3  A    between atoms: N6_23  and  C14_24 
ROOT
HETATM    1 CL1  UNL     1      27.054  13.273 -12.228  1.00  0.00    -0.045 Cl
HETATM    2  C1  UNL     1      26.010  13.292 -10.820  1.00  0.00     0.182 A 
HETATM    3  N1  UNL     1      26.157  14.220  -9.866  1.00  0.00    -0.317 N 
ATOM      4  H1  UNL     1      26.896  14.912  -9.987  1.00  0.00     0.170 HD
HETATM    5  C2  UNL     1      25.391  14.302  -8.752  1.00  0.00     0.136 A 
HETATM    6  C12 UNL     1      24.394  13.343  -8.619  1.00  0.00     0.122 A 
HETATM    7  N5  UNL     1      23.463  13.091  -7.696  1.00  0.00    -0.346 N 
ATOM      8  H5  UNL     1      23.320  13.630  -6.841  1.00  0.00     0.167 HD
HETATM    9  C13 UNL     1      22.742  12.020  -8.068  1.00  0.00     0.185 A 
HETATM   10  N6  UNL     1      23.194  11.554  -9.245  1.00  0.00    -0.322 N 
HETATM   11  C21 UNL     1      24.222  12.379  -9.584  1.00  0.00     0.142 A 
HETATM   12  N7  UNL     1      25.045  12.387 -10.664  1.00  0.00    -0.317 N 
ATOM     13  H7  UNL     1      24.920  11.674 -11.383  1.00  0.00     0.170 HD
ENDROOT
BRANCH   5  14
HETATM   14  N2  UNL     1      25.584  15.297  -7.775  1.00  0.00    -0.362 N 
HETATM   15  C3  UNL     1      24.867  16.543  -7.878  1.00  0.00     0.144 C 
HETATM   16  C4  UNL     1      24.207  16.770  -6.534  1.00  0.00     0.144 C 
HETATM   17  N3  UNL     1      25.244  16.911  -5.549  1.00  0.00    -0.364 N 
HETATM   18  C10 UNL     1      26.553  16.360  -5.800  1.00  0.00     0.144 C 
HETATM   19  C11 UNL     1      26.480  15.114  -6.671  1.00  0.00     0.144 C 
BRANCH  17  20
HETATM   20  C5  UNL     1      24.963  17.590  -4.334  1.00  0.00     0.102 A 
HETATM   21  C6  UNL     1      25.797  17.553  -3.238  1.00  0.00     0.048 A 
HETATM   22  C7  UNL     1      25.520  18.218  -2.043  1.00  0.00     0.005 A 
HETATM   23  C8  UNL     1      24.355  18.939  -1.981  1.00  0.00     0.017 A 
HETATM   24  C9  UNL     1      23.523  18.977  -3.074  1.00  0.00     0.089 A 
HETATM   25  N4  UNL     1      23.820  18.328  -4.199  1.00  0.00    -0.352 N 
ATOM     26  H4  UNL     1      23.173  18.383  -4.985  1.00  0.00     0.166 HD
ENDBRANCH  17  20
ENDBRANCH   5  14
BRANCH  10  27
HETATM   27  C14 UNL     1      22.752  10.432 -10.047  1.00  0.00     0.092 C 
HETATM   28  C15 UNL     1      21.382  10.655 -10.606  1.00  0.00     0.026 C 
HETATM   29  C16 UNL     1      20.814   9.351 -11.137  1.00  0.00     0.002 C 
HETATM   30  C17 UNL     1      19.900   8.746 -10.103  1.00  0.00     0.000 C 
HETATM   31  C18 UNL     1      20.725   7.956  -9.086  1.00  0.00     0.000 C 
HETATM   32  C19 UNL     1      21.635   8.933  -8.380  1.00  0.00     0.002 C 
HETATM   33  C20 UNL     1      22.851   9.130  -9.252  1.00  0.00     0.026 C 
ENDBRANCH  10  27
TORSDOF 3
ENDMDL
MODEL 3
REMARK VINA RESULT: -7.640003139      0.912      1.088
REMARK  3 active torsions:
REMARK  status: ('A' for Active; 'I' for Inactive)
REMARK    1  A    between atoms: C2_5  and  N2_6 
REMARK    2  A    between atoms: N3_9  and  C5_10 
REMARK    3  A    between atoms: N6_23  and  C14_24 
ROOT
HETATM    1 CL1  UNL     1      22.226   9.369  -8.517  1.00  0.00    -0.045 Cl
HETATM    2  C1  UNL     1      23.054  10.733  -9.241  1.00  0.00     0.182 A 
HETATM    3  N1  UNL     1      23.608  11.685  -8.480  1.00  0.00    -0.317 N 
ATOM      4  H1  UNL     1      23.530  11.589  -7.467  1.00  0.00     0.170 HD
HETATM    5  C2  UNL     1      24.264  12.768  -8.961  1.00  0.00     0.136 A 
HETATM    6  C12 UNL     1      24.351  12.869 -10.345  1.00  0.00     0.122 A 
HETATM    7  N5  UNL     1      24.896  13.756 -11.181  1.00  0.00    -0.346 N 
ATOM      8  H5  UNL     1      25.395  14.600 -10.900  1.00  0.00     0.167 HD
HETATM    9  C13 UNL     1      24.686  13.364 -12.449  1.00  0.00     0.185 A 
HETATM   10  N6  UNL     1      23.997  12.210 -12.460  1.00  0.00    -0.322 N 
HETATM   11  C21 UNL     1      23.790  11.905 -11.150  1.00  0.00     0.142 A 
HETATM   12  N7  UNL     1      23.154  10.858 -10.563  1.00  0.00    -0.317 N 
ATOM     13  H7  UNL     1      22.738  10.141 -11.157  1.00  0.00     0.170 HD
ENDROOT
BRANCH   5  14
HETATM   14  N2  UNL     1      24.830  13.743  -8.120  1.00  0.00    -0.362 N 
HETATM   15  C3  UNL     1      24.129  14.982  -7.894  1.00  0.00     0.144 C 
HETATM   16  C4  UNL     1      24.064  15.171  -6.393  1.00  0.00     0.144 C 
HETATM   17  N3  UNL     1      25.409  15.303  -5.904  1.00  0.00    -0.364 N 
HETATM   18  C10 UNL     1      26.508  14.774  -6.673  1.00  0.00     0.144 C 
HETATM   19  C11 UNL     1      26.095  13.547  -7.472  1.00  0.00     0.144 C 
BRANCH  17  20
HETATM   20  C5  UNL     1      25.637  15.951  -4.662  1.00  0.00     0.102 A 
HETATM   21  C6  UNL     1      26.630  15.573  -3.784  1.00  0.00     0.048 A 
HETATM   22  C7  UNL     1      26.853  16.209  -2.562  1.00  0.00     0.005 A 
HETATM   23  C8  UNL     1      26.032  17.260  -2.241  1.00  0.00     0.017 A 
HETATM   24  C9  UNL     1      25.042  17.638  -3.117  1.00  0.00     0.089 A 
HETATM   25  N4  UNL     1      24.858  17.006  -4.274  1.00  0.00    -0.352 N 
ATOM     26  H4  UNL     1      24.110  17.320  -4.893  1.00  0.00     0.166 HD
ENDBRANCH  17  20
ENDBRANCH   5  14
BRANCH  10  27
HETATM   27  C14 UNL     1      23.534  11.399 -13.567  1.00  0.00     0.092 C 
HETATM   28  C15 UNL     1      24.385  11.583 -14.784  1.00  0.00     0.026 C 
HETATM   29  C16 UNL     1      23.688  11.008 -16.003  1.00  0.00     0.002 C 
HETATM   30  C17 UNL     1      23.003  12.118 -16.759  1.00  0.00     0.000 C 
HETATM   31  C18 UNL     1      21.639  12.403 -16.129  1.00  0.00     0.000 C 
HETATM   32  C19 UNL     1      21.879  12.886 -14.718  1.00  0.00     0.002 C 
HETATM   33  C20 UNL     1      22.055  11.667 -13.847  1.00  0.00     0.026 C 
ENDBRANCH  10  27
TORSDOF 3
ENDMDL
MODEL 4
REMARK VINA RESULT: -7.625199926      1.580      1.905
REMARK  3 active torsions:
REMARK  status: ('A' for Active; 'I' for Inactive)
REMARK    1  A    between atoms: C2_5  and  N2_6 
REMARK    2  A    between atoms: N3_9  and  C5_10 
REMARK    3  A    between atoms: N6_23  and  C14_24 
ROOT
HETATM    1 CL1  UNL     1      22.239   9.295  -8.700  1.00  0.00    -0.045 Cl
HETATM    2  C1  UNL     1      23.117  10.691  -9.293  1.00  0.00     0.182 A 
HETATM    3  N1  UNL     1      23.478  11.680  -8.467  1.00  0.00    -0.317 N 
ATOM      4  H1  UNL     1      23.223  11.593  -7.483  1.00  0.00     0.170 HD
HETATM    5  C2  UNL     1      24.157  12.789  -8.847  1.00  0.00     0.136 A 
HETATM    6  C12 UNL     1      24.487  12.875 -10.194  1.00  0.00     0.122 A 
HETATM    7  N5  UNL     1      25.131  13.777 -10.938  1.00  0.00    -0.346 N 
ATOM      8  H5  UNL     1      25.530  14.650 -10.592  1.00  0.00     0.167 HD
HETATM    9  C13 UNL     1      25.173  13.358 -12.215  1.00  0.00     0.185 A 
HETATM   10  N6  UNL     1      24.554  12.170 -12.323  1.00  0.00    -0.322 N 
HETATM   11  C21 UNL     1      24.128  11.872 -11.065  1.00  0.00     0.142 A 
HETATM   12  N7  UNL     1      23.448  10.802 -10.578  1.00  0.00    -0.317 N 
ATOM     13  H7  UNL     1      23.181  10.057 -11.221  1.00  0.00     0.170 HD
ENDROOT
BRANCH   5  14
HETATM   14  N2  UNL     1      24.514  13.803  -7.940  1.00  0.00    -0.362 N 
HETATM   15  C3  UNL     1      23.877  15.093  -8.028  1.00  0.00     0.144 C 
HETATM   16  C4  UNL     1      23.372  15.417  -6.638  1.00  0.00     0.144 C 
HETATM   17  N3  UNL     1      24.509  15.520  -5.765  1.00  0.00    -0.364 N 
HETATM   18  C10 UNL     1      25.745  14.867  -6.117  1.00  0.00     0.144 C 
HETATM   19  C11 UNL     1      25.501  13.597  -6.920  1.00  0.00     0.144 C 
BRANCH  17  20
HETATM   20  C5  UNL     1      24.398  16.263  -4.561  1.00  0.00     0.102 A 
HETATM   21  C6  UNL     1      25.487  16.713  -3.848  1.00  0.00     0.048 A 
HETATM   22  C7  UNL     1      25.379  17.442  -2.662  1.00  0.00     0.005 A 
HETATM   23  C8  UNL     1      24.114  17.711  -2.205  1.00  0.00     0.017 A 
HETATM   24  C9  UNL     1      23.026  17.263  -2.916  1.00  0.00     0.089 A 
HETATM   25  N4  UNL     1      23.169  16.569  -4.043  1.00  0.00    -0.352 N 
ATOM     26  H4  UNL     1      22.334  16.255  -4.538  1.00  0.00     0.166 HD
ENDBRANCH  17  20
ENDBRANCH   5  14
BRANCH  10  27
HETATM   27  C14 UNL     1      24.338  11.322 -13.477  1.00  0.00     0.092 C 
HETATM   28  C15 UNL     1      25.331  11.597 -14.562  1.00  0.00     0.026 C 
HETATM   29  C16 UNL     1      24.877  10.959 -15.863  1.00  0.00     0.002 C 
HETATM   30  C17 UNL     1      24.199  11.998 -16.719  1.00  0.00     0.000 C 
HETATM   31  C18 UNL     1      22.737  12.140 -16.293  1.00  0.00     0.000 C 
HETATM   32  C19 UNL     1      22.722  12.638 -14.867  1.00  0.00     0.002 C 
HETATM   33  C20 UNL     1      22.895  11.438 -13.967  1.00  0.00     0.026 C 
ENDBRANCH  10  27
TORSDOF 3
ENDMDL
MODEL 5
REMARK VINA RESULT: -7.568248173      1.639      2.279
REMARK  3 active torsions:
REMARK  status: ('A' for Active; 'I' for Inactive)
REMARK    1  A    between atoms: C2_5  and  N2_6 
REMARK    2  A    between atoms: N3_9  and  C5_10 
REMARK    3  A    between atoms: N6_23  and  C14_24 
ROOT
HETATM    1 CL1  UNL     1      21.843   8.715  -8.985  1.00  0.00    -0.045 Cl
HETATM    2  C1  UNL     1      22.655  10.184  -9.489  1.00  0.00     0.182 A 
HETATM    3  N1  UNL     1      23.084  11.077  -8.589  1.00  0.00    -0.317 N 
ATOM      4  H1  UNL     1      22.922  10.873  -7.603  1.00  0.00     0.170 HD
HETATM    5  C2  UNL     1      23.720  12.233  -8.897  1.00  0.00     0.136 A 
HETATM    6  C12 UNL     1      23.923  12.480 -10.249  1.00  0.00     0.122 A 
HETATM    7  N5  UNL     1      24.491  13.474 -10.938  1.00  0.00    -0.346 N 
ATOM      8  H5  UNL     1      24.915  14.306 -10.529  1.00  0.00     0.167 HD
HETATM    9  C13 UNL     1      24.417  13.206 -12.253  1.00  0.00     0.185 A 
HETATM   10  N6  UNL     1      23.798  12.028 -12.443  1.00  0.00    -0.322 N 
HETATM   11  C21 UNL     1      23.491  11.580 -11.195  1.00  0.00     0.142 A 
HETATM   12  N7  UNL     1      22.865  10.450 -10.777  1.00  0.00    -0.317 N 
ATOM     13  H7  UNL     1      22.544   9.779 -11.475  1.00  0.00     0.170 HD
ENDROOT
BRANCH   5  14
HETATM   14  N2  UNL     1      24.153  13.141  -7.913  1.00  0.00    -0.362 N 
HETATM   15  C3  UNL     1      25.556  13.452  -7.801  1.00  0.00     0.144 C 
HETATM   16  C4  UNL     1      25.662  14.963  -7.809  1.00  0.00     0.144 C 
HETATM   17  N3  UNL     1      24.982  15.461  -6.646  1.00  0.00    -0.364 N 
HETATM   18  C10 UNL     1      23.969  14.658  -6.007  1.00  0.00     0.144 C 
HETATM   19  C11 UNL     1      23.239  13.774  -7.008  1.00  0.00     0.144 C 
BRANCH  17  20
HETATM   20  C5  UNL     1      25.315  16.745  -6.141  1.00  0.00     0.102 A 
HETATM   21  C6  UNL     1      24.605  17.886  -6.448  1.00  0.00     0.048 A 
HETATM   22  C7  UNL     1      24.933  19.149  -5.954  1.00  0.00     0.005 A 
HETATM   23  C8  UNL     1      26.020  19.234  -5.122  1.00  0.00     0.017 A 
HETATM   24  C9  UNL     1      26.729  18.097  -4.814  1.00  0.00     0.089 A 
HETATM   25  N4  UNL     1      26.386  16.908  -5.306  1.00  0.00    -0.352 N 
ATOM     26  H4  UNL     1      26.941  16.091  -5.052  1.00  0.00     0.166 HD
ENDBRANCH  17  20
ENDBRANCH   5  14
BRANCH  10  27
HETATM   27  C14 UNL     1      23.480  11.316 -13.664  1.00  0.00     0.092 C 
HETATM   28  C15 UNL     1      24.395  11.701 -14.784  1.00  0.00     0.026 C 
HETATM   29  C16 UNL     1      23.833  11.217 -16.109  1.00  0.00     0.002 C 
HETATM   30  C17 UNL     1      23.112  12.351 -16.791  1.00  0.00     0.000 C 
HETATM   31  C18 UNL     1      21.688  12.458 -16.241  1.00  0.00     0.000 C 
HETATM   32  C19 UNL     1      21.789  12.794 -14.772  1.00  0.00     0.002 C 
HETATM   33  C20 UNL     1      22.007  11.501 -14.026  1.00  0.00     0.026 C 
ENDBRANCH  10  27
TORSDOF 3
ENDMDL
