MODEL 1
REMARK VINA RESULT: -7.896757525      0.000      0.000
REMARK  3 active torsions:
REMARK  status: ('A' for Active; 'I' for Inactive)
REMARK    1  A    between atoms: C8_8  and  C9_9 
REMARK    2  A    between atoms: C9_9  and  C10_10 
REMARK    3  A    between atoms: C10_10  and  N1_11 
ROOT
HETATM    1  N1  UNL     1      23.944  13.704  -7.743  1.00  0.00    -0.352 N 
HETATM    2  C11 UNL     1      25.307  13.209  -7.786  1.00  0.00     0.131 C 
HETATM    3  C12 UNL     1      26.188  14.366  -7.363  1.00  0.00     0.095 C 
HETATM    4  C13 UNL     1      26.027  14.634  -5.905  1.00  0.00     0.239 C 
HETATM    5  C14 UNL     1      24.560  14.675  -5.540  1.00  0.00     0.177 C 
HETATM    6  C15 UNL     1      23.663  14.667  -6.721  1.00  0.00     0.225 C 
HETATM    7  O1  UNL     1      22.700  15.455  -6.838  1.00  0.00    -0.273 OA
HETATM    8  O2  UNL     1      26.627  13.587  -5.178  1.00  0.00    -0.194 OA
HETATM    9  O3  UNL     1      27.934  13.604  -5.345  1.00  0.00    -0.194 OA
HETATM   10  C16 UNL     1      28.408  14.785  -4.772  1.00  0.00     0.233 C 
HETATM   11  C17 UNL     1      29.897  14.810  -4.929  1.00  0.00     0.082 C 
HETATM   12  C18 UNL     1      30.645  14.417  -3.696  1.00  0.00     0.087 C 
HETATM   13  C19 UNL     1      30.247  15.356  -2.598  1.00  0.00     0.160 C 
HETATM   14  O4  UNL     1      31.039  15.857  -1.837  1.00  0.00    -0.295 OA
HETATM   15  C20 UNL     1      28.814  15.671  -2.457  1.00  0.00     0.244 C 
HETATM   16  F1  UNL     1      28.584  17.018  -2.648  1.00  0.00    -0.241 F 
HETATM   17  C21 UNL     1      27.952  14.806  -3.339  1.00  0.00     0.119 C 
HETATM   18  O5  UNL     1      27.885  15.838  -5.517  1.00  0.00    -0.194 OA
HETATM   19  O6  UNL     1      26.585  15.852  -5.531  1.00  0.00    -0.194 OA
ENDROOT
BRANCH   1  20
HETATM   20  C10 UNL     1      22.912  13.268  -8.663  1.00  0.00     0.130 C 
BRANCH  20  21
HETATM   21  C9  UNL     1      23.103  11.810  -8.952  1.00  0.00     0.054 C 
BRANCH  21  22
HETATM   22  C8  UNL     1      22.850  11.438 -10.365  1.00  0.00    -0.078 C 
HETATM   23  C2  UNL     1      21.511  10.907 -10.644  1.00  0.00     0.010 C 
HETATM   24  C1  UNL     1      21.569   9.412 -10.982  1.00  0.00     0.015 C 
HETATM   25  C3  UNL     1      20.782  11.670 -11.723  1.00  0.00     0.009 C 
HETATM   26  C4  UNL     1      21.728  12.441 -12.611  1.00  0.00     0.001 C 
HETATM   27  C5  UNL     1      22.568  11.445 -13.371  1.00  0.00     0.004 C 
HETATM   28  C6  UNL     1      23.906  11.342 -12.699  1.00  0.00     0.027 C 
HETATM   29  C7  UNL     1      23.857  11.617 -11.243  1.00  0.00    -0.024 C 
ENDBRANCH  21  22
ENDBRANCH  20  21
ENDBRANCH   1  20
TORSDOF 3
ENDMDL
MODEL 2
REMARK VINA RESULT: -7.862358453      3.195      4.239
REMARK  3 active torsions:
REMARK  status: ('A' for Active; 'I' for Inactive)
REMARK    1  A    between atoms: C8_8  and  C9_9 
REMARK    2  A    between atoms: C9_9  and  C10_10 
REMARK    3  A    between atoms: C10_10  and  N1_11 
ROOT
HETATM    1  N1  UNL     1      23.781  12.411  -9.228  1.00  0.00    -0.352 N 
HETATM    2  C11 UNL     1      22.877  12.863  -8.187  1.00  0.00     0.131 C 
HETATM    3  C12 UNL     1      23.753  13.285  -7.025  1.00  0.00     0.095 C 
HETATM    4  C13 UNL     1      24.471  14.551  -7.350  1.00  0.00     0.239 C 
HETATM    5  C14 UNL     1      25.094  14.460  -8.724  1.00  0.00     0.177 C 
HETATM    6  C15 UNL     1      25.036  13.096  -9.304  1.00  0.00     0.225 C 
HETATM    7  O1  UNL     1      26.026  12.552  -9.840  1.00  0.00    -0.273 OA
HETATM    8  O2  UNL     1      23.545  15.613  -7.362  1.00  0.00    -0.194 OA
HETATM    9  O3  UNL     1      23.084  15.831  -6.147  1.00  0.00    -0.194 OA
HETATM   10  C16 UNL     1      24.158  16.271  -5.370  1.00  0.00     0.233 C 
HETATM   11  C17 UNL     1      23.647  16.550  -3.991  1.00  0.00     0.082 C 
HETATM   12  C18 UNL     1      23.408  17.999  -3.712  1.00  0.00     0.087 C 
HETATM   13  C19 UNL     1      24.702  18.726  -3.918  1.00  0.00     0.160 C 
HETATM   14  O4  UNL     1      25.115  19.569  -3.159  1.00  0.00    -0.295 OA
HETATM   15  C20 UNL     1      25.495  18.381  -5.112  1.00  0.00     0.244 C 
HETATM   16  F1  UNL     1      26.725  17.869  -4.755  1.00  0.00    -0.241 F 
HETATM   17  C21 UNL     1      24.743  17.477  -6.052  1.00  0.00     0.119 C 
HETATM   18  O5  UNL     1      25.058  15.213  -5.285  1.00  0.00    -0.194 OA
HETATM   19  O6  UNL     1      25.492  14.822  -6.445  1.00  0.00    -0.194 OA
ENDROOT
BRANCH   1  20
HETATM   20  C10 UNL     1      23.459  11.337 -10.147  1.00  0.00     0.130 C 
BRANCH  20  21
HETATM   21  C9  UNL     1      22.240  11.718 -10.931  1.00  0.00     0.054 C 
BRANCH  21  22
HETATM   22  C8  UNL     1      22.526  12.126 -12.327  1.00  0.00    -0.078 C 
HETATM   23  C2  UNL     1      23.949  12.182 -12.686  1.00  0.00     0.010 C 
HETATM   24  C1  UNL     1      24.407  13.631 -12.898  1.00  0.00     0.015 C 
HETATM   25  C3  UNL     1      24.294  11.332 -13.884  1.00  0.00     0.009 C 
HETATM   26  C4  UNL     1      23.084  11.039 -14.740  1.00  0.00     0.001 C 
HETATM   27  C5  UNL     1      22.612  12.340 -15.338  1.00  0.00     0.004 C 
HETATM   28  C6  UNL     1      21.440  12.832 -14.540  1.00  0.00     0.027 C 
HETATM   29  C7  UNL     1      21.473  12.403 -13.121  1.00  0.00    -0.024 C 
ENDBRANCH  21  22
ENDBRANCH  20  21
ENDBRANCH   1  20
TORSDOF 3
ENDMDL
MODEL 3
REMARK VINA RESULT: -7.849095971      7.660      9.655
REMARK  3 active torsions:
REMARK  status: ('A' for Active; 'I' for Inactive)
REMARK    1  A    between atoms: C8_8  and  C9_9 
REMARK    2  A    between atoms: C9_9  and  C10_10 
REMARK    3  A    between atoms: C10_10  and  N1_11 
ROOT
HETATM    1  N1  UNL     1      22.902  14.158 -14.591  1.00  0.00    -0.352 N 
HETATM    2  C11 UNL     1      21.586  13.580 -14.398  1.00  0.00     0.131 C 
HETATM    3  C12 UNL     1      21.812  12.111 -14.105  1.00  0.00     0.095 C 
HETATM    4  C13 UNL     1      22.402  11.938 -12.746  1.00  0.00     0.239 C 
HETATM    5  C14 UNL     1      23.556  12.897 -12.553  1.00  0.00     0.177 C 
HETATM    6  C15 UNL     1      23.954  13.593 -13.800  1.00  0.00     0.225 C 
HETATM    7  O1  UNL     1      25.146  13.694 -14.161  1.00  0.00    -0.273 OA
HETATM    8  O2  UNL     1      21.422  12.237 -11.779  1.00  0.00    -0.194 OA
HETATM    9  O3  UNL     1      20.463  11.335 -11.807  1.00  0.00    -0.194 OA
HETATM   10  C16 UNL     1      21.026  10.120 -11.415  1.00  0.00     0.233 C 
HETATM   11  C17 UNL     1      19.942   9.086 -11.414  1.00  0.00     0.082 C 
HETATM   12  C18 UNL     1      19.395   8.779 -10.058  1.00  0.00     0.087 C 
HETATM   13  C19 UNL     1      20.529   8.308  -9.200  1.00  0.00     0.160 C 
HETATM   14  O4  UNL     1      20.451   7.353  -8.465  1.00  0.00    -0.295 OA
HETATM   15  C20 UNL     1      21.796   9.059  -9.273  1.00  0.00     0.244 C 
HETATM   16  F1  UNL     1      22.820   8.256  -9.731  1.00  0.00    -0.241 F 
HETATM   17  C21 UNL     1      21.658  10.330 -10.066  1.00  0.00     0.119 C 
HETATM   18  O5  UNL     1      21.952   9.766 -12.392  1.00  0.00    -0.194 OA
HETATM   19  O6  UNL     1      22.890  10.651 -12.546  1.00  0.00    -0.194 OA
ENDROOT
BRANCH   1  20
HETATM   20  C10 UNL     1      23.164  15.241 -15.520  1.00  0.00     0.130 C 
BRANCH  20  21
HETATM   21  C9  UNL     1      23.419  14.664 -16.879  1.00  0.00     0.054 C 
BRANCH  21  22
HETATM   22  C8  UNL     1      22.200  14.519 -17.710  1.00  0.00    -0.078 C 
HETATM   23  C2  UNL     1      21.998  13.191 -18.302  1.00  0.00     0.010 C 
HETATM   24  C1  UNL     1      22.194  13.231 -19.823  1.00  0.00     0.015 C 
HETATM   25  C3  UNL     1      20.663  12.581 -17.951  1.00  0.00     0.009 C 
HETATM   26  C4  UNL     1      19.655  13.623 -17.531  1.00  0.00     0.001 C 
HETATM   27  C5  UNL     1      19.357  14.492 -18.726  1.00  0.00     0.004 C 
HETATM   28  C6  UNL     1      20.142  15.765 -18.596  1.00  0.00     0.027 C 
HETATM   29  C7  UNL     1      21.407  15.601 -17.841  1.00  0.00    -0.024 C 
ENDBRANCH  21  22
ENDBRANCH  20  21
ENDBRANCH   1  20
TORSDOF 3
ENDMDL
MODEL 4
REMARK VINA RESULT: -7.825221130      2.839      3.928
REMARK  3 active torsions:
REMARK  status: ('A' for Active; 'I' for Inactive)
REMARK    1  A    between atoms: C8_8  and  C9_9 
REMARK    2  A    between atoms: C9_9  and  C10_10 
REMARK    3  A    between atoms: C10_10  and  N1_11 
ROOT
HETATM    1  N1  UNL     1      24.949  12.190 -10.419  1.00  0.00    -0.352 N 
HETATM    2  C11 UNL     1      26.061  12.942  -9.870  1.00  0.00     0.131 C 
HETATM    3  C12 UNL     1      25.471  14.225  -9.321  1.00  0.00     0.095 C 
HETATM    4  C13 UNL     1      24.679  13.945  -8.088  1.00  0.00     0.239 C 
HETATM    5  C14 UNL     1      23.758  12.768  -8.316  1.00  0.00     0.177 C 
HETATM    6  C15 UNL     1      23.700  12.335  -9.733  1.00  0.00     0.225 C 
HETATM    7  O1  UNL     1      22.621  12.101 -10.320  1.00  0.00    -0.273 OA
HETATM    8  O2  UNL     1      25.562  13.610  -7.043  1.00  0.00    -0.194 OA
HETATM    9  O3  UNL     1      26.287  14.657  -6.704  1.00  0.00    -0.194 OA
HETATM   10  C16 UNL     1      25.415  15.610  -6.175  1.00  0.00     0.233 C 
HETATM   11  C17 UNL     1      26.225  16.799  -5.759  1.00  0.00     0.082 C 
HETATM   12  C18 UNL     1      26.501  16.863  -4.291  1.00  0.00     0.087 C 
HETATM   13  C19 UNL     1      25.184  16.887  -3.577  1.00  0.00     0.160 C 
HETATM   14  O4  UNL     1      24.945  17.629  -2.656  1.00  0.00    -0.295 OA
HETATM   15  C20 UNL     1      24.143  15.950  -4.037  1.00  0.00     0.244 C 
HETATM   16  F1  UNL     1      23.035  16.631  -4.496  1.00  0.00    -0.241 F 
HETATM   17  C21 UNL     1      24.671  14.960  -5.041  1.00  0.00     0.119 C 
HETATM   18  O5  UNL     1      24.573  16.010  -7.209  1.00  0.00    -0.194 OA
HETATM   19  O6  UNL     1      23.889  15.028  -7.715  1.00  0.00    -0.194 OA
ENDROOT
BRANCH   1  20
HETATM   20  C10 UNL     1      25.066  11.338 -11.586  1.00  0.00     0.130 C 
BRANCH  20  21
HETATM   21  C9  UNL     1      25.411  12.185 -12.773  1.00  0.00     0.054 C 
BRANCH  21  22
HETATM   22  C8  UNL     1      24.252  12.507 -13.640  1.00  0.00    -0.078 C 
HETATM   23  C2  UNL     1      23.527  11.347 -14.174  1.00  0.00     0.010 C 
HETATM   24  C1  UNL     1      23.742  11.212 -15.687  1.00  0.00     0.015 C 
HETATM   25  C3  UNL     1      22.055  11.363 -13.843  1.00  0.00     0.009 C 
HETATM   26  C4  UNL     1      21.562  12.751 -13.511  1.00  0.00     0.001 C 
HETATM   27  C5  UNL     1      21.666  13.593 -14.758  1.00  0.00     0.004 C 
HETATM   28  C6  UNL     1      22.905  14.434 -14.661  1.00  0.00     0.027 C 
HETATM   29  C7  UNL     1      23.980  13.809 -13.853  1.00  0.00    -0.024 C 
ENDBRANCH  21  22
ENDBRANCH  20  21
ENDBRANCH   1  20
TORSDOF 3
ENDMDL
MODEL 5
REMARK VINA RESULT: -7.799324112      2.612      4.355
REMARK  3 active torsions:
REMARK  status: ('A' for Active; 'I' for Inactive)
REMARK    1  A    between atoms: C8_8  and  C9_9 
REMARK    2  A    between atoms: C9_9  and  C10_10 
REMARK    3  A    between atoms: C10_10  and  N1_11 
ROOT
HETATM    1  N1  UNL     1      23.207  11.674 -10.584  1.00  0.00    -0.352 N 
HETATM    2  C11 UNL     1      22.500  12.179  -9.422  1.00  0.00     0.131 C 
HETATM    3  C12 UNL     1      23.515  12.222  -8.298  1.00  0.00     0.095 C 
HETATM    4  C13 UNL     1      24.501  13.316  -8.531  1.00  0.00     0.239 C 
HETATM    5  C14 UNL     1      25.006  13.269  -9.956  1.00  0.00     0.177 C 
HETATM    6  C15 UNL     1      24.585  12.049 -10.687  1.00  0.00     0.225 C 
HETATM    7  O1  UNL     1      25.381  11.366 -11.367  1.00  0.00    -0.273 OA
HETATM    8  O2  UNL     1      23.862  14.557  -8.337  1.00  0.00    -0.194 OA
HETATM    9  O3  UNL     1      23.538  14.710  -7.069  1.00  0.00    -0.194 OA
HETATM   10  C16 UNL     1      24.727  14.776  -6.342  1.00  0.00     0.233 C 
HETATM   11  C17 UNL     1      24.378  14.977  -4.900  1.00  0.00     0.082 C 
HETATM   12  C18 UNL     1      24.515  16.390  -4.432  1.00  0.00     0.087 C 
HETATM   13  C19 UNL     1      25.933  16.814  -4.662  1.00  0.00     0.160 C 
HETATM   14  O4  UNL     1      26.582  17.425  -3.846  1.00  0.00    -0.295 OA
HETATM   15  C20 UNL     1      26.551  16.458  -5.952  1.00  0.00     0.244 C 
HETATM   16  F1  UNL     1      27.637  15.629  -5.767  1.00  0.00    -0.241 F 
HETATM   17  C21 UNL     1      25.550  15.893  -6.925  1.00  0.00     0.119 C 
HETATM   18  O5  UNL     1      25.346  13.535  -6.461  1.00  0.00    -0.194 OA
HETATM   19  O6  UNL     1      25.606  13.214  -7.693  1.00  0.00    -0.194 OA
ENDROOT
BRANCH   1  20
HETATM   20  C10 UNL     1      22.582  10.840 -11.592  1.00  0.00     0.130 C 
BRANCH  20  21
HETATM   21  C9  UNL     1      21.698  11.695 -12.449  1.00  0.00     0.054 C 
BRANCH  21  22
HETATM   22  C8  UNL     1      22.323  12.115 -13.726  1.00  0.00    -0.078 C 
HETATM   23  C2  UNL     1      21.756  13.324 -14.335  1.00  0.00     0.010 C 
HETATM   24  C1  UNL     1      20.988  12.986 -15.619  1.00  0.00     0.015 C 
HETATM   25  C3  UNL     1      22.784  14.398 -14.594  1.00  0.00     0.009 C 
HETATM   26  C4  UNL     1      24.185  13.838 -14.664  1.00  0.00     0.001 C 
HETATM   27  C5  UNL     1      24.270  12.948 -15.879  1.00  0.00     0.004 C 
HETATM   28  C6  UNL     1      24.142  11.521 -15.432  1.00  0.00     0.027 C 
HETATM   29  C7  UNL     1      23.334  11.360 -14.200  1.00  0.00    -0.024 C 
ENDBRANCH  21  22
ENDBRANCH  20  21
ENDBRANCH   1  20
TORSDOF 3
ENDMDL
