MODEL 1
REMARK VINA RESULT: -6.980907584      0.000      0.000
REMARK  7 active torsions:
REMARK  status: ('A' for Active; 'I' for Inactive)
REMARK    1  A    between atoms: C2_2  and  O1_5 
REMARK    2  A    between atoms: O1_5  and  C5_6 
REMARK    3  A    between atoms: C5_6  and  O3_8 
REMARK    4  A    between atoms: O3_8  and  C6_9 
REMARK    5  A    between atoms: C6_9  and  C7_10 
REMARK    6  A    between atoms: C8_12  and  N2_13 
REMARK    7  A    between atoms: N2_13  and  C9_15 
ROOT
HETATM    1  C7  UNL     1      11.979  12.443  21.442  1.00  0.00     0.080 C 
HETATM    2  N1  UNL     1      12.186  11.067  21.737  1.00  0.00    -0.102 NA
HETATM    3  C8  UNL     1      11.716  12.769  20.206  1.00  0.00     0.131 C 
ENDROOT
BRANCH   1   4
HETATM    4  C6  UNL     1      12.082  13.390  22.580  1.00  0.00     0.152 C 
HETATM    5  C16 UNL     1      11.030  14.411  22.353  1.00  0.00     0.130 C 
HETATM    6  S1  UNL     1       9.607  13.789  23.308  1.00  0.00    -0.125 SA
HETATM    7  C17 UNL     1      10.673  12.798  24.435  1.00  0.00     0.017 A 
HETATM    8  C18 UNL     1      10.430  12.193  25.634  1.00  0.00     0.068 A 
HETATM    9  C20 UNL     1      11.889  12.710  23.892  1.00  0.00     0.007 A 
HETATM   10  S2  UNL     1      11.922  11.484  26.023  1.00  0.00    -0.112 SA
HETATM   11  C19 UNL     1      12.811  11.969  24.664  1.00  0.00     0.061 A 
BRANCH   4  12
HETATM   12  O3  UNL     1      13.403  13.940  22.439  1.00  0.00    -0.275 OA
BRANCH  12  13
HETATM   13  C5  UNL     1      13.614  15.268  22.680  1.00  0.00     0.408 C 
HETATM   14  O2  UNL     1      13.822  15.633  23.843  1.00  0.00    -0.229 OA
BRANCH  13  15
HETATM   15  O1  UNL     1      13.599  16.187  21.669  1.00  0.00    -0.288 OA
BRANCH  15  16
HETATM   16  C2  UNL     1      14.298  15.939  20.476  1.00  0.00     0.062 C 
HETATM   17  C1  UNL     1      15.316  17.080  20.333  1.00  0.00     0.046 C 
HETATM   18  C3  UNL     1      15.086  14.660  20.511  1.00  0.00     0.046 C 
HETATM   19  C4  UNL     1      13.367  16.024  19.307  1.00  0.00     0.046 C 
ENDBRANCH  15  16
ENDBRANCH  13  15
ENDBRANCH  12  13
ENDBRANCH   4  12
ENDBRANCH   1   4
BRANCH   3  20
HETATM   20  N2  UNL     1      11.624  11.842  19.138  1.00  0.00    -0.200 N 
ATOM     21  H2  UNL     1      10.803  11.241  19.072  1.00  0.00     0.183 HD
BRANCH  20  22
HETATM   22  C9  UNL     1      12.541  11.741  18.257  1.00  0.00     0.683 A 
HETATM   23  N3  UNL     1      12.922  10.630  17.595  1.00  0.00    -0.189 N 
HETATM   24  C10 UNL     1      13.909  10.955  16.767  1.00  0.00     0.079 A 
ATOM     25  H3  UNL     1      12.521   9.699  17.709  1.00  0.00     0.184 HD
HETATM   26  C11 UNL     1      14.670  10.239  15.860  1.00  0.00     0.056 A 
HETATM   27  C15 UNL     1      14.161  12.301  16.909  1.00  0.00     0.098 A 
HETATM   28  C12 UNL     1      15.666  10.878  15.114  1.00  0.00     0.037 A 
HETATM   29 CL1  UNL     1      16.597   9.932  13.985  1.00  0.00    -0.084 Cl
HETATM   30  C13 UNL     1      15.906  12.210  15.262  1.00  0.00     0.050 A 
HETATM   31  C14 UNL     1      15.144  12.931  16.172  1.00  0.00     0.065 A 
HETATM   32 CL2  UNL     1      15.449  14.634  16.362  1.00  0.00    -0.082 Cl
HETATM   33  N4  UNL     1      13.304  12.764  17.834  1.00  0.00    -0.188 N 
ATOM     34  H4  UNL     1      13.242  13.728  18.160  1.00  0.00     0.184 HD
ENDBRANCH  20  22
ENDBRANCH   3  20
TORSDOF 7
ENDMDL
MODEL 2
REMARK VINA RESULT: -6.976882327      2.495      4.090
REMARK  7 active torsions:
REMARK  status: ('A' for Active; 'I' for Inactive)
REMARK    1  A    between atoms: C2_2  and  O1_5 
REMARK    2  A    between atoms: O1_5  and  C5_6 
REMARK    3  A    between atoms: C5_6  and  O3_8 
REMARK    4  A    between atoms: O3_8  and  C6_9 
REMARK    5  A    between atoms: C6_9  and  C7_10 
REMARK    6  A    between atoms: C8_12  and  N2_13 
REMARK    7  A    between atoms: N2_13  and  C9_15 
ROOT
HETATM    1  C7  UNL     1      13.150  13.126  20.610  1.00  0.00     0.080 C 
HETATM    2  N1  UNL     1      14.185  13.878  21.234  1.00  0.00    -0.102 NA
HETATM    3  C8  UNL     1      13.339  12.732  19.381  1.00  0.00     0.131 C 
ENDROOT
BRANCH   1   4
HETATM    4  C6  UNL     1      11.939  12.859  21.425  1.00  0.00     0.152 C 
HETATM    5  C16 UNL     1      12.007  11.423  21.791  1.00  0.00     0.130 C 
HETATM    6  S1  UNL     1      12.815  11.430  23.426  1.00  0.00    -0.125 SA
HETATM    7  C17 UNL     1      12.298  13.159  23.782  1.00  0.00     0.017 A 
HETATM    8  C18 UNL     1      12.277  13.894  24.933  1.00  0.00     0.068 A 
HETATM    9  C20 UNL     1      11.884  13.717  22.642  1.00  0.00     0.007 A 
HETATM   10  S2  UNL     1      11.667  15.395  24.426  1.00  0.00    -0.112 SA
HETATM   11  C19 UNL     1      11.456  15.056  22.779  1.00  0.00     0.061 A 
BRANCH   4  12
HETATM   12  O3  UNL     1      10.857  13.131  20.516  1.00  0.00    -0.275 OA
BRANCH  12  13
HETATM   13  C5  UNL     1       9.765  12.312  20.499  1.00  0.00     0.408 C 
HETATM   14  O2  UNL     1       8.827  12.559  21.265  1.00  0.00    -0.229 OA
BRANCH  13  15
HETATM   15  O1  UNL     1       9.693  11.236  19.659  1.00  0.00    -0.288 OA
BRANCH  15  16
HETATM   16  C2  UNL     1       9.272  11.404  18.329  1.00  0.00     0.062 C 
HETATM   17  C1  UNL     1       8.550  10.104  17.944  1.00  0.00     0.046 C 
HETATM   18  C3  UNL     1       8.276  12.516  18.163  1.00  0.00     0.046 C 
HETATM   19  C4  UNL     1      10.458  11.537  17.426  1.00  0.00     0.046 C 
ENDBRANCH  15  16
ENDBRANCH  13  15
ENDBRANCH  12  13
ENDBRANCH   4  12
ENDBRANCH   1   4
BRANCH   3  20
HETATM   20  N2  UNL     1      14.508  13.002  18.626  1.00  0.00    -0.200 N 
ATOM     21  H2  UNL     1      15.126  13.758  18.921  1.00  0.00     0.183 HD
BRANCH  20  22
HETATM   22  C9  UNL     1      14.807  12.324  17.588  1.00  0.00     0.683 A 
HETATM   23  N3  UNL     1      14.308  11.127  17.219  1.00  0.00    -0.189 N 
HETATM   24  C10 UNL     1      14.883  10.770  16.076  1.00  0.00     0.079 A 
ATOM     25  H3  UNL     1      13.608  10.588  17.730  1.00  0.00     0.184 HD
HETATM   26  C11 UNL     1      14.762   9.665  15.250  1.00  0.00     0.056 A 
HETATM   27  C15 UNL     1      15.767  11.760  15.713  1.00  0.00     0.098 A 
HETATM   28  C12 UNL     1      15.524   9.571  14.082  1.00  0.00     0.037 A 
HETATM   29 CL1  UNL     1      15.336   8.160  13.076  1.00  0.00    -0.084 Cl
HETATM   30  C13 UNL     1      16.396  10.557  13.732  1.00  0.00     0.050 A 
HETATM   31  C14 UNL     1      16.519  11.667  14.559  1.00  0.00     0.065 A 
HETATM   32 CL2  UNL     1      17.632  12.929  14.113  1.00  0.00    -0.082 Cl
HETATM   33  N4  UNL     1      15.702  12.709  16.662  1.00  0.00    -0.188 N 
ATOM     34  H4  UNL     1      16.241  13.575  16.677  1.00  0.00     0.184 HD
ENDBRANCH  20  22
ENDBRANCH   3  20
TORSDOF 7
ENDMDL
MODEL 3
REMARK VINA RESULT: -6.848990295      5.120      6.917
REMARK  7 active torsions:
REMARK  status: ('A' for Active; 'I' for Inactive)
REMARK    1  A    between atoms: C2_2  and  O1_5 
REMARK    2  A    between atoms: O1_5  and  C5_6 
REMARK    3  A    between atoms: C5_6  and  O3_8 
REMARK    4  A    between atoms: O3_8  and  C6_9 
REMARK    5  A    between atoms: C6_9  and  C7_10 
REMARK    6  A    between atoms: C8_12  and  N2_13 
REMARK    7  A    between atoms: N2_13  and  C9_15 
ROOT
HETATM    1  C7  UNL     1       9.214  12.049  19.391  1.00  0.00     0.080 C 
HETATM    2  N1  UNL     1       9.498  12.565  20.686  1.00  0.00    -0.102 NA
HETATM    3  C8  UNL     1      10.218  11.823  18.589  1.00  0.00     0.131 C 
ENDROOT
BRANCH   1   4
HETATM    4  C6  UNL     1       7.784  11.814  19.069  1.00  0.00     0.152 C 
HETATM    5  C16 UNL     1       7.269  13.103  18.548  1.00  0.00     0.130 C 
HETATM    6  S1  UNL     1       7.456  12.947  16.741  1.00  0.00    -0.125 SA
HETATM    7  C17 UNL     1       7.428  11.108  16.799  1.00  0.00     0.017 A 
HETATM    8  C18 UNL     1       7.267  10.160  15.830  1.00  0.00     0.068 A 
HETATM    9  C20 UNL     1       7.609  10.726  18.065  1.00  0.00     0.007 A 
HETATM   10  S2  UNL     1       7.366   8.700  16.692  1.00  0.00    -0.112 SA
HETATM   11  C19 UNL     1       7.609   9.325  18.249  1.00  0.00     0.061 A 
BRANCH   4  12
HETATM   12  O3  UNL     1       7.204  11.479  20.342  1.00  0.00    -0.275 OA
BRANCH  12  13
HETATM   13  C5  UNL     1       5.891  11.764  20.585  1.00  0.00     0.408 C 
HETATM   14  O2  UNL     1       5.611  12.488  21.547  1.00  0.00    -0.229 OA
BRANCH  13  15
HETATM   15  O1  UNL     1       4.895  11.268  19.792  1.00  0.00    -0.288 OA
BRANCH  15  16
HETATM   16  C2  UNL     1       4.218  10.093  20.159  1.00  0.00     0.062 C 
HETATM   17  C1  UNL     1       3.942   9.334  18.852  1.00  0.00     0.046 C 
HETATM   18  C3  UNL     1       5.045   9.181  21.020  1.00  0.00     0.046 C 
HETATM   19  C4  UNL     1       2.892  10.431  20.765  1.00  0.00     0.046 C 
ENDBRANCH  15  16
ENDBRANCH  13  15
ENDBRANCH  12  13
ENDBRANCH   4  12
ENDBRANCH   1   4
BRANCH   3  20
HETATM   20  N2  UNL     1      11.575  12.058  18.924  1.00  0.00    -0.200 N 
ATOM     21  H2  UNL     1      11.804  12.401  19.856  1.00  0.00     0.183 HD
BRANCH  20  22
HETATM   22  C9  UNL     1      12.517  11.849  18.089  1.00  0.00     0.683 A 
HETATM   23  N3  UNL     1      12.863  10.677  17.520  1.00  0.00    -0.189 N 
HETATM   24  C10 UNL     1      13.895  10.895  16.711  1.00  0.00     0.079 A 
ATOM     25  H3  UNL     1      12.411   9.777  17.683  1.00  0.00     0.184 HD
HETATM   26  C11 UNL     1      14.651  10.079  15.887  1.00  0.00     0.056 A 
HETATM   27  C15 UNL     1      14.210  12.233  16.770  1.00  0.00     0.098 A 
HETATM   28  C12 UNL     1      15.703  10.615  15.138  1.00  0.00     0.037 A 
HETATM   29 CL1  UNL     1      16.625   9.547  14.115  1.00  0.00    -0.084 Cl
HETATM   30  C13 UNL     1      16.006  11.940  15.203  1.00  0.00     0.050 A 
HETATM   31  C14 UNL     1      15.250  12.761  16.030  1.00  0.00     0.065 A 
HETATM   32 CL2  UNL     1      15.635  14.456  16.114  1.00  0.00    -0.082 Cl
HETATM   33  N4  UNL     1      13.345  12.802  17.627  1.00  0.00    -0.188 N 
ATOM     34  H4  UNL     1      13.322  13.789  17.883  1.00  0.00     0.184 HD
ENDBRANCH  20  22
ENDBRANCH   3  20
TORSDOF 7
ENDMDL
MODEL 4
REMARK VINA RESULT: -6.724218193      5.360      6.859
REMARK  7 active torsions:
REMARK  status: ('A' for Active; 'I' for Inactive)
REMARK    1  A    between atoms: C2_2  and  O1_5 
REMARK    2  A    between atoms: O1_5  and  C5_6 
REMARK    3  A    between atoms: C5_6  and  O3_8 
REMARK    4  A    between atoms: O3_8  and  C6_9 
REMARK    5  A    between atoms: C6_9  and  C7_10 
REMARK    6  A    between atoms: C8_12  and  N2_13 
REMARK    7  A    between atoms: N2_13  and  C9_15 
ROOT
HETATM    1  C7  UNL     1       9.113  11.519  18.366  1.00  0.00     0.080 C 
HETATM    2  N1  UNL     1       9.494  10.206  18.760  1.00  0.00    -0.102 NA
HETATM    3  C8  UNL     1      10.004  12.467  18.461  1.00  0.00     0.131 C 
ENDROOT
BRANCH   1   4
HETATM    4  C6  UNL     1       7.723  11.690  17.877  1.00  0.00     0.152 C 
HETATM    5  C16 UNL     1       7.828  11.857  16.408  1.00  0.00     0.130 C 
HETATM    6  S1  UNL     1       7.595  10.168  15.761  1.00  0.00    -0.125 SA
HETATM    7  C17 UNL     1       6.676   9.617  17.256  1.00  0.00     0.017 A 
HETATM    8  C18 UNL     1       5.902   8.521  17.509  1.00  0.00     0.068 A 
HETATM    9  C20 UNL     1       6.863  10.522  18.220  1.00  0.00     0.007 A 
HETATM   10  S2  UNL     1       5.418   8.747  19.120  1.00  0.00    -0.112 SA
HETATM   11  C19 UNL     1       6.204  10.216  19.432  1.00  0.00     0.061 A 
BRANCH   4  12
HETATM   12  O3  UNL     1       7.286  12.898  18.525  1.00  0.00    -0.275 OA
BRANCH  12  13
HETATM   13  C5  UNL     1       6.312  13.662  17.948  1.00  0.00     0.408 C 
HETATM   14  O2  UNL     1       6.581  14.829  17.639  1.00  0.00    -0.229 OA
BRANCH  13  15
HETATM   15  O1  UNL     1       5.062  13.165  17.711  1.00  0.00    -0.288 OA
BRANCH  15  16
HETATM   16  C2  UNL     1       4.018  13.411  18.619  1.00  0.00     0.062 C 
HETATM   17  C1  UNL     1       3.110  12.173  18.570  1.00  0.00     0.046 C 
HETATM   18  C3  UNL     1       4.492  13.542  20.039  1.00  0.00     0.046 C 
HETATM   19  C4  UNL     1       3.202  14.579  18.161  1.00  0.00     0.046 C 
ENDBRANCH  15  16
ENDBRANCH  13  15
ENDBRANCH  12  13
ENDBRANCH   4  12
ENDBRANCH   1   4
BRANCH   3  20
HETATM   20  N2  UNL     1      11.328  12.275  18.932  1.00  0.00    -0.200 N 
ATOM     21  H2  UNL     1      11.515  12.354  19.931  1.00  0.00     0.183 HD
BRANCH  20  22
HETATM   22  C9  UNL     1      12.289  12.007  18.138  1.00  0.00     0.683 A 
HETATM   23  N3  UNL     1      12.620  10.802  17.629  1.00  0.00    -0.189 N 
HETATM   24  C10 UNL     1      13.683  10.957  16.847  1.00  0.00     0.079 A 
ATOM     25  H3  UNL     1      12.137   9.923  17.814  1.00  0.00     0.184 HD
HETATM   26  C11 UNL     1      14.440  10.087  16.082  1.00  0.00     0.056 A 
HETATM   27  C15 UNL     1      14.034  12.288  16.862  1.00  0.00     0.098 A 
HETATM   28  C12 UNL     1      15.531  10.562  15.347  1.00  0.00     0.037 A 
HETATM   29 CL1  UNL     1      16.454   9.427  14.400  1.00  0.00    -0.084 Cl
HETATM   30  C13 UNL     1      15.871  11.880  15.369  1.00  0.00     0.050 A 
HETATM   31  C14 UNL     1      15.112  12.756  16.136  1.00  0.00     0.065 A 
HETATM   32 CL2  UNL     1      15.543  14.442  16.163  1.00  0.00    -0.082 Cl
HETATM   33  N4  UNL     1      13.159  12.915  17.665  1.00  0.00    -0.188 N 
ATOM     34  H4  UNL     1      13.156  13.912  17.880  1.00  0.00     0.184 HD
ENDBRANCH  20  22
ENDBRANCH   3  20
TORSDOF 7
ENDMDL
MODEL 5
REMARK VINA RESULT: -6.667405014      4.436      6.352
REMARK  7 active torsions:
REMARK  status: ('A' for Active; 'I' for Inactive)
REMARK    1  A    between atoms: C2_2  and  O1_5 
REMARK    2  A    between atoms: O1_5  and  C5_6 
REMARK    3  A    between atoms: C5_6  and  O3_8 
REMARK    4  A    between atoms: O3_8  and  C6_9 
REMARK    5  A    between atoms: C6_9  and  C7_10 
REMARK    6  A    between atoms: C8_12  and  N2_13 
REMARK    7  A    between atoms: N2_13  and  C9_15 
ROOT
HETATM    1  C7  UNL     1       9.370  11.946  19.453  1.00  0.00     0.080 C 
HETATM    2  N1  UNL     1       9.671  12.610  20.674  1.00  0.00    -0.102 NA
HETATM    3  C8  UNL     1      10.367  11.585  18.692  1.00  0.00     0.131 C 
ENDROOT
BRANCH   1   4
HETATM    4  C6  UNL     1       7.934  11.723  19.154  1.00  0.00     0.152 C 
HETATM    5  C16 UNL     1       7.402  13.037  18.720  1.00  0.00     0.130 C 
HETATM    6  S1  UNL     1       7.543  12.985  16.903  1.00  0.00    -0.125 SA
HETATM    7  C17 UNL     1       7.523  11.146  16.857  1.00  0.00     0.017 A 
HETATM    8  C18 UNL     1       7.340  10.253  15.840  1.00  0.00     0.068 A 
HETATM    9  C20 UNL     1       7.737  10.693  18.095  1.00  0.00     0.007 A 
HETATM   10  S2  UNL     1       7.465   8.748  16.615  1.00  0.00    -0.112 SA
HETATM   11  C19 UNL     1       7.746   9.284  18.198  1.00  0.00     0.061 A 
BRANCH   4  12
HETATM   12  O3  UNL     1       7.388  11.313  20.420  1.00  0.00    -0.275 OA
BRANCH  12  13
HETATM   13  C5  UNL     1       6.130  11.709  20.775  1.00  0.00     0.408 C 
HETATM   14  O2  UNL     1       5.163  11.187  20.209  1.00  0.00    -0.229 OA
BRANCH  13  15
HETATM   15  O1  UNL     1       5.926  12.661  21.734  1.00  0.00    -0.288 OA
BRANCH  15  16
HETATM   16  C2  UNL     1       6.073  12.339  23.094  1.00  0.00     0.062 C 
HETATM   17  C1  UNL     1       5.021  13.169  23.845  1.00  0.00     0.046 C 
HETATM   18  C3  UNL     1       5.779  10.897  23.393  1.00  0.00     0.046 C 
HETATM   19  C4  UNL     1       7.418  12.778  23.584  1.00  0.00     0.046 C 
ENDBRANCH  15  16
ENDBRANCH  13  15
ENDBRANCH  12  13
ENDBRANCH   4  12
ENDBRANCH   1   4
BRANCH   3  20
HETATM   20  N2  UNL     1      11.731  11.811  19.003  1.00  0.00    -0.200 N 
ATOM     21  H2  UNL     1      11.986  12.081  19.953  1.00  0.00     0.183 HD
BRANCH  20  22
HETATM   22  C9  UNL     1      12.649  11.685  18.125  1.00  0.00     0.683 A 
HETATM   23  N3  UNL     1      13.034  10.555  17.499  1.00  0.00    -0.189 N 
HETATM   24  C10 UNL     1      14.019  10.857  16.661  1.00  0.00     0.079 A 
ATOM     25  H3  UNL     1      12.637   9.626  17.644  1.00  0.00     0.184 HD
HETATM   26  C11 UNL     1      14.783  10.115  15.777  1.00  0.00     0.056 A 
HETATM   27  C15 UNL     1      14.265  12.208  16.760  1.00  0.00     0.098 A 
HETATM   28  C12 UNL     1      15.775  10.734  15.010  1.00  0.00     0.037 A 
HETATM   29 CL1  UNL     1      16.710   9.755  13.912  1.00  0.00    -0.084 Cl
HETATM   30  C13 UNL     1      16.011  12.070  15.116  1.00  0.00     0.050 A 
HETATM   31  C14 UNL     1      15.245  12.818  16.002  1.00  0.00     0.065 A 
HETATM   32 CL2  UNL     1      15.544  14.528  16.137  1.00  0.00    -0.082 Cl
HETATM   33  N4  UNL     1      13.407  12.697  17.670  1.00  0.00    -0.188 N 
ATOM     34  H4  UNL     1      13.341  13.671  17.964  1.00  0.00     0.184 HD
ENDBRANCH  20  22
ENDBRANCH   3  20
TORSDOF 7
ENDMDL
