MODEL 1
REMARK VINA RESULT: -8.456788844      0.000      0.000
REMARK  7 active torsions:
REMARK  status: ('A' for Active; 'I' for Inactive)
REMARK       I    between atoms: C2_2  and  N1_4 
REMARK    1  A    between atoms: N1_4  and  C3_6 
REMARK    2  A    between atoms: C3_6  and  N2_8 
REMARK    3  A    between atoms: N3_10  and  C4_12 
REMARK    4  A    between atoms: C5_13  and  N4_14 
REMARK    5  A    between atoms: N4_14  and  N5_16 
REMARK    6  A    between atoms: N5_16  and  C6_18 
REMARK    7  A    between atoms: C13_28  and  N6_29 
ROOT
HETATM    1  C4  UNL     1      14.109  10.930  16.511  1.00  0.00     0.111 A 
HETATM    2  C5  UNL     1      15.084  11.831  16.818  1.00  0.00     0.120 A 
HETATM    3  S2  UNL     1      16.264  11.561  15.617  1.00  0.00    -0.063 SA
HETATM    4  C12 UNL     1      15.495  10.312  14.755  1.00  0.00     0.079 A 
HETATM    5  C13 UNL     1      15.829   9.559  13.634  1.00  0.00     0.119 A 
HETATM    6  N7  UNL     1      14.999   8.603  13.154  1.00  0.00    -0.338 N 
ATOM      7  H7  UNL     1      15.225   8.040  12.335  1.00  0.00     0.168 HD
HETATM    8  C14 UNL     1      13.856   8.454  13.841  1.00  0.00     0.182 A 
HETATM    9  N8  UNL     1      13.509   9.161  14.919  1.00  0.00    -0.349 N 
ATOM     10  H8  UNL     1      12.616   8.971  15.372  1.00  0.00     0.166 HD
HETATM   11  C15 UNL     1      14.325  10.137  15.434  1.00  0.00     0.085 A 
ENDROOT
BRANCH   2  12
HETATM   12  N4  UNL     1      15.130  12.788  17.889  1.00  0.00    -0.291 N 
ATOM     13  H4  UNL     1      15.842  13.518  17.912  1.00  0.00     0.187 HD
BRANCH  12  14
HETATM   14  N5  UNL     1      14.243  12.694  18.819  1.00  0.00    -0.299 N 
ATOM     15  H5  UNL     1      13.861  11.787  19.085  1.00  0.00     0.187 HD
BRANCH  14  16
HETATM   16  C6  UNL     1      13.809  13.884  19.466  1.00  0.00     0.065 A 
HETATM   17  C7  UNL     1      13.791  15.083  18.758  1.00  0.00     0.034 A 
HETATM   18  C8  UNL     1      13.375  16.235  19.375  1.00  0.00     0.026 A 
HETATM   19  C9  UNL     1      12.978  16.196  20.689  1.00  0.00     0.035 A 
HETATM   20 CL1  UNL     1      12.444  17.667  21.480  1.00  0.00    -0.084 Cl
HETATM   21  C10 UNL     1      12.991  15.004  21.406  1.00  0.00     0.045 A 
HETATM   22  C11 UNL     1      13.410  13.850  20.784  1.00  0.00     0.040 A 
HETATM   23 BR1  UNL     1      13.425  12.227  21.773  1.00  0.00    -0.049 Br
ENDBRANCH  14  16
ENDBRANCH  12  14
ENDBRANCH   2  12
BRANCH   1  24
HETATM   24  N3  UNL     1      12.921  10.880  17.347  1.00  0.00    -0.294 N 
HETATM   25  N2  UNL     1      11.797  11.244  16.894  1.00  0.00    -0.276 N 
ATOM     26  H2  UNL     1      11.715  11.577  15.934  1.00  0.00     0.189 HD
ATOM     27  H3  UNL     1      12.995  10.547  18.309  1.00  0.00     0.187 HD
BRANCH  25  28
HETATM   28  C3  UNL     1      10.657  11.187  17.722  1.00  0.00     0.193 C 
HETATM   29  S1  UNL     1      10.647  11.933  19.173  1.00  0.00    -0.039 SA
BRANCH  28  30
HETATM   30  N1  UNL     1       9.502  10.480  17.301  1.00  0.00    -0.303 N 
HETATM   31  C2  UNL     1       8.662  10.972  16.271  1.00  0.00     0.219 C 
HETATM   32  C1  UNL     1       7.466  10.238  15.834  1.00  0.00     0.117 C 
HETATM   33  O1  UNL     1       8.936  12.063  15.707  1.00  0.00    -0.274 OA
ATOM     34  H1  UNL     1       9.270   9.595  17.751  1.00  0.00     0.171 HD
ENDBRANCH  28  30
ENDBRANCH  25  28
ENDBRANCH   1  24
BRANCH   5  35
HETATM   35  N6  UNL     1      16.950   9.757  13.018  1.00  0.00    -0.384 N 
ATOM     36  H62 UNL     1      17.563  10.497  13.362  1.00  0.00     0.157 HD
ATOM     37  H61 UNL     1      17.208   9.186  12.213  1.00  0.00     0.157 HD
ENDBRANCH   5  35
TORSDOF 7
ENDMDL
MODEL 2
REMARK VINA RESULT: -8.269563439      3.944      6.630
REMARK  7 active torsions:
REMARK  status: ('A' for Active; 'I' for Inactive)
REMARK       I    between atoms: C2_2  and  N1_4 
REMARK    1  A    between atoms: N1_4  and  C3_6 
REMARK    2  A    between atoms: C3_6  and  N2_8 
REMARK    3  A    between atoms: N3_10  and  C4_12 
REMARK    4  A    between atoms: C5_13  and  N4_14 
REMARK    5  A    between atoms: N4_14  and  N5_16 
REMARK    6  A    between atoms: N5_16  and  C6_18 
REMARK    7  A    between atoms: C13_28  and  N6_29 
ROOT
HETATM    1  C4  UNL     1      11.093  11.845  18.781  1.00  0.00     0.111 A 
HETATM    2  C5  UNL     1      11.931  12.282  17.799  1.00  0.00     0.120 A 
HETATM    3  S2  UNL     1      11.146  11.794  16.365  1.00  0.00    -0.063 SA
HETATM    4  C12 UNL     1       9.777  11.047  17.044  1.00  0.00     0.079 A 
HETATM    5  C13 UNL     1       8.662  10.404  16.517  1.00  0.00     0.119 A 
HETATM    6  N7  UNL     1       7.700   9.890  17.319  1.00  0.00    -0.338 N 
ATOM      7  H7  UNL     1       6.876   9.415  16.953  1.00  0.00     0.168 HD
HETATM    8  C14 UNL     1       7.915  10.055  18.633  1.00  0.00     0.182 A 
HETATM    9  N8  UNL     1       8.975  10.668  19.167  1.00  0.00    -0.349 N 
ATOM     10  H8  UNL     1       9.047  10.743  20.182  1.00  0.00     0.166 HD
HETATM   11  C15 UNL     1       9.970  11.200  18.385  1.00  0.00     0.085 A 
ENDROOT
BRANCH   2  12
HETATM   12  N4  UNL     1      13.178  12.986  17.917  1.00  0.00    -0.291 N 
ATOM     13  H4  UNL     1      13.209  14.006  17.915  1.00  0.00     0.187 HD
BRANCH  12  14
HETATM   14  N5  UNL     1      14.255  12.289  18.026  1.00  0.00    -0.299 N 
ATOM     15  H5  UNL     1      14.669  12.109  18.940  1.00  0.00     0.187 HD
BRANCH  14  16
HETATM   16  C6  UNL     1      14.855  11.774  16.843  1.00  0.00     0.065 A 
HETATM   17  C7  UNL     1      14.851  10.400  16.614  1.00  0.00     0.034 A 
HETATM   18  C8  UNL     1      15.428   9.895  15.477  1.00  0.00     0.026 A 
HETATM   19  C9  UNL     1      16.005  10.750  14.571  1.00  0.00     0.035 A 
HETATM   20 CL1  UNL     1      16.743  10.107  13.116  1.00  0.00    -0.084 Cl
HETATM   21  C10 UNL     1      16.015  12.124  14.790  1.00  0.00     0.045 A 
HETATM   22  C11 UNL     1      15.435  12.628  15.932  1.00  0.00     0.040 A 
HETATM   23 BR1  UNL     1      15.455  14.506  16.221  1.00  0.00    -0.049 Br
ENDBRANCH  14  16
ENDBRANCH  12  14
ENDBRANCH   2  12
BRANCH   1  24
HETATM   24  N3  UNL     1      11.457  12.095  20.166  1.00  0.00    -0.294 N 
HETATM   25  N2  UNL     1      12.412  11.464  20.706  1.00  0.00    -0.276 N 
ATOM     26  H2  UNL     1      12.936  10.772  20.171  1.00  0.00     0.189 HD
ATOM     27  H3  UNL     1      10.938  12.786  20.707  1.00  0.00     0.187 HD
BRANCH  25  28
HETATM   28  C3  UNL     1      12.749  11.721  22.051  1.00  0.00     0.193 C 
HETATM   29  S1  UNL     1      13.099  10.494  23.068  1.00  0.00    -0.039 SA
BRANCH  28  30
HETATM   30  N1  UNL     1      12.788  13.053  22.536  1.00  0.00    -0.303 N 
HETATM   31  C2  UNL     1      13.481  14.077  21.843  1.00  0.00     0.219 C 
HETATM   32  C1  UNL     1      13.520  15.458  22.345  1.00  0.00     0.117 C 
HETATM   33  O1  UNL     1      14.080  13.812  20.769  1.00  0.00    -0.274 OA
ATOM     34  H1  UNL     1      12.306  13.279  23.406  1.00  0.00     0.171 HD
ENDBRANCH  28  30
ENDBRANCH  25  28
ENDBRANCH   1  24
BRANCH   5  35
HETATM   35  N6  UNL     1       8.517  10.280  15.236  1.00  0.00    -0.384 N 
ATOM     36  H62 UNL     1       8.814   9.405  14.802  1.00  0.00     0.157 HD
ATOM     37  H61 UNL     1       8.117  11.037  14.683  1.00  0.00     0.157 HD
ENDBRANCH   5  35
TORSDOF 7
ENDMDL
MODEL 3
REMARK VINA RESULT: -8.021506433      1.953      2.351
REMARK  7 active torsions:
REMARK  status: ('A' for Active; 'I' for Inactive)
REMARK       I    between atoms: C2_2  and  N1_4 
REMARK    1  A    between atoms: N1_4  and  C3_6 
REMARK    2  A    between atoms: C3_6  and  N2_8 
REMARK    3  A    between atoms: N3_10  and  C4_12 
REMARK    4  A    between atoms: C5_13  and  N4_14 
REMARK    5  A    between atoms: N4_14  and  N5_16 
REMARK    6  A    between atoms: N5_16  and  C6_18 
REMARK    7  A    between atoms: C13_28  and  N6_29 
ROOT
HETATM    1  C4  UNL     1      13.958  12.348  17.022  1.00  0.00     0.111 A 
HETATM    2  C5  UNL     1      14.310  13.656  17.174  1.00  0.00     0.120 A 
HETATM    3  S2  UNL     1      15.605  13.845  16.080  1.00  0.00    -0.063 SA
HETATM    4  C12 UNL     1      15.670  12.263  15.458  1.00  0.00     0.079 A 
HETATM    5  C13 UNL     1      16.469  11.624  14.515  1.00  0.00     0.119 A 
HETATM    6  N7  UNL     1      16.290  10.318  14.209  1.00  0.00    -0.338 N 
ATOM      7  H7  UNL     1      16.864   9.831  13.522  1.00  0.00     0.168 HD
HETATM    8  C14 UNL     1      15.298   9.713  14.882  1.00  0.00     0.182 A 
HETATM    9  N8  UNL     1      14.517  10.300  15.791  1.00  0.00    -0.349 N 
ATOM     10  H8  UNL     1      13.788   9.753  16.248  1.00  0.00     0.166 HD
HETATM   11  C15 UNL     1      14.669  11.622  16.126  1.00  0.00     0.085 A 
ENDROOT
BRANCH   2  12
HETATM   12  N4  UNL     1      13.742  14.654  18.038  1.00  0.00    -0.291 N 
ATOM     13  H4  UNL     1      12.838  15.078  17.829  1.00  0.00     0.187 HD
BRANCH  12  14
HETATM   14  N5  UNL     1      14.411  14.996  19.084  1.00  0.00    -0.299 N 
ATOM     15  H5  UNL     1      15.274  15.531  18.998  1.00  0.00     0.187 HD
BRANCH  14  16
HETATM   16  C6  UNL     1      13.919  14.610  20.362  1.00  0.00     0.065 A 
HETATM   17  C7  UNL     1      14.117  13.306  20.809  1.00  0.00     0.034 A 
HETATM   18  C8  UNL     1      13.646  12.926  22.039  1.00  0.00     0.026 A 
HETATM   19  C9  UNL     1      12.980  13.837  22.822  1.00  0.00     0.035 A 
HETATM   20 CL1  UNL     1      12.376  13.353  24.395  1.00  0.00    -0.084 Cl
HETATM   21  C10 UNL     1      12.776  15.142  22.385  1.00  0.00     0.045 A 
HETATM   22  C11 UNL     1      13.251  15.520  21.150  1.00  0.00     0.040 A 
HETATM   23 BR1  UNL     1      12.965  17.305  20.564  1.00  0.00    -0.049 Br
ENDBRANCH  14  16
ENDBRANCH  12  14
ENDBRANCH   2  12
BRANCH   1  24
HETATM   24  N3  UNL     1      12.860  11.828  17.820  1.00  0.00    -0.294 N 
HETATM   25  N2  UNL     1      11.678  11.824  17.367  1.00  0.00    -0.276 N 
ATOM     26  H2  UNL     1      11.486  12.187  16.434  1.00  0.00     0.189 HD
ATOM     27  H3  UNL     1      13.045  11.462  18.754  1.00  0.00     0.187 HD
BRANCH  25  28
HETATM   28  C3  UNL     1      10.628  11.314  18.158  1.00  0.00     0.193 C 
HETATM   29  S1  UNL     1      10.560  11.635  19.756  1.00  0.00    -0.039 SA
BRANCH  28  30
HETATM   30  N1  UNL     1       9.613  10.516  17.570  1.00  0.00    -0.303 N 
HETATM   31  C2  UNL     1       8.889  10.950  16.432  1.00  0.00     0.219 C 
HETATM   32  C1  UNL     1       7.839  10.122  15.822  1.00  0.00     0.117 C 
HETATM   33  O1  UNL     1       9.142  12.071  15.920  1.00  0.00    -0.274 OA
ATOM     34  H1  UNL     1       9.400   9.605  17.977  1.00  0.00     0.171 HD
ENDBRANCH  28  30
ENDBRANCH  25  28
ENDBRANCH   1  24
BRANCH   5  35
HETATM   35  N6  UNL     1      17.409  12.270  13.902  1.00  0.00    -0.384 N 
ATOM     36  H62 UNL     1      17.139  12.965  13.206  1.00  0.00     0.157 HD
ATOM     37  H61 UNL     1      18.389  12.084  14.114  1.00  0.00     0.157 HD
ENDBRANCH   5  35
TORSDOF 7
ENDMDL
MODEL 4
REMARK VINA RESULT: -7.998309517      4.146      6.988
REMARK  7 active torsions:
REMARK  status: ('A' for Active; 'I' for Inactive)
REMARK       I    between atoms: C2_2  and  N1_4 
REMARK    1  A    between atoms: N1_4  and  C3_6 
REMARK    2  A    between atoms: C3_6  and  N2_8 
REMARK    3  A    between atoms: N3_10  and  C4_12 
REMARK    4  A    between atoms: C5_13  and  N4_14 
REMARK    5  A    between atoms: N4_14  and  N5_16 
REMARK    6  A    between atoms: N5_16  and  C6_18 
REMARK    7  A    between atoms: C13_28  and  N6_29 
ROOT
HETATM    1  C4  UNL     1      10.412  12.005  19.283  1.00  0.00     0.111 A 
HETATM    2  C5  UNL     1      11.441  11.671  18.455  1.00  0.00     0.120 A 
HETATM    3  S2  UNL     1      10.690  11.529  16.930  1.00  0.00    -0.063 SA
HETATM    4  C12 UNL     1       9.091  11.895  17.379  1.00  0.00     0.079 A 
HETATM    5  C13 UNL     1       7.886  11.985  16.688  1.00  0.00     0.119 A 
HETATM    6  N7  UNL     1       6.733  12.305  17.321  1.00  0.00    -0.338 N 
ATOM      7  H7  UNL     1       5.841  12.375  16.834  1.00  0.00     0.168 HD
HETATM    8  C14 UNL     1       6.856  12.521  18.640  1.00  0.00     0.182 A 
HETATM    9  N8  UNL     1       7.998  12.443  19.328  1.00  0.00    -0.349 N 
ATOM     10  H8  UNL     1       7.987  12.626  20.331  1.00  0.00     0.166 HD
HETATM   11  C15 UNL     1       9.185  12.121  18.720  1.00  0.00     0.085 A 
ENDROOT
BRANCH   2  12
HETATM   12  N4  UNL     1      12.831  11.480  18.767  1.00  0.00    -0.291 N 
ATOM     13  H4  UNL     1      13.129  10.754  19.419  1.00  0.00     0.187 HD
BRANCH  12  14
HETATM   14  N5  UNL     1      13.688  12.254  18.196  1.00  0.00    -0.299 N 
ATOM     15  H5  UNL     1      13.849  13.198  18.545  1.00  0.00     0.187 HD
BRANCH  14  16
HETATM   16  C6  UNL     1      14.405  11.762  17.070  1.00  0.00     0.065 A 
HETATM   17  C7  UNL     1      14.397  10.397  16.795  1.00  0.00     0.034 A 
HETATM   18  C8  UNL     1      15.086   9.915  15.712  1.00  0.00     0.026 A 
HETATM   19  C9  UNL     1      15.780  10.784  14.907  1.00  0.00     0.035 A 
HETATM   20 CL1  UNL     1      16.662  10.169  13.521  1.00  0.00    -0.084 Cl
HETATM   21  C10 UNL     1      15.795  12.149  15.173  1.00  0.00     0.045 A 
HETATM   22  C11 UNL     1      15.102  12.630  16.260  1.00  0.00     0.040 A 
HETATM   23 BR1  UNL     1      15.131  14.497  16.614  1.00  0.00    -0.049 Br
ENDBRANCH  14  16
ENDBRANCH  12  14
ENDBRANCH   2  12
BRANCH   1  24
HETATM   24  N3  UNL     1      10.695  12.209  20.694  1.00  0.00    -0.294 N 
HETATM   25  N2  UNL     1      11.073  13.340  21.120  1.00  0.00    -0.276 N 
ATOM     26  H2  UNL     1      11.182  14.120  20.472  1.00  0.00     0.189 HD
ATOM     27  H3  UNL     1      10.587  11.434  21.348  1.00  0.00     0.187 HD
BRANCH  25  28
HETATM   28  C3  UNL     1      11.342  13.517  22.492  1.00  0.00     0.193 C 
HETATM   29  S1  UNL     1      10.838  14.860  23.271  1.00  0.00    -0.039 SA
BRANCH  28  30
HETATM   30  N1  UNL     1      12.055  12.527  23.215  1.00  0.00    -0.303 N 
HETATM   31  C2  UNL     1      13.228  11.925  22.694  1.00  0.00     0.219 C 
HETATM   32  C1  UNL     1      13.968  10.900  23.443  1.00  0.00     0.117 C 
HETATM   33  O1  UNL     1      13.659  12.269  21.564  1.00  0.00    -0.274 OA
ATOM     34  H1  UNL     1      11.715  12.240  24.133  1.00  0.00     0.171 HD
ENDBRANCH  28  30
ENDBRANCH  25  28
ENDBRANCH   1  24
BRANCH   5  35
HETATM   35  N6  UNL     1       7.840  11.762  15.413  1.00  0.00    -0.384 N 
ATOM     36  H62 UNL     1       8.172  10.860  15.071  1.00  0.00     0.157 HD
ATOM     37  H61 UNL     1       7.481  12.472  14.775  1.00  0.00     0.157 HD
ENDBRANCH   5  35
TORSDOF 7
ENDMDL
MODEL 5
REMARK VINA RESULT: -7.748532832      3.249      4.067
REMARK  7 active torsions:
REMARK  status: ('A' for Active; 'I' for Inactive)
REMARK       I    between atoms: C2_2  and  N1_4 
REMARK    1  A    between atoms: N1_4  and  C3_6 
REMARK    2  A    between atoms: C3_6  and  N2_8 
REMARK    3  A    between atoms: N3_10  and  C4_12 
REMARK    4  A    between atoms: C5_13  and  N4_14 
REMARK    5  A    between atoms: N4_14  and  N5_16 
REMARK    6  A    between atoms: N5_16  and  C6_18 
REMARK    7  A    between atoms: C13_28  and  N6_29 
ROOT
HETATM    1  C4  UNL     1      13.834  12.674  17.550  1.00  0.00     0.111 A 
HETATM    2  C5  UNL     1      14.276  13.957  17.434  1.00  0.00     0.120 A 
HETATM    3  S2  UNL     1      15.426  13.867  16.177  1.00  0.00    -0.063 SA
HETATM    4  C12 UNL     1      15.320  12.205  15.830  1.00  0.00     0.079 A 
HETATM    5  C13 UNL     1      15.952  11.362  14.920  1.00  0.00     0.119 A 
HETATM    6  N7  UNL     1      15.661  10.042  14.865  1.00  0.00    -0.338 N 
ATOM      7  H7  UNL     1      16.112   9.407  14.206  1.00  0.00     0.168 HD
HETATM    8  C14 UNL     1      14.733   9.632  15.744  1.00  0.00     0.182 A 
HETATM    9  N8  UNL     1      14.111  10.417  16.627  1.00  0.00    -0.349 N 
ATOM     10  H8  UNL     1      13.419  10.008  17.254  1.00  0.00     0.166 HD
HETATM   11  C15 UNL     1      14.380  11.760  16.712  1.00  0.00     0.085 A 
ENDROOT
BRANCH   2  12
HETATM   12  N4  UNL     1      13.883  15.122  18.178  1.00  0.00    -0.291 N 
ATOM     13  H4  UNL     1      12.969  15.553  18.037  1.00  0.00     0.187 HD
BRANCH  12  14
HETATM   14  N5  UNL     1      14.722  15.605  19.028  1.00  0.00    -0.299 N 
ATOM     15  H5  UNL     1      15.713  15.676  18.799  1.00  0.00     0.187 HD
BRANCH  14  16
HETATM   16  C6  UNL     1      14.235  16.037  20.293  1.00  0.00     0.065 A 
HETATM   17  C7  UNL     1      13.021  15.545  20.765  1.00  0.00     0.034 A 
HETATM   18  C8  UNL     1      12.544  15.957  21.983  1.00  0.00     0.026 A 
HETATM   19  C9  UNL     1      13.269  16.853  22.728  1.00  0.00     0.035 A 
HETATM   20 CL1  UNL     1      12.662  17.381  24.286  1.00  0.00    -0.084 Cl
HETATM   21  C10 UNL     1      14.483  17.352  22.266  1.00  0.00     0.045 A 
HETATM   22  C11 UNL     1      14.959  16.936  21.044  1.00  0.00     0.040 A 
HETATM   23 BR1  UNL     1      16.618  17.624  20.422  1.00  0.00    -0.049 Br
ENDBRANCH  14  16
ENDBRANCH  12  14
ENDBRANCH   2  12
BRANCH   1  24
HETATM   24  N3  UNL     1      12.822  12.375  18.550  1.00  0.00    -0.294 N 
HETATM   25  N2  UNL     1      13.155  12.066  19.731  1.00  0.00    -0.276 N 
ATOM     26  H2  UNL     1      14.140  12.024  19.992  1.00  0.00     0.189 HD
ATOM     27  H3  UNL     1      11.835  12.416  18.297  1.00  0.00     0.187 HD
BRANCH  25  28
HETATM   28  C3  UNL     1      12.158  11.780  20.687  1.00  0.00     0.193 C 
HETATM   29  S1  UNL     1      10.620  12.272  20.455  1.00  0.00    -0.039 SA
BRANCH  28  30
HETATM   30  N1  UNL     1      12.482  11.057  21.863  1.00  0.00    -0.303 N 
HETATM   31  C2  UNL     1      13.401  11.561  22.817  1.00  0.00     0.219 C 
HETATM   32  C1  UNL     1      13.736  10.813  24.037  1.00  0.00     0.117 C 
HETATM   33  O1  UNL     1      13.951  12.676  22.628  1.00  0.00    -0.274 OA
ATOM     34  H1  UNL     1      12.042  10.151  22.027  1.00  0.00     0.171 HD
ENDBRANCH  28  30
ENDBRANCH  25  28
ENDBRANCH   1  24
BRANCH   5  35
HETATM   35  N6  UNL     1      16.839  11.826  14.100  1.00  0.00    -0.384 N 
ATOM     36  H62 UNL     1      16.524  12.441  13.349  1.00  0.00     0.157 HD
ATOM     37  H61 UNL     1      17.823  11.579  14.205  1.00  0.00     0.157 HD
ENDBRANCH   5  35
TORSDOF 7
ENDMDL
