MODEL 1
REMARK VINA RESULT: -8.052526309      0.000      0.000
REMARK  4 active torsions:
REMARK  status: ('A' for Active; 'I' for Inactive)
REMARK    1  A    between atoms: C3_8  and  C4_9 
REMARK    2  A    between atoms: C9_21  and  N6_22 
REMARK    3  A    between atoms: N6_22  and  C10_24 
REMARK    4  A    between atoms: C13_29  and  C14_30 
ROOT
HETATM    1 CL1  UNL     1      13.184  11.949  22.823  1.00  0.00    -0.062 Cl
HETATM    2  C1  UNL     1      12.591  12.038  21.160  1.00  0.00     0.134 A 
HETATM    3  N1  UNL     1      11.447  11.460  20.828  1.00  0.00    -0.329 N 
ATOM      4  H1  UNL     1      10.904  10.960  21.532  1.00  0.00     0.168 HD
HETATM    5  C2  UNL     1      11.002  11.532  19.557  1.00  0.00     0.137 A 
HETATM    6  N2  UNL     1       9.912  11.067  18.913  1.00  0.00    -0.326 N 
ATOM      7  H2  UNL     1       9.166  10.521  19.344  1.00  0.00     0.169 HD
HETATM    8  C3  UNL     1       9.953  11.428  17.619  1.00  0.00     0.120 A 
HETATM    9  N5  UNL     1      11.072  12.125  17.435  1.00  0.00    -0.337 N 
ATOM     10  H5  UNL     1      11.374  12.531  16.550  1.00  0.00     0.167 HD
HETATM   11  C7  UNL     1      11.751  12.213  18.613  1.00  0.00     0.102 A 
HETATM   12  C8  UNL     1      12.940  12.818  18.942  1.00  0.00     0.095 A 
HETATM   13 CL2  UNL     1      13.896  13.680  17.764  1.00  0.00    -0.079 Cl
HETATM   14  C9  UNL     1      13.372  12.725  20.260  1.00  0.00     0.112 A 
ENDROOT
BRANCH  14  15
HETATM   15  N6  UNL     1      14.598  13.335  20.654  1.00  0.00    -0.187 N 
ATOM     16  H6  UNL     1      15.435  12.767  20.788  1.00  0.00     0.184 HD
BRANCH  15  17
HETATM   17  C10 UNL     1      14.642  14.638  20.843  1.00  0.00     0.683 A 
HETATM   18  N7  UNL     1      15.532  15.359  20.169  1.00  0.00    -0.190 N 
HETATM   19  C11 UNL     1      15.606  16.719  20.341  1.00  0.00     0.069 A 
ATOM     20  H7  UNL     1      16.166  14.897  19.517  1.00  0.00     0.184 HD
HETATM   21  C12 UNL     1      16.456  17.580  19.727  1.00  0.00     0.051 A 
HETATM   22  C18 UNL     1      14.720  17.245  21.232  1.00  0.00     0.049 A 
HETATM   23  C13 UNL     1      16.347  18.892  20.055  1.00  0.00     0.018 A 
HETATM   24  S2  UNL     1      15.078  18.907  21.201  1.00  0.00    -0.086 SA
HETATM   25  C19 UNL     1      13.797  16.452  21.925  1.00  0.00     0.127 A 
HETATM   26  N8  UNL     1      13.751  15.122  21.733  1.00  0.00    -0.200 N 
ATOM     27  H8  UNL     1      13.089  14.523  22.225  1.00  0.00     0.183 HD
BRANCH  23  28
HETATM   28  C14 UNL     1      17.144  20.042  19.539  1.00  0.00    -0.012 A 
HETATM   29  C15 UNL     1      18.379  19.877  19.028  1.00  0.00     0.020 A 
HETATM   30  C16 UNL     1      19.019  20.998  18.583  1.00  0.00     0.050 A 
HETATM   31  S1  UNL     1      17.897  22.238  18.886  1.00  0.00    -0.113 SA
HETATM   32  C17 UNL     1      16.642  21.313  19.567  1.00  0.00     0.062 A 
ENDBRANCH  23  28
ENDBRANCH  15  17
ENDBRANCH  14  15
BRANCH   8  33
HETATM   33  C4  UNL     1       8.930  11.093  16.624  1.00  0.00     0.042 A 
HETATM   34  C5  UNL     1       8.650   9.868  16.070  1.00  0.00     0.123 A 
HETATM   35  N3  UNL     1       7.641   9.992  15.202  1.00  0.00    -0.311 N 
HETATM   36  N4  UNL     1       7.285  11.273  15.202  1.00  0.00    -0.311 N 
ATOM     37  H3  UNL     1       7.223   9.247  14.645  1.00  0.00     0.186 HD
HETATM   38  C6  UNL     1       8.047  11.976  16.055  1.00  0.00     0.123 A 
ATOM     39  H4  UNL     1       6.536  11.668  14.632  1.00  0.00     0.186 HD
ENDBRANCH   8  33
TORSDOF 4
ENDMDL
MODEL 2
REMARK VINA RESULT: -7.987948715      1.436      2.364
REMARK  4 active torsions:
REMARK  status: ('A' for Active; 'I' for Inactive)
REMARK    1  A    between atoms: C3_8  and  C4_9 
REMARK    2  A    between atoms: C9_21  and  N6_22 
REMARK    3  A    between atoms: N6_22  and  C10_24 
REMARK    4  A    between atoms: C13_29  and  C14_30 
ROOT
HETATM    1 CL1  UNL     1      14.517  13.706  16.905  1.00  0.00    -0.062 Cl
HETATM    2  C1  UNL     1      13.146  12.810  17.570  1.00  0.00     0.134 A 
HETATM    3  N1  UNL     1      12.198  12.350  16.768  1.00  0.00    -0.329 N 
ATOM      4  H1  UNL     1      12.256  12.513  15.763  1.00  0.00     0.168 HD
HETATM    5  C2  UNL     1      11.156  11.667  17.283  1.00  0.00     0.137 A 
HETATM    6  N2  UNL     1      10.059  11.085  16.756  1.00  0.00    -0.326 N 
ATOM      7  H2  UNL     1       9.823  11.072  15.764  1.00  0.00     0.169 HD
HETATM    8  C3  UNL     1       9.322  10.525  17.731  1.00  0.00     0.120 A 
HETATM    9  N5  UNL     1       9.950  10.749  18.883  1.00  0.00    -0.337 N 
ATOM     10  H5  UNL     1       9.626  10.441  19.800  1.00  0.00     0.167 HD
HETATM   11  C7  UNL     1      11.091  11.455  18.649  1.00  0.00     0.102 A 
HETATM   12  C8  UNL     1      12.067  11.926  19.494  1.00  0.00     0.095 A 
HETATM   13 CL2  UNL     1      12.000  11.667  21.219  1.00  0.00    -0.079 Cl
HETATM   14  C9  UNL     1      13.128  12.626  18.933  1.00  0.00     0.112 A 
ENDROOT
BRANCH  14  15
HETATM   15  N6  UNL     1      14.167  13.135  19.765  1.00  0.00    -0.187 N 
ATOM     16  H6  UNL     1      14.926  12.525  20.071  1.00  0.00     0.184 HD
BRANCH  15  17
HETATM   17  C10 UNL     1      14.139  14.399  20.137  1.00  0.00     0.683 A 
HETATM   18  N7  UNL     1      15.194  15.168  19.889  1.00  0.00    -0.190 N 
HETATM   19  C11 UNL     1      15.199  16.489  20.262  1.00  0.00     0.069 A 
ATOM     20  H7  UNL     1      16.007  14.772  19.416  1.00  0.00     0.184 HD
HETATM   21  C12 UNL     1      16.197  17.391  20.077  1.00  0.00     0.051 A 
HETATM   22  C18 UNL     1      14.071  16.926  20.886  1.00  0.00     0.049 A 
HETATM   23  C13 UNL     1      15.980  18.650  20.531  1.00  0.00     0.018 A 
HETATM   24  S2  UNL     1      14.409  18.562  21.201  1.00  0.00    -0.086 SA
HETATM   25  C19 UNL     1      12.979  16.084  21.131  1.00  0.00     0.127 A 
HETATM   26  N8  UNL     1      13.006  14.794  20.753  1.00  0.00    -0.200 N 
ATOM     27  H8  UNL     1      12.224  14.160  20.920  1.00  0.00     0.183 HD
BRANCH  23  28
HETATM   28  C14 UNL     1      16.893  19.828  20.460  1.00  0.00    -0.012 A 
HETATM   29  C15 UNL     1      17.541  20.155  19.326  1.00  0.00     0.020 A 
HETATM   30  C16 UNL     1      18.352  21.253  19.373  1.00  0.00     0.050 A 
HETATM   31  S1  UNL     1      18.191  21.794  20.977  1.00  0.00    -0.113 SA
HETATM   32  C17 UNL     1      17.102  20.621  21.554  1.00  0.00     0.062 A 
ENDBRANCH  23  28
ENDBRANCH  15  17
ENDBRANCH  14  15
BRANCH   8  33
HETATM   33  C4  UNL     1       8.063   9.805  17.519  1.00  0.00     0.042 A 
HETATM   34  C5  UNL     1       6.885   9.929  18.213  1.00  0.00     0.123 A 
HETATM   35  N3  UNL     1       5.976   9.091  17.703  1.00  0.00    -0.311 N 
HETATM   36  N4  UNL     1       6.565   8.445  16.702  1.00  0.00    -0.311 N 
ATOM     37  H3  UNL     1       5.015   8.971  18.021  1.00  0.00     0.186 HD
HETATM   38  C6  UNL     1       7.837   8.852  16.558  1.00  0.00     0.123 A 
ATOM     39  H4  UNL     1       6.113   7.737  16.122  1.00  0.00     0.186 HD
ENDBRANCH   8  33
TORSDOF 4
ENDMDL
MODEL 3
REMARK VINA RESULT: -7.928701846      5.263      8.234
REMARK  4 active torsions:
REMARK  status: ('A' for Active; 'I' for Inactive)
REMARK    1  A    between atoms: C3_8  and  C4_9 
REMARK    2  A    between atoms: C9_21  and  N6_22 
REMARK    3  A    between atoms: N6_22  and  C10_24 
REMARK    4  A    between atoms: C13_29  and  C14_30 
ROOT
HETATM    1 CL1  UNL     1      14.961  15.111  20.149  1.00  0.00    -0.062 Cl
HETATM    2  C1  UNL     1      14.447  13.759  19.133  1.00  0.00     0.134 A 
HETATM    3  N1  UNL     1      15.239  13.307  18.174  1.00  0.00    -0.329 N 
ATOM      4  H1  UNL     1      16.151  13.738  18.018  1.00  0.00     0.168 HD
HETATM    5  C2  UNL     1      14.840  12.276  17.403  1.00  0.00     0.137 A 
HETATM    6  N2  UNL     1      15.392  11.599  16.374  1.00  0.00    -0.326 N 
ATOM      7  H2  UNL     1      16.311  11.790  15.975  1.00  0.00     0.169 HD
HETATM    8  C3  UNL     1      14.554  10.637  15.954  1.00  0.00     0.120 A 
HETATM    9  N5  UNL     1      13.463  10.698  16.714  1.00  0.00    -0.337 N 
ATOM     10  H5  UNL     1      12.650  10.088  16.628  1.00  0.00     0.167 HD
HETATM   11  C7  UNL     1      13.601  11.701  17.625  1.00  0.00     0.102 A 
HETATM   12  C8  UNL     1      12.766  12.160  18.617  1.00  0.00     0.095 A 
HETATM   13 CL2  UNL     1      11.201  11.447  18.911  1.00  0.00    -0.079 Cl
HETATM   14  C9  UNL     1      13.208  13.224  19.394  1.00  0.00     0.112 A 
ENDROOT
BRANCH  14  15
HETATM   15  N6  UNL     1      12.381  13.737  20.436  1.00  0.00    -0.187 N 
ATOM     16  H6  UNL     1      11.789  14.551  20.268  1.00  0.00     0.184 HD
BRANCH  15  17
HETATM   17  C10 UNL     1      12.388  13.152  21.616  1.00  0.00     0.683 A 
HETATM   18  N7  UNL     1      11.328  13.281  22.407  1.00  0.00    -0.190 N 
HETATM   19  C11 UNL     1      11.301  12.685  23.644  1.00  0.00     0.069 A 
ATOM     20  H7  UNL     1      10.526  13.827  22.092  1.00  0.00     0.184 HD
HETATM   21  C12 UNL     1      10.296  12.727  24.554  1.00  0.00     0.051 A 
HETATM   22  C18 UNL     1      12.416  11.977  23.977  1.00  0.00     0.049 A 
HETATM   23  C13 UNL     1      10.491  12.058  25.718  1.00  0.00     0.018 A 
HETATM   24  S2  UNL     1      12.054  11.389  25.530  1.00  0.00    -0.086 SA
HETATM   25  C19 UNL     1      13.515  11.866  23.116  1.00  0.00     0.127 A 
HETATM   26  N8  UNL     1      13.510  12.462  21.911  1.00  0.00    -0.200 N 
ATOM     27  H8  UNL     1      14.297  12.397  21.266  1.00  0.00     0.183 HD
BRANCH  23  28
HETATM   28  C14 UNL     1       9.565  11.937  26.880  1.00  0.00    -0.012 A 
HETATM   29  C15 UNL     1       8.588  11.010  26.915  1.00  0.00     0.020 A 
HETATM   30  C16 UNL     1       7.797  10.987  28.029  1.00  0.00     0.050 A 
HETATM   31  S1  UNL     1       8.427  12.242  28.985  1.00  0.00    -0.113 SA
HETATM   32  C17 UNL     1       9.678  12.770  27.959  1.00  0.00     0.062 A 
ENDBRANCH  23  28
ENDBRANCH  15  17
ENDBRANCH  14  15
BRANCH   8  33
HETATM   33  C4  UNL     1      14.829   9.709  14.853  1.00  0.00     0.042 A 
HETATM   34  C5  UNL     1      13.957   8.866  14.211  1.00  0.00     0.123 A 
HETATM   35  N3  UNL     1      14.609   8.187  13.261  1.00  0.00    -0.311 N 
HETATM   36  N4  UNL     1      15.875   8.591  13.297  1.00  0.00    -0.311 N 
ATOM     37  H3  UNL     1      14.212   7.492  12.630  1.00  0.00     0.186 HD
HETATM   38  C6  UNL     1      16.050   9.518  14.253  1.00  0.00     0.123 A 
ATOM     39  H4  UNL     1      16.613   8.245  12.682  1.00  0.00     0.186 HD
ENDBRANCH   8  33
TORSDOF 4
ENDMDL
MODEL 4
REMARK VINA RESULT: -7.830531758      5.351      7.878
REMARK  4 active torsions:
REMARK  status: ('A' for Active; 'I' for Inactive)
REMARK    1  A    between atoms: C3_8  and  C4_9 
REMARK    2  A    between atoms: C9_21  and  N6_22 
REMARK    3  A    between atoms: N6_22  and  C10_24 
REMARK    4  A    between atoms: C13_29  and  C14_30 
ROOT
HETATM    1 CL1  UNL     1      14.698  14.624  20.524  1.00  0.00    -0.062 Cl
HETATM    2  C1  UNL     1      14.354  13.444  19.254  1.00  0.00     0.134 A 
HETATM    3  N1  UNL     1      15.277  13.144  18.354  1.00  0.00    -0.329 N 
ATOM      4  H1  UNL     1      16.192  13.593  18.392  1.00  0.00     0.168 HD
HETATM    5  C2  UNL     1      15.007  12.243  17.388  1.00  0.00     0.137 A 
HETATM    6  N2  UNL     1      15.706  11.732  16.354  1.00  0.00    -0.326 N 
ATOM      7  H2  UNL     1      16.666  11.981  16.117  1.00  0.00     0.169 HD
HETATM    8  C3  UNL     1      14.953  10.845  15.682  1.00  0.00     0.120 A 
HETATM    9  N5  UNL     1      13.768  10.790  16.287  1.00  0.00    -0.337 N 
ATOM     10  H5  UNL     1      12.987  10.200  16.000  1.00  0.00     0.167 HD
HETATM   11  C7  UNL     1      13.761  11.641  17.350  1.00  0.00     0.102 A 
HETATM   12  C8  UNL     1      12.791  11.943  18.277  1.00  0.00     0.095 A 
HETATM   13 CL2  UNL     1      11.216  11.194  18.243  1.00  0.00    -0.079 Cl
HETATM   14  C9  UNL     1      13.102  12.875  19.259  1.00  0.00     0.112 A 
ENDROOT
BRANCH  14  15
HETATM   15  N6  UNL     1      12.132  13.223  20.244  1.00  0.00    -0.187 N 
ATOM     16  H6  UNL     1      11.390  13.887  20.023  1.00  0.00     0.184 HD
BRANCH  15  17
HETATM   17  C10 UNL     1      12.201  12.679  21.442  1.00  0.00     0.683 A 
HETATM   18  N7  UNL     1      11.728  13.352  22.485  1.00  0.00    -0.190 N 
HETATM   19  C11 UNL     1      11.783  12.815  23.748  1.00  0.00     0.069 A 
ATOM     20  H7  UNL     1      11.319  14.276  22.346  1.00  0.00     0.184 HD
HETATM   21  C12 UNL     1      11.343  13.381  24.901  1.00  0.00     0.051 A 
HETATM   22  C18 UNL     1      12.346  11.579  23.835  1.00  0.00     0.049 A 
HETATM   23  C13 UNL     1      11.503  12.661  26.039  1.00  0.00     0.018 A 
HETATM   24  S2  UNL     1      12.256  11.225  25.495  1.00  0.00    -0.086 SA
HETATM   25  C19 UNL     1      12.836  10.901  22.711  1.00  0.00     0.127 A 
HETATM   26  N8  UNL     1      12.766  11.454  21.488  1.00  0.00    -0.200 N 
ATOM     27  H8  UNL     1      13.115  10.982  20.654  1.00  0.00     0.183 HD
BRANCH  23  28
HETATM   28  C14 UNL     1      11.115  13.034  27.430  1.00  0.00    -0.012 A 
HETATM   29  C15 UNL     1      11.627  12.401  28.503  1.00  0.00     0.020 A 
HETATM   30  C16 UNL     1      11.202  12.824  29.731  1.00  0.00     0.050 A 
HETATM   31  S1  UNL     1      10.114  14.076  29.361  1.00  0.00    -0.113 SA
HETATM   32  C17 UNL     1      10.219  14.040  27.663  1.00  0.00     0.062 A 
ENDBRANCH  23  28
ENDBRANCH  15  17
ENDBRANCH  14  15
BRANCH   8  33
HETATM   33  C4  UNL     1      15.393  10.097  14.501  1.00  0.00     0.042 A 
HETATM   34  C5  UNL     1      16.413  10.400  13.633  1.00  0.00     0.123 A 
HETATM   35  N3  UNL     1      16.487   9.458  12.686  1.00  0.00    -0.311 N 
HETATM   36  N4  UNL     1      15.531   8.571  12.947  1.00  0.00    -0.311 N 
ATOM     37  H3  UNL     1      17.150   9.426  11.912  1.00  0.00     0.186 HD
HETATM   38  C6  UNL     1      14.843   8.926  14.044  1.00  0.00     0.123 A 
ATOM     39  H4  UNL     1      15.346   7.737  12.389  1.00  0.00     0.186 HD
ENDBRANCH   8  33
TORSDOF 4
ENDMDL
MODEL 5
REMARK VINA RESULT: -7.818599645      5.347      7.957
REMARK  4 active torsions:
REMARK  status: ('A' for Active; 'I' for Inactive)
REMARK    1  A    between atoms: C3_8  and  C4_9 
REMARK    2  A    between atoms: C9_21  and  N6_22 
REMARK    3  A    between atoms: N6_22  and  C10_24 
REMARK    4  A    between atoms: C13_29  and  C14_30 
ROOT
HETATM    1 CL1  UNL     1      14.661  14.676  20.450  1.00  0.00    -0.062 Cl
HETATM    2  C1  UNL     1      14.314  13.468  19.207  1.00  0.00     0.134 A 
HETATM    3  N1  UNL     1      15.230  13.161  18.301  1.00  0.00    -0.329 N 
ATOM      4  H1  UNL     1      16.140  13.622  18.319  1.00  0.00     0.168 HD
HETATM    5  C2  UNL     1      14.957  12.240  17.356  1.00  0.00     0.137 A 
HETATM    6  N2  UNL     1      15.649  11.717  16.323  1.00  0.00    -0.326 N 
ATOM      7  H2  UNL     1      16.603  11.972  16.069  1.00  0.00     0.169 HD
HETATM    8  C3  UNL     1      14.897  10.810  15.677  1.00  0.00     0.120 A 
HETATM    9  N5  UNL     1      13.721  10.753  16.298  1.00  0.00    -0.337 N 
ATOM     10  H5  UNL     1      12.943  10.150  16.031  1.00  0.00     0.167 HD
HETATM   11  C7  UNL     1      13.718  11.624  17.345  1.00  0.00     0.102 A 
HETATM   12  C8  UNL     1      12.757  11.932  18.278  1.00  0.00     0.095 A 
HETATM   13 CL2  UNL     1      11.189  11.165  18.278  1.00  0.00    -0.079 Cl
HETATM   14  C9  UNL     1      13.069  12.886  19.239  1.00  0.00     0.112 A 
ENDROOT
BRANCH  14  15
HETATM   15  N6  UNL     1      12.108  13.241  20.229  1.00  0.00    -0.187 N 
ATOM     16  H6  UNL     1      11.368  13.909  20.011  1.00  0.00     0.184 HD
BRANCH  15  17
HETATM   17  C10 UNL     1      12.182  12.701  21.428  1.00  0.00     0.683 A 
HETATM   18  N7  UNL     1      11.592  13.312  22.450  1.00  0.00    -0.190 N 
HETATM   19  C11 UNL     1      11.649  12.776  23.713  1.00  0.00     0.069 A 
ATOM     20  H7  UNL     1      11.092  14.187  22.295  1.00  0.00     0.184 HD
HETATM   21  C12 UNL     1      11.099  13.282  24.846  1.00  0.00     0.051 A 
HETATM   22  C18 UNL     1      12.339  11.607  23.823  1.00  0.00     0.049 A 
HETATM   23  C13 UNL     1      11.286  12.576  25.989  1.00  0.00     0.018 A 
HETATM   24  S2  UNL     1      12.214  11.235  25.477  1.00  0.00    -0.086 SA
HETATM   25  C19 UNL     1      12.949  10.994  22.721  1.00  0.00     0.127 A 
HETATM   26  N8  UNL     1      12.874  11.544  21.498  1.00  0.00    -0.200 N 
ATOM     27  H8  UNL     1      13.310  11.118  20.680  1.00  0.00     0.183 HD
BRANCH  23  28
HETATM   28  C14 UNL     1      10.797  12.896  27.362  1.00  0.00    -0.012 A 
HETATM   29  C15 UNL     1       9.777  13.750  27.570  1.00  0.00     0.020 A 
HETATM   30  C16 UNL     1       9.411  13.970  28.868  1.00  0.00     0.050 A 
HETATM   31  S1  UNL     1      10.484  12.992  29.751  1.00  0.00    -0.113 SA
HETATM   32  C17 UNL     1      11.373  12.325  28.463  1.00  0.00     0.062 A 
ENDBRANCH  23  28
ENDBRANCH  15  17
ENDBRANCH  14  15
BRANCH   8  33
HETATM   33  C4  UNL     1      15.331  10.045  14.504  1.00  0.00     0.042 A 
HETATM   34  C5  UNL     1      14.787   8.895  13.988  1.00  0.00     0.123 A 
HETATM   35  N3  UNL     1      15.481   8.518  12.910  1.00  0.00    -0.311 N 
HETATM   36  N4  UNL     1      16.451   9.411  12.741  1.00  0.00    -0.311 N 
ATOM     37  H3  UNL     1      15.301   7.701  12.327  1.00  0.00     0.186 HD
HETATM   38  C6  UNL     1      16.394  10.357  13.693  1.00  0.00     0.123 A 
ATOM     39  H4  UNL     1      17.144   9.382  11.993  1.00  0.00     0.186 HD
ENDBRANCH   8  33
TORSDOF 4
ENDMDL
