MODEL 1
REMARK VINA RESULT: -7.027025830      0.000      0.000
REMARK  4 active torsions:
REMARK  status: ('A' for Active; 'I' for Inactive)
REMARK    1  A    between atoms: C2_2  and  C3_3 
REMARK    2  A    between atoms: C3_3  and  N1_4 
REMARK    3  A    between atoms: N2_8  and  C7_9 
REMARK    4  A    between atoms: C12_14  and  C13_15 
ROOT
HETATM    1  C7  UNL     1      13.762  12.532  -2.505  1.00  0.00     0.235 C 
HETATM    2  C8  UNL     1      12.695  12.268  -3.510  1.00  0.00     0.036 C 
HETATM    3  C9  UNL     1      13.393  12.128  -4.871  1.00  0.00     0.002 C 
HETATM    4  C10 UNL     1      14.047  10.746  -4.754  1.00  0.00     0.001 C 
HETATM    5  C11 UNL     1      15.164  10.839  -3.795  1.00  0.00     0.015 C 
HETATM    6  C12 UNL     1      14.978  11.692  -2.585  1.00  0.00     0.096 C 
ENDROOT
BRANCH   1   7
HETATM    7  N2  UNL     1      13.268  12.619  -1.148  1.00  0.00     0.099 N 
HETATM    8  C6  UNL     1      11.822  12.686  -1.097  1.00  0.00     0.278 C 
HETATM    9  C5  UNL     1      11.317  13.085   0.262  1.00  0.00     0.075 C 
HETATM   10  C4  UNL     1      11.522  12.038   1.317  1.00  0.00     0.070 C 
HETATM   11  N1  UNL     1      11.694  10.736   0.834  1.00  0.00    -0.353 N 
HETATM   12  C17 UNL     1      12.724  10.458  -0.084  1.00  0.00     0.098 C 
HETATM   13  C16 UNL     1      13.711  11.544  -0.304  1.00  0.00     0.318 C 
BRANCH  11  14
HETATM   14  C3  UNL     1      10.948   9.680   1.375  1.00  0.00     0.068 C 
BRANCH  14  15
HETATM   15  C2  UNL     1      10.534   9.823   2.800  1.00  0.00     0.040 C 
HETATM   16  C1  UNL     1      10.882   8.619   3.642  1.00  0.00     0.010 C 
ENDBRANCH  14  15
ENDBRANCH  11  14
ENDBRANCH   1   7
BRANCH   6  17
HETATM   17  C13 UNL     1      16.208  12.513  -2.468  1.00  0.00     0.154 A 
HETATM   18  N3  UNL     1      17.388  12.233  -1.904  1.00  0.00    -0.327 N 
HETATM   19  C14 UNL     1      18.220  13.302  -2.043  1.00  0.00     0.100 A 
ATOM     20  H3  UNL     1      17.627  11.356  -1.442  1.00  0.00     0.169 HD
HETATM   21  C15 UNL     1      19.615  13.394  -1.566  1.00  0.00     0.091 C 
HETATM   22  N4  UNL     1      17.501  14.221  -2.704  1.00  0.00    -0.248 N 
HETATM   23  O1  UNL     1      16.308  13.726  -2.943  1.00  0.00    -0.222 OA
ATOM     24  H4  UNL     1      17.825  15.150  -2.977  1.00  0.00     0.196 HD
ENDBRANCH   6  17
TORSDOF 4
ENDMDL
MODEL 2
REMARK VINA RESULT: -6.946557801      1.280      1.380
REMARK  4 active torsions:
REMARK  status: ('A' for Active; 'I' for Inactive)
REMARK    1  A    between atoms: C2_2  and  C3_3 
REMARK    2  A    between atoms: C3_3  and  N1_4 
REMARK    3  A    between atoms: N2_8  and  C7_9 
REMARK    4  A    between atoms: C12_14  and  C13_15 
ROOT
HETATM    1  C7  UNL     1      13.869  12.129  -2.545  1.00  0.00     0.235 C 
HETATM    2  C8  UNL     1      12.934  12.532  -3.633  1.00  0.00     0.036 C 
HETATM    3  C9  UNL     1      13.625  12.190  -4.961  1.00  0.00     0.002 C 
HETATM    4  C10 UNL     1      13.498  10.663  -5.003  1.00  0.00     0.001 C 
HETATM    5  C11 UNL     1      14.397  10.093  -3.982  1.00  0.00     0.015 C 
HETATM    6  C12 UNL     1      14.515  10.805  -2.677  1.00  0.00     0.096 C 
ENDROOT
BRANCH   1   7
HETATM    7  N2  UNL     1      13.329  12.324  -1.217  1.00  0.00     0.099 N 
HETATM    8  C6  UNL     1      11.883  12.412  -1.225  1.00  0.00     0.278 C 
HETATM    9  C5  UNL     1      11.336  12.919   0.082  1.00  0.00     0.075 C 
HETATM   10  C4  UNL     1      11.487  11.950   1.219  1.00  0.00     0.070 C 
HETATM   11  N1  UNL     1      11.655  10.613   0.840  1.00  0.00    -0.353 N 
HETATM   12  C17 UNL     1      12.714  10.255  -0.017  1.00  0.00     0.098 C 
HETATM   13  C16 UNL     1      13.725  11.309  -0.281  1.00  0.00     0.318 C 
BRANCH  11  14
HETATM   14  C3  UNL     1      10.875   9.611   1.429  1.00  0.00     0.068 C 
BRANCH  14  15
HETATM   15  C2  UNL     1      10.582   9.767   2.883  1.00  0.00     0.040 C 
HETATM   16  C1  UNL     1      10.920   8.538   3.692  1.00  0.00     0.010 C 
ENDBRANCH  14  15
ENDBRANCH  11  14
ENDBRANCH   1   7
BRANCH   6  17
HETATM   17  C13 UNL     1      15.967  10.883  -2.381  1.00  0.00     0.154 A 
HETATM   18  N3  UNL     1      16.747  10.087  -1.642  1.00  0.00    -0.327 N 
HETATM   19  C14 UNL     1      18.024  10.559  -1.663  1.00  0.00     0.100 A 
ATOM     20  H3  UNL     1      16.433   9.256  -1.140  1.00  0.00     0.169 HD
HETATM   21  C15 UNL     1      19.190   9.961  -0.979  1.00  0.00     0.091 C 
HETATM   22  N4  UNL     1      17.979  11.655  -2.434  1.00  0.00    -0.248 N 
HETATM   23  O1  UNL     1      16.744  11.826  -2.847  1.00  0.00    -0.222 OA
ATOM     24  H4  UNL     1      18.771  12.257  -2.662  1.00  0.00     0.196 HD
ENDBRANCH   6  17
TORSDOF 4
ENDMDL
MODEL 3
REMARK VINA RESULT: -6.815406785      1.946      2.716
REMARK  4 active torsions:
REMARK  status: ('A' for Active; 'I' for Inactive)
REMARK    1  A    between atoms: C2_2  and  C3_3 
REMARK    2  A    between atoms: C3_3  and  N1_4 
REMARK    3  A    between atoms: N2_8  and  C7_9 
REMARK    4  A    between atoms: C12_14  and  C13_15 
ROOT
HETATM    1  C7  UNL     1      13.933  12.476  -2.354  1.00  0.00     0.235 C 
HETATM    2  C8  UNL     1      13.994  11.091  -2.899  1.00  0.00     0.036 C 
HETATM    3  C9  UNL     1      14.736  11.175  -4.241  1.00  0.00     0.002 C 
HETATM    4  C10 UNL     1      16.186  11.387  -3.791  1.00  0.00     0.001 C 
HETATM    5  C11 UNL     1      16.307  12.749  -3.237  1.00  0.00     0.015 C 
HETATM    6  C12 UNL     1      15.177  13.274  -2.416  1.00  0.00     0.096 C 
ENDROOT
BRANCH   1   7
HETATM    7  N2  UNL     1      13.319  12.556  -1.045  1.00  0.00     0.099 N 
HETATM    8  C6  UNL     1      11.874  12.493  -1.117  1.00  0.00     0.278 C 
HETATM    9  C5  UNL     1      11.222  12.883   0.181  1.00  0.00     0.075 C 
HETATM   10  C4  UNL     1      11.427  11.888   1.286  1.00  0.00     0.070 C 
HETATM   11  N1  UNL     1      11.753  10.593   0.865  1.00  0.00    -0.353 N 
HETATM   12  C17 UNL     1      12.878  10.385   0.045  1.00  0.00     0.098 C 
HETATM   13  C16 UNL     1      13.781  11.549  -0.131  1.00  0.00     0.318 C 
BRANCH  11  14
HETATM   14  C3  UNL     1      11.060   9.490   1.379  1.00  0.00     0.068 C 
BRANCH  14  15
HETATM   15  C2  UNL     1      10.610   9.591   2.797  1.00  0.00     0.040 C 
HETATM   16  C1  UNL     1      11.184   8.509   3.679  1.00  0.00     0.010 C 
ENDBRANCH  14  15
ENDBRANCH  11  14
ENDBRANCH   1   7
BRANCH   6  17
HETATM   17  C13 UNL     1      14.912  14.646  -2.912  1.00  0.00     0.154 A 
HETATM   18  N3  UNL     1      13.777  15.353  -2.945  1.00  0.00    -0.327 N 
HETATM   19  C14 UNL     1      14.022  16.576  -3.493  1.00  0.00     0.100 A 
ATOM     20  H3  UNL     1      12.870  15.027  -2.612  1.00  0.00     0.169 HD
HETATM   21  C15 UNL     1      13.035  17.656  -3.701  1.00  0.00     0.091 C 
HETATM   22  N4  UNL     1      15.331  16.573  -3.783  1.00  0.00    -0.248 N 
HETATM   23  O1  UNL     1      15.836  15.413  -3.428  1.00  0.00    -0.222 OA
ATOM     24  H4  UNL     1      15.849  17.343  -4.208  1.00  0.00     0.196 HD
ENDBRANCH   6  17
TORSDOF 4
ENDMDL
MODEL 4
REMARK VINA RESULT: -6.784281773      2.885      5.722
REMARK  4 active torsions:
REMARK  status: ('A' for Active; 'I' for Inactive)
REMARK    1  A    between atoms: C2_2  and  C3_3 
REMARK    2  A    between atoms: C3_3  and  N1_4 
REMARK    3  A    between atoms: N2_8  and  C7_9 
REMARK    4  A    between atoms: C12_14  and  C13_15 
ROOT
HETATM    1  C7  UNL     1      14.262  11.820  -2.182  1.00  0.00     0.235 C 
HETATM    2  C8  UNL     1      14.060  12.385  -3.545  1.00  0.00     0.036 C 
HETATM    3  C9  UNL     1      12.549  12.358  -3.816  1.00  0.00     0.002 C 
HETATM    4  C10 UNL     1      12.047  13.508  -2.936  1.00  0.00     0.001 C 
HETATM    5  C11 UNL     1      12.157  13.096  -1.524  1.00  0.00     0.015 C 
HETATM    6  C12 UNL     1      13.353  12.301  -1.118  1.00  0.00     0.096 C 
ENDROOT
BRANCH   1   7
HETATM    7  N2  UNL     1      15.642  11.842  -1.746  1.00  0.00     0.099 N 
HETATM    8  C6  UNL     1      15.777  12.329  -0.388  1.00  0.00     0.278 C 
HETATM    9  C5  UNL     1      17.204  12.648  -0.037  1.00  0.00     0.075 C 
HETATM   10  C4  UNL     1      18.085  11.438   0.079  1.00  0.00     0.070 C 
HETATM   11  N1  UNL     1      17.411  10.235   0.314  1.00  0.00    -0.353 N 
HETATM   12  C17 UNL     1      16.409   9.806  -0.578  1.00  0.00     0.098 C 
HETATM   13  C16 UNL     1      16.297  10.567  -1.846  1.00  0.00     0.318 C 
BRANCH  11  14
HETATM   14  C3  UNL     1      17.831   9.381   1.342  1.00  0.00     0.068 C 
BRANCH  14  15
HETATM   15  C2  UNL     1      19.165   8.737   1.165  1.00  0.00     0.040 C 
HETATM   16  C1  UNL     1      19.076   7.253   0.902  1.00  0.00     0.010 C 
ENDBRANCH  14  15
ENDBRANCH  11  14
ENDBRANCH   1   7
BRANCH   6  17
HETATM   17  C13 UNL     1      12.839  11.175  -0.300  1.00  0.00     0.154 A 
HETATM   18  N3  UNL     1      11.957  11.164   0.706  1.00  0.00    -0.327 N 
HETATM   19  C14 UNL     1      11.796   9.887   1.151  1.00  0.00     0.100 A 
ATOM     20  H3  UNL     1      11.481  11.984   1.080  1.00  0.00     0.169 HD
HETATM   21  C15 UNL     1      10.904   9.448   2.244  1.00  0.00     0.091 C 
HETATM   22  N4  UNL     1      12.606   9.144   0.383  1.00  0.00    -0.248 N 
HETATM   23  O1  UNL     1      13.214   9.935  -0.471  1.00  0.00    -0.222 OA
ATOM     24  H4  UNL     1      12.728   8.133   0.449  1.00  0.00     0.196 HD
ENDBRANCH   6  17
TORSDOF 4
ENDMDL
MODEL 5
REMARK VINA RESULT: -6.771579097      2.651      6.364
REMARK  4 active torsions:
REMARK  status: ('A' for Active; 'I' for Inactive)
REMARK    1  A    between atoms: C2_2  and  C3_3 
REMARK    2  A    between atoms: C3_3  and  N1_4 
REMARK    3  A    between atoms: N2_8  and  C7_9 
REMARK    4  A    between atoms: C12_14  and  C13_15 
ROOT
HETATM    1  C7  UNL     1      13.649  11.953  -1.081  1.00  0.00     0.235 C 
HETATM    2  C8  UNL     1      13.810  12.229  -2.536  1.00  0.00     0.036 C 
HETATM    3  C9  UNL     1      12.397  12.401  -3.113  1.00  0.00     0.002 C 
HETATM    4  C10 UNL     1      12.003  13.785  -2.585  1.00  0.00     0.001 C 
HETATM    5  C11 UNL     1      11.778  13.682  -1.131  1.00  0.00     0.015 C 
HETATM    6  C12 UNL     1      12.690  12.804  -0.342  1.00  0.00     0.096 C 
ENDROOT
BRANCH   1   7
HETATM    7  N2  UNL     1      14.905  11.835  -0.373  1.00  0.00     0.099 N 
HETATM    8  C6  UNL     1      15.267  10.453  -0.133  1.00  0.00     0.278 C 
HETATM    9  C5  UNL     1      16.391  10.322   0.858  1.00  0.00     0.075 C 
HETATM   10  C4  UNL     1      17.715  10.805   0.342  1.00  0.00     0.070 C 
HETATM   11  N1  UNL     1      17.825  10.851  -1.053  1.00  0.00    -0.353 N 
HETATM   12  C17 UNL     1      16.903  11.604  -1.805  1.00  0.00     0.098 C 
HETATM   13  C16 UNL     1      16.000  12.491  -1.031  1.00  0.00     0.318 C 
BRANCH  11  14
HETATM   14  C3  UNL     1      18.934  10.281  -1.691  1.00  0.00     0.068 C 
BRANCH  14  15
HETATM   15  C2  UNL     1      19.813   9.419  -0.849  1.00  0.00     0.040 C 
HETATM   16  C1  UNL     1      19.543   7.945  -1.025  1.00  0.00     0.010 C 
ENDBRANCH  14  15
ENDBRANCH  11  14
ENDBRANCH   1   7
BRANCH   6  17
HETATM   17  C13 UNL     1      11.817  11.990   0.540  1.00  0.00     0.154 A 
HETATM   18  N3  UNL     1      11.987  10.758   1.031  1.00  0.00    -0.327 N 
HETATM   19  C14 UNL     1      10.912  10.426   1.798  1.00  0.00     0.100 A 
ATOM     20  H3  UNL     1      12.795  10.160   0.857  1.00  0.00     0.169 HD
HETATM   21  C15 UNL     1      10.715   9.155   2.526  1.00  0.00     0.091 C 
HETATM   22  N4  UNL     1      10.103  11.495   1.748  1.00  0.00    -0.248 N 
HETATM   23  O1  UNL     1      10.665  12.410   0.992  1.00  0.00    -0.222 OA
ATOM     24  H4  UNL     1       9.202  11.582   2.219  1.00  0.00     0.196 HD
ENDBRANCH   6  17
TORSDOF 4
ENDMDL
