MODEL 1
REMARK VINA RESULT: -7.284692724      0.000      0.000
REMARK  4 active torsions:
REMARK  status: ('A' for Active; 'I' for Inactive)
REMARK    1  A    between atoms: C4_4  and  C5_5 
REMARK    2  A    between atoms: C5_5  and  N1_6 
REMARK    3  A    between atoms: N2_9  and  C8_10 
REMARK    4  A    between atoms: C9_15  and  C10_16 
ROOT
HETATM    1  N1  UNL     1      15.813  11.827  -0.821  1.00  0.00    -0.370 N 
HETATM    2  C6  UNL     1      16.587  11.699   0.318  1.00  0.00     0.147 C 
HETATM    3  C7  UNL     1      16.705  10.217   0.711  1.00  0.00     0.145 C 
HETATM    4  N2  UNL     1      17.167   9.496  -0.452  1.00  0.00    -0.354 N 
HETATM    5  C13 UNL     1      16.619   9.714  -1.768  1.00  0.00     0.169 C 
HETATM    6  C14 UNL     1      16.241  11.173  -1.965  1.00  0.00     0.083 C 
ENDROOT
BRANCH   4   7
HETATM    7  C8  UNL     1      18.207   8.539  -0.301  1.00  0.00     0.163 A 
HETATM    8  N3  UNL     1      18.320   7.497   0.504  1.00  0.00    -0.279 N 
HETATM    9  N4  UNL     1      19.346   6.766   0.480  1.00  0.00    -0.296 N 
ATOM     10  H3  UNL     1      17.565   7.282   1.156  1.00  0.00     0.189 HD
HETATM   11  C9  UNL     1      20.334   7.041  -0.364  1.00  0.00     0.074 A 
ATOM     12  H4  UNL     1      19.418   5.965   1.108  1.00  0.00     0.187 HD
HETATM   13  S1  UNL     1      19.721   8.429  -1.149  1.00  0.00    -0.038 SA
BRANCH  11  14
HETATM   14  C10 UNL     1      21.637   6.337  -0.580  1.00  0.00     0.044 A 
HETATM   15  C11 UNL     1      22.054   5.206   0.244  1.00  0.00     0.012 A 
HETATM   16  C12 UNL     1      22.644   6.559   0.519  1.00  0.00     0.012 A 
ENDBRANCH  11  14
ENDBRANCH   4   7
BRANCH   1  17
HETATM   17  C5  UNL     1      14.703  12.652  -0.907  1.00  0.00     0.068 C 
BRANCH  17  18
HETATM   18  C4  UNL     1      13.501  12.169  -0.129  1.00  0.00     0.024 C 
HETATM   19  C3  UNL     1      13.128  10.740  -0.542  1.00  0.00     0.010 C 
HETATM   20  C2  UNL     1      12.140  10.270   0.525  1.00  0.00     0.001 C 
HETATM   21  C1  UNL     1      10.916  11.130   0.547  1.00  0.00     0.000 C 
HETATM   22  C16 UNL     1      11.262  12.579   0.724  1.00  0.00     0.001 C 
HETATM   23  C15 UNL     1      12.258  12.990  -0.371  1.00  0.00     0.010 C 
ENDBRANCH  17  18
ENDBRANCH   1  17
TORSDOF 4
ENDMDL
MODEL 2
REMARK VINA RESULT: -7.060729743      1.140      1.231
REMARK  4 active torsions:
REMARK  status: ('A' for Active; 'I' for Inactive)
REMARK    1  A    between atoms: C4_4  and  C5_5 
REMARK    2  A    between atoms: C5_5  and  N1_6 
REMARK    3  A    between atoms: N2_9  and  C8_10 
REMARK    4  A    between atoms: C9_15  and  C10_16 
ROOT
HETATM    1  N1  UNL     1      15.186  11.990  -0.806  1.00  0.00    -0.370 N 
HETATM    2  C6  UNL     1      16.051  11.966   0.272  1.00  0.00     0.147 C 
HETATM    3  C7  UNL     1      16.455  10.517   0.591  1.00  0.00     0.145 C 
HETATM    4  N2  UNL     1      16.951   9.927  -0.630  1.00  0.00    -0.354 N 
HETATM    5  C13 UNL     1      16.279  10.086  -1.896  1.00  0.00     0.169 C 
HETATM    6  C14 UNL     1      15.637  11.459  -2.003  1.00  0.00     0.083 C 
ENDROOT
BRANCH   4   7
HETATM    7  C8  UNL     1      18.151   9.166  -0.591  1.00  0.00     0.163 A 
HETATM    8  N3  UNL     1      19.181   9.125  -1.417  1.00  0.00    -0.279 N 
HETATM    9  N4  UNL     1      20.161   8.363  -1.196  1.00  0.00    -0.296 N 
ATOM     10  H3  UNL     1      19.184   9.718  -2.247  1.00  0.00     0.189 HD
HETATM   11  C9  UNL     1      20.164   7.586  -0.119  1.00  0.00     0.074 A 
ATOM     12  H4  UNL     1      20.949   8.343  -1.843  1.00  0.00     0.187 HD
HETATM   13  S1  UNL     1      18.666   7.999   0.590  1.00  0.00    -0.038 SA
BRANCH  11  14
HETATM   14  C10 UNL     1      21.192   6.608   0.357  1.00  0.00     0.044 A 
HETATM   15  C11 UNL     1      22.104   5.931  -0.561  1.00  0.00     0.012 A 
HETATM   16  C12 UNL     1      20.912   5.182  -0.040  1.00  0.00     0.012 A 
ENDBRANCH  11  14
ENDBRANCH   4   7
BRANCH   1  17
HETATM   17  C5  UNL     1      13.944  12.606  -0.782  1.00  0.00     0.068 C 
BRANCH  17  18
HETATM   18  C4  UNL     1      12.941  11.960   0.145  1.00  0.00     0.024 C 
HETATM   19  C3  UNL     1      12.666  10.513  -0.281  1.00  0.00     0.010 C 
HETATM   20  C2  UNL     1      11.917   9.895   0.898  1.00  0.00     0.001 C 
HETATM   21  C1  UNL     1      10.625  10.605   1.154  1.00  0.00     0.000 C 
HETATM   22  C16 UNL     1      10.835  12.077   1.352  1.00  0.00     0.001 C 
HETATM   23  C15 UNL     1      11.593  12.640   0.140  1.00  0.00     0.010 C 
ENDBRANCH  17  18
ENDBRANCH   1  17
TORSDOF 4
ENDMDL
MODEL 3
REMARK VINA RESULT: -7.046492654      1.065      1.333
REMARK  4 active torsions:
REMARK  status: ('A' for Active; 'I' for Inactive)
REMARK    1  A    between atoms: C4_4  and  C5_5 
REMARK    2  A    between atoms: C5_5  and  N1_6 
REMARK    3  A    between atoms: N2_9  and  C8_10 
REMARK    4  A    between atoms: C9_15  and  C10_16 
ROOT
HETATM    1  N1  UNL     1      15.282  12.055  -0.763  1.00  0.00    -0.370 N 
HETATM    2  C6  UNL     1      16.203  11.925   0.260  1.00  0.00     0.147 C 
HETATM    3  C7  UNL     1      16.505  10.437   0.512  1.00  0.00     0.145 C 
HETATM    4  N2  UNL     1      16.879   9.851  -0.754  1.00  0.00    -0.354 N 
HETATM    5  C13 UNL     1      16.149  10.106  -1.972  1.00  0.00     0.169 C 
HETATM    6  C14 UNL     1      15.618  11.530  -2.000  1.00  0.00     0.083 C 
ENDROOT
BRANCH   4   7
HETATM    7  C8  UNL     1      18.012   8.995  -0.810  1.00  0.00     0.163 A 
HETATM    8  N3  UNL     1      18.208   7.780  -0.328  1.00  0.00    -0.279 N 
HETATM    9  N4  UNL     1      19.310   7.189  -0.487  1.00  0.00    -0.296 N 
ATOM     10  H3  UNL     1      17.456   7.314   0.181  1.00  0.00     0.189 HD
HETATM   11  C9  UNL     1      20.293   7.790  -1.148  1.00  0.00     0.074 A 
ATOM     12  H4  UNL     1      19.445   6.251  -0.110  1.00  0.00     0.187 HD
HETATM   13  S1  UNL     1      19.560   9.281  -1.546  1.00  0.00    -0.038 SA
BRANCH  11  14
HETATM   14  C10 UNL     1      21.674   7.307  -1.464  1.00  0.00     0.044 A 
HETATM   15  C11 UNL     1      22.430   7.811  -2.607  1.00  0.00     0.012 A 
HETATM   16  C12 UNL     1      21.759   6.472  -2.715  1.00  0.00     0.012 A 
ENDBRANCH  11  14
ENDBRANCH   4   7
BRANCH   1  17
HETATM   17  C5  UNL     1      14.099  12.768  -0.646  1.00  0.00     0.068 C 
BRANCH  17  18
HETATM   18  C4  UNL     1      13.042  12.095   0.199  1.00  0.00     0.024 C 
HETATM   19  C3  UNL     1      12.723  10.698  -0.347  1.00  0.00     0.010 C 
HETATM   20  C2  UNL     1      11.913  10.023   0.759  1.00  0.00     0.001 C 
HETATM   21  C1  UNL     1      10.643  10.765   1.033  1.00  0.00     0.000 C 
HETATM   22  C16 UNL     1      10.905  12.207   1.352  1.00  0.00     0.001 C 
HETATM   23  C15 UNL     1      11.723  12.829   0.210  1.00  0.00     0.010 C 
ENDBRANCH  17  18
ENDBRANCH   1  17
TORSDOF 4
ENDMDL
MODEL 4
REMARK VINA RESULT: -7.025714739      0.920      1.470
REMARK  4 active torsions:
REMARK  status: ('A' for Active; 'I' for Inactive)
REMARK    1  A    between atoms: C4_4  and  C5_5 
REMARK    2  A    between atoms: C5_5  and  N1_6 
REMARK    3  A    between atoms: N2_9  and  C8_10 
REMARK    4  A    between atoms: C9_15  and  C10_16 
ROOT
HETATM    1  N1  UNL     1      15.943  10.704  -0.427  1.00  0.00    -0.370 N 
HETATM    2  C6  UNL     1      16.333   9.936  -1.508  1.00  0.00     0.147 C 
HETATM    3  C7  UNL     1      17.844   9.658  -1.439  1.00  0.00     0.145 C 
HETATM    4  N2  UNL     1      18.124   9.103  -0.136  1.00  0.00    -0.354 N 
HETATM    5  C13 UNL     1      17.571   9.656   1.076  1.00  0.00     0.169 C 
HETATM    6  C14 UNL     1      16.169  10.192   0.840  1.00  0.00     0.083 C 
ENDROOT
BRANCH   4   7
HETATM    7  C8  UNL     1      18.969   7.965  -0.038  1.00  0.00     0.163 A 
HETATM    8  N3  UNL     1      18.900   6.894   0.734  1.00  0.00    -0.279 N 
HETATM    9  N4  UNL     1      19.771   5.986   0.665  1.00  0.00    -0.296 N 
ATOM     10  H3  UNL     1      18.129   6.802   1.397  1.00  0.00     0.189 HD
HETATM   11  C9  UNL     1      20.778   6.100  -0.194  1.00  0.00     0.074 A 
ATOM     12  H4  UNL     1      19.702   5.165   1.267  1.00  0.00     0.187 HD
HETATM   13  S1  UNL     1      20.420   7.603  -0.923  1.00  0.00    -0.038 SA
BRANCH  11  14
HETATM   14  C10 UNL     1      21.922   5.174  -0.461  1.00  0.00     0.044 A 
HETATM   15  C11 UNL     1      22.305   4.122   0.477  1.00  0.00     0.012 A 
HETATM   16  C12 UNL     1      23.109   5.389   0.442  1.00  0.00     0.012 A 
ENDBRANCH  11  14
ENDBRANCH   4   7
BRANCH   1  17
HETATM   17  C5  UNL     1      15.250  11.899  -0.543  1.00  0.00     0.068 C 
BRANCH  17  18
HETATM   18  C4  UNL     1      13.849  11.870   0.024  1.00  0.00     0.024 C 
HETATM   19  C3  UNL     1      13.100  10.620  -0.452  1.00  0.00     0.010 C 
HETATM   20  C2  UNL     1      11.858  10.547   0.435  1.00  0.00     0.001 C 
HETATM   21  C1  UNL     1      10.995  11.757   0.260  1.00  0.00     0.000 C 
HETATM   22  C16 UNL     1      11.763  13.023   0.499  1.00  0.00     0.001 C 
HETATM   23  C15 UNL     1      12.998  13.036  -0.415  1.00  0.00     0.010 C 
ENDBRANCH  17  18
ENDBRANCH   1  17
TORSDOF 4
ENDMDL
MODEL 5
REMARK VINA RESULT: -6.919381104      1.053      1.574
REMARK  4 active torsions:
REMARK  status: ('A' for Active; 'I' for Inactive)
REMARK    1  A    between atoms: C4_4  and  C5_5 
REMARK    2  A    between atoms: C5_5  and  N1_6 
REMARK    3  A    between atoms: N2_9  and  C8_10 
REMARK    4  A    between atoms: C9_15  and  C10_16 
ROOT
HETATM    1  N1  UNL     1      15.106  11.908  -1.319  1.00  0.00    -0.370 N 
HETATM    2  C6  UNL     1      15.834  12.271  -0.202  1.00  0.00     0.147 C 
HETATM    3  C7  UNL     1      16.092  11.039   0.682  1.00  0.00     0.145 C 
HETATM    4  N2  UNL     1      16.684  10.022  -0.155  1.00  0.00    -0.354 N 
HETATM    5  C13 UNL     1      16.177   9.709  -1.469  1.00  0.00     0.169 C 
HETATM    6  C14 UNL     1      15.654  10.956  -2.162  1.00  0.00     0.083 C 
ENDROOT
BRANCH   4   7
HETATM    7  C8  UNL     1      17.812   9.304   0.325  1.00  0.00     0.163 A 
HETATM    8  N3  UNL     1      18.250   9.093   1.554  1.00  0.00    -0.279 N 
HETATM    9  N4  UNL     1      19.294   8.419   1.765  1.00  0.00    -0.296 N 
ATOM     10  H3  UNL     1      17.734   9.481   2.344  1.00  0.00     0.189 HD
HETATM   11  C9  UNL     1      19.971   7.912   0.741  1.00  0.00     0.074 A 
ATOM     12  H4  UNL     1      19.618   8.264   2.719  1.00  0.00     0.187 HD
HETATM   13  S1  UNL     1      19.028   8.450  -0.578  1.00  0.00    -0.038 SA
BRANCH  11  14
HETATM   14  C10 UNL     1      21.222   7.091   0.729  1.00  0.00     0.044 A 
HETATM   15  C11 UNL     1      21.804   6.580  -0.509  1.00  0.00     0.012 A 
HETATM   16  C12 UNL     1      21.005   5.647   0.355  1.00  0.00     0.012 A 
ENDBRANCH  11  14
ENDBRANCH   4   7
BRANCH   1  17
HETATM   17  C5  UNL     1      13.918  12.517  -1.694  1.00  0.00     0.068 C 
BRANCH  17  18
HETATM   18  C4  UNL     1      12.713  12.093  -0.886  1.00  0.00     0.024 C 
HETATM   19  C3  UNL     1      12.550  12.986   0.350  1.00  0.00     0.010 C 
HETATM   20  C2  UNL     1      11.151  12.671   0.877  1.00  0.00     0.001 C 
HETATM   21  C1  UNL     1      11.028  11.233   1.268  1.00  0.00     0.000 C 
HETATM   22  C16 UNL     1      11.404  10.320   0.139  1.00  0.00     0.001 C 
HETATM   23  C15 UNL     1      12.814  10.685  -0.349  1.00  0.00     0.010 C 
ENDBRANCH  17  18
ENDBRANCH   1  17
TORSDOF 4
ENDMDL
