MODEL 1
REMARK VINA RESULT: -7.697659085      0.000      0.000
REMARK  4 active torsions:
REMARK  status: ('A' for Active; 'I' for Inactive)
REMARK    1  A    between atoms: C2_2  and  C3_3 
REMARK    2  A    between atoms: N1_5  and  C5_6 
REMARK    3  A    between atoms: C5_6  and  N2_7 
REMARK    4  A    between atoms: C6_14  and  C7_15 
ROOT
HETATM    1  N2  UNL     1      17.007   9.788  -0.094  1.00  0.00    -0.235 N 
HETATM    2  N3  UNL     1      16.417   9.793   1.078  1.00  0.00    -0.223 N 
ATOM      3  H3  UNL     1      15.582  10.323   1.327  1.00  0.00     0.210 HD
HETATM    4  N4  UNL     1      17.089   8.998   1.872  1.00  0.00    -0.227 N 
ATOM      5  H4  UNL     1      16.857   8.809   2.847  1.00  0.00     0.210 HD
HETATM    6  N5  UNL     1      18.108   8.482   1.221  1.00  0.00    -0.272 N 
ATOM      7  H5  UNL     1      18.800   7.830   1.591  1.00  0.00     0.190 HD
HETATM    8  C6  UNL     1      18.060   8.977  -0.021  1.00  0.00     0.121 A 
ENDROOT
BRANCH   1   9
HETATM    9  C5  UNL     1      16.644  10.510  -1.302  1.00  0.00     0.424 C 
BRANCH   9  10
HETATM   10  N1  UNL     1      15.246  10.554  -1.564  1.00  0.00     0.113 N 
HETATM   11  C4  UNL     1      15.026  10.437  -2.980  1.00  0.00     0.280 C 
HETATM   12  C3  UNL     1      14.436  11.693  -3.513  1.00  0.00     0.020 C 
HETATM   13  C17 UNL     1      13.854  12.356  -2.302  1.00  0.00     0.025 C 
HETATM   14  C12 UNL     1      14.586  11.742  -1.162  1.00  0.00     0.229 C 
HETATM   15  C16 UNL     1      12.357  12.220  -2.189  1.00  0.00     0.007 C 
HETATM   16  C13 UNL     1      13.613  11.512  -0.014  1.00  0.00     0.036 C 
HETATM   17  C14 UNL     1      12.791  12.751   0.199  1.00  0.00     0.002 C 
HETATM   18  C15 UNL     1      11.940  13.094  -0.998  1.00  0.00     0.001 C 
BRANCH  12  19
HETATM   19  C2  UNL     1      13.415  11.357  -4.564  1.00  0.00     0.002 C 
HETATM   20  C1  UNL     1      13.766   9.978  -5.120  1.00  0.00     0.005 C 
ENDBRANCH  12  19
ENDBRANCH   9  10
ENDBRANCH   1   9
BRANCH   8  21
HETATM   21  C7  UNL     1      19.059   8.617  -1.064  1.00  0.00     0.056 C 
HETATM   22  C8  UNL     1      20.204   9.572  -1.030  1.00  0.00     0.012 C 
HETATM   23  C9  UNL     1      21.466   8.813  -0.752  1.00  0.00     0.001 C 
HETATM   24  C10 UNL     1      21.153   7.433  -1.283  1.00  0.00     0.001 C 
HETATM   25  C11 UNL     1      19.703   7.274  -0.808  1.00  0.00     0.012 C 
ENDBRANCH   8  21
TORSDOF 4
ENDMDL
MODEL 2
REMARK VINA RESULT: -7.637533691      2.655      6.662
REMARK  4 active torsions:
REMARK  status: ('A' for Active; 'I' for Inactive)
REMARK    1  A    between atoms: C2_2  and  C3_3 
REMARK    2  A    between atoms: N1_5  and  C5_6 
REMARK    3  A    between atoms: C5_6  and  N2_7 
REMARK    4  A    between atoms: C6_14  and  C7_15 
ROOT
HETATM    1  N2  UNL     1      12.983  11.921  -2.131  1.00  0.00    -0.235 N 
HETATM    2  N3  UNL     1      12.524  12.687  -3.092  1.00  0.00    -0.223 N 
ATOM      3  H3  UNL     1      12.929  12.789  -4.022  1.00  0.00     0.210 HD
HETATM    4  N4  UNL     1      11.456  13.298  -2.646  1.00  0.00    -0.227 N 
ATOM      5  H4  UNL     1      10.890  13.957  -3.181  1.00  0.00     0.210 HD
HETATM    6  N5  UNL     1      11.223  12.932  -1.405  1.00  0.00    -0.272 N 
ATOM      7  H5  UNL     1      10.458  13.249  -0.810  1.00  0.00     0.190 HD
HETATM    8  C6  UNL     1      12.185  12.062  -1.076  1.00  0.00     0.121 A 
ENDROOT
BRANCH   1   9
HETATM    9  C5  UNL     1      14.146  11.050  -2.135  1.00  0.00     0.424 C 
BRANCH   9  10
HETATM   10  N1  UNL     1      15.285  11.586  -1.469  1.00  0.00     0.113 N 
HETATM   11  C4  UNL     1      16.030  12.400  -2.390  1.00  0.00     0.280 C 
HETATM   12  C3  UNL     1      17.363  11.795  -2.650  1.00  0.00     0.020 C 
HETATM   13  C17 UNL     1      17.573  10.879  -1.482  1.00  0.00     0.025 C 
HETATM   14  C12 UNL     1      16.201  10.631  -0.962  1.00  0.00     0.229 C 
HETATM   15  C16 UNL     1      18.513  11.425  -0.438  1.00  0.00     0.007 C 
HETATM   16  C13 UNL     1      16.244  10.611   0.560  1.00  0.00     0.036 C 
HETATM   17  C14 UNL     1      17.389   9.753   1.016  1.00  0.00     0.002 C 
HETATM   18  C15 UNL     1      18.727  10.291   0.574  1.00  0.00     0.001 C 
BRANCH  12  19
HETATM   19  C2  UNL     1      18.394  12.883  -2.754  1.00  0.00     0.002 C 
HETATM   20  C1  UNL     1      17.654  14.219  -2.737  1.00  0.00     0.005 C 
ENDBRANCH  12  19
ENDBRANCH   9  10
ENDBRANCH   1   9
BRANCH   8  21
HETATM   21  C7  UNL     1      12.255  11.419   0.266  1.00  0.00     0.056 C 
HETATM   22  C8  UNL     1      11.388  12.152   1.233  1.00  0.00     0.012 C 
HETATM   23  C9  UNL     1      10.348  11.215   1.766  1.00  0.00     0.001 C 
HETATM   24  C10 UNL     1      11.014   9.864   1.634  1.00  0.00     0.001 C 
HETATM   25  C11 UNL     1      11.689  10.018   0.265  1.00  0.00     0.012 C 
ENDBRANCH   8  21
TORSDOF 4
ENDMDL
MODEL 3
REMARK VINA RESULT: -7.616732385      4.382      6.405
REMARK  4 active torsions:
REMARK  status: ('A' for Active; 'I' for Inactive)
REMARK    1  A    between atoms: C2_2  and  C3_3 
REMARK    2  A    between atoms: N1_5  and  C5_6 
REMARK    3  A    between atoms: C5_6  and  N2_7 
REMARK    4  A    between atoms: C6_14  and  C7_15 
ROOT
HETATM    1  N2  UNL     1      13.513  11.118  -1.109  1.00  0.00    -0.235 N 
HETATM    2  N3  UNL     1      14.778  10.771  -1.073  1.00  0.00    -0.223 N 
ATOM      3  H3  UNL     1      15.505  11.091  -1.712  1.00  0.00     0.210 HD
HETATM    4  N4  UNL     1      14.941   9.944  -0.073  1.00  0.00    -0.227 N 
ATOM      5  H4  UNL     1      15.827   9.513   0.195  1.00  0.00     0.210 HD
HETATM    6  N5  UNL     1      13.792   9.753   0.536  1.00  0.00    -0.272 N 
ATOM      7  H5  UNL     1      13.623   9.158   1.347  1.00  0.00     0.190 HD
HETATM    8  C6  UNL     1      12.887  10.493  -0.116  1.00  0.00     0.121 A 
ENDROOT
BRANCH   1   9
HETATM    9  C5  UNL     1      12.837  12.011  -2.036  1.00  0.00     0.424 C 
BRANCH   9  10
HETATM   10  N1  UNL     1      13.272  13.365  -1.970  1.00  0.00     0.113 N 
HETATM   11  C4  UNL     1      12.141  14.212  -1.699  1.00  0.00     0.280 C 
HETATM   12  C3  UNL     1      11.880  15.105  -2.858  1.00  0.00     0.020 C 
HETATM   13  C17 UNL     1      13.179  15.112  -3.604  1.00  0.00     0.025 C 
HETATM   14  C12 UNL     1      13.867  13.873  -3.151  1.00  0.00     0.229 C 
HETATM   15  C16 UNL     1      14.000  16.358  -3.392  1.00  0.00     0.007 C 
HETATM   16  C13 UNL     1      15.352  14.164  -2.981  1.00  0.00     0.036 C 
HETATM   17  C14 UNL     1      15.856  14.908  -4.184  1.00  0.00     0.002 C 
HETATM   18  C15 UNL     1      15.191  16.251  -4.354  1.00  0.00     0.001 C 
BRANCH  12  19
HETATM   19  C2  UNL     1      11.465  16.461  -2.360  1.00  0.00     0.002 C 
HETATM   20  C1  UNL     1      10.224  16.878  -3.146  1.00  0.00     0.005 C 
ENDBRANCH  12  19
ENDBRANCH   9  10
ENDBRANCH   1   9
BRANCH   8  21
HETATM   21  C7  UNL     1      11.454  10.539   0.287  1.00  0.00     0.056 C 
HETATM   22  C8  UNL     1      11.131   9.383   1.172  1.00  0.00     0.012 C 
HETATM   23  C9  UNL     1      10.651   9.899   2.494  1.00  0.00     0.001 C 
HETATM   24  C10 UNL     1      10.080  11.253   2.141  1.00  0.00     0.001 C 
HETATM   25  C11 UNL     1      11.131  11.745   1.139  1.00  0.00     0.012 C 
ENDBRANCH   8  21
TORSDOF 4
ENDMDL
MODEL 4
REMARK VINA RESULT: -7.499719604      3.769      5.719
REMARK  4 active torsions:
REMARK  status: ('A' for Active; 'I' for Inactive)
REMARK    1  A    between atoms: C2_2  and  C3_3 
REMARK    2  A    between atoms: N1_5  and  C5_6 
REMARK    3  A    between atoms: C5_6  and  N2_7 
REMARK    4  A    between atoms: C6_14  and  C7_15 
ROOT
HETATM    1  N2  UNL     1      14.669  11.646  -0.603  1.00  0.00    -0.235 N 
HETATM    2  N3  UNL     1      15.887  11.244  -0.324  1.00  0.00    -0.223 N 
ATOM      3  H3  UNL     1      16.751  11.686  -0.639  1.00  0.00     0.210 HD
HETATM    4  N4  UNL     1      15.797  10.178   0.430  1.00  0.00    -0.227 N 
ATOM      5  H4  UNL     1      16.589   9.652   0.799  1.00  0.00     0.210 HD
HETATM    6  N5  UNL     1      14.532   9.889   0.638  1.00  0.00    -0.272 N 
ATOM      7  H5  UNL     1      14.167   9.112   1.189  1.00  0.00     0.190 HD
HETATM    8  C6  UNL     1      13.816  10.814  -0.012  1.00  0.00     0.121 A 
ENDROOT
BRANCH   1   9
HETATM    9  C5  UNL     1      14.244  12.780  -1.407  1.00  0.00     0.424 C 
BRANCH   9  10
HETATM   10  N1  UNL     1      14.552  12.668  -2.792  1.00  0.00     0.113 N 
HETATM   11  C4  UNL     1      14.366  13.946  -3.423  1.00  0.00     0.280 C 
HETATM   12  C3  UNL     1      13.250  13.879  -4.402  1.00  0.00     0.020 C 
HETATM   13  C17 UNL     1      13.117  12.415  -4.692  1.00  0.00     0.025 C 
HETATM   14  C12 UNL     1      13.754  11.752  -3.523  1.00  0.00     0.229 C 
HETATM   15  C16 UNL     1      13.714  11.996  -6.010  1.00  0.00     0.007 C 
HETATM   16  C13 UNL     1      14.544  10.544  -4.007  1.00  0.00     0.036 C 
HETATM   17  C14 UNL     1      13.700   9.745  -4.958  1.00  0.00     0.002 C 
HETATM   18  C15 UNL     1      13.334  10.520  -6.199  1.00  0.00     0.001 C 
BRANCH  12  19
HETATM   19  C2  UNL     1      13.595  14.703  -5.611  1.00  0.00     0.002 C 
HETATM   20  C1  UNL     1      14.857  15.497  -5.278  1.00  0.00     0.005 C 
ENDBRANCH  12  19
ENDBRANCH   9  10
ENDBRANCH   1   9
BRANCH   8  21
HETATM   21  C7  UNL     1      12.327  10.820  -0.008  1.00  0.00     0.056 C 
HETATM   22  C8  UNL     1      11.810   9.524   0.519  1.00  0.00     0.012 C 
HETATM   23  C9  UNL     1      10.979   9.789   1.738  1.00  0.00     0.001 C 
HETATM   24  C10 UNL     1      10.488  11.200   1.510  1.00  0.00     0.001 C 
HETATM   25  C11 UNL     1      11.756  11.848   0.941  1.00  0.00     0.012 C 
ENDBRANCH   8  21
TORSDOF 4
ENDMDL
MODEL 5
REMARK VINA RESULT: -7.411291911      3.898      6.239
REMARK  4 active torsions:
REMARK  status: ('A' for Active; 'I' for Inactive)
REMARK    1  A    between atoms: C2_2  and  C3_3 
REMARK    2  A    between atoms: N1_5  and  C5_6 
REMARK    3  A    between atoms: C5_6  and  N2_7 
REMARK    4  A    between atoms: C6_14  and  C7_15 
ROOT
HETATM    1  N2  UNL     1      14.149  11.181  -1.255  1.00  0.00    -0.235 N 
HETATM    2  N3  UNL     1      15.356  10.693  -1.094  1.00  0.00    -0.223 N 
ATOM      3  H3  UNL     1      16.174  10.920  -1.659  1.00  0.00     0.210 HD
HETATM    4  N4  UNL     1      15.325   9.865  -0.082  1.00  0.00    -0.227 N 
ATOM      5  H4  UNL     1      16.125   9.339   0.271  1.00  0.00     0.210 HD
HETATM    6  N5  UNL     1      14.108   9.814   0.411  1.00  0.00    -0.272 N 
ATOM      7  H5  UNL     1      13.794   9.252   1.202  1.00  0.00     0.190 HD
HETATM    8  C6  UNL     1      13.362  10.644  -0.326  1.00  0.00     0.121 A 
ENDROOT
BRANCH   1   9
HETATM    9  C5  UNL     1      13.673  12.134  -2.243  1.00  0.00     0.424 C 
BRANCH   9  10
HETATM   10  N1  UNL     1      14.288  13.416  -2.169  1.00  0.00     0.113 N 
HETATM   11  C4  UNL     1      13.278  14.433  -2.282  1.00  0.00     0.280 C 
HETATM   12  C3  UNL     1      13.469  15.210  -3.535  1.00  0.00     0.020 C 
HETATM   13  C17 UNL     1      14.900  14.954  -3.899  1.00  0.00     0.025 C 
HETATM   14  C12 UNL     1      15.241  13.696  -3.180  1.00  0.00     0.229 C 
HETATM   15  C16 UNL     1      15.828  16.095  -3.570  1.00  0.00     0.007 C 
HETATM   16  C13 UNL     1      16.659  13.803  -2.638  1.00  0.00     0.036 C 
HETATM   17  C14 UNL     1      17.567  14.325  -3.713  1.00  0.00     0.002 C 
HETATM   18  C15 UNL     1      17.193  15.715  -4.162  1.00  0.00     0.001 C 
BRANCH  12  19
HETATM   19  C2  UNL     1      13.165  16.659  -3.275  1.00  0.00     0.002 C 
HETATM   20  C1  UNL     1      11.879  16.716  -2.451  1.00  0.00     0.005 C 
ENDBRANCH  12  19
ENDBRANCH   9  10
ENDBRANCH   1   9
BRANCH   8  21
HETATM   21  C7  UNL     1      11.911  10.859  -0.066  1.00  0.00     0.056 C 
HETATM   22  C8  UNL     1      11.333   9.673   0.628  1.00  0.00     0.012 C 
HETATM   23  C9  UNL     1      10.776  10.103   1.951  1.00  0.00     0.001 C 
HETATM   24  C10 UNL     1      10.440  11.558   1.717  1.00  0.00     0.001 C 
HETATM   25  C11 UNL     1      11.658  11.997   0.896  1.00  0.00     0.012 C 
ENDBRANCH   8  21
TORSDOF 4
ENDMDL
