MODEL 1
REMARK VINA RESULT: -6.439686679      0.000      0.000
REMARK  4 active torsions:
REMARK  status: ('A' for Active; 'I' for Inactive)
REMARK    1  A    between atoms: C7_10  and  N2_11 
REMARK    2  A    between atoms: N3_14  and  C10_15 
REMARK    3  A    between atoms: C10_15  and  C11_16 
REMARK    4  A    between atoms: C11_16  and  C12_17 
ROOT
HETATM    1  C1  UNL     1      16.781  10.629   0.602  1.00  0.00     0.033 C 
HETATM    2  C2  UNL     1      16.442  11.851  -0.221  1.00  0.00     0.105 C 
HETATM    3  C3  UNL     1      17.682  12.631  -0.484  1.00  0.00     0.036 C 
HETATM    4  C4  UNL     1      18.657  11.931  -1.410  1.00  0.00     0.083 C 
HETATM    5  S1  UNL     1      17.816  11.936  -3.039  1.00  0.00    -0.110 SA
HETATM    6  C5  UNL     1      16.101  11.514  -2.657  1.00  0.00     0.105 A 
HETATM    7  C6  UNL     1      15.058  11.150  -3.487  1.00  0.00     0.143 A 
HETATM    8  N1  UNL     1      14.002  10.940  -2.690  1.00  0.00    -0.199 N 
ATOM      9  H1  UNL     1      13.072  10.658  -2.999  1.00  0.00     0.183 HD
HETATM   10  C7  UNL     1      14.367  11.162  -1.418  1.00  0.00     0.684 A 
HETATM   11  N4  UNL     1      15.667  11.518  -1.396  1.00  0.00    -0.172 N 
ENDROOT
BRANCH  10  12
HETATM   12  N2  UNL     1      13.470  11.026  -0.311  1.00  0.00    -0.208 N 
HETATM   13  C8  UNL     1      13.119   9.753   0.266  1.00  0.00     0.186 C 
HETATM   14  C9  UNL     1      11.642   9.641   0.548  1.00  0.00     0.088 C 
HETATM   15  N3  UNL     1      11.055  10.797   1.077  1.00  0.00    -0.351 N 
HETATM   16  C15 UNL     1      11.440  12.049   0.586  1.00  0.00     0.088 C 
HETATM   17  C16 UNL     1      12.892  12.212   0.265  1.00  0.00     0.186 C 
BRANCH  15  18
HETATM   18  C10 UNL     1      10.264  10.708   2.237  1.00  0.00     0.068 C 
BRANCH  18  19
HETATM   19  C11 UNL     1      10.264   9.307   2.846  1.00  0.00     0.049 C 
BRANCH  19  20
HETATM   20  C12 UNL     1      11.289   9.198   3.948  1.00  0.00    -0.010 A 
HETATM   21  C13 UNL     1      11.976   7.878   4.015  1.00  0.00     0.005 A 
HETATM   22  C14 UNL     1      11.013   8.348   5.118  1.00  0.00     0.005 A 
ENDBRANCH  19  20
ENDBRANCH  18  19
ENDBRANCH  15  18
ENDBRANCH  10  12
TORSDOF 4
ENDMDL
MODEL 2
REMARK VINA RESULT: -6.439632544      1.365      2.772
REMARK  4 active torsions:
REMARK  status: ('A' for Active; 'I' for Inactive)
REMARK    1  A    between atoms: C7_10  and  N2_11 
REMARK    2  A    between atoms: N3_14  and  C10_15 
REMARK    3  A    between atoms: C10_15  and  C11_16 
REMARK    4  A    between atoms: C11_16  and  C12_17 
ROOT
HETATM    1  C1  UNL     1      12.560  12.390  -3.471  1.00  0.00     0.033 C 
HETATM    2  C2  UNL     1      13.680  11.373  -3.492  1.00  0.00     0.105 C 
HETATM    3  C3  UNL     1      13.922  10.931  -4.892  1.00  0.00     0.036 C 
HETATM    4  C4  UNL     1      14.507  12.013  -5.780  1.00  0.00     0.083 C 
HETATM    5  S1  UNL     1      16.203  12.261  -5.131  1.00  0.00    -0.110 SA
HETATM    6  C5  UNL     1      15.999  12.244  -3.334  1.00  0.00     0.105 A 
HETATM    7  C6  UNL     1      16.874  12.603  -2.327  1.00  0.00     0.143 A 
HETATM    8  N1  UNL     1      16.219  12.403  -1.176  1.00  0.00    -0.199 N 
ATOM      9  H1  UNL     1      16.594  12.575  -0.243  1.00  0.00     0.183 HD
HETATM   10  C7  UNL     1      14.991  11.941  -1.450  1.00  0.00     0.684 A 
HETATM   11  N4  UNL     1      14.852  11.841  -2.787  1.00  0.00    -0.172 N 
ENDROOT
BRANCH  10  12
HETATM   12  N2  UNL     1      14.031  11.623  -0.436  1.00  0.00    -0.208 N 
HETATM   13  C8  UNL     1      13.855  10.295   0.094  1.00  0.00     0.186 C 
HETATM   14  C9  UNL     1      12.400   9.922   0.229  1.00  0.00     0.088 C 
HETATM   15  N3  UNL     1      11.573  10.945   0.708  1.00  0.00    -0.351 N 
HETATM   16  C15 UNL     1      11.777  12.256   0.266  1.00  0.00     0.088 C 
HETATM   17  C16 UNL     1      13.202  12.677   0.091  1.00  0.00     0.186 C 
BRANCH  15  18
HETATM   18  C10 UNL     1      10.703  10.691   1.785  1.00  0.00     0.068 C 
BRANCH  18  19
HETATM   19  C11 UNL     1      10.782   9.249   2.282  1.00  0.00     0.049 C 
BRANCH  19  20
HETATM   20  C12 UNL     1      11.463   9.178   3.627  1.00  0.00    -0.010 A 
HETATM   21  C13 UNL     1      11.975   7.826   3.983  1.00  0.00     0.005 A 
HETATM   22  C14 UNL     1      10.805   8.474   4.739  1.00  0.00     0.005 A 
ENDBRANCH  19  20
ENDBRANCH  18  19
ENDBRANCH  15  18
ENDBRANCH  10  12
TORSDOF 4
ENDMDL
MODEL 3
REMARK VINA RESULT: -6.404483992      2.094      3.561
REMARK  4 active torsions:
REMARK  status: ('A' for Active; 'I' for Inactive)
REMARK    1  A    between atoms: C7_10  and  N2_11 
REMARK    2  A    between atoms: N3_14  and  C10_15 
REMARK    3  A    between atoms: C10_15  and  C11_16 
REMARK    4  A    between atoms: C11_16  and  C12_17 
ROOT
HETATM    1  C1  UNL     1      17.756  12.958  -2.006  1.00  0.00     0.033 C 
HETATM    2  C2  UNL     1      17.826  11.632  -2.730  1.00  0.00     0.105 C 
HETATM    3  C3  UNL     1      18.906  11.681  -3.752  1.00  0.00     0.036 C 
HETATM    4  C4  UNL     1      20.301  11.753  -3.161  1.00  0.00     0.083 C 
HETATM    5  S1  UNL     1      20.547  10.111  -2.384  1.00  0.00    -0.110 SA
HETATM    6  C5  UNL     1      18.975   9.767  -1.561  1.00  0.00     0.105 A 
HETATM    7  C6  UNL     1      18.638   8.798  -0.636  1.00  0.00     0.143 A 
HETATM    8  N1  UNL     1      17.344   8.991  -0.349  1.00  0.00    -0.199 N 
ATOM      9  H1  UNL     1      16.792   8.435   0.305  1.00  0.00     0.183 HD
HETATM   10  C7  UNL     1      16.892  10.033  -1.061  1.00  0.00     0.684 A 
HETATM   11  N4  UNL     1      17.901  10.516  -1.813  1.00  0.00    -0.172 N 
ENDROOT
BRANCH  10  12
HETATM   12  N2  UNL     1      15.542  10.505  -0.987  1.00  0.00    -0.208 N 
HETATM   13  C8  UNL     1      14.554  10.228  -1.999  1.00  0.00     0.186 C 
HETATM   14  C9  UNL     1      13.736  11.447  -2.346  1.00  0.00     0.088 C 
HETATM   15  N3  UNL     1      13.366  12.238  -1.252  1.00  0.00    -0.351 N 
HETATM   16  C15 UNL     1      14.284  12.454  -0.219  1.00  0.00     0.088 C 
HETATM   17  C16 UNL     1      15.141  11.286   0.155  1.00  0.00     0.186 C 
BRANCH  15  18
HETATM   18  C10 UNL     1      12.020  12.617  -1.090  1.00  0.00     0.068 C 
BRANCH  18  19
HETATM   19  C11 UNL     1      11.459  12.236   0.278  1.00  0.00     0.049 C 
BRANCH  19  20
HETATM   20  C12 UNL     1      10.958  10.812   0.279  1.00  0.00    -0.010 A 
HETATM   21  C13 UNL     1      10.713  10.251   1.636  1.00  0.00     0.005 A 
HETATM   22  C14 UNL     1      11.843   9.729   0.734  1.00  0.00     0.005 A 
ENDBRANCH  19  20
ENDBRANCH  18  19
ENDBRANCH  15  18
ENDBRANCH  10  12
TORSDOF 4
ENDMDL
MODEL 4
REMARK VINA RESULT: -6.351849279      3.345      5.517
REMARK  4 active torsions:
REMARK  status: ('A' for Active; 'I' for Inactive)
REMARK    1  A    between atoms: C7_10  and  N2_11 
REMARK    2  A    between atoms: N3_14  and  C10_15 
REMARK    3  A    between atoms: C10_15  and  C11_16 
REMARK    4  A    between atoms: C11_16  and  C12_17 
ROOT
HETATM    1  C1  UNL     1      20.813  10.243  -1.590  1.00  0.00     0.033 C 
HETATM    2  C2  UNL     1      20.108   8.931  -1.849  1.00  0.00     0.105 C 
HETATM    3  C3  UNL     1      21.044   7.988  -2.520  1.00  0.00     0.036 C 
HETATM    4  C4  UNL     1      22.182   7.525  -1.631  1.00  0.00     0.083 C 
HETATM    5  S1  UNL     1      21.371   6.469  -0.372  1.00  0.00    -0.110 SA
HETATM    6  C5  UNL     1      19.872   7.377   0.072  1.00  0.00     0.105 A 
HETATM    7  C6  UNL     1      18.987   7.195   1.118  1.00  0.00     0.143 A 
HETATM    8  N1  UNL     1      18.053   8.145   0.986  1.00  0.00    -0.199 N 
ATOM      9  H1  UNL     1      17.254   8.282   1.605  1.00  0.00     0.183 HD
HETATM   10  C7  UNL     1      18.340   8.889  -0.092  1.00  0.00     0.684 A 
HETATM   11  N4  UNL     1      19.466   8.415  -0.660  1.00  0.00    -0.172 N 
ENDROOT
BRANCH  10  12
HETATM   12  N2  UNL     1      17.536   9.995  -0.516  1.00  0.00    -0.208 N 
HETATM   13  C8  UNL     1      17.682  11.326   0.018  1.00  0.00     0.186 C 
HETATM   14  C9  UNL     1      16.352  11.969   0.320  1.00  0.00     0.088 C 
HETATM   15  N3  UNL     1      15.357  11.741  -0.639  1.00  0.00    -0.351 N 
HETATM   16  C15 UNL     1      15.248  10.477  -1.229  1.00  0.00     0.088 C 
HETATM   17  C16 UNL     1      16.537   9.779  -1.531  1.00  0.00     0.186 C 
BRANCH  15  18
HETATM   18  C10 UNL     1      14.631  12.828  -1.162  1.00  0.00     0.068 C 
BRANCH  18  19
HETATM   19  C11 UNL     1      13.123  12.589  -1.156  1.00  0.00     0.049 C 
BRANCH  19  20
HETATM   20  C12 UNL     1      12.603  12.460   0.255  1.00  0.00    -0.010 A 
HETATM   21  C13 UNL     1      11.455  11.522   0.401  1.00  0.00     0.005 A 
HETATM   22  C14 UNL     1      11.295  13.037   0.606  1.00  0.00     0.005 A 
ENDBRANCH  19  20
ENDBRANCH  18  19
ENDBRANCH  15  18
ENDBRANCH  10  12
TORSDOF 4
ENDMDL
MODEL 5
REMARK VINA RESULT: -6.349334728      2.953      5.134
REMARK  4 active torsions:
REMARK  status: ('A' for Active; 'I' for Inactive)
REMARK    1  A    between atoms: C7_10  and  N2_11 
REMARK    2  A    between atoms: N3_14  and  C10_15 
REMARK    3  A    between atoms: C10_15  and  C11_16 
REMARK    4  A    between atoms: C11_16  and  C12_17 
ROOT
HETATM    1  C1  UNL     1      20.011  11.177  -1.237  1.00  0.00     0.033 C 
HETATM    2  C2  UNL     1      19.734   9.756  -1.675  1.00  0.00     0.105 C 
HETATM    3  C3  UNL     1      20.907   9.229  -2.423  1.00  0.00     0.036 C 
HETATM    4  C4  UNL     1      22.137   9.022  -1.560  1.00  0.00     0.083 C 
HETATM    5  S1  UNL     1      21.689   7.623  -0.464  1.00  0.00    -0.110 SA
HETATM    6  C5  UNL     1      19.989   7.976   0.037  1.00  0.00     0.105 A 
HETATM    7  C6  UNL     1      19.206   7.407   1.024  1.00  0.00     0.143 A 
HETATM    8  N1  UNL     1      18.028   8.042   0.977  1.00  0.00    -0.199 N 
ATOM      9  H1  UNL     1      17.228   7.854   1.581  1.00  0.00     0.183 HD
HETATM   10  C7  UNL     1      18.071   8.966   0.006  1.00  0.00     0.684 A 
HETATM   11  N4  UNL     1      19.285   8.927  -0.578  1.00  0.00    -0.172 N 
ENDROOT
BRANCH  10  12
HETATM   12  N2  UNL     1      16.968   9.823  -0.308  1.00  0.00    -0.208 N 
HETATM   13  C8  UNL     1      16.312   9.825  -1.591  1.00  0.00     0.186 C 
HETATM   14  C9  UNL     1      16.040  11.221  -2.092  1.00  0.00     0.088 C 
HETATM   15  N3  UNL     1      15.596  12.120  -1.115  1.00  0.00    -0.351 N 
HETATM   16  C15 UNL     1      16.165  12.083   0.162  1.00  0.00     0.088 C 
HETATM   17  C16 UNL     1      16.478  10.724   0.703  1.00  0.00     0.186 C 
BRANCH  15  18
HETATM   18  C10 UNL     1      14.441  12.890  -1.351  1.00  0.00     0.068 C 
BRANCH  18  19
HETATM   19  C11 UNL     1      13.336  12.627  -0.330  1.00  0.00     0.049 C 
BRANCH  19  20
HETATM   20  C12 UNL     1      12.559  11.382  -0.686  1.00  0.00    -0.010 A 
HETATM   21  C13 UNL     1      11.537  10.991   0.324  1.00  0.00     0.005 A 
HETATM   22  C14 UNL     1      12.791  10.139   0.068  1.00  0.00     0.005 A 
ENDBRANCH  19  20
ENDBRANCH  18  19
ENDBRANCH  15  18
ENDBRANCH  10  12
TORSDOF 4
ENDMDL
