MODEL 1
REMARK VINA RESULT: -5.266274260      0.000      0.000
REMARK  4 active torsions:
REMARK  status: ('A' for Active; 'I' for Inactive)
REMARK    1  A    between atoms: C5_6  and  C6_7 
REMARK    2  A    between atoms: C6_7  and  N1_8 
REMARK    3  A    between atoms: N1_8  and  O2_9 
REMARK    4  A    between atoms: N1_8  and  C7_11 
ROOT
HETATM    1  C6  UNL     1     -18.626   8.796  -1.296  1.00  0.00     0.155 C 
ENDROOT
BRANCH   1   2
HETATM    2  C5  UNL     1     -17.699   9.819  -0.722  1.00  0.00     0.164 C 
HETATM    3  C4  UNL     1     -17.115   9.464   0.593  1.00  0.00     0.204 C 
HETATM    4  O1  UNL     1     -17.580  10.418   1.498  1.00  0.00    -0.353 OA
HETATM    5  C2  UNL     1     -17.903  11.489   0.699  1.00  0.00     0.157 C 
HETATM    6  C1  UNL     1     -16.701  12.315   0.286  1.00  0.00     0.078 C 
HETATM    7  C3  UNL     1     -18.935  12.401   1.351  1.00  0.00     0.078 C 
HETATM    8  O3  UNL     1     -18.502  10.938  -0.409  1.00  0.00    -0.347 OA
ENDBRANCH   1   2
BRANCH   1   9
HETATM    9  N1  UNL     1     -18.640   7.525  -0.630  1.00  0.00    -0.189 NA
BRANCH   9  10
HETATM   10  O2  UNL     1     -18.188   6.532  -1.396  1.00  0.00    -0.312 OA
ATOM     11  H2  UNL     1     -17.910   5.774  -0.895  1.00  0.00     0.237 HD
ENDBRANCH   9  10
BRANCH   9  12
HETATM   12  C7  UNL     1     -20.049   7.288  -0.269  1.00  0.00     0.027 C 
HETATM   13  C8  UNL     1     -20.413   5.854  -0.538  1.00  0.00     0.034 C 
HETATM   14  C9  UNL     1     -20.957   8.145  -1.144  1.00  0.00     0.034 C 
HETATM   15  C10 UNL     1     -20.297   7.708   1.156  1.00  0.00     0.034 C 
ENDBRANCH   9  12
ENDBRANCH   1   9
TORSDOF 4
ENDMDL
MODEL 2
REMARK VINA RESULT: -5.264827088      0.066      1.149
REMARK  4 active torsions:
REMARK  status: ('A' for Active; 'I' for Inactive)
REMARK    1  A    between atoms: C5_6  and  C6_7 
REMARK    2  A    between atoms: C6_7  and  N1_8 
REMARK    3  A    between atoms: N1_8  and  O2_9 
REMARK    4  A    between atoms: N1_8  and  C7_11 
ROOT
HETATM    1  C6  UNL     1     -18.636   8.760  -1.312  1.00  0.00     0.155 C 
ENDROOT
BRANCH   1   2
HETATM    2  C5  UNL     1     -17.704   9.771  -0.726  1.00  0.00     0.164 C 
HETATM    3  C4  UNL     1     -17.161   9.420   0.608  1.00  0.00     0.204 C 
HETATM    4  O1  UNL     1     -17.630  10.393   1.490  1.00  0.00    -0.353 OA
HETATM    5  C2  UNL     1     -17.911  11.461   0.671  1.00  0.00     0.157 C 
HETATM    6  C1  UNL     1     -16.682  12.259   0.279  1.00  0.00     0.078 C 
HETATM    7  C3  UNL     1     -18.942  12.400   1.285  1.00  0.00     0.078 C 
HETATM    8  O3  UNL     1     -18.492  10.909  -0.447  1.00  0.00    -0.347 OA
ENDBRANCH   1   2
BRANCH   1   9
HETATM    9  N1  UNL     1     -18.669   7.486  -0.651  1.00  0.00    -0.189 NA
BRANCH   9  10
HETATM   10  O2  UNL     1     -18.199   6.495  -1.408  1.00  0.00    -0.312 OA
ATOM     11  H2  UNL     1     -18.314   5.639  -1.012  1.00  0.00     0.237 HD
ENDBRANCH   9  10
BRANCH   9  12
HETATM   12  C7  UNL     1     -20.089   7.251  -0.329  1.00  0.00     0.027 C 
HETATM   13  C8  UNL     1     -20.957   8.176  -1.135  1.00  0.00     0.034 C 
HETATM   14  C9  UNL     1     -20.345   7.572   1.138  1.00  0.00     0.034 C 
HETATM   15  C10 UNL     1     -20.429   5.796  -0.522  1.00  0.00     0.034 C 
ENDBRANCH   9  12
ENDBRANCH   1   9
TORSDOF 4
ENDMDL
MODEL 3
REMARK VINA RESULT: -5.254049167      0.041      1.133
REMARK  4 active torsions:
REMARK  status: ('A' for Active; 'I' for Inactive)
REMARK    1  A    between atoms: C5_6  and  C6_7 
REMARK    2  A    between atoms: C6_7  and  N1_8 
REMARK    3  A    between atoms: N1_8  and  O2_9 
REMARK    4  A    between atoms: N1_8  and  C7_11 
ROOT
HETATM    1  C6  UNL     1     -18.602   8.802  -1.304  1.00  0.00     0.155 C 
ENDROOT
BRANCH   1   2
HETATM    2  C5  UNL     1     -17.677   9.817  -0.716  1.00  0.00     0.164 C 
HETATM    3  C4  UNL     1     -17.120   9.459   0.611  1.00  0.00     0.204 C 
HETATM    4  O1  UNL     1     -17.593  10.419   1.505  1.00  0.00    -0.353 OA
HETATM    5  C2  UNL     1     -17.891  11.492   0.699  1.00  0.00     0.157 C 
HETATM    6  C1  UNL     1     -16.673  12.305   0.306  1.00  0.00     0.078 C 
HETATM    7  C3  UNL     1     -18.926  12.414   1.330  1.00  0.00     0.078 C 
HETATM    8  O3  UNL     1     -18.474  10.944  -0.420  1.00  0.00    -0.347 OA
ENDBRANCH   1   2
BRANCH   1   9
HETATM    9  N1  UNL     1     -18.643   7.533  -0.636  1.00  0.00    -0.189 NA
BRANCH   9  10
HETATM   10  O2  UNL     1     -18.195   6.531  -1.393  1.00  0.00    -0.312 OA
ATOM     11  H2  UNL     1     -17.252   6.548  -1.509  1.00  0.00     0.237 HD
ENDBRANCH   9  10
BRANCH   9  12
HETATM   12  C7  UNL     1     -20.060   7.317  -0.293  1.00  0.00     0.027 C 
HETATM   13  C8  UNL     1     -20.281   7.590   1.169  1.00  0.00     0.034 C 
HETATM   14  C9  UNL     1     -20.432   5.858  -0.530  1.00  0.00     0.034 C 
HETATM   15  C10 UNL     1     -20.943   8.142  -1.192  1.00  0.00     0.034 C 
ENDBRANCH   9  12
ENDBRANCH   1   9
TORSDOF 4
ENDMDL
MODEL 4
REMARK VINA RESULT: -4.957053246      3.572      5.199
REMARK  4 active torsions:
REMARK  status: ('A' for Active; 'I' for Inactive)
REMARK    1  A    between atoms: C5_6  and  C6_7 
REMARK    2  A    between atoms: C6_7  and  N1_8 
REMARK    3  A    between atoms: N1_8  and  O2_9 
REMARK    4  A    between atoms: N1_8  and  C7_11 
ROOT
HETATM    1  C6  UNL     1     -15.500  11.388   0.709  1.00  0.00     0.155 C 
ENDROOT
BRANCH   1   2
HETATM    2  C5  UNL     1     -14.129  11.671   0.185  1.00  0.00     0.164 C 
HETATM    3  C4  UNL     1     -13.049  10.855   0.790  1.00  0.00     0.204 C 
HETATM    4  O1  UNL     1     -12.206  11.750   1.449  1.00  0.00    -0.353 OA
HETATM    5  C2  UNL     1     -12.448  12.946   0.816  1.00  0.00     0.157 C 
HETATM    6  C1  UNL     1     -11.727  13.082  -0.511  1.00  0.00     0.078 C 
HETATM    7  C3  UNL     1     -12.103  14.141   1.697  1.00  0.00     0.078 C 
HETATM    8  O3  UNL     1     -13.809  12.975   0.620  1.00  0.00    -0.347 OA
ENDBRANCH   1   2
BRANCH   1   9
HETATM    9  N1  UNL     1     -16.580  11.645  -0.200  1.00  0.00    -0.189 NA
BRANCH   9  10
HETATM   10  O2  UNL     1     -16.992  12.912  -0.173  1.00  0.00    -0.312 OA
ATOM     11  H2  UNL     1     -17.768  13.061  -0.700  1.00  0.00     0.237 HD
ENDBRANCH   9  10
BRANCH   9  12
HETATM   12  C7  UNL     1     -17.670  10.747   0.225  1.00  0.00     0.027 C 
HETATM   13  C8  UNL     1     -18.716  11.528   0.971  1.00  0.00     0.034 C 
HETATM   14  C9  UNL     1     -17.129   9.700   1.191  1.00  0.00     0.034 C 
HETATM   15  C10 UNL     1     -18.219  10.001  -0.963  1.00  0.00     0.034 C 
ENDBRANCH   9  12
ENDBRANCH   1   9
TORSDOF 4
ENDMDL
MODEL 5
REMARK VINA RESULT: -4.945903207      3.558      5.043
REMARK  4 active torsions:
REMARK  status: ('A' for Active; 'I' for Inactive)
REMARK    1  A    between atoms: C5_6  and  C6_7 
REMARK    2  A    between atoms: C6_7  and  N1_8 
REMARK    3  A    between atoms: N1_8  and  O2_9 
REMARK    4  A    between atoms: N1_8  and  C7_11 
ROOT
HETATM    1  C6  UNL     1     -15.497  11.333   0.700  1.00  0.00     0.155 C 
ENDROOT
BRANCH   1   2
HETATM    2  C5  UNL     1     -14.133  11.636   0.171  1.00  0.00     0.164 C 
HETATM    3  C4  UNL     1     -13.040  10.829   0.763  1.00  0.00     0.204 C 
HETATM    4  O1  UNL     1     -12.203  11.728   1.425  1.00  0.00    -0.353 OA
HETATM    5  C2  UNL     1     -12.463  12.927   0.803  1.00  0.00     0.157 C 
HETATM    6  C1  UNL     1     -11.751  13.081  -0.527  1.00  0.00     0.078 C 
HETATM    7  C3  UNL     1     -12.127  14.119   1.690  1.00  0.00     0.078 C 
HETATM    8  O3  UNL     1     -13.825  12.941   0.614  1.00  0.00    -0.347 OA
ENDBRANCH   1   2
BRANCH   1   9
HETATM    9  N1  UNL     1     -16.585  11.579  -0.203  1.00  0.00    -0.189 NA
BRANCH   9  10
HETATM   10  O2  UNL     1     -17.024  12.837  -0.157  1.00  0.00    -0.312 OA
ATOM     11  H2  UNL     1     -16.705  13.367  -0.879  1.00  0.00     0.237 HD
ENDBRANCH   9  10
BRANCH   9  12
HETATM   12  C7  UNL     1     -17.654  10.652   0.211  1.00  0.00     0.027 C 
HETATM   13  C8  UNL     1     -18.239   9.972  -0.996  1.00  0.00     0.034 C 
HETATM   14  C9  UNL     1     -18.786  11.431   0.870  1.00  0.00     0.034 C 
HETATM   15  C10 UNL     1     -17.131   9.686   1.243  1.00  0.00     0.034 C 
ENDBRANCH   9  12
ENDBRANCH   1   9
TORSDOF 4
ENDMDL
