MODEL 1
REMARK VINA RESULT: -5.459384895      0.000      0.000
REMARK  3 active torsions:
REMARK  status: ('A' for Active; 'I' for Inactive)
REMARK    1  A    between atoms: C2_2  and  C3_3 
REMARK    2  A    between atoms: C8_10  and  C9_11 
REMARK    3  A    between atoms: C9_11  and  O3_12 
ROOT
HETATM    1  C3  UNL     1     -14.398  11.973   1.697  1.00  0.00    -0.001 C 
HETATM    2  C4  UNL     1     -14.139  10.878   2.738  1.00  0.00     0.022 C 
HETATM    3  C5  UNL     1     -13.433  13.121   1.910  1.00  0.00     0.018 C 
HETATM    4  C6  UNL     1     -12.008  12.708   1.924  1.00  0.00     0.042 C 
HETATM    5  C7  UNL     1     -11.387  12.534   0.578  1.00  0.00     0.228 C 
HETATM    6  O1  UNL     1     -11.822  13.345  -0.435  1.00  0.00    -0.227 OA
HETATM    7  O2  UNL     1     -12.040  12.239  -1.156  1.00  0.00    -0.195 OA
HETATM    8  C8  UNL     1     -11.854  11.320  -0.160  1.00  0.00     0.248 C 
HETATM    9  O4  UNL     1     -12.959  10.712   0.374  1.00  0.00    -0.343 OA
HETATM   10  C10 UNL     1     -14.119  11.443   0.314  1.00  0.00     0.133 C 
HETATM   11  C11 UNL     1     -15.242  10.573  -0.202  1.00  0.00     0.040 C 
ENDROOT
BRANCH   1  12
HETATM   12  C2  UNL     1     -15.769  12.463   1.877  1.00  0.00    -0.025 C 
HETATM   13  C1  UNL     1     -16.190  13.656   1.500  1.00  0.00     0.008 C 
ENDBRANCH   1  12
BRANCH   8  14
HETATM   14  C9  UNL     1     -10.740  10.315  -0.372  1.00  0.00     0.238 C 
BRANCH  14  15
HETATM   15  O3  UNL     1     -10.993   9.588  -1.538  1.00  0.00    -0.395 OA
ATOM     16  H3  UNL     1     -10.299   9.752  -2.166  1.00  0.00     0.209 HD
ENDBRANCH  14  15
ENDBRANCH   8  14
TORSDOF 3
ENDMDL
MODEL 2
REMARK VINA RESULT: -5.441696702      2.754      5.063
REMARK  3 active torsions:
REMARK  status: ('A' for Active; 'I' for Inactive)
REMARK    1  A    between atoms: C2_2  and  C3_3 
REMARK    2  A    between atoms: C8_10  and  C9_11 
REMARK    3  A    between atoms: C9_11  and  O3_12 
ROOT
HETATM    1  C3  UNL     1     -14.106  10.945   0.982  1.00  0.00    -0.001 C 
HETATM    2  C4  UNL     1     -13.903  10.653   2.472  1.00  0.00     0.022 C 
HETATM    3  C5  UNL     1     -15.246  10.105   0.446  1.00  0.00     0.018 C 
HETATM    4  C6  UNL     1     -16.510  10.258   1.209  1.00  0.00     0.042 C 
HETATM    5  C7  UNL     1     -17.324  11.457   0.850  1.00  0.00     0.228 C 
HETATM    6  O1  UNL     1     -17.289  11.887  -0.448  1.00  0.00    -0.227 OA
HETATM    7  O2  UNL     1     -16.969  13.100   0.017  1.00  0.00    -0.195 OA
HETATM    8  C8  UNL     1     -16.745  12.753   1.321  1.00  0.00     0.248 C 
HETATM    9  O4  UNL     1     -15.449  12.680   1.757  1.00  0.00    -0.343 OA
HETATM   10  C10 UNL     1     -14.520  12.382   0.792  1.00  0.00     0.133 C 
HETATM   11  C11 UNL     1     -13.350  13.333   0.902  1.00  0.00     0.040 C 
ENDROOT
BRANCH   1  12
HETATM   12  C2  UNL     1     -12.874  10.586   0.271  1.00  0.00    -0.025 C 
HETATM   13  C1  UNL     1     -12.645   9.407  -0.276  1.00  0.00     0.008 C 
ENDBRANCH   1  12
BRANCH   8  14
HETATM   14  C9  UNL     1     -17.621  13.429   2.357  1.00  0.00     0.238 C 
BRANCH  14  15
HETATM   15  O3  UNL     1     -16.988  14.591   2.807  1.00  0.00    -0.395 OA
ATOM     16  H3  UNL     1     -16.411  14.373   3.529  1.00  0.00     0.209 HD
ENDBRANCH  14  15
ENDBRANCH   8  14
TORSDOF 3
ENDMDL
MODEL 3
REMARK VINA RESULT: -5.236102149      2.057      4.366
REMARK  3 active torsions:
REMARK  status: ('A' for Active; 'I' for Inactive)
REMARK    1  A    between atoms: C2_2  and  C3_3 
REMARK    2  A    between atoms: C8_10  and  C9_11 
REMARK    3  A    between atoms: C9_11  and  O3_12 
ROOT
HETATM    1  C3  UNL     1     -11.994  11.787   0.325  1.00  0.00    -0.001 C 
HETATM    2  C4  UNL     1     -12.286  12.811  -0.776  1.00  0.00     0.022 C 
HETATM    3  C5  UNL     1     -11.321  12.471   1.497  1.00  0.00     0.018 C 
HETATM    4  C6  UNL     1     -12.076  13.636   2.022  1.00  0.00     0.042 C 
HETATM    5  C7  UNL     1     -13.190  13.297   2.956  1.00  0.00     0.228 C 
HETATM    6  O1  UNL     1     -13.038  12.201   3.761  1.00  0.00    -0.227 OA
HETATM    7  O2  UNL     1     -14.215  11.763   3.298  1.00  0.00    -0.195 OA
HETATM    8  C8  UNL     1     -14.378  12.677   2.293  1.00  0.00     0.248 C 
HETATM    9  O4  UNL     1     -14.168  12.264   1.004  1.00  0.00    -0.343 OA
HETATM   10  C10 UNL     1     -13.287  11.222   0.857  1.00  0.00     0.133 C 
HETATM   11  C11 UNL     1     -13.879  10.183  -0.067  1.00  0.00     0.040 C 
ENDROOT
BRANCH   1  12
HETATM   12  C2  UNL     1     -11.086  10.772  -0.220  1.00  0.00    -0.025 C 
HETATM   13  C1  UNL     1     -10.500  10.852  -1.400  1.00  0.00     0.008 C 
ENDBRANCH   1  12
BRANCH   8  14
HETATM   14  C9  UNL     1     -15.608  13.558   2.378  1.00  0.00     0.238 C 
BRANCH  14  15
HETATM   15  O3  UNL     1     -16.747  12.782   2.146  1.00  0.00    -0.395 OA
ATOM     16  H3  UNL     1     -17.325  12.842   2.897  1.00  0.00     0.209 HD
ENDBRANCH  14  15
ENDBRANCH   8  14
TORSDOF 3
ENDMDL
MODEL 4
REMARK VINA RESULT: -5.148113397      1.986      3.404
REMARK  3 active torsions:
REMARK  status: ('A' for Active; 'I' for Inactive)
REMARK    1  A    between atoms: C2_2  and  C3_3 
REMARK    2  A    between atoms: C8_10  and  C9_11 
REMARK    3  A    between atoms: C9_11  and  O3_12 
ROOT
HETATM    1  C3  UNL     1     -15.627  11.199   2.029  1.00  0.00    -0.001 C 
HETATM    2  C4  UNL     1     -16.470  12.166   2.865  1.00  0.00     0.022 C 
HETATM    3  C5  UNL     1     -15.434  11.760   0.635  1.00  0.00     0.018 C 
HETATM    4  C6  UNL     1     -14.869  13.133   0.618  1.00  0.00     0.042 C 
HETATM    5  C7  UNL     1     -13.386  13.207   0.772  1.00  0.00     0.228 C 
HETATM    6  O1  UNL     1     -12.638  12.186   0.252  1.00  0.00    -0.227 OA
HETATM    7  O2  UNL     1     -12.064  12.064   1.454  1.00  0.00    -0.195 OA
HETATM    8  C8  UNL     1     -12.897  12.897   2.150  1.00  0.00     0.248 C 
HETATM    9  O4  UNL     1     -13.830  12.333   2.978  1.00  0.00    -0.343 OA
HETATM   10  C10 UNL     1     -14.247  11.074   2.624  1.00  0.00     0.133 C 
HETATM   11  C11 UNL     1     -14.227  10.172   3.836  1.00  0.00     0.040 C 
ENDROOT
BRANCH   1  12
HETATM   12  C2  UNL     1     -16.347   9.925   1.934  1.00  0.00    -0.025 C 
HETATM   13  C1  UNL     1     -17.181   9.610   0.961  1.00  0.00     0.008 C 
ENDBRANCH   1  12
BRANCH   8  14
HETATM   14  C9  UNL     1     -12.249  14.096   2.812  1.00  0.00     0.238 C 
BRANCH  14  15
HETATM   15  O3  UNL     1     -10.949  13.761   3.200  1.00  0.00    -0.395 OA
ATOM     16  H3  UNL     1     -10.476  13.425   2.448  1.00  0.00     0.209 HD
ENDBRANCH  14  15
ENDBRANCH   8  14
TORSDOF 3
ENDMDL
MODEL 5
REMARK VINA RESULT: -5.133459530      1.797      3.304
REMARK  3 active torsions:
REMARK  status: ('A' for Active; 'I' for Inactive)
REMARK    1  A    between atoms: C2_2  and  C3_3 
REMARK    2  A    between atoms: C8_10  and  C9_11 
REMARK    3  A    between atoms: C9_11  and  O3_12 
ROOT
HETATM    1  C3  UNL     1     -16.247  12.672   1.673  1.00  0.00    -0.001 C 
HETATM    2  C4  UNL     1     -16.656  13.661   0.576  1.00  0.00     0.022 C 
HETATM    3  C5  UNL     1     -16.177  11.272   1.100  1.00  0.00     0.018 C 
HETATM    4  C6  UNL     1     -15.299  11.158  -0.091  1.00  0.00     0.042 C 
HETATM    5  C7  UNL     1     -13.842  11.028   0.207  1.00  0.00     0.228 C 
HETATM    6  O1  UNL     1     -13.480  10.368   1.350  1.00  0.00    -0.227 OA
HETATM    7  O2  UNL     1     -12.747  11.439   1.674  1.00  0.00    -0.195 OA
HETATM    8  C8  UNL     1     -13.205  12.287   0.703  1.00  0.00     0.248 C 
HETATM    9  O4  UNL     1     -14.083  13.273   1.066  1.00  0.00    -0.343 OA
HETATM   10  C10 UNL     1     -14.858  12.994   2.163  1.00  0.00     0.133 C 
HETATM   11  C11 UNL     1     -14.845  14.173   3.108  1.00  0.00     0.040 C 
ENDROOT
BRANCH   1  12
HETATM   12  C2  UNL     1     -17.268  12.705   2.726  1.00  0.00    -0.025 C 
HETATM   13  C1  UNL     1     -17.666  11.651   3.413  1.00  0.00     0.008 C 
ENDBRANCH   1  12
BRANCH   8  14
HETATM   14  C9  UNL     1     -12.168  12.824  -0.265  1.00  0.00     0.238 C 
BRANCH  14  15
HETATM   15  O3  UNL     1     -10.995  13.118   0.435  1.00  0.00    -0.395 OA
ATOM     16  H3  UNL     1     -10.659  13.958   0.144  1.00  0.00     0.209 HD
ENDBRANCH  14  15
ENDBRANCH   8  14
TORSDOF 3
ENDMDL
