MODEL 1
REMARK VINA RESULT: -9.918439629      0.000      0.000
REMARK  10 active torsions:
REMARK  status: ('A' for Active; 'I' for Inactive)
REMARK    1  A    between atoms: N2_6  and  C4_7 
REMARK    2  A    between atoms: C5_11  and  C6_12 
REMARK    3  A    between atoms: C6_12  and  N4_13 
REMARK       I    between atoms: N4_13  and  C7_15 
REMARK    4  A    between atoms: C7_15  and  C8_17 
REMARK    5  A    between atoms: C11_25  and  N8_26 
REMARK       I    between atoms: N8_26  and  C12_28 
REMARK    6  A    between atoms: C12_28  and  C13_30 
REMARK    7  A    between atoms: C16_34  and  N9_35 
REMARK    8  A    between atoms: C16_34  and  C17_39 
REMARK    9  A    between atoms: C19_43  and  O6_44 
REMARK   10  A    between atoms: C20_46  and  O7_47 
ROOT
HETATM    1  C8  UNL     1     -17.464  22.521 -15.482  1.00  0.00     0.200 C 
HETATM    2  N5  UNL     1     -18.635  23.377 -15.445  1.00  0.00    -0.349 N 
ATOM      3  H5  UNL     1     -19.189  23.490 -14.595  1.00  0.00     0.163 HD
HETATM    4  C9  UNL     1     -18.945  23.993 -16.548  1.00  0.00     0.184 C 
HETATM    5  N6  UNL     1     -20.072  24.859 -16.637  1.00  0.00    -0.064 NA
HETATM    6  N7  UNL     1     -18.171  23.835 -17.730  1.00  0.00    -0.363 N 
ATOM      7  H7  UNL     1     -18.549  24.174 -18.615  1.00  0.00     0.162 HD
HETATM    8  C10 UNL     1     -16.849  23.199 -17.719  1.00  0.00     0.150 C 
HETATM    9  C11 UNL     1     -16.404  23.252 -16.248  1.00  0.00     0.134 C 
ENDROOT
BRANCH   1  10
HETATM   10  C7  UNL     1     -17.078  22.072 -14.159  1.00  0.00     0.242 C 
HETATM   11  N4  UNL     1     -17.657  22.670 -13.015  1.00  0.00    -0.357 N 
ATOM     12  H4  UNL     1     -18.344  23.416 -13.129  1.00  0.00     0.162 HD
HETATM   13  O1  UNL     1     -16.241  21.162 -13.992  1.00  0.00    -0.271 OA
BRANCH  11  14
HETATM   14  C6  UNL     1     -17.288  22.236 -11.684  1.00  0.00     0.158 C 
BRANCH  14  15
HETATM   15  C5  UNL     1     -18.147  21.126 -11.182  1.00  0.00     0.237 C 
HETATM   16  N3  UNL     1     -17.690  19.827 -11.673  1.00  0.00    -0.042 N 
HETATM   17  C4  UNL     1     -18.856  19.000 -11.337  1.00  0.00     0.339 C 
ATOM     18  H32 UNL     1     -16.795  19.503 -11.305  1.00  0.00     0.280 HD
ATOM     19  H31 UNL     1     -17.392  19.800 -12.648  1.00  0.00     0.280 HD
HETATM   20  C20 UNL     1     -20.035  19.773 -11.883  1.00  0.00     0.201 C 
HETATM   21  C19 UNL     1     -19.525  21.198 -11.818  1.00  0.00     0.183 C 
BRANCH  17  22
HETATM   22  N2  UNL     1     -18.765  17.677 -11.867  1.00  0.00    -0.253 N 
HETATM   23  C3  UNL     1     -17.644  17.014 -12.194  1.00  0.00     0.204 A 
HETATM   24  N1  UNL     1     -17.979  15.814 -12.650  1.00  0.00    -0.340 N 
HETATM   25  C2  UNL     1     -19.304  15.690 -12.625  1.00  0.00     0.092 A 
ATOM     26  H1  UNL     1     -17.324  15.100 -12.969  1.00  0.00     0.168 HD
HETATM   27  C1  UNL     1     -20.170  14.548 -13.028  1.00  0.00     0.090 C 
HETATM   28  N10 UNL     1     -19.772  16.864 -12.132  1.00  0.00    -0.284 N 
ATOM     29  H10 UNL     1     -20.757  17.086 -11.988  1.00  0.00     0.188 HD
ENDBRANCH  17  22
BRANCH  20  30
HETATM   30  O7  UNL     1     -20.319  19.392 -13.205  1.00  0.00    -0.389 OA
ATOM     31  H7  UNL     1     -20.562  20.145 -13.731  1.00  0.00     0.210 HD
ENDBRANCH  20  30
BRANCH  21  32
HETATM   32  O6  UNL     1     -20.363  22.021 -11.067  1.00  0.00    -0.391 OA
ATOM     33  H6  UNL     1     -21.210  21.608 -10.946  1.00  0.00     0.210 HD
ENDBRANCH  21  32
ENDBRANCH  14  15
ENDBRANCH  11  14
ENDBRANCH   1  10
BRANCH   9  34
HETATM   34  N8  UNL     1     -15.087  22.780 -16.073  1.00  0.00    -0.352 N 
HETATM   35  C12 UNL     1     -14.019  23.668 -15.848  1.00  0.00     0.222 C 
HETATM   36  O2  UNL     1     -14.247  24.901 -15.801  1.00  0.00    -0.273 OA
ATOM     37  H8  UNL     1     -14.905  21.777 -16.112  1.00  0.00     0.163 HD
BRANCH  35  38
HETATM   38  C13 UNL     1     -12.626  23.209 -15.659  1.00  0.00     0.088 C 
HETATM   39  C14 UNL     1     -11.990  23.810 -14.429  1.00  0.00     0.096 C 
HETATM   40  C15 UNL     1     -10.818  22.903 -14.237  1.00  0.00     0.174 C 
HETATM   41  O3  UNL     1      -9.722  23.214 -13.832  1.00  0.00    -0.295 OA
HETATM   42  C16 UNL     1     -11.272  21.545 -14.644  1.00  0.00     0.270 C 
HETATM   43  C18 UNL     1     -12.586  21.730 -15.337  1.00  0.00     0.073 C 
BRANCH  42  44
HETATM   44  N9  UNL     1     -11.397  20.745 -13.440  1.00  0.00    -0.053 N 
ATOM     45  H93 UNL     1     -11.559  21.308 -12.605  1.00  0.00     0.276 HD
ATOM     46  H92 UNL     1     -12.262  20.207 -13.409  1.00  0.00     0.276 HD
ATOM     47  H91 UNL     1     -10.563  20.161 -13.369  1.00  0.00     0.276 HD
ENDBRANCH  42  44
BRANCH  42  48
HETATM   48  C17 UNL     1     -10.293  20.914 -15.534  1.00  0.00     0.218 C 
HETATM   49  O4  UNL     1      -9.253  20.375 -15.091  1.00  0.00    -0.646 OA
HETATM   50  O5  UNL     1     -10.487  20.891 -16.925  1.00  0.00    -0.646 OA
ENDBRANCH  42  48
ENDBRANCH  35  38
ENDBRANCH   9  34
TORSDOF 10
ENDMDL
MODEL 2
REMARK VINA RESULT: -9.383482891      2.207      3.332
REMARK  10 active torsions:
REMARK  status: ('A' for Active; 'I' for Inactive)
REMARK    1  A    between atoms: N2_6  and  C4_7 
REMARK    2  A    between atoms: C5_11  and  C6_12 
REMARK    3  A    between atoms: C6_12  and  N4_13 
REMARK       I    between atoms: N4_13  and  C7_15 
REMARK    4  A    between atoms: C7_15  and  C8_17 
REMARK    5  A    between atoms: C11_25  and  N8_26 
REMARK       I    between atoms: N8_26  and  C12_28 
REMARK    6  A    between atoms: C12_28  and  C13_30 
REMARK    7  A    between atoms: C16_34  and  N9_35 
REMARK    8  A    between atoms: C16_34  and  C17_39 
REMARK    9  A    between atoms: C19_43  and  O6_44 
REMARK   10  A    between atoms: C20_46  and  O7_47 
ROOT
HETATM    1  C8  UNL     1     -17.509  22.721 -17.178  1.00  0.00     0.200 C 
HETATM    2  N5  UNL     1     -18.846  23.146 -16.809  1.00  0.00    -0.349 N 
ATOM      3  H5  UNL     1     -19.466  22.548 -16.262  1.00  0.00     0.163 HD
HETATM    4  C9  UNL     1     -19.216  24.327 -17.210  1.00  0.00     0.184 C 
HETATM    5  N6  UNL     1     -20.505  24.855 -16.912  1.00  0.00    -0.064 NA
HETATM    6  N7  UNL     1     -18.350  25.158 -17.971  1.00  0.00    -0.363 N 
ATOM      7  H7  UNL     1     -18.737  25.985 -18.427  1.00  0.00     0.162 HD
HETATM    8  C10 UNL     1     -16.920  24.866 -18.123  1.00  0.00     0.150 C 
HETATM    9  C11 UNL     1     -16.598  23.894 -16.977  1.00  0.00     0.134 C 
ENDROOT
BRANCH   1  10
HETATM   10  C7  UNL     1     -17.118  21.504 -16.494  1.00  0.00     0.242 C 
HETATM   11  N4  UNL     1     -17.456  21.322 -15.132  1.00  0.00    -0.357 N 
ATOM     12  H4  UNL     1     -17.973  22.051 -14.640  1.00  0.00     0.162 HD
HETATM   13  O1  UNL     1     -16.486  20.598 -17.074  1.00  0.00    -0.271 OA
BRANCH  11  14
HETATM   14  C6  UNL     1     -17.076  20.114 -14.429  1.00  0.00     0.158 C 
BRANCH  14  15
HETATM   15  C5  UNL     1     -18.075  19.713 -13.397  1.00  0.00     0.237 C 
HETATM   16  N3  UNL     1     -19.081  20.753 -13.188  1.00  0.00    -0.042 N 
HETATM   17  C4  UNL     1     -19.691  20.273 -11.941  1.00  0.00     0.339 C 
ATOM     18  H32 UNL     1     -19.723  20.913 -13.964  1.00  0.00     0.280 HD
ATOM     19  H31 UNL     1     -18.732  21.712 -13.170  1.00  0.00     0.280 HD
HETATM   20  C20 UNL     1     -18.518  19.997 -11.029  1.00  0.00     0.201 C 
HETATM   21  C19 UNL     1     -17.425  19.669 -12.025  1.00  0.00     0.183 C 
BRANCH  17  22
HETATM   22  N2  UNL     1     -20.620  21.206 -11.387  1.00  0.00    -0.253 N 
HETATM   23  C3  UNL     1     -21.005  22.375 -11.922  1.00  0.00     0.204 A 
HETATM   24  N1  UNL     1     -21.879  22.949 -11.105  1.00  0.00    -0.340 N 
HETATM   25  C2  UNL     1     -22.066  22.166 -10.045  1.00  0.00     0.092 A 
ATOM     26  H1  UNL     1     -22.336  23.847 -11.263  1.00  0.00     0.168 HD
HETATM   27  C1  UNL     1     -22.937  22.353  -8.852  1.00  0.00     0.090 C 
HETATM   28  N10 UNL     1     -21.270  21.085 -10.243  1.00  0.00    -0.284 N 
ATOM     29  H10 UNL     1     -21.187  20.295  -9.603  1.00  0.00     0.188 HD
ENDBRANCH  17  22
BRANCH  20  30
HETATM   30  O7  UNL     1     -18.193  21.134 -10.269  1.00  0.00    -0.389 OA
ATOM     31  H7  UNL     1     -17.303  21.080  -9.942  1.00  0.00     0.210 HD
ENDBRANCH  20  30
BRANCH  21  32
HETATM   32  O6  UNL     1     -16.864  18.413 -11.793  1.00  0.00    -0.391 OA
ATOM     33  H6  UNL     1     -15.916  18.463 -11.835  1.00  0.00     0.210 HD
ENDBRANCH  21  32
ENDBRANCH  14  15
ENDBRANCH  11  14
ENDBRANCH   1  10
BRANCH   9  34
HETATM   34  N8  UNL     1     -15.222  23.595 -16.904  1.00  0.00    -0.352 N 
HETATM   35  C12 UNL     1     -14.589  23.379 -15.667  1.00  0.00     0.222 C 
HETATM   36  O2  UNL     1     -15.263  23.454 -14.611  1.00  0.00    -0.273 OA
ATOM     37  H8  UNL     1     -14.676  23.535 -17.763  1.00  0.00     0.163 HD
BRANCH  35  38
HETATM   38  C13 UNL     1     -13.149  23.063 -15.551  1.00  0.00     0.088 C 
HETATM   39  C14 UNL     1     -12.494  23.802 -14.410  1.00  0.00     0.096 C 
HETATM   40  C15 UNL     1     -11.230  23.020 -14.247  1.00  0.00     0.174 C 
HETATM   41  O3  UNL     1     -10.145  23.457 -13.941  1.00  0.00    -0.295 OA
HETATM   42  C16 UNL     1     -11.578  21.601 -14.534  1.00  0.00     0.270 C 
HETATM   43  C18 UNL     1     -12.947  21.619 -15.141  1.00  0.00     0.073 C 
BRANCH  42  44
HETATM   44  N9  UNL     1     -11.546  20.879 -13.277  1.00  0.00    -0.053 N 
ATOM     45  H93 UNL     1     -12.465  20.800 -12.841  1.00  0.00     0.276 HD
ATOM     46  H92 UNL     1     -11.369  19.882 -13.397  1.00  0.00     0.276 HD
ATOM     47  H91 UNL     1     -10.860  21.334 -12.676  1.00  0.00     0.276 HD
ENDBRANCH  42  44
BRANCH  42  48
HETATM   48  C17 UNL     1     -10.605  21.003 -15.452  1.00  0.00     0.218 C 
HETATM   49  O4  UNL     1      -9.536  20.498 -15.038  1.00  0.00    -0.646 OA
HETATM   50  O5  UNL     1     -10.836  20.973 -16.836  1.00  0.00    -0.646 OA
ENDBRANCH  42  48
ENDBRANCH  35  38
ENDBRANCH   9  34
TORSDOF 10
ENDMDL
MODEL 3
REMARK VINA RESULT: -9.365541364      2.826      6.763
REMARK  10 active torsions:
REMARK  status: ('A' for Active; 'I' for Inactive)
REMARK    1  A    between atoms: N2_6  and  C4_7 
REMARK    2  A    between atoms: C5_11  and  C6_12 
REMARK    3  A    between atoms: C6_12  and  N4_13 
REMARK       I    between atoms: N4_13  and  C7_15 
REMARK    4  A    between atoms: C7_15  and  C8_17 
REMARK    5  A    between atoms: C11_25  and  N8_26 
REMARK       I    between atoms: N8_26  and  C12_28 
REMARK    6  A    between atoms: C12_28  and  C13_30 
REMARK    7  A    between atoms: C16_34  and  N9_35 
REMARK    8  A    between atoms: C16_34  and  C17_39 
REMARK    9  A    between atoms: C19_43  and  O6_44 
REMARK   10  A    between atoms: C20_46  and  O7_47 
ROOT
HETATM    1  C8  UNL     1     -18.030  22.333 -13.363  1.00  0.00     0.200 C 
HETATM    2  N5  UNL     1     -19.117  21.539 -12.823  1.00  0.00    -0.349 N 
ATOM      3  H5  UNL     1     -19.919  21.270 -13.394  1.00  0.00     0.163 HD
HETATM    4  C9  UNL     1     -19.020  21.185 -11.575  1.00  0.00     0.184 C 
HETATM    5  N6  UNL     1     -20.023  20.405 -10.931  1.00  0.00    -0.064 NA
HETATM    6  N7  UNL     1     -17.901  21.560 -10.782  1.00  0.00    -0.363 N 
ATOM      7  H7  UNL     1     -17.950  21.433  -9.770  1.00  0.00     0.162 HD
HETATM    8  C10 UNL     1     -16.680  22.123 -11.369  1.00  0.00     0.150 C 
HETATM    9  C11 UNL     1     -16.751  21.740 -12.856  1.00  0.00     0.134 C 
ENDROOT
BRANCH   1  10
HETATM   10  C7  UNL     1     -18.124  22.474 -14.802  1.00  0.00     0.242 C 
HETATM   11  N4  UNL     1     -17.475  21.541 -15.645  1.00  0.00    -0.357 N 
ATOM     12  H4  UNL     1     -16.945  20.773 -15.233  1.00  0.00     0.162 HD
HETATM   13  O1  UNL     1     -18.767  23.403 -15.331  1.00  0.00    -0.271 OA
BRANCH  11  14
HETATM   14  C6  UNL     1     -17.556  21.661 -17.086  1.00  0.00     0.158 C 
BRANCH  14  15
HETATM   15  C5  UNL     1     -16.237  21.962 -17.712  1.00  0.00     0.237 C 
HETATM   16  N3  UNL     1     -15.416  22.815 -16.855  1.00  0.00    -0.042 N 
HETATM   17  C4  UNL     1     -14.381  23.223 -17.813  1.00  0.00     0.339 C 
ATOM     18  H32 UNL     1     -15.078  22.386 -15.993  1.00  0.00     0.280 HD
ATOM     19  H31 UNL     1     -15.907  23.575 -16.382  1.00  0.00     0.280 HD
HETATM   20  C20 UNL     1     -15.153  23.689 -19.026  1.00  0.00     0.201 C 
HETATM   21  C19 UNL     1     -16.420  22.868 -18.917  1.00  0.00     0.183 C 
BRANCH  17  22
HETATM   22  N2  UNL     1     -13.508  24.225 -17.290  1.00  0.00    -0.253 N 
HETATM   23  C3  UNL     1     -12.229  24.441 -17.635  1.00  0.00     0.204 A 
HETATM   24  N1  UNL     1     -11.764  25.462 -16.925  1.00  0.00    -0.340 N 
HETATM   25  C2  UNL     1     -12.726  25.911 -16.122  1.00  0.00     0.092 A 
ATOM     26  H1  UNL     1     -10.820  25.842 -16.985  1.00  0.00     0.168 HD
HETATM   27  C1  UNL     1     -12.714  27.027 -15.137  1.00  0.00     0.090 C 
HETATM   28  N10 UNL     1     -13.804  25.124 -16.368  1.00  0.00    -0.284 N 
ATOM     29  H10 UNL     1     -14.711  25.214 -15.909  1.00  0.00     0.188 HD
ENDBRANCH  17  22
BRANCH  20  30
HETATM   30  O7  UNL     1     -15.427  25.065 -18.949  1.00  0.00    -0.389 OA
ATOM     31  H7  UNL     1     -16.040  25.328 -19.625  1.00  0.00     0.210 HD
ENDBRANCH  20  30
BRANCH  21  32
HETATM   32  O6  UNL     1     -16.653  22.109 -20.064  1.00  0.00    -0.391 OA
ATOM     33  H6  UNL     1     -17.229  21.379 -19.866  1.00  0.00     0.210 HD
ENDBRANCH  21  32
ENDBRANCH  14  15
ENDBRANCH  11  14
ENDBRANCH   1  10
BRANCH   9  34
HETATM   34  N8  UNL     1     -15.585  22.109 -13.556  1.00  0.00    -0.352 N 
HETATM   35  C12 UNL     1     -14.399  21.360 -13.443  1.00  0.00     0.222 C 
HETATM   36  O2  UNL     1     -14.383  20.346 -12.705  1.00  0.00    -0.273 OA
ATOM     37  H8  UNL     1     -15.600  22.934 -14.156  1.00  0.00     0.163 HD
BRANCH  35  38
HETATM   38  C13 UNL     1     -13.158  21.717 -14.163  1.00  0.00     0.088 C 
HETATM   39  C14 UNL     1     -12.580  23.027 -13.686  1.00  0.00     0.096 C 
HETATM   40  C15 UNL     1     -11.188  22.942 -14.224  1.00  0.00     0.174 C 
HETATM   41  O3  UNL     1     -10.520  23.856 -14.648  1.00  0.00    -0.295 OA
HETATM   42  C16 UNL     1     -10.793  21.509 -14.132  1.00  0.00     0.270 C 
HETATM   43  C18 UNL     1     -12.044  20.747 -13.826  1.00  0.00     0.073 C 
BRANCH  42  44
HETATM   44  N9  UNL     1      -9.808  21.393 -13.074  1.00  0.00    -0.053 N 
ATOM     45  H93 UNL     1      -9.445  20.445 -12.972  1.00  0.00     0.276 HD
ATOM     46  H92 UNL     1      -8.926  21.851 -13.301  1.00  0.00     0.276 HD
ATOM     47  H91 UNL     1     -10.232  21.750 -12.217  1.00  0.00     0.276 HD
ENDBRANCH  42  44
BRANCH  42  48
HETATM   48  C17 UNL     1     -10.195  21.053 -15.391  1.00  0.00     0.218 C 
HETATM   49  O4  UNL     1      -9.076  20.491 -15.420  1.00  0.00    -0.646 OA
HETATM   50  O5  UNL     1     -10.859  21.231 -16.615  1.00  0.00    -0.646 OA
ENDBRANCH  42  48
ENDBRANCH  35  38
ENDBRANCH   9  34
TORSDOF 10
ENDMDL
MODEL 4
REMARK VINA RESULT: -9.354248978      3.050      7.314
REMARK  10 active torsions:
REMARK  status: ('A' for Active; 'I' for Inactive)
REMARK    1  A    between atoms: N2_6  and  C4_7 
REMARK    2  A    between atoms: C5_11  and  C6_12 
REMARK    3  A    between atoms: C6_12  and  N4_13 
REMARK       I    between atoms: N4_13  and  C7_15 
REMARK    4  A    between atoms: C7_15  and  C8_17 
REMARK    5  A    between atoms: C11_25  and  N8_26 
REMARK       I    between atoms: N8_26  and  C12_28 
REMARK    6  A    between atoms: C12_28  and  C13_30 
REMARK    7  A    between atoms: C16_34  and  N9_35 
REMARK    8  A    between atoms: C16_34  and  C17_39 
REMARK    9  A    between atoms: C19_43  and  O6_44 
REMARK   10  A    between atoms: C20_46  and  O7_47 
ROOT
HETATM    1  C8  UNL     1     -17.936  21.758 -13.275  1.00  0.00     0.200 C 
HETATM    2  N5  UNL     1     -18.953  20.825 -12.826  1.00  0.00    -0.349 N 
ATOM      3  H5  UNL     1     -19.584  20.364 -13.482  1.00  0.00     0.163 HD
HETATM    4  C9  UNL     1     -19.020  20.605 -11.546  1.00  0.00     0.184 C 
HETATM    5  N6  UNL     1     -19.976  19.711 -10.983  1.00  0.00    -0.064 NA
HETATM    6  N7  UNL     1     -18.139  21.247 -10.634  1.00  0.00    -0.363 N 
ATOM      7  H7  UNL     1     -18.344  21.201  -9.636  1.00  0.00     0.162 HD
HETATM    8  C10 UNL     1     -16.945  21.974 -11.081  1.00  0.00     0.150 C 
HETATM    9  C11 UNL     1     -16.686  21.457 -12.506  1.00  0.00     0.134 C 
ENDROOT
BRANCH   1  10
HETATM   10  C7  UNL     1     -17.795  21.753 -14.717  1.00  0.00     0.242 C 
HETATM   11  N4  UNL     1     -17.977  22.952 -15.447  1.00  0.00    -0.357 N 
ATOM     12  H4  UNL     1     -18.207  23.814 -14.951  1.00  0.00     0.162 HD
HETATM   13  O1  UNL     1     -17.515  20.714 -15.348  1.00  0.00    -0.271 OA
BRANCH  11  14
HETATM   14  C6  UNL     1     -17.840  22.972 -16.888  1.00  0.00     0.158 C 
BRANCH  14  15
HETATM   15  C5  UNL     1     -19.031  23.556 -17.571  1.00  0.00     0.237 C 
HETATM   16  N3  UNL     1     -18.806  23.709 -19.008  1.00  0.00    -0.042 N 
HETATM   17  C4  UNL     1     -19.934  24.583 -19.352  1.00  0.00     0.339 C 
ATOM     18  H32 UNL     1     -18.737  22.842 -19.541  1.00  0.00     0.280 HD
ATOM     19  H31 UNL     1     -17.883  24.047 -19.279  1.00  0.00     0.280 HD
HETATM   20  C20 UNL     1     -19.870  25.700 -18.335  1.00  0.00     0.201 C 
HETATM   21  C19 UNL     1     -19.215  25.006 -17.159  1.00  0.00     0.183 C 
BRANCH  17  22
HETATM   22  N2  UNL     1     -19.876  25.054 -20.699  1.00  0.00    -0.253 N 
HETATM   23  C3  UNL     1     -20.915  25.353 -21.496  1.00  0.00     0.204 A 
HETATM   24  N1  UNL     1     -20.447  25.756 -22.670  1.00  0.00    -0.340 N 
HETATM   25  C2  UNL     1     -19.117  25.722 -22.646  1.00  0.00     0.092 A 
ATOM     26  H1  UNL     1     -21.017  26.046 -23.465  1.00  0.00     0.168 HD
HETATM   27  C1  UNL     1     -18.127  26.074 -23.702  1.00  0.00     0.090 C 
HETATM   28  N10 UNL     1     -18.784  25.282 -21.407  1.00  0.00    -0.284 N 
ATOM     29  H10 UNL     1     -17.830  25.147 -21.072  1.00  0.00     0.188 HD
ENDBRANCH  17  22
BRANCH  20  30
HETATM   30  O7  UNL     1     -19.082  26.764 -18.805  1.00  0.00    -0.389 OA
ATOM     31  H7  UNL     1     -18.839  27.346 -18.095  1.00  0.00     0.210 HD
ENDBRANCH  20  30
BRANCH  21  32
HETATM   32  O6  UNL     1     -19.992  25.087 -16.003  1.00  0.00    -0.391 OA
ATOM     33  H6  UNL     1     -20.527  24.307 -15.910  1.00  0.00     0.210 HD
ENDBRANCH  21  32
ENDBRANCH  14  15
ENDBRANCH  11  14
ENDBRANCH   1  10
BRANCH   9  34
HETATM   34  N8  UNL     1     -15.493  21.974 -13.050  1.00  0.00    -0.352 N 
HETATM   35  C12 UNL     1     -14.272  21.289 -12.911  1.00  0.00     0.222 C 
HETATM   36  O2  UNL     1     -14.249  20.198 -12.291  1.00  0.00    -0.273 OA
ATOM     37  H8  UNL     1     -15.515  22.861 -13.553  1.00  0.00     0.163 HD
BRANCH  35  38
HETATM   38  C13 UNL     1     -13.001  21.800 -13.469  1.00  0.00     0.088 C 
HETATM   39  C14 UNL     1     -11.906  20.762 -13.433  1.00  0.00     0.096 C 
HETATM   40  C15 UNL     1     -10.922  21.347 -14.394  1.00  0.00     0.174 C 
HETATM   41  O3  UNL     1      -9.716  21.291 -14.318  1.00  0.00    -0.295 OA
HETATM   42  C16 UNL     1     -11.724  22.010 -15.459  1.00  0.00     0.270 C 
HETATM   43  C18 UNL     1     -13.133  22.059 -14.955  1.00  0.00     0.073 C 
BRANCH  42  44
HETATM   44  N9  UNL     1     -11.600  21.210 -16.662  1.00  0.00    -0.053 N 
ATOM     45  H93 UNL     1     -11.720  21.756 -17.516  1.00  0.00     0.276 HD
ATOM     46  H92 UNL     1     -10.645  20.899 -16.836  1.00  0.00     0.276 HD
ATOM     47  H91 UNL     1     -12.263  20.438 -16.589  1.00  0.00     0.276 HD
ENDBRANCH  42  44
BRANCH  42  48
HETATM   48  C17 UNL     1     -11.216  23.358 -15.730  1.00  0.00     0.218 C 
HETATM   49  O4  UNL     1     -11.071  23.783 -16.899  1.00  0.00    -0.646 OA
HETATM   50  O5  UNL     1     -10.871  24.227 -14.682  1.00  0.00    -0.646 OA
ENDBRANCH  42  48
ENDBRANCH  35  38
ENDBRANCH   9  34
TORSDOF 10
ENDMDL
MODEL 5
REMARK VINA RESULT: -9.342686517      4.224      9.005
REMARK  10 active torsions:
REMARK  status: ('A' for Active; 'I' for Inactive)
REMARK    1  A    between atoms: N2_6  and  C4_7 
REMARK    2  A    between atoms: C5_11  and  C6_12 
REMARK    3  A    between atoms: C6_12  and  N4_13 
REMARK       I    between atoms: N4_13  and  C7_15 
REMARK    4  A    between atoms: C7_15  and  C8_17 
REMARK    5  A    between atoms: C11_25  and  N8_26 
REMARK       I    between atoms: N8_26  and  C12_28 
REMARK    6  A    between atoms: C12_28  and  C13_30 
REMARK    7  A    between atoms: C16_34  and  N9_35 
REMARK    8  A    between atoms: C16_34  and  C17_39 
REMARK    9  A    between atoms: C19_43  and  O6_44 
REMARK   10  A    between atoms: C20_46  and  O7_47 
ROOT
HETATM    1  C8  UNL     1     -14.503  24.068 -18.111  1.00  0.00     0.200 C 
HETATM    2  N5  UNL     1     -13.729  25.243 -18.467  1.00  0.00    -0.349 N 
ATOM      3  H5  UNL     1     -14.180  26.116 -18.744  1.00  0.00     0.163 HD
HETATM    4  C9  UNL     1     -12.435  25.129 -18.415  1.00  0.00     0.184 C 
HETATM    5  N6  UNL     1     -11.569  26.212 -18.741  1.00  0.00    -0.064 NA
HETATM    6  N7  UNL     1     -11.811  23.913 -18.027  1.00  0.00    -0.363 N 
ATOM      7  H7  UNL     1     -10.808  23.802 -18.183  1.00  0.00     0.162 HD
HETATM    8  C10 UNL     1     -12.560  22.811 -17.412  1.00  0.00     0.150 C 
HETATM    9  C11 UNL     1     -13.857  23.460 -16.903  1.00  0.00     0.134 C 
ENDROOT
BRANCH   1  10
HETATM   10  C7  UNL     1     -15.914  24.366 -17.979  1.00  0.00     0.242 C 
HETATM   11  N4  UNL     1     -16.400  25.647 -18.334  1.00  0.00    -0.357 N 
ATOM     12  H4  UNL     1     -15.751  26.354 -18.682  1.00  0.00     0.162 HD
HETATM   13  O1  UNL     1     -16.729  23.520 -17.557  1.00  0.00    -0.271 OA
BRANCH  11  14
HETATM   14  C6  UNL     1     -17.807  25.967 -18.211  1.00  0.00     0.158 C 
BRANCH  14  15
HETATM   15  C5  UNL     1     -18.648  25.255 -19.216  1.00  0.00     0.237 C 
HETATM   16  N3  UNL     1     -18.135  25.436 -20.573  1.00  0.00    -0.042 N 
HETATM   17  C4  UNL     1     -19.286  24.956 -21.349  1.00  0.00     0.339 C 
ATOM     18  H32 UNL     1     -17.244  24.983 -20.775  1.00  0.00     0.280 HD
ATOM     19  H31 UNL     1     -17.805  26.374 -20.802  1.00  0.00     0.280 HD
HETATM   20  C20 UNL     1     -20.470  25.688 -20.758  1.00  0.00     0.201 C 
HETATM   21  C19 UNL     1     -20.006  25.925 -19.336  1.00  0.00     0.183 C 
BRANCH  17  22
HETATM   22  N2  UNL     1     -19.137  25.180 -22.751  1.00  0.00    -0.253 N 
HETATM   23  C3  UNL     1     -19.567  24.385 -23.745  1.00  0.00     0.204 A 
HETATM   24  N1  UNL     1     -19.237  24.940 -24.904  1.00  0.00    -0.340 N 
HETATM   25  C2  UNL     1     -18.598  26.085 -24.676  1.00  0.00     0.092 A 
ATOM     26  H1  UNL     1     -19.441  24.551 -25.825  1.00  0.00     0.168 HD
HETATM   27  C1  UNL     1     -18.028  27.075 -25.631  1.00  0.00     0.090 C 
HETATM   28  N10 UNL     1     -18.549  26.214 -23.327  1.00  0.00    -0.284 N 
ATOM     29  H10 UNL     1     -18.120  26.994 -22.829  1.00  0.00     0.188 HD
ENDBRANCH  17  22
BRANCH  20  30
HETATM   30  O7  UNL     1     -20.698  26.901 -21.430  1.00  0.00    -0.389 OA
ATOM     31  H7  UNL     1     -21.620  27.010 -21.632  1.00  0.00     0.210 HD
ENDBRANCH  20  30
BRANCH  21  32
HETATM   32  O6  UNL     1     -20.893  25.395 -18.400  1.00  0.00    -0.391 OA
ATOM     33  H6  UNL     1     -21.314  26.094 -17.912  1.00  0.00     0.210 HD
ENDBRANCH  21  32
ENDBRANCH  14  15
ENDBRANCH  11  14
ENDBRANCH   1  10
BRANCH   9  34
HETATM   34  N8  UNL     1     -14.654  22.554 -16.173  1.00  0.00    -0.352 N 
HETATM   35  C12 UNL     1     -14.833  22.696 -14.785  1.00  0.00     0.222 C 
HETATM   36  O2  UNL     1     -14.271  23.646 -14.189  1.00  0.00    -0.273 OA
ATOM     37  H8  UNL     1     -15.109  21.782 -16.661  1.00  0.00     0.163 HD
BRANCH  35  38
HETATM   38  C13 UNL     1     -15.661  21.766 -13.988  1.00  0.00     0.088 C 
HETATM   39  C14 UNL     1     -15.951  22.303 -12.607  1.00  0.00     0.096 C 
HETATM   40  C15 UNL     1     -17.095  21.435 -12.193  1.00  0.00     0.174 C 
HETATM   41  O3  UNL     1     -17.323  21.023 -11.080  1.00  0.00    -0.295 OA
HETATM   42  C16 UNL     1     -17.892  21.183 -13.425  1.00  0.00     0.270 C 
HETATM   43  C18 UNL     1     -17.053  21.651 -14.573  1.00  0.00     0.073 C 
BRANCH  42  44
HETATM   44  N9  UNL     1     -19.128  21.933 -13.308  1.00  0.00    -0.053 N 
ATOM     45  H93 UNL     1     -19.951  21.334 -13.236  1.00  0.00     0.276 HD
ATOM     46  H92 UNL     1     -19.224  22.402 -12.408  1.00  0.00     0.276 HD
ATOM     47  H91 UNL     1     -19.174  22.577 -14.098  1.00  0.00     0.276 HD
ENDBRANCH  42  44
BRANCH  42  48
HETATM   48  C17 UNL     1     -18.212  19.758 -13.555  1.00  0.00     0.218 C 
HETATM   49  O4  UNL     1     -17.339  18.873 -13.404  1.00  0.00    -0.646 OA
HETATM   50  O5  UNL     1     -19.515  19.331 -13.854  1.00  0.00    -0.646 OA
ENDBRANCH  42  48
ENDBRANCH  35  38
ENDBRANCH   9  34
TORSDOF 10
ENDMDL
