MODEL 1
REMARK VINA RESULT: -9.476296498      0.000      0.000
REMARK  12 active torsions:
REMARK  status: ('A' for Active; 'I' for Inactive)
REMARK    1  A    between atoms: N1_1  and  C1_5 
REMARK    2  A    between atoms: C1_5  and  C2_6 
REMARK    3  A    between atoms: C3_9  and  C4_10 
REMARK    4  A    between atoms: C9_17  and  C10_18 
REMARK    5  A    between atoms: C11_20  and  C12_21 
REMARK    6  A    between atoms: C12_21  and  O5_22 
REMARK    7  A    between atoms: C13_24  and  O6_25 
REMARK    8  A    between atoms: C14_27  and  O7_28 
REMARK    9  A    between atoms: N3_30  and  N4_31 
REMARK   10  A    between atoms: C16_35  and  O8_36 
REMARK   11  A    between atoms: O8_36  and  C17_37 
REMARK   12  A    between atoms: C17_37  and  C18_38 
ROOT
HETATM    1  C2  UNL     1     -18.579  23.987 -18.190  1.00  0.00     0.210 C 
HETATM    2  O1  UNL     1     -18.324  23.017 -17.257  1.00  0.00    -0.266 OA
HETATM    3  N2  UNL     1     -17.022  23.001 -17.041  1.00  0.00    -0.222 N 
HETATM    4  C3  UNL     1     -16.415  22.341 -15.854  1.00  0.00     0.149 C 
HETATM    5  C5  UNL     1     -15.161  21.951 -15.777  1.00  0.00     0.044 A 
HETATM    6  C6  UNL     1     -14.207  22.024 -16.753  1.00  0.00     0.008 A 
HETATM    7  C7  UNL     1     -12.898  21.790 -16.433  1.00  0.00     0.025 A 
HETATM    8  C8  UNL     1     -12.438  21.472 -15.152  1.00  0.00    -0.021 A 
HETATM    9  C9  UNL     1     -11.176  21.276 -14.985  1.00  0.00     0.053 C 
HETATM   10  C11 UNL     1     -13.453  21.414 -14.196  1.00  0.00     0.010 A 
HETATM   11  C13 UNL     1     -14.788  21.644 -14.448  1.00  0.00     0.088 A 
HETATM   12  C14 UNL     1     -14.260  22.307 -18.210  1.00  0.00     0.273 C 
HETATM   13  N3  UNL     1     -15.414  22.775 -18.789  1.00  0.00    -0.273 N 
HETATM   14  C15 UNL     1     -16.237  23.675 -18.041  1.00  0.00     0.265 C 
HETATM   15  C16 UNL     1     -17.284  24.366 -18.869  1.00  0.00     0.200 C 
ENDROOT
BRANCH  15  16
HETATM   16  O8  UNL     1     -17.245  24.051 -20.204  1.00  0.00    -0.377 OA
BRANCH  16  17
HETATM   17  C17 UNL     1     -16.606  25.057 -20.896  1.00  0.00     0.194 C 
BRANCH  17  18
HETATM   18  C18 UNL     1     -17.325  25.494 -22.129  1.00  0.00     0.113 C 
HETATM   19  C19 UNL     1     -16.964  24.610 -23.308  1.00  0.00     0.082 C 
HETATM   20  C20 UNL     1     -17.224  25.271 -24.595  1.00  0.00     0.041 C 
HETATM   21  N5  UNL     1     -16.242  25.029 -25.590  1.00  0.00    -0.106 NA
HETATM   22  C21 UNL     1     -18.233  26.058 -24.967  1.00  0.00     0.113 C 
HETATM   23  N6  UNL     1     -19.358  26.465 -24.163  1.00  0.00    -0.339 N 
HETATM   24  C22 UNL     1     -19.604  26.078 -22.803  1.00  0.00     0.188 C 
ATOM     25  H6  UNL     1     -20.042  27.084 -24.600  1.00  0.00     0.167 HD
HETATM   26  N7  UNL     1     -20.955  26.162 -22.365  1.00  0.00    -0.064 NA
HETATM   27  N8  UNL     1     -18.735  25.666 -21.944  1.00  0.00    -0.357 N 
ATOM     28  H8  UNL     1     -19.096  25.435 -21.018  1.00  0.00     0.162 HD
ENDBRANCH  17  18
ENDBRANCH  16  17
ENDBRANCH  15  16
BRANCH   1  29
HETATM   29  C1  UNL     1     -19.562  23.384 -19.202  1.00  0.00     0.266 C 
BRANCH  29  30
HETATM   30  N1  UNL     1     -19.416  21.929 -19.074  1.00  0.00    -0.077 N 
ATOM     31  H13 UNL     1     -19.043  21.480 -19.910  1.00  0.00     0.274 HD
ATOM     32  H12 UNL     1     -18.668  21.646 -18.440  1.00  0.00     0.274 HD
ATOM     33  H11 UNL     1     -20.337  21.585 -18.801  1.00  0.00     0.274 HD
ENDBRANCH  29  30
ENDBRANCH   1  29
BRANCH  13  34
HETATM   34  N4  UNL     1     -16.120  21.916 -19.617  1.00  0.00    -0.343 N 
ATOM     35  H42 UNL     1     -15.751  20.965 -19.643  1.00  0.00     0.176 HD
ATOM     36  H41 UNL     1     -16.533  22.302 -20.466  1.00  0.00     0.176 HD
ENDBRANCH  13  34
BRANCH   4  37
HETATM   37  C4  UNL     1     -17.423  21.741 -15.041  1.00  0.00     0.230 C 
HETATM   38  O2  UNL     1     -17.806  20.622 -14.916  1.00  0.00    -0.643 OA
HETATM   39  O3  UNL     1     -18.124  22.651 -14.190  1.00  0.00    -0.643 OA
ENDBRANCH   4  37
BRANCH  12  40
HETATM   40  O7  UNL     1     -13.885  21.092 -18.836  1.00  0.00    -0.371 OA
ATOM     41  H7  UNL     1     -12.936  21.078 -18.801  1.00  0.00     0.212 HD
ENDBRANCH  12  40
BRANCH  11  42
HETATM   42  O6  UNL     1     -15.719  21.614 -13.505  1.00  0.00    -0.359 OA
ATOM     43  H6  UNL     1     -15.577  21.084 -12.729  1.00  0.00     0.217 HD
ENDBRANCH  11  42
BRANCH  10  44
HETATM   44  C12 UNL     1     -13.060  21.051 -12.814  1.00  0.00     0.206 C 
BRANCH  44  45
HETATM   45  O5  UNL     1     -13.916  20.154 -12.222  1.00  0.00    -0.396 OA
ATOM     46  H5  UNL     1     -13.833  20.121 -11.276  1.00  0.00     0.209 HD
ENDBRANCH  44  45
ENDBRANCH  10  44
BRANCH   9  47
HETATM   47  C10 UNL     1     -10.198  20.958 -14.033  1.00  0.00     0.259 C 
HETATM   48  O4  UNL     1      -9.467  20.042 -13.678  1.00  0.00    -0.302 OA
ENDBRANCH   9  47
TORSDOF 12
ENDMDL
MODEL 2
REMARK VINA RESULT: -9.394588875      0.631      1.716
REMARK  12 active torsions:
REMARK  status: ('A' for Active; 'I' for Inactive)
REMARK    1  A    between atoms: N1_1  and  C1_5 
REMARK    2  A    between atoms: C1_5  and  C2_6 
REMARK    3  A    between atoms: C3_9  and  C4_10 
REMARK    4  A    between atoms: C9_17  and  C10_18 
REMARK    5  A    between atoms: C11_20  and  C12_21 
REMARK    6  A    between atoms: C12_21  and  O5_22 
REMARK    7  A    between atoms: C13_24  and  O6_25 
REMARK    8  A    between atoms: C14_27  and  O7_28 
REMARK    9  A    between atoms: N3_30  and  N4_31 
REMARK   10  A    between atoms: C16_35  and  O8_36 
REMARK   11  A    between atoms: O8_36  and  C17_37 
REMARK   12  A    between atoms: C17_37  and  C18_38 
ROOT
HETATM    1  C2  UNL     1     -18.364  23.933 -18.425  1.00  0.00     0.210 C 
HETATM    2  O1  UNL     1     -18.123  23.017 -17.435  1.00  0.00    -0.266 OA
HETATM    3  N2  UNL     1     -16.818  22.969 -17.242  1.00  0.00    -0.222 N 
HETATM    4  C3  UNL     1     -16.211  22.367 -16.025  1.00  0.00     0.149 C 
HETATM    5  C5  UNL     1     -14.970  21.937 -15.945  1.00  0.00     0.044 A 
HETATM    6  C6  UNL     1     -14.035  21.911 -16.941  1.00  0.00     0.008 A 
HETATM    7  C7  UNL     1     -12.728  21.651 -16.630  1.00  0.00     0.025 A 
HETATM    8  C8  UNL     1     -12.253  21.401 -15.339  1.00  0.00    -0.021 A 
HETATM    9  C9  UNL     1     -10.996  21.171 -15.182  1.00  0.00     0.053 C 
HETATM   10  C11 UNL     1     -13.250  21.444 -14.363  1.00  0.00     0.010 A 
HETATM   11  C13 UNL     1     -14.580  21.705 -14.605  1.00  0.00     0.088 A 
HETATM   12  C14 UNL     1     -14.107  22.098 -18.412  1.00  0.00     0.273 C 
HETATM   13  N3  UNL     1     -15.256  22.569 -19.000  1.00  0.00    -0.273 N 
HETATM   14  C15 UNL     1     -16.031  23.546 -18.299  1.00  0.00     0.265 C 
HETATM   15  C16 UNL     1     -17.070  24.218 -19.152  1.00  0.00     0.200 C 
ENDROOT
BRANCH  15  16
HETATM   16  O8  UNL     1     -17.070  23.815 -20.464  1.00  0.00    -0.377 OA
BRANCH  16  17
HETATM   17  C17 UNL     1     -16.448  24.770 -21.239  1.00  0.00     0.194 C 
BRANCH  17  18
HETATM   18  C18 UNL     1     -17.117  25.013 -22.551  1.00  0.00     0.113 C 
HETATM   19  C19 UNL     1     -18.188  26.080 -22.422  1.00  0.00     0.082 C 
HETATM   20  C20 UNL     1     -19.182  25.998 -23.503  1.00  0.00     0.041 C 
HETATM   21  N5  UNL     1     -20.519  26.239 -23.092  1.00  0.00    -0.106 NA
HETATM   22  C21 UNL     1     -19.021  25.734 -24.799  1.00  0.00     0.113 C 
HETATM   23  N6  UNL     1     -17.781  25.454 -25.480  1.00  0.00    -0.339 N 
HETATM   24  C22 UNL     1     -16.479  25.423 -24.877  1.00  0.00     0.188 C 
ATOM     25  H6  UNL     1     -17.834  25.260 -26.480  1.00  0.00     0.167 HD
HETATM   26  N7  UNL     1     -15.380  25.624 -25.758  1.00  0.00    -0.064 NA
HETATM   27  N8  UNL     1     -16.204  25.236 -23.632  1.00  0.00    -0.357 N 
ATOM     28  H8  UNL     1     -15.214  25.247 -23.386  1.00  0.00     0.162 HD
ENDBRANCH  17  18
ENDBRANCH  16  17
ENDBRANCH  15  16
BRANCH   1  29
HETATM   29  C1  UNL     1     -19.387  23.300 -19.377  1.00  0.00     0.266 C 
BRANCH  29  30
HETATM   30  N1  UNL     1     -19.352  21.860 -19.094  1.00  0.00    -0.077 N 
ATOM     31  H13 UNL     1     -18.466  21.542 -18.702  1.00  0.00     0.274 HD
ATOM     32  H12 UNL     1     -19.939  21.583 -18.308  1.00  0.00     0.274 HD
ATOM     33  H11 UNL     1     -19.599  21.403 -19.972  1.00  0.00     0.274 HD
ENDBRANCH  29  30
ENDBRANCH   1  29
BRANCH  13  34
HETATM   34  N4  UNL     1     -16.009  21.684 -19.755  1.00  0.00    -0.343 N 
ATOM     35  H42 UNL     1     -16.369  20.888 -19.229  1.00  0.00     0.176 HD
ATOM     36  H41 UNL     1     -15.746  21.543 -20.731  1.00  0.00     0.176 HD
ENDBRANCH  13  34
BRANCH   4  37
HETATM   37  C4  UNL     1     -17.222  21.859 -15.155  1.00  0.00     0.230 C 
HETATM   38  O2  UNL     1     -17.653  20.768 -14.961  1.00  0.00    -0.643 OA
HETATM   39  O3  UNL     1     -17.857  22.845 -14.338  1.00  0.00    -0.643 OA
ENDBRANCH   4  37
BRANCH  12  40
HETATM   40  O7  UNL     1     -13.788  20.832 -18.962  1.00  0.00    -0.371 OA
ATOM     41  H7  UNL     1     -14.216  20.815 -19.810  1.00  0.00     0.212 HD
ENDBRANCH  12  40
BRANCH  11  42
HETATM   42  O6  UNL     1     -15.493  21.771 -13.645  1.00  0.00    -0.359 OA
ATOM     43  H6  UNL     1     -15.934  20.976 -13.369  1.00  0.00     0.217 HD
ENDBRANCH  11  42
BRANCH  10  44
HETATM   44  C12 UNL     1     -12.841  21.159 -12.967  1.00  0.00     0.206 C 
BRANCH  44  45
HETATM   45  O5  UNL     1     -13.679  20.280 -12.323  1.00  0.00    -0.396 OA
ATOM     46  H5  UNL     1     -13.565  20.273 -11.380  1.00  0.00     0.209 HD
ENDBRANCH  44  45
ENDBRANCH  10  44
BRANCH   9  47
HETATM   47  C10 UNL     1     -10.010  20.881 -14.229  1.00  0.00     0.259 C 
HETATM   48  O4  UNL     1      -9.315  19.961 -13.817  1.00  0.00    -0.302 OA
ENDBRANCH   9  47
TORSDOF 12
ENDMDL
MODEL 3
REMARK VINA RESULT: -9.125244515      3.504      9.318
REMARK  12 active torsions:
REMARK  status: ('A' for Active; 'I' for Inactive)
REMARK    1  A    between atoms: N1_1  and  C1_5 
REMARK    2  A    between atoms: C1_5  and  C2_6 
REMARK    3  A    between atoms: C3_9  and  C4_10 
REMARK    4  A    between atoms: C9_17  and  C10_18 
REMARK    5  A    between atoms: C11_20  and  C12_21 
REMARK    6  A    between atoms: C12_21  and  O5_22 
REMARK    7  A    between atoms: C13_24  and  O6_25 
REMARK    8  A    between atoms: C14_27  and  O7_28 
REMARK    9  A    between atoms: N3_30  and  N4_31 
REMARK   10  A    between atoms: C16_35  and  O8_36 
REMARK   11  A    between atoms: O8_36  and  C17_37 
REMARK   12  A    between atoms: C17_37  and  C18_38 
ROOT
HETATM    1  C2  UNL     1     -14.619  24.426 -16.653  1.00  0.00     0.210 C 
HETATM    2  O1  UNL     1     -15.583  25.265 -17.145  1.00  0.00    -0.266 OA
HETATM    3  N2  UNL     1     -15.904  24.843 -18.354  1.00  0.00    -0.222 N 
HETATM    4  C3  UNL     1     -17.146  25.275 -19.049  1.00  0.00     0.149 C 
HETATM    5  C5  UNL     1     -17.330  25.219 -20.351  1.00  0.00     0.044 A 
HETATM    6  C6  UNL     1     -16.434  24.814 -21.300  1.00  0.00     0.008 A 
HETATM    7  C7  UNL     1     -16.862  24.595 -22.581  1.00  0.00     0.025 A 
HETATM    8  C8  UNL     1     -18.181  24.757 -23.015  1.00  0.00    -0.021 A 
HETATM    9  C9  UNL     1     -18.452  24.517 -24.251  1.00  0.00     0.053 C 
HETATM   10  C11 UNL     1     -19.052  25.168 -22.006  1.00  0.00     0.010 A 
HETATM   11  C13 UNL     1     -18.689  25.400 -20.697  1.00  0.00     0.088 A 
HETATM   12  C14 UNL     1     -14.973  24.546 -21.273  1.00  0.00     0.273 C 
HETATM   13  N3  UNL     1     -14.296  24.487 -20.080  1.00  0.00    -0.273 N 
HETATM   14  C15 UNL     1     -14.962  23.929 -18.943  1.00  0.00     0.265 C 
HETATM   15  C16 UNL     1     -14.042  23.622 -17.795  1.00  0.00     0.200 C 
ENDROOT
BRANCH  15  16
HETATM   16  O8  UNL     1     -12.718  23.887 -18.046  1.00  0.00    -0.377 OA
BRANCH  16  17
HETATM   17  C17 UNL     1     -12.046  22.704 -18.268  1.00  0.00     0.194 C 
BRANCH  17  18
HETATM   18  C18 UNL     1     -11.255  22.229 -17.096  1.00  0.00     0.113 C 
HETATM   19  C19 UNL     1     -12.124  21.428 -16.145  1.00  0.00     0.082 C 
HETATM   20  C20 UNL     1     -11.559  21.377 -14.788  1.00  0.00     0.041 C 
HETATM   21  N5  UNL     1     -12.517  21.479 -13.747  1.00  0.00    -0.106 NA
HETATM   22  C21 UNL     1     -10.293  21.250 -14.390  1.00  0.00     0.113 C 
HETATM   23  N6  UNL     1      -9.127  21.128 -15.231  1.00  0.00    -0.339 N 
HETATM   24  C22 UNL     1      -9.124  21.106 -16.666  1.00  0.00     0.188 C 
ATOM     25  H6  UNL     1      -8.224  21.051 -14.763  1.00  0.00     0.167 HD
HETATM   26  N7  UNL     1      -7.992  20.497 -17.277  1.00  0.00    -0.064 NA
HETATM   27  N8  UNL     1     -10.031  21.575 -17.452  1.00  0.00    -0.357 N 
ATOM     28  H8  UNL     1      -9.856  21.468 -18.451  1.00  0.00     0.162 HD
ENDBRANCH  17  18
ENDBRANCH  16  17
ENDBRANCH  15  16
BRANCH   1  29
HETATM   29  C1  UNL     1     -13.539  25.312 -16.018  1.00  0.00     0.266 C 
BRANCH  29  30
HETATM   30  N1  UNL     1     -13.035  24.556 -14.866  1.00  0.00    -0.077 N 
ATOM     31  H13 UNL     1     -13.512  23.666 -14.720  1.00  0.00     0.274 HD
ATOM     32  H12 UNL     1     -12.101  24.172 -15.005  1.00  0.00     0.274 HD
ATOM     33  H11 UNL     1     -13.103  25.192 -14.071  1.00  0.00     0.274 HD
ENDBRANCH  29  30
ENDBRANCH   1  29
BRANCH  13  34
HETATM   34  N4  UNL     1     -13.426  25.523 -19.775  1.00  0.00    -0.343 N 
ATOM     35  H42 UNL     1     -13.437  26.289 -20.449  1.00  0.00     0.176 HD
ATOM     36  H41 UNL     1     -12.544  25.288 -19.319  1.00  0.00     0.176 HD
ENDBRANCH  13  34
BRANCH   4  37
HETATM   37  C4  UNL     1     -17.883  26.191 -18.241  1.00  0.00     0.230 C 
HETATM   38  O2  UNL     1     -17.988  27.376 -18.247  1.00  0.00    -0.643 OA
HETATM   39  O3  UNL     1     -18.668  25.583 -17.213  1.00  0.00    -0.643 OA
ENDBRANCH   4  37
BRANCH  12  40
HETATM   40  O7  UNL     1     -14.398  25.554 -22.086  1.00  0.00    -0.371 OA
ATOM     41  H7  UNL     1     -13.820  25.091 -22.681  1.00  0.00     0.212 HD
ENDBRANCH  12  40
BRANCH  11  42
HETATM   42  O6  UNL     1     -19.554  25.756 -19.757  1.00  0.00    -0.359 OA
ATOM     43  H6  UNL     1     -19.494  26.625 -19.377  1.00  0.00     0.217 HD
ENDBRANCH  11  42
BRANCH  10  44
HETATM   44  C12 UNL     1     -20.467  25.396 -22.384  1.00  0.00     0.206 C 
BRANCH  44  45
HETATM   45  O5  UNL     1     -20.870  26.699 -22.225  1.00  0.00    -0.396 OA
ATOM     46  H5  UNL     1     -21.643  26.919 -22.731  1.00  0.00     0.209 HD
ENDBRANCH  44  45
ENDBRANCH  10  44
BRANCH   9  47
HETATM   47  C10 UNL     1     -19.485  24.498 -25.199  1.00  0.00     0.259 C 
HETATM   48  O4  UNL     1     -20.428  23.815 -25.575  1.00  0.00    -0.302 OA
ENDBRANCH   9  47
TORSDOF 12
ENDMDL
MODEL 4
REMARK VINA RESULT: -9.025077980      3.236      9.278
REMARK  12 active torsions:
REMARK  status: ('A' for Active; 'I' for Inactive)
REMARK    1  A    between atoms: N1_1  and  C1_5 
REMARK    2  A    between atoms: C1_5  and  C2_6 
REMARK    3  A    between atoms: C3_9  and  C4_10 
REMARK    4  A    between atoms: C9_17  and  C10_18 
REMARK    5  A    between atoms: C11_20  and  C12_21 
REMARK    6  A    between atoms: C12_21  and  O5_22 
REMARK    7  A    between atoms: C13_24  and  O6_25 
REMARK    8  A    between atoms: C14_27  and  O7_28 
REMARK    9  A    between atoms: N3_30  and  N4_31 
REMARK   10  A    between atoms: C16_35  and  O8_36 
REMARK   11  A    between atoms: O8_36  and  C17_37 
REMARK   12  A    between atoms: C17_37  and  C18_38 
ROOT
HETATM    1  C2  UNL     1     -19.544  24.095 -17.781  1.00  0.00     0.210 C 
HETATM    2  O1  UNL     1     -19.839  24.996 -18.770  1.00  0.00    -0.266 OA
HETATM    3  N2  UNL     1     -19.044  24.744 -19.793  1.00  0.00    -0.222 N 
HETATM    4  C3  UNL     1     -19.306  25.269 -21.159  1.00  0.00     0.149 C 
HETATM    5  C5  UNL     1     -18.393  25.393 -22.099  1.00  0.00     0.044 A 
HETATM    6  C6  UNL     1     -17.058  25.120 -22.001  1.00  0.00     0.008 A 
HETATM    7  C7  UNL     1     -16.294  25.080 -23.135  1.00  0.00     0.025 A 
HETATM    8  C8  UNL     1     -16.779  25.302 -24.427  1.00  0.00    -0.021 A 
HETATM    9  C9  UNL     1     -15.951  25.234 -25.412  1.00  0.00     0.053 C 
HETATM   10  C11 UNL     1     -18.147  25.571 -24.469  1.00  0.00     0.010 A 
HETATM   11  C13 UNL     1     -18.975  25.621 -23.368  1.00  0.00     0.088 A 
HETATM   12  C14 UNL     1     -16.156  24.848 -20.853  1.00  0.00     0.273 C 
HETATM   13  N3  UNL     1     -16.669  24.625 -19.599  1.00  0.00    -0.273 N 
HETATM   14  C15 UNL     1     -17.907  23.918 -19.483  1.00  0.00     0.265 C 
HETATM   15  C16 UNL     1     -18.210  23.455 -18.085  1.00  0.00     0.200 C 
ENDROOT
BRANCH  15  16
HETATM   16  O8  UNL     1     -17.231  23.749 -17.169  1.00  0.00    -0.377 OA
BRANCH  16  17
HETATM   17  C17 UNL     1     -16.417  22.650 -16.996  1.00  0.00     0.194 C 
BRANCH  17  18
HETATM   18  C18 UNL     1     -16.397  22.129 -15.597  1.00  0.00     0.113 C 
HETATM   19  C19 UNL     1     -15.137  22.569 -14.874  1.00  0.00     0.082 C 
HETATM   20  C20 UNL     1     -14.827  21.703 -13.727  1.00  0.00     0.041 C 
HETATM   21  N5  UNL     1     -13.447  21.426 -13.554  1.00  0.00    -0.106 NA
HETATM   22  C21 UNL     1     -15.639  21.144 -12.830  1.00  0.00     0.113 C 
HETATM   23  N6  UNL     1     -17.076  21.258 -12.770  1.00  0.00    -0.339 N 
HETATM   24  C22 UNL     1     -17.898  22.019 -13.668  1.00  0.00     0.188 C 
ATOM     25  H6  UNL     1     -17.551  20.754 -12.021  1.00  0.00     0.167 HD
HETATM   26  N7  UNL     1     -19.173  22.405 -13.170  1.00  0.00    -0.064 NA
HETATM   27  N8  UNL     1     -17.603  22.385 -14.868  1.00  0.00    -0.357 N 
ATOM     28  H8  UNL     1     -18.316  22.924 -15.359  1.00  0.00     0.162 HD
ENDBRANCH  17  18
ENDBRANCH  16  17
ENDBRANCH  15  16
BRANCH   1  29
HETATM   29  C1  UNL     1     -19.474  24.885 -16.467  1.00  0.00     0.266 C 
BRANCH  29  30
HETATM   30  N1  UNL     1     -20.402  24.210 -15.551  1.00  0.00    -0.077 N 
ATOM     31  H13 UNL     1     -21.175  23.742 -16.024  1.00  0.00     0.274 HD
ATOM     32  H12 UNL     1     -20.010  23.378 -15.110  1.00  0.00     0.274 HD
ATOM     33  H11 UNL     1     -20.701  24.924 -14.888  1.00  0.00     0.274 HD
ENDBRANCH  29  30
ENDBRANCH   1  29
BRANCH  13  34
HETATM   34  N4  UNL     1     -16.486  25.608 -18.638  1.00  0.00    -0.343 N 
ATOM     35  H42 UNL     1     -15.897  25.322 -17.856  1.00  0.00     0.176 HD
ATOM     36  H41 UNL     1     -17.259  26.249 -18.456  1.00  0.00     0.176 HD
ENDBRANCH  13  34
BRANCH   4  37
HETATM   37  C4  UNL     1     -20.489  26.067 -21.174  1.00  0.00     0.230 C 
HETATM   38  O2  UNL     1     -20.676  27.242 -21.145  1.00  0.00    -0.643 OA
HETATM   39  O3  UNL     1     -21.709  25.326 -21.243  1.00  0.00    -0.643 OA
ENDBRANCH   4  37
BRANCH  12  40
HETATM   40  O7  UNL     1     -15.275  25.957 -20.805  1.00  0.00    -0.371 OA
ATOM     41  H7  UNL     1     -14.436  25.620 -21.099  1.00  0.00     0.212 HD
ENDBRANCH  12  40
BRANCH  11  42
HETATM   42  O6  UNL     1     -20.279  25.847 -23.451  1.00  0.00    -0.359 OA
ATOM     43  H6  UNL     1     -20.853  25.149 -23.746  1.00  0.00     0.217 HD
ENDBRANCH  11  42
BRANCH  10  44
HETATM   44  C12 UNL     1     -18.742  25.852 -25.797  1.00  0.00     0.206 C 
BRANCH  44  45
HETATM   45  O5  UNL     1     -19.767  24.999 -26.126  1.00  0.00    -0.396 OA
ATOM     46  H5  UNL     1     -19.472  24.131 -26.374  1.00  0.00     0.209 HD
ENDBRANCH  44  45
ENDBRANCH  10  44
BRANCH   9  47
HETATM   47  C10 UNL     1     -15.840  25.347 -26.804  1.00  0.00     0.259 C 
HETATM   48  O4  UNL     1     -15.775  26.182 -27.697  1.00  0.00    -0.302 OA
ENDBRANCH   9  47
TORSDOF 12
ENDMDL
MODEL 5
REMARK VINA RESULT: -8.946253835      3.091      8.966
REMARK  12 active torsions:
REMARK  status: ('A' for Active; 'I' for Inactive)
REMARK    1  A    between atoms: N1_1  and  C1_5 
REMARK    2  A    between atoms: C1_5  and  C2_6 
REMARK    3  A    between atoms: C3_9  and  C4_10 
REMARK    4  A    between atoms: C9_17  and  C10_18 
REMARK    5  A    between atoms: C11_20  and  C12_21 
REMARK    6  A    between atoms: C12_21  and  O5_22 
REMARK    7  A    between atoms: C13_24  and  O6_25 
REMARK    8  A    between atoms: C14_27  and  O7_28 
REMARK    9  A    between atoms: N3_30  and  N4_31 
REMARK   10  A    between atoms: C16_35  and  O8_36 
REMARK   11  A    between atoms: O8_36  and  C17_37 
REMARK   12  A    between atoms: C17_37  and  C18_38 
ROOT
HETATM    1  C2  UNL     1     -15.791  22.601 -15.871  1.00  0.00     0.210 C 
HETATM    2  O1  UNL     1     -16.710  23.581 -16.141  1.00  0.00    -0.266 OA
HETATM    3  N2  UNL     1     -16.803  23.692 -17.453  1.00  0.00    -0.222 N 
HETATM    4  C3  UNL     1     -17.938  24.386 -18.119  1.00  0.00     0.149 C 
HETATM    5  C5  UNL     1     -17.902  24.869 -19.343  1.00  0.00     0.044 A 
HETATM    6  C6  UNL     1     -16.841  24.875 -20.202  1.00  0.00     0.008 A 
HETATM    7  C7  UNL     1     -17.039  25.204 -21.515  1.00  0.00     0.025 A 
HETATM    8  C8  UNL     1     -18.277  25.546 -22.070  1.00  0.00    -0.021 A 
HETATM    9  C9  UNL     1     -18.327  25.834 -23.324  1.00  0.00     0.053 C 
HETATM   10  C11 UNL     1     -19.325  25.519 -21.149  1.00  0.00     0.010 A 
HETATM   11  C13 UNL     1     -19.196  25.192 -19.816  1.00  0.00     0.088 A 
HETATM   12  C14 UNL     1     -15.391  24.602 -20.032  1.00  0.00     0.273 C 
HETATM   13  N3  UNL     1     -14.916  24.052 -18.867  1.00  0.00    -0.273 N 
HETATM   14  C15 UNL     1     -15.724  23.087 -18.187  1.00  0.00     0.265 C 
HETATM   15  C16 UNL     1     -14.988  22.327 -17.120  1.00  0.00     0.200 C 
ENDROOT
BRANCH  15  16
HETATM   16  O8  UNL     1     -13.659  22.654 -17.008  1.00  0.00    -0.377 OA
BRANCH  16  17
HETATM   17  C17 UNL     1     -12.892  21.671 -17.594  1.00  0.00     0.194 C 
BRANCH  17  18
HETATM   18  C18 UNL     1     -11.697  21.279 -16.791  1.00  0.00     0.113 C 
HETATM   19  C19 UNL     1     -10.466  22.041 -17.246  1.00  0.00     0.082 C 
HETATM   20  C20 UNL     1      -9.220  21.358 -16.864  1.00  0.00     0.041 C 
HETATM   21  N5  UNL     1      -8.198  21.405 -17.846  1.00  0.00    -0.106 NA
HETATM   22  C21 UNL     1      -8.908  20.706 -15.744  1.00  0.00     0.113 C 
HETATM   23  N6  UNL     1      -9.752  20.506 -14.592  1.00  0.00    -0.339 N 
HETATM   24  C22 UNL     1     -11.093  20.994 -14.437  1.00  0.00     0.188 C 
ATOM     25  H6  UNL     1      -9.360  19.970 -13.817  1.00  0.00     0.167 HD
HETATM   26  N7  UNL     1     -11.556  21.128 -13.098  1.00  0.00    -0.064 NA
HETATM   27  N8  UNL     1     -11.914  21.321 -15.375  1.00  0.00    -0.357 N 
ATOM     28  H8  UNL     1     -12.831  21.649 -15.073  1.00  0.00     0.162 HD
ENDBRANCH  17  18
ENDBRANCH  16  17
ENDBRANCH  15  16
BRANCH   1  29
HETATM   29  C1  UNL     1     -14.885  23.138 -14.755  1.00  0.00     0.266 C 
BRANCH  29  30
HETATM   30  N1  UNL     1     -14.683  22.012 -13.835  1.00  0.00    -0.077 N 
ATOM     31  H13 UNL     1     -14.359  21.161 -14.294  1.00  0.00     0.274 HD
ATOM     32  H12 UNL     1     -13.881  22.128 -13.215  1.00  0.00     0.274 HD
ATOM     33  H11 UNL     1     -15.569  21.899 -13.341  1.00  0.00     0.274 HD
ENDBRANCH  29  30
ENDBRANCH   1  29
BRANCH  13  34
HETATM   34  N4  UNL     1     -14.172  24.863 -18.023  1.00  0.00    -0.343 N 
ATOM     35  H42 UNL     1     -13.189  24.946 -18.285  1.00  0.00     0.176 HD
ATOM     36  H41 UNL     1     -14.413  24.871 -17.032  1.00  0.00     0.176 HD
ENDBRANCH  13  34
BRANCH   4  37
HETATM   37  C4  UNL     1     -18.852  24.902 -17.151  1.00  0.00     0.230 C 
HETATM   38  O2  UNL     1     -19.028  25.988 -16.699  1.00  0.00    -0.643 OA
HETATM   39  O3  UNL     1     -19.751  23.935 -16.605  1.00  0.00    -0.643 OA
ENDBRANCH   4  37
BRANCH  12  40
HETATM   40  O7  UNL     1     -14.752  25.846 -20.256  1.00  0.00    -0.371 OA
ATOM     41  H7  UNL     1     -13.851  25.628 -20.465  1.00  0.00     0.212 HD
ENDBRANCH  12  40
BRANCH  11  42
HETATM   42  O6  UNL     1     -20.223  25.144 -18.979  1.00  0.00    -0.359 OA
ATOM     43  H6  UNL     1     -20.131  25.521 -18.111  1.00  0.00     0.217 HD
ENDBRANCH  11  42
BRANCH  10  44
HETATM   44  C12 UNL     1     -20.669  25.899 -21.643  1.00  0.00     0.206 C 
BRANCH  44  45
HETATM   45  O5  UNL     1     -21.128  27.082 -21.117  1.00  0.00    -0.396 OA
ATOM     46  H5  UNL     1     -20.668  27.845 -21.447  1.00  0.00     0.209 HD
ENDBRANCH  44  45
ENDBRANCH  10  44
BRANCH   9  47
HETATM   47  C10 UNL     1     -19.188  26.217 -24.362  1.00  0.00     0.259 C 
HETATM   48  O4  UNL     1     -19.772  27.194 -24.812  1.00  0.00    -0.302 OA
ENDBRANCH   9  47
TORSDOF 12
ENDMDL
