MODEL 1
REMARK VINA RESULT: -6.746506767      0.000      0.000
REMARK  14 active torsions:
REMARK  status: ('A' for Active; 'I' for Inactive)
REMARK    1  A    between atoms: C2_2  and  N1_3 
REMARK    2  A    between atoms: C2_2  and  C3_7 
REMARK    3  A    between atoms: C3_7  and  O1_8 
REMARK    4  A    between atoms: C3_7  and  C4_10 
REMARK    5  A    between atoms: C3_7  and  C5_12 
REMARK    6  A    between atoms: C5_12  and  O3_13 
REMARK    7  A    between atoms: C5_12  and  N2_15 
REMARK    8  A    between atoms: N2_15  and  C6_17 
REMARK    9  A    between atoms: C6_17  and  C7_18 
REMARK   10  A    between atoms: C6_17  and  C8_21 
REMARK   11  A    between atoms: C9_23  and  N4_24 
REMARK   12  A    between atoms: C13_33  and  N7_34 
REMARK   13  A    between atoms: C15_40  and  O7_41 
REMARK   14  A    between atoms: C19_47  and  O9_48 
ROOT
HETATM    1  C8  UNL     1      34.662  11.473 -24.638  1.00  0.00     0.164 C 
HETATM    2  O5  UNL     1      34.149  12.296 -25.589  1.00  0.00    -0.355 OA
HETATM    3  C9  UNL     1      33.957  11.743 -26.815  1.00  0.00     0.262 C 
HETATM    4  C15 UNL     1      34.828  10.596 -27.169  1.00  0.00     0.197 C 
HETATM    5  C16 UNL     1      35.837  10.128 -26.241  1.00  0.00     0.163 C 
HETATM    6  O8  UNL     1      37.048   9.887 -26.874  1.00  0.00    -0.383 OA
HETATM    7  C17 UNL     1      38.081   9.702 -25.952  1.00  0.00     0.171 C 
HETATM    8  C18 UNL     1      37.589   9.125 -24.662  1.00  0.00     0.058 C 
HETATM    9  C19 UNL     1      36.729  10.189 -23.933  1.00  0.00     0.129 C 
HETATM   10  C20 UNL     1      36.021  11.005 -25.009  1.00  0.00     0.078 C 
ENDROOT
BRANCH   1  11
HETATM   11  C6  UNL     1      34.422  11.931 -23.258  1.00  0.00     0.198 C 
BRANCH  11  12
HETATM   12  N2  UNL     1      33.158  11.480 -22.792  1.00  0.00    -0.380 N 
ATOM     13  H2  UNL     1      32.322  11.831 -23.259  1.00  0.00     0.156 HD
BRANCH  12  14
HETATM   14  C5  UNL     1      32.995  10.589 -21.738  1.00  0.00     0.258 C 
BRANCH  14  15
HETATM   15  C3  UNL     1      32.585  11.123 -20.403  1.00  0.00     0.181 C 
BRANCH  15  16
HETATM   16  C2  UNL     1      31.643  10.142 -19.691  1.00  0.00     0.225 C 
HETATM   17  C1  UNL     1      32.307   9.489 -18.502  1.00  0.00     0.043 C 
BRANCH  16  18
HETATM   18  N1  UNL     1      31.295   9.057 -20.591  1.00  0.00    -0.072 N 
ATOM     19  H13 UNL     1      31.425   9.286 -21.576  1.00  0.00     0.274 HD
ATOM     20  H12 UNL     1      31.950   8.275 -20.561  1.00  0.00     0.274 HD
ATOM     21  H11 UNL     1      30.338   8.797 -20.354  1.00  0.00     0.274 HD
ENDBRANCH  16  18
ENDBRANCH  15  16
BRANCH  15  22
HETATM   22  O1  UNL     1      31.756  12.245 -20.663  1.00  0.00    -0.376 OA
ATOM     23  H1  UNL     1      32.162  12.941 -20.159  1.00  0.00     0.211 HD
ENDBRANCH  15  22
BRANCH  15  24
HETATM   24  C4  UNL     1      33.631  11.512 -19.485  1.00  0.00     0.275 C 
HETATM   25  O2  UNL     1      34.681  12.061 -19.812  1.00  0.00    -0.303 OA
ENDBRANCH  15  24
ENDBRANCH  14  15
BRANCH  14  26
HETATM   26  O3  UNL     1      34.138   9.762 -21.575  1.00  0.00    -0.373 OA
ATOM     27  H3  UNL     1      33.927   8.882 -21.864  1.00  0.00     0.212 HD
ENDBRANCH  14  26
ENDBRANCH  12  14
ENDBRANCH  11  12
BRANCH  11  28
HETATM   28  C7  UNL     1      34.400  13.430 -23.074  1.00  0.00     0.256 C 
HETATM   29  N3  UNL     1      35.450  14.290 -23.490  1.00  0.00    -0.060 NA
HETATM   30  O4  UNL     1      33.424  14.012 -22.536  1.00  0.00    -0.274 OA
ENDBRANCH  11  28
ENDBRANCH   1  11
BRANCH   3  31
HETATM   31  N4  UNL     1      34.126  12.766 -27.817  1.00  0.00    -0.297 N 
HETATM   32  C10 UNL     1      33.938  12.592 -29.132  1.00  0.00     0.188 A 
HETATM   33  N5  UNL     1      34.179  13.737 -29.794  1.00  0.00    -0.345 N 
HETATM   34  C11 UNL     1      34.520  14.640 -28.892  1.00  0.00     0.147 A 
ATOM     35  H5  UNL     1      34.110  13.881 -30.802  1.00  0.00     0.167 HD
HETATM   36  C12 UNL     1      34.872  15.965 -28.973  1.00  0.00     0.290 A 
HETATM   37  C14 UNL     1      34.491  14.046 -27.654  1.00  0.00     0.159 A 
HETATM   38  O6  UNL     1      34.922  16.590 -30.089  1.00  0.00    -0.265 OA
HETATM   39  N6  UNL     1      35.177  16.637 -27.846  1.00  0.00    -0.154 N 
HETATM   40  C13 UNL     1      35.141  16.030 -26.640  1.00  0.00     0.680 A 
ATOM     41  H6  UNL     1      35.438  17.622 -27.905  1.00  0.00     0.187 HD
HETATM   42  N8  UNL     1      34.798  14.733 -26.545  1.00  0.00    -0.174 N 
ATOM     43  H8  UNL     1      34.772  14.275 -25.634  1.00  0.00     0.186 HD
BRANCH  40  44
HETATM   44  N7  UNL     1      35.450  16.728 -25.571  1.00  0.00    -0.234 N 
ATOM     45  H72 UNL     1      34.958  17.594 -25.349  1.00  0.00     0.174 HD
ATOM     46  H71 UNL     1      36.193  16.389 -24.961  1.00  0.00     0.174 HD
ENDBRANCH  40  44
ENDBRANCH   3  31
BRANCH   9  47
HETATM   47  O9  UNL     1      37.658  10.987 -23.288  1.00  0.00    -0.395 OA
ATOM     48  H9  UNL     1      37.223  11.244 -22.484  1.00  0.00     0.210 HD
ENDBRANCH   9  47
BRANCH   4  49
HETATM   49  O7  UNL     1      35.418  10.779 -28.446  1.00  0.00    -0.389 OA
ATOM     50  H7  UNL     1      36.363  10.851 -28.380  1.00  0.00     0.210 HD
ENDBRANCH   4  49
TORSDOF 14
ENDMDL
MODEL 2
REMARK VINA RESULT: -6.737289712      2.080      7.782
REMARK  14 active torsions:
REMARK  status: ('A' for Active; 'I' for Inactive)
REMARK    1  A    between atoms: C2_2  and  N1_3 
REMARK    2  A    between atoms: C2_2  and  C3_7 
REMARK    3  A    between atoms: C3_7  and  O1_8 
REMARK    4  A    between atoms: C3_7  and  C4_10 
REMARK    5  A    between atoms: C3_7  and  C5_12 
REMARK    6  A    between atoms: C5_12  and  O3_13 
REMARK    7  A    between atoms: C5_12  and  N2_15 
REMARK    8  A    between atoms: N2_15  and  C6_17 
REMARK    9  A    between atoms: C6_17  and  C7_18 
REMARK   10  A    between atoms: C6_17  and  C8_21 
REMARK   11  A    between atoms: C9_23  and  N4_24 
REMARK   12  A    between atoms: C13_33  and  N7_34 
REMARK   13  A    between atoms: C15_40  and  O7_41 
REMARK   14  A    between atoms: C19_47  and  O9_48 
ROOT
HETATM    1  C8  UNL     1      34.005  10.885 -25.875  1.00  0.00     0.164 C 
HETATM    2  O5  UNL     1      33.706  11.591 -24.754  1.00  0.00    -0.355 OA
HETATM    3  C9  UNL     1      34.638  11.563 -23.766  1.00  0.00     0.262 C 
HETATM    4  C15 UNL     1      35.520  10.371 -23.720  1.00  0.00     0.197 C 
HETATM    5  C16 UNL     1      35.356   9.300 -24.682  1.00  0.00     0.163 C 
HETATM    6  O8  UNL     1      35.402   8.053 -24.077  1.00  0.00    -0.383 OA
HETATM    7  C17 UNL     1      34.977   7.045 -24.946  1.00  0.00     0.171 C 
HETATM    8  C18 UNL     1      35.254   7.382 -26.378  1.00  0.00     0.058 C 
HETATM    9  C19 UNL     1      34.329   8.551 -26.805  1.00  0.00     0.129 C 
HETATM   10  C20 UNL     1      34.132   9.436 -25.579  1.00  0.00     0.078 C 
ENDROOT
BRANCH   1  11
HETATM   11  C6  UNL     1      33.243  11.302 -27.066  1.00  0.00     0.198 C 
BRANCH  11  12
HETATM   12  N2  UNL     1      33.469  12.674 -27.352  1.00  0.00    -0.380 N 
ATOM     13  H2  UNL     1      32.992  13.369 -26.777  1.00  0.00     0.156 HD
BRANCH  12  14
HETATM   14  C5  UNL     1      34.301  13.126 -28.369  1.00  0.00     0.258 C 
BRANCH  14  15
HETATM   15  C3  UNL     1      33.859  14.292 -29.195  1.00  0.00     0.181 C 
BRANCH  15  16
HETATM   16  C2  UNL     1      34.893  15.425 -29.134  1.00  0.00     0.225 C 
HETATM   17  C1  UNL     1      34.803  16.196 -27.839  1.00  0.00     0.043 C 
BRANCH  16  18
HETATM   18  N1  UNL     1      34.623  16.390 -30.185  1.00  0.00    -0.072 N 
ATOM     19  H13 UNL     1      34.631  15.986 -31.122  1.00  0.00     0.274 HD
ATOM     20  H12 UNL     1      33.657  16.717 -30.201  1.00  0.00     0.274 HD
ATOM     21  H11 UNL     1      35.305  17.137 -30.055  1.00  0.00     0.274 HD
ENDBRANCH  16  18
ENDBRANCH  15  16
BRANCH  15  22
HETATM   22  O1  UNL     1      32.730  14.841 -28.532  1.00  0.00    -0.376 OA
ATOM     23  H1  UNL     1      32.910  14.674 -27.615  1.00  0.00     0.211 HD
ENDBRANCH  15  22
BRANCH  15  24
HETATM   24  C4  UNL     1      33.520  14.046 -30.578  1.00  0.00     0.275 C 
HETATM   25  O2  UNL     1      34.337  13.879 -31.480  1.00  0.00    -0.303 OA
ENDBRANCH  15  24
ENDBRANCH  14  15
BRANCH  14  26
HETATM   26  O3  UNL     1      34.687  12.067 -29.233  1.00  0.00    -0.373 OA
ATOM     27  H3  UNL     1      35.627  11.942 -29.169  1.00  0.00     0.212 HD
ENDBRANCH  14  26
ENDBRANCH  12  14
ENDBRANCH  11  12
BRANCH  11  28
HETATM   28  C7  UNL     1      31.743  11.162 -26.948  1.00  0.00     0.256 C 
HETATM   29  N3  UNL     1      30.973  10.257 -27.723  1.00  0.00    -0.060 NA
HETATM   30  O4  UNL     1      31.081  11.853 -26.132  1.00  0.00    -0.274 OA
ENDBRANCH  11  28
ENDBRANCH   1  11
BRANCH   3  31
HETATM   31  N4  UNL     1      33.968  11.679 -22.494  1.00  0.00    -0.297 N 
HETATM   32  C10 UNL     1      34.122  12.696 -21.636  1.00  0.00     0.188 A 
HETATM   33  N5  UNL     1      33.361  12.505 -20.544  1.00  0.00    -0.345 N 
HETATM   34  C11 UNL     1      32.722  11.362 -20.714  1.00  0.00     0.147 A 
ATOM     35  H5  UNL     1      33.290  13.126 -19.737  1.00  0.00     0.167 HD
HETATM   36  C12 UNL     1      31.823  10.662 -19.947  1.00  0.00     0.290 A 
HETATM   37  C14 UNL     1      33.092  10.837 -21.928  1.00  0.00     0.159 A 
HETATM   38  O6  UNL     1      31.427  11.085 -18.805  1.00  0.00    -0.265 OA
HETATM   39  N6  UNL     1      31.336   9.492 -20.403  1.00  0.00    -0.154 N 
HETATM   40  C13 UNL     1      31.716   8.996 -21.600  1.00  0.00     0.680 A 
ATOM     41  H6  UNL     1      30.667   8.972 -19.834  1.00  0.00     0.187 HD
HETATM   42  N8  UNL     1      32.596   9.670 -22.363  1.00  0.00    -0.174 N 
ATOM     43  H8  UNL     1      32.884   9.295 -23.267  1.00  0.00     0.186 HD
BRANCH  40  44
HETATM   44  N7  UNL     1      31.215   7.850 -21.998  1.00  0.00    -0.234 N 
ATOM     45  H72 UNL     1      31.358   6.998 -21.456  1.00  0.00     0.174 HD
ATOM     46  H71 UNL     1      30.675   7.823 -22.863  1.00  0.00     0.174 HD
ENDBRANCH  40  44
ENDBRANCH   3  31
BRANCH   9  47
HETATM   47  O9  UNL     1      33.131   7.932 -27.121  1.00  0.00    -0.395 OA
ATOM     48  H9  UNL     1      33.366   7.018 -27.229  1.00  0.00     0.210 HD
ENDBRANCH   9  47
BRANCH   4  49
HETATM   49  O7  UNL     1      35.567   9.821 -22.413  1.00  0.00    -0.389 OA
ATOM     50  H7  UNL     1      36.057   9.007 -22.402  1.00  0.00     0.210 HD
ENDBRANCH   4  49
TORSDOF 14
ENDMDL
MODEL 3
REMARK VINA RESULT: -6.667299646      0.832      1.117
REMARK  14 active torsions:
REMARK  status: ('A' for Active; 'I' for Inactive)
REMARK    1  A    between atoms: C2_2  and  N1_3 
REMARK    2  A    between atoms: C2_2  and  C3_7 
REMARK    3  A    between atoms: C3_7  and  O1_8 
REMARK    4  A    between atoms: C3_7  and  C4_10 
REMARK    5  A    between atoms: C3_7  and  C5_12 
REMARK    6  A    between atoms: C5_12  and  O3_13 
REMARK    7  A    between atoms: C5_12  and  N2_15 
REMARK    8  A    between atoms: N2_15  and  C6_17 
REMARK    9  A    between atoms: C6_17  and  C7_18 
REMARK   10  A    between atoms: C6_17  and  C8_21 
REMARK   11  A    between atoms: C9_23  and  N4_24 
REMARK   12  A    between atoms: C13_33  and  N7_34 
REMARK   13  A    between atoms: C15_40  and  O7_41 
REMARK   14  A    between atoms: C19_47  and  O9_48 
ROOT
HETATM    1  C8  UNL     1      34.903  11.620 -24.329  1.00  0.00     0.164 C 
HETATM    2  O5  UNL     1      34.353  12.401 -25.295  1.00  0.00    -0.355 OA
HETATM    3  C9  UNL     1      34.118  11.794 -26.488  1.00  0.00     0.262 C 
HETATM    4  C15 UNL     1      34.980  10.636 -26.824  1.00  0.00     0.197 C 
HETATM    5  C16 UNL     1      36.024  10.210 -25.914  1.00  0.00     0.163 C 
HETATM    6  O8  UNL     1      37.211   9.944 -26.580  1.00  0.00    -0.383 OA
HETATM    7  C17 UNL     1      38.278   9.800 -25.690  1.00  0.00     0.171 C 
HETATM    8  C18 UNL     1      37.835   9.278 -24.360  1.00  0.00     0.058 C 
HETATM    9  C19 UNL     1      36.998  10.371 -23.646  1.00  0.00     0.129 C 
HETATM   10  C20 UNL     1      36.249  11.139 -24.729  1.00  0.00     0.078 C 
ENDROOT
BRANCH   1  11
HETATM   11  C6  UNL     1      34.712  12.137 -22.962  1.00  0.00     0.198 C 
BRANCH  11  12
HETATM   12  N2  UNL     1      33.599  11.511 -22.340  1.00  0.00    -0.380 N 
ATOM     13  H2  UNL     1      32.671  11.690 -22.725  1.00  0.00     0.156 HD
BRANCH  12  14
HETATM   14  C5  UNL     1      33.699  10.670 -21.238  1.00  0.00     0.258 C 
BRANCH  14  15
HETATM   15  C3  UNL     1      32.443  10.159 -20.607  1.00  0.00     0.181 C 
BRANCH  15  16
HETATM   16  C2  UNL     1      32.766   9.203 -19.450  1.00  0.00     0.225 C 
HETATM   17  C1  UNL     1      31.805   8.040 -19.400  1.00  0.00     0.043 C 
BRANCH  16  18
HETATM   18  N1  UNL     1      32.608   9.898 -18.184  1.00  0.00    -0.072 N 
ATOM     19  H13 UNL     1      33.379   9.742 -17.535  1.00  0.00     0.274 HD
ATOM     20  H12 UNL     1      32.713  10.910 -18.258  1.00  0.00     0.274 HD
ATOM     21  H11 UNL     1      31.701   9.606 -17.821  1.00  0.00     0.274 HD
ENDBRANCH  16  18
ENDBRANCH  15  16
BRANCH  15  22
HETATM   22  O1  UNL     1      31.832   9.314 -21.571  1.00  0.00    -0.376 OA
ATOM     23  H1  UNL     1      31.459   8.615 -21.046  1.00  0.00     0.211 HD
ENDBRANCH  15  22
BRANCH  15  24
HETATM   24  C4  UNL     1      31.476  11.131 -20.152  1.00  0.00     0.275 C 
HETATM   25  O2  UNL     1      31.710  12.326 -19.985  1.00  0.00    -0.303 OA
ENDBRANCH  15  24
ENDBRANCH  14  15
BRANCH  14  26
HETATM   26  O3  UNL     1      34.528  11.230 -20.230  1.00  0.00    -0.373 OA
ATOM     27  H3  UNL     1      35.314  10.702 -20.148  1.00  0.00     0.212 HD
ENDBRANCH  14  26
ENDBRANCH  12  14
ENDBRANCH  11  12
BRANCH  11  28
HETATM   28  C7  UNL     1      34.437  13.619 -22.869  1.00  0.00     0.256 C 
HETATM   29  N3  UNL     1      35.377  14.619 -23.230  1.00  0.00    -0.060 NA
HETATM   30  O4  UNL     1      33.330  14.058 -22.463  1.00  0.00    -0.274 OA
ENDBRANCH  11  28
ENDBRANCH   1  11
BRANCH   3  31
HETATM   31  N4  UNL     1      34.247  12.774 -27.538  1.00  0.00    -0.297 N 
HETATM   32  C10 UNL     1      34.071  12.528 -28.844  1.00  0.00     0.188 A 
HETATM   33  N5  UNL     1      34.265  13.649 -29.561  1.00  0.00    -0.345 N 
HETATM   34  C11 UNL     1      34.564  14.609 -28.704  1.00  0.00     0.147 A 
ATOM     35  H5  UNL     1      34.195  13.741 -30.575  1.00  0.00     0.167 HD
HETATM   36  C12 UNL     1      34.860  15.942 -28.848  1.00  0.00     0.290 A 
HETATM   37  C14 UNL     1      34.556  14.075 -27.438  1.00  0.00     0.159 A 
HETATM   38  O6  UNL     1      34.887  16.514 -29.994  1.00  0.00    -0.265 OA
HETATM   39  N6  UNL     1      35.131  16.681 -27.755  1.00  0.00    -0.154 N 
HETATM   40  C13 UNL     1      35.117  16.132 -26.521  1.00  0.00     0.680 A 
ATOM     41  H6  UNL     1      35.350  17.671 -27.861  1.00  0.00     0.187 HD
HETATM   42  N8  UNL     1      34.829  14.828 -26.363  1.00  0.00    -0.174 N 
ATOM     43  H8  UNL     1      34.819  14.413 -25.431  1.00  0.00     0.186 HD
BRANCH  40  44
HETATM   44  N7  UNL     1      35.392  16.894 -25.487  1.00  0.00    -0.234 N 
ATOM     45  H72 UNL     1      36.080  16.606 -24.791  1.00  0.00     0.174 HD
ATOM     46  H71 UNL     1      34.906  17.786 -25.391  1.00  0.00     0.174 HD
ENDBRANCH  40  44
ENDBRANCH   3  31
BRANCH   9  47
HETATM   47  O9  UNL     1      37.948  11.198 -23.070  1.00  0.00    -0.395 OA
ATOM     48  H9  UNL     1      38.754  10.697 -23.127  1.00  0.00     0.210 HD
ENDBRANCH   9  47
BRANCH   4  49
HETATM   49  O7  UNL     1      35.522  10.764 -28.129  1.00  0.00    -0.389 OA
ATOM     50  H7  UNL     1      34.922  10.426 -28.784  1.00  0.00     0.210 HD
ENDBRANCH   4  49
TORSDOF 14
ENDMDL
MODEL 4
REMARK VINA RESULT: -6.660300901      2.039      2.514
REMARK  14 active torsions:
REMARK  status: ('A' for Active; 'I' for Inactive)
REMARK    1  A    between atoms: C2_2  and  N1_3 
REMARK    2  A    between atoms: C2_2  and  C3_7 
REMARK    3  A    between atoms: C3_7  and  O1_8 
REMARK    4  A    between atoms: C3_7  and  C4_10 
REMARK    5  A    between atoms: C3_7  and  C5_12 
REMARK    6  A    between atoms: C5_12  and  O3_13 
REMARK    7  A    between atoms: C5_12  and  N2_15 
REMARK    8  A    between atoms: N2_15  and  C6_17 
REMARK    9  A    between atoms: C6_17  and  C7_18 
REMARK   10  A    between atoms: C6_17  and  C8_21 
REMARK   11  A    between atoms: C9_23  and  N4_24 
REMARK   12  A    between atoms: C13_33  and  N7_34 
REMARK   13  A    between atoms: C15_40  and  O7_41 
REMARK   14  A    between atoms: C19_47  and  O9_48 
ROOT
HETATM    1  C8  UNL     1      33.866  11.002 -26.032  1.00  0.00     0.164 C 
HETATM    2  O5  UNL     1      33.488  11.991 -26.883  1.00  0.00    -0.355 OA
HETATM    3  C9  UNL     1      33.466  11.664 -28.202  1.00  0.00     0.262 C 
HETATM    4  C15 UNL     1      34.378  10.577 -28.631  1.00  0.00     0.197 C 
HETATM    5  C16 UNL     1      35.250   9.930 -27.672  1.00  0.00     0.163 C 
HETATM    6  O8  UNL     1      36.536   9.774 -28.168  1.00  0.00    -0.383 OA
HETATM    7  C17 UNL     1      37.433   9.406 -27.162  1.00  0.00     0.171 C 
HETATM    8  C18 UNL     1      36.769   8.625 -26.073  1.00  0.00     0.058 C 
HETATM    9  C19 UNL     1      35.816   9.565 -25.291  1.00  0.00     0.129 C 
HETATM   10  C20 UNL     1      35.262  10.574 -26.292  1.00  0.00     0.078 C 
ENDROOT
BRANCH   1  11
HETATM   11  C6  UNL     1      33.438  11.218 -24.637  1.00  0.00     0.198 C 
BRANCH  11  12
HETATM   12  N2  UNL     1      32.671  10.117 -24.172  1.00  0.00    -0.380 N 
ATOM     13  H2  UNL     1      31.984   9.708 -24.806  1.00  0.00     0.156 HD
BRANCH  12  14
HETATM   14  C5  UNL     1      32.801   9.565 -22.903  1.00  0.00     0.258 C 
BRANCH  14  15
HETATM   15  C3  UNL     1      32.268   8.189 -22.660  1.00  0.00     0.181 C 
BRANCH  15  16
HETATM   16  C2  UNL     1      33.325   7.128 -22.999  1.00  0.00     0.225 C 
HETATM   17  C1  UNL     1      32.752   6.018 -23.848  1.00  0.00     0.043 C 
BRANCH  16  18
HETATM   18  N1  UNL     1      33.786   6.490 -21.778  1.00  0.00    -0.072 N 
ATOM     19  H13 UNL     1      33.486   6.969 -20.929  1.00  0.00     0.274 HD
ATOM     20  H12 UNL     1      33.329   5.599 -21.584  1.00  0.00     0.274 HD
ATOM     21  H11 UNL     1      34.799   6.417 -21.871  1.00  0.00     0.274 HD
ENDBRANCH  16  18
ENDBRANCH  15  16
BRANCH  15  22
HETATM   22  O1  UNL     1      31.262   7.976 -23.639  1.00  0.00    -0.376 OA
ATOM     23  H1  UNL     1      30.462   7.940 -23.129  1.00  0.00     0.211 HD
ENDBRANCH  15  22
BRANCH  15  24
HETATM   24  C4  UNL     1      31.722   7.900 -21.354  1.00  0.00     0.275 C 
HETATM   25  O2  UNL     1      32.215   8.272 -20.291  1.00  0.00    -0.303 OA
ENDBRANCH  15  24
ENDBRANCH  14  15
BRANCH  14  26
HETATM   26  O3  UNL     1      32.300  10.438 -21.902  1.00  0.00    -0.373 OA
ATOM     27  H3  UNL     1      31.378  10.598 -22.065  1.00  0.00     0.212 HD
ENDBRANCH  14  26
ENDBRANCH  12  14
ENDBRANCH  11  12
BRANCH  11  28
HETATM   28  C7  UNL     1      32.566  12.431 -24.414  1.00  0.00     0.256 C 
HETATM   29  N3  UNL     1      33.075  13.741 -24.217  1.00  0.00    -0.060 NA
HETATM   30  O4  UNL     1      31.312  12.345 -24.398  1.00  0.00    -0.274 OA
ENDBRANCH  11  28
ENDBRANCH   1  11
BRANCH   3  31
HETATM   31  N4  UNL     1      33.771  12.843 -28.975  1.00  0.00    -0.297 N 
HETATM   32  C10 UNL     1      33.634  12.945 -30.304  1.00  0.00     0.188 A 
HETATM   33  N5  UNL     1      34.003  14.170 -30.719  1.00  0.00    -0.345 N 
HETATM   34  C11 UNL     1      34.375  14.845 -29.646  1.00  0.00     0.147 A 
ATOM     35  H5  UNL     1      33.998  14.513 -31.680  1.00  0.00     0.167 HD
HETATM   36  C12 UNL     1      34.842  16.122 -29.451  1.00  0.00     0.290 A 
HETATM   37  C14 UNL     1      34.234  14.027 -28.551  1.00  0.00     0.159 A 
HETATM   38  O6  UNL     1      35.000  16.944 -30.420  1.00  0.00    -0.265 OA
HETATM   39  N6  UNL     1      35.145  16.531 -28.205  1.00  0.00    -0.154 N 
HETATM   40  C13 UNL     1      34.999  15.707 -27.144  1.00  0.00     0.680 A 
ATOM     41  H6  UNL     1      35.492  17.480 -28.059  1.00  0.00     0.187 HD
HETATM   42  N8  UNL     1      34.543  14.454 -27.319  1.00  0.00    -0.174 N 
ATOM     43  H8  UNL     1      34.432  13.832 -26.518  1.00  0.00     0.186 HD
BRANCH  40  44
HETATM   44  N7  UNL     1      35.312  16.153 -25.949  1.00  0.00    -0.234 N 
ATOM     45  H72 UNL     1      36.281  16.354 -25.701  1.00  0.00     0.174 HD
ATOM     46  H71 UNL     1      34.567  16.299 -25.268  1.00  0.00     0.174 HD
ENDBRANCH  40  44
ENDBRANCH   3  31
BRANCH   9  47
HETATM   47  O9  UNL     1      36.648  10.217 -24.396  1.00  0.00    -0.395 OA
ATOM     48  H9  UNL     1      36.940   9.528 -23.810  1.00  0.00     0.210 HD
ENDBRANCH   9  47
BRANCH   4  49
HETATM   49  O7  UNL     1      35.137  10.965 -29.765  1.00  0.00    -0.389 OA
ATOM     50  H7  UNL     1      35.214  10.251 -30.387  1.00  0.00     0.210 HD
ENDBRANCH   4  49
TORSDOF 14
ENDMDL
MODEL 5
REMARK VINA RESULT: -6.592644445      1.460      1.942
REMARK  14 active torsions:
REMARK  status: ('A' for Active; 'I' for Inactive)
REMARK    1  A    between atoms: C2_2  and  N1_3 
REMARK    2  A    between atoms: C2_2  and  C3_7 
REMARK    3  A    between atoms: C3_7  and  O1_8 
REMARK    4  A    between atoms: C3_7  and  C4_10 
REMARK    5  A    between atoms: C3_7  and  C5_12 
REMARK    6  A    between atoms: C5_12  and  O3_13 
REMARK    7  A    between atoms: C5_12  and  N2_15 
REMARK    8  A    between atoms: N2_15  and  C6_17 
REMARK    9  A    between atoms: C6_17  and  C7_18 
REMARK   10  A    between atoms: C6_17  and  C8_21 
REMARK   11  A    between atoms: C9_23  and  N4_24 
REMARK   12  A    between atoms: C13_33  and  N7_34 
REMARK   13  A    between atoms: C15_40  and  O7_41 
REMARK   14  A    between atoms: C19_47  and  O9_48 
ROOT
HETATM    1  C8  UNL     1      35.257  12.453 -23.046  1.00  0.00     0.164 C 
HETATM    2  O5  UNL     1      34.580  13.038 -24.068  1.00  0.00    -0.355 OA
HETATM    3  C9  UNL     1      34.261  12.227 -25.111  1.00  0.00     0.262 C 
HETATM    4  C15 UNL     1      35.141  11.055 -25.333  1.00  0.00     0.197 C 
HETATM    5  C16 UNL     1      36.286  10.824 -24.476  1.00  0.00     0.163 C 
HETATM    6  O8  UNL     1      37.415  10.484 -25.206  1.00  0.00    -0.383 OA
HETATM    7  C17 UNL     1      38.568  10.529 -24.419  1.00  0.00     0.171 C 
HETATM    8  C18 UNL     1      38.280  10.231 -22.980  1.00  0.00     0.058 C 
HETATM    9  C19 UNL     1      37.465  11.405 -22.379  1.00  0.00     0.129 C 
HETATM   10  C20 UNL     1      36.579  11.951 -23.495  1.00  0.00     0.078 C 
ENDROOT
BRANCH   1  11
HETATM   11  C6  UNL     1      35.173  13.192 -21.773  1.00  0.00     0.198 C 
BRANCH  11  12
HETATM   12  N2  UNL     1      33.884  13.050 -21.194  1.00  0.00    -0.380 N 
ATOM     13  H2  UNL     1      33.175  13.745 -21.425  1.00  0.00     0.156 HD
BRANCH  12  14
HETATM   14  C5  UNL     1      33.533  12.018 -20.331  1.00  0.00     0.258 C 
BRANCH  14  15
HETATM   15  C3  UNL     1      32.337  11.181 -20.661  1.00  0.00     0.181 C 
BRANCH  15  16
HETATM   16  C2  UNL     1      32.724   9.699 -20.767  1.00  0.00     0.225 C 
HETATM   17  C1  UNL     1      33.692   9.453 -21.899  1.00  0.00     0.043 C 
BRANCH  16  18
HETATM   18  N1  UNL     1      31.546   8.909 -21.079  1.00  0.00    -0.072 N 
ATOM     19  H13 UNL     1      31.456   8.681 -22.069  1.00  0.00     0.274 HD
ATOM     20  H12 UNL     1      31.595   7.949 -20.737  1.00  0.00     0.274 HD
ATOM     21  H11 UNL     1      30.755   9.435 -20.707  1.00  0.00     0.274 HD
ENDBRANCH  16  18
ENDBRANCH  15  16
BRANCH  15  22
HETATM   22  O1  UNL     1      31.970  11.522 -21.989  1.00  0.00    -0.376 OA
ATOM     23  H1  UNL     1      32.761  11.352 -22.487  1.00  0.00     0.211 HD
ENDBRANCH  15  22
BRANCH  15  24
HETATM   24  C4  UNL     1      31.178  11.300 -19.807  1.00  0.00     0.275 C 
HETATM   25  O2  UNL     1      30.980  10.625 -18.798  1.00  0.00    -0.303 OA
ENDBRANCH  15  24
ENDBRANCH  14  15
BRANCH  14  26
HETATM   26  O3  UNL     1      33.421  12.476 -18.991  1.00  0.00    -0.373 OA
ATOM     27  H3  UNL     1      33.852  11.856 -18.416  1.00  0.00     0.212 HD
ENDBRANCH  14  26
ENDBRANCH  12  14
ENDBRANCH  11  12
BRANCH  11  28
HETATM   28  C7  UNL     1      35.397  14.682 -21.880  1.00  0.00     0.256 C 
HETATM   29  N3  UNL     1      36.412  15.270 -22.680  1.00  0.00    -0.060 NA
HETATM   30  O4  UNL     1      34.675  15.502 -21.258  1.00  0.00    -0.274 OA
ENDBRANCH  11  28
ENDBRANCH   1  11
BRANCH   3  31
HETATM   31  N4  UNL     1      34.242  13.014 -26.319  1.00  0.00    -0.297 N 
HETATM   32  C10 UNL     1      33.806  12.582 -27.510  1.00  0.00     0.188 A 
HETATM   33  N5  UNL     1      33.922  13.554 -28.432  1.00  0.00    -0.345 N 
HETATM   34  C11 UNL     1      34.434  14.607 -27.819  1.00  0.00     0.147 A 
ATOM     35  H5  UNL     1      33.664  13.491 -29.417  1.00  0.00     0.167 HD
HETATM   36  C12 UNL     1      34.772  15.870 -28.240  1.00  0.00     0.290 A 
HETATM   37  C14 UNL     1      34.638  14.283 -26.500  1.00  0.00     0.159 A 
HETATM   38  O6  UNL     1      34.611  16.249 -29.453  1.00  0.00    -0.265 OA
HETATM   39  N6  UNL     1      35.288  16.745 -27.356  1.00  0.00    -0.154 N 
HETATM   40  C13 UNL     1      35.480  16.401 -26.064  1.00  0.00     0.680 A 
ATOM     41  H6  UNL     1      35.539  17.683 -27.668  1.00  0.00     0.187 HD
HETATM   42  N8  UNL     1      35.154  15.168 -25.636  1.00  0.00    -0.174 N 
ATOM     43  H8  UNL     1      35.299  14.908 -24.661  1.00  0.00     0.186 HD
BRANCH  40  44
HETATM   44  N7  UNL     1      35.990  17.289 -25.243  1.00  0.00    -0.234 N 
ATOM     45  H72 UNL     1      35.574  18.215 -25.145  1.00  0.00     0.174 HD
ATOM     46  H71 UNL     1      36.814  17.037 -24.697  1.00  0.00     0.174 HD
ENDBRANCH  40  44
ENDBRANCH   3  31
BRANCH   9  47
HETATM   47  O9  UNL     1      38.425  12.348 -22.053  1.00  0.00    -0.395 OA
ATOM     48  H9  UNL     1      38.450  12.331 -21.103  1.00  0.00     0.210 HD
ENDBRANCH   9  47
BRANCH   4  49
HETATM   49  O7  UNL     1      35.548  10.972 -26.689  1.00  0.00    -0.389 OA
ATOM     50  H7  UNL     1      36.452  11.247 -26.793  1.00  0.00     0.210 HD
ENDBRANCH   4  49
TORSDOF 14
ENDMDL
