MODEL 1
REMARK VINA RESULT: -7.755434696      0.000      0.000
REMARK  14 active torsions:
REMARK  status: ('A' for Active; 'I' for Inactive)
REMARK    1  A    between atoms: C2_5  and  C3_6 
REMARK       I    between atoms: C3_6  and  N2_8 
REMARK    2  A    between atoms: N2_8  and  C4_10 
REMARK    3  A    between atoms: C4_10  and  C5_11 
REMARK    4  A    between atoms: N3_13  and  C7_14 
REMARK    5  A    between atoms: C8_16  and  C9_17 
REMARK    6  A    between atoms: C10_20  and  O5_21 
REMARK    7  A    between atoms: O5_21  and  C11_22 
REMARK    8  A    between atoms: N5_24  and  N6_26 
REMARK    9  A    between atoms: C13_35  and  N9_36 
REMARK   10  A    between atoms: C14_40  and  N10_41 
REMARK   11  A    between atoms: C16_46  and  N11_47 
REMARK   12  A    between atoms: C17_51  and  C18_52 
REMARK   13  A    between atoms: C18_52  and  O7_53 
REMARK   14  A    between atoms: C18_52  and  O8_55 
ROOT
HETATM    1  C3  UNL     1      34.750  15.859 -25.932  1.00  0.00     0.229 C 
HETATM    2  O1  UNL     1      33.523  15.943 -25.725  1.00  0.00    -0.273 OA
HETATM    3  N2  UNL     1      35.298  16.080 -27.232  1.00  0.00    -0.355 N 
ATOM      4  H2  UNL     1      36.302  16.012 -27.400  1.00  0.00     0.162 HD
ENDROOT
BRANCH   1   5
HETATM    5  C2  UNL     1      35.686  15.527 -24.824  1.00  0.00     0.156 C 
HETATM    6  C1  UNL     1      35.959  16.767 -23.995  1.00  0.00     0.006 C 
HETATM    7  N1  UNL     1      35.399  17.778 -24.464  1.00  0.00    -0.404 N 
HETATM    8  C17 UNL     1      36.766  16.888 -22.789  1.00  0.00     0.117 C 
ATOM      9  H12 UNL     1      34.835  17.693 -25.309  1.00  0.00     0.155 HD
ATOM     10  H11 UNL     1      35.583  18.612 -23.907  1.00  0.00     0.155 HD
HETATM   11  C16 UNL     1      37.167  15.516 -22.262  1.00  0.00     0.199 C 
HETATM   12  C15 UNL     1      36.009  14.794 -21.659  1.00  0.00     0.068 C 
HETATM   13  C14 UNL     1      34.814  14.737 -22.594  1.00  0.00     0.217 C 
HETATM   14  C13 UNL     1      35.269  14.362 -23.989  1.00  0.00     0.232 C 
BRANCH   8  15
HETATM   15  C18 UNL     1      36.219  17.707 -21.677  1.00  0.00     0.265 C 
BRANCH  15  16
HETATM   16  O7  UNL     1      37.226  18.458 -21.031  1.00  0.00    -0.371 OA
ATOM     17  H7  UNL     1      36.863  19.173 -20.522  1.00  0.00     0.212 HD
ENDBRANCH  15  16
BRANCH  15  18
HETATM   18  O8  UNL     1      35.315  18.664 -22.144  1.00  0.00    -0.371 OA
ATOM     19  H8  UNL     1      34.982  19.201 -21.435  1.00  0.00     0.212 HD
ENDBRANCH  15  18
ENDBRANCH   8  15
BRANCH  11  20
HETATM   20  N11 UNL     1      38.204  15.692 -21.281  1.00  0.00    -0.074 N 
ATOM     21 3H11 UNL     1      38.180  14.965 -20.566  1.00  0.00     0.274 HD
ATOM     22 2H11 UNL     1      39.129  15.494 -21.663  1.00  0.00     0.274 HD
ATOM     23 1H11 UNL     1      38.149  16.627 -20.877  1.00  0.00     0.274 HD
ENDBRANCH  11  20
BRANCH  13  24
HETATM   24  N10 UNL     1      33.971  13.631 -22.116  1.00  0.00    -0.073 N 
ATOM     25 3H10 UNL     1      34.498  12.784 -21.903  1.00  0.00     0.274 HD
ATOM     26 2H10 UNL     1      33.596  13.785 -21.180  1.00  0.00     0.274 HD
ATOM     27 1H10 UNL     1      33.248  13.490 -22.821  1.00  0.00     0.274 HD
ENDBRANCH  13  24
BRANCH  14  28
HETATM   28  N9  UNL     1      34.306  13.479 -24.630  1.00  0.00    -0.072 N 
ATOM     29  H93 UNL     1      33.904  13.928 -25.454  1.00  0.00     0.274 HD
ATOM     30  H92 UNL     1      34.782  12.694 -25.074  1.00  0.00     0.274 HD
ATOM     31  H91 UNL     1      33.567  13.144 -24.012  1.00  0.00     0.274 HD
ENDBRANCH  14  28
ENDBRANCH   1   5
BRANCH   3  32
HETATM   32  C4  UNL     1      34.383  16.404 -28.299  1.00  0.00     0.182 C 
BRANCH  32  33
HETATM   33  C5  UNL     1      34.323  15.361 -29.351  1.00  0.00     0.062 A 
HETATM   34  C6  UNL     1      34.352  13.982 -29.207  1.00  0.00     0.143 A 
HETATM   35  N3  UNL     1      34.273  13.396 -30.415  1.00  0.00    -0.251 N 
HETATM   36  N7  UNL     1      34.198  14.373 -31.289  1.00  0.00    -0.238 N 
HETATM   37  N8  UNL     1      34.225  15.565 -30.677  1.00  0.00    -0.287 N 
ATOM     38  H7  UNL     1      34.129  14.242 -32.299  1.00  0.00     0.208 HD
ATOM     39  H8  UNL     1      34.179  16.473 -31.138  1.00  0.00     0.188 HD
BRANCH  35  40
HETATM   40  C7  UNL     1      34.277  11.957 -30.644  1.00  0.00     0.319 C 
HETATM   41  O2  UNL     1      34.572  11.251 -29.469  1.00  0.00    -0.339 OA
HETATM   42  C8  UNL     1      33.748  10.114 -29.518  1.00  0.00     0.262 C 
HETATM   43  C10 UNL     1      32.426  10.789 -29.815  1.00  0.00     0.245 C 
HETATM   44  C12 UNL     1      32.902  11.549 -31.062  1.00  0.00     0.209 C 
HETATM   45  O6  UNL     1      32.341  11.762 -32.084  1.00  0.00    -0.290 OA
BRANCH  42  46
HETATM   46  C9  UNL     1      33.829   9.296 -28.339  1.00  0.00     0.206 C 
HETATM   47  O3  UNL     1      34.813   9.379 -27.558  1.00  0.00    -0.646 OA
HETATM   48  O4  UNL     1      32.832   8.389 -28.016  1.00  0.00    -0.646 OA
ENDBRANCH  42  46
BRANCH  43  49
HETATM   49  O5  UNL     1      32.041  11.798 -28.949  1.00  0.00    -0.307 OA
BRANCH  49  50
HETATM   50  C11 UNL     1      31.665  11.577 -27.654  1.00  0.00     0.246 C 
HETATM   51  N4  UNL     1      32.252  12.196 -26.504  1.00  0.00    -0.055 NA
HETATM   52  N5  UNL     1      30.700  10.741 -27.488  1.00  0.00    -0.274 N 
ATOM     53  H5  UNL     1      30.265  10.288 -28.292  1.00  0.00     0.189 HD
BRANCH  52  54
HETATM   54  N6  UNL     1      30.259  10.462 -26.198  1.00  0.00    -0.342 N 
ATOM     55  H62 UNL     1      30.665  10.965 -25.409  1.00  0.00     0.176 HD
ATOM     56  H61 UNL     1      29.534   9.757 -26.062  1.00  0.00     0.176 HD
ENDBRANCH  52  54
ENDBRANCH  49  50
ENDBRANCH  43  49
ENDBRANCH  35  40
ENDBRANCH  32  33
ENDBRANCH   3  32
TORSDOF 14
ENDMDL
MODEL 2
REMARK VINA RESULT: -7.482829967      4.748      8.982
REMARK  14 active torsions:
REMARK  status: ('A' for Active; 'I' for Inactive)
REMARK    1  A    between atoms: C2_5  and  C3_6 
REMARK       I    between atoms: C3_6  and  N2_8 
REMARK    2  A    between atoms: N2_8  and  C4_10 
REMARK    3  A    between atoms: C4_10  and  C5_11 
REMARK    4  A    between atoms: N3_13  and  C7_14 
REMARK    5  A    between atoms: C8_16  and  C9_17 
REMARK    6  A    between atoms: C10_20  and  O5_21 
REMARK    7  A    between atoms: O5_21  and  C11_22 
REMARK    8  A    between atoms: N5_24  and  N6_26 
REMARK    9  A    between atoms: C13_35  and  N9_36 
REMARK   10  A    between atoms: C14_40  and  N10_41 
REMARK   11  A    between atoms: C16_46  and  N11_47 
REMARK   12  A    between atoms: C17_51  and  C18_52 
REMARK   13  A    between atoms: C18_52  and  O7_53 
REMARK   14  A    between atoms: C18_52  and  O8_55 
ROOT
HETATM    1  C3  UNL     1      34.555  13.875 -25.595  1.00  0.00     0.229 C 
HETATM    2  O1  UNL     1      33.633  14.629 -25.226  1.00  0.00    -0.273 OA
HETATM    3  N2  UNL     1      35.549  13.418 -24.678  1.00  0.00    -0.355 N 
ATOM      4  H2  UNL     1      36.303  12.800 -24.981  1.00  0.00     0.162 HD
ENDROOT
BRANCH   1   5
HETATM    5  C2  UNL     1      34.646  13.424 -27.010  1.00  0.00     0.156 C 
HETATM    6  C1  UNL     1      33.553  12.414 -27.298  1.00  0.00     0.006 C 
HETATM    7  N1  UNL     1      32.882  12.146 -26.281  1.00  0.00    -0.404 N 
HETATM    8  C17 UNL     1      33.236  11.759 -28.559  1.00  0.00     0.117 C 
ATOM      9  H12 UNL     1      33.104  12.605 -25.397  1.00  0.00     0.155 HD
ATOM     10  H11 UNL     1      32.146  11.467 -26.474  1.00  0.00     0.155 HD
HETATM   11  C16 UNL     1      34.015  12.386 -29.709  1.00  0.00     0.199 C 
HETATM   12  C15 UNL     1      33.502  13.744 -30.051  1.00  0.00     0.068 C 
HETATM   13  C14 UNL     1      33.415  14.651 -28.836  1.00  0.00     0.217 C 
HETATM   14  C13 UNL     1      34.680  14.530 -28.012  1.00  0.00     0.232 C 
BRANCH   8  15
HETATM   15  C18 UNL     1      31.803  11.647 -28.933  1.00  0.00     0.265 C 
BRANCH  15  16
HETATM   16  O7  UNL     1      31.454  10.325 -29.287  1.00  0.00    -0.371 OA
ATOM     17  H7  UNL     1      30.867  10.302 -30.034  1.00  0.00     0.212 HD
ENDBRANCH  15  16
BRANCH  15  18
HETATM   18  O8  UNL     1      30.969  11.952 -27.855  1.00  0.00    -0.371 OA
ATOM     19  H8  UNL     1      30.092  12.174 -28.147  1.00  0.00     0.212 HD
ENDBRANCH  15  18
ENDBRANCH   8  15
BRANCH  11  20
HETATM   20  N11 UNL     1      33.915  11.518 -30.852  1.00  0.00    -0.074 N 
ATOM     21 3H11 UNL     1      34.376  11.912 -31.671  1.00  0.00     0.274 HD
ATOM     22 2H11 UNL     1      34.488  10.681 -30.746  1.00  0.00     0.274 HD
ATOM     23 1H11 UNL     1      32.938  11.292 -31.035  1.00  0.00     0.274 HD
ENDBRANCH  11  20
BRANCH  13  24
HETATM   24  N10 UNL     1      33.381  16.027 -29.354  1.00  0.00    -0.073 N 
ATOM     25 3H10 UNL     1      32.831  16.662 -28.775  1.00  0.00     0.274 HD
ATOM     26 2H10 UNL     1      34.273  16.514 -29.263  1.00  0.00     0.274 HD
ATOM     27 1H10 UNL     1      33.050  15.969 -30.316  1.00  0.00     0.274 HD
ENDBRANCH  13  24
BRANCH  14  28
HETATM   28  N9  UNL     1      35.071  15.821 -27.466  1.00  0.00    -0.072 N 
ATOM     29  H93 UNL     1      34.458  16.557 -27.818  1.00  0.00     0.274 HD
ATOM     30  H92 UNL     1      34.850  15.869 -26.472  1.00  0.00     0.274 HD
ATOM     31  H91 UNL     1      36.048  16.066 -27.625  1.00  0.00     0.274 HD
ENDBRANCH  14  28
ENDBRANCH   1   5
BRANCH   3  32
HETATM   32  C4  UNL     1      35.451  13.859 -23.308  1.00  0.00     0.182 C 
BRANCH  32  33
HETATM   33  C5  UNL     1      34.898  12.826 -22.401  1.00  0.00     0.062 A 
HETATM   34  C6  UNL     1      33.616  12.297 -22.369  1.00  0.00     0.143 A 
HETATM   35  N3  UNL     1      33.527  11.378 -21.391  1.00  0.00    -0.251 N 
HETATM   36  N7  UNL     1      34.711  11.330 -20.826  1.00  0.00    -0.238 N 
HETATM   37  N8  UNL     1      35.555  12.190 -21.415  1.00  0.00    -0.287 N 
ATOM     38  H7  UNL     1      34.956  10.722 -20.045  1.00  0.00     0.208 HD
ATOM     39  H8  UNL     1      36.531  12.338 -21.157  1.00  0.00     0.188 HD
BRANCH  35  40
HETATM   40  C7  UNL     1      32.325  10.619 -21.068  1.00  0.00     0.319 C 
HETATM   41  O2  UNL     1      32.640   9.351 -20.559  1.00  0.00    -0.339 OA
HETATM   42  C8  UNL     1      31.686   9.123 -19.553  1.00  0.00     0.262 C 
HETATM   43  C10 UNL     1      31.827  10.423 -18.790  1.00  0.00     0.245 C 
HETATM   44  C12 UNL     1      31.590  11.349 -19.992  1.00  0.00     0.209 C 
HETATM   45  O6  UNL     1      30.990  12.368 -20.060  1.00  0.00    -0.290 OA
BRANCH  42  46
HETATM   46  C9  UNL     1      31.898   7.899 -18.829  1.00  0.00     0.206 C 
HETATM   47  O3  UNL     1      31.236   7.635 -17.792  1.00  0.00    -0.646 OA
HETATM   48  O4  UNL     1      32.835   6.965 -19.244  1.00  0.00    -0.646 OA
ENDBRANCH  42  46
BRANCH  43  49
HETATM   49  O5  UNL     1      33.104  10.756 -18.371  1.00  0.00    -0.307 OA
BRANCH  49  50
HETATM   50  C11 UNL     1      33.473  10.825 -17.057  1.00  0.00     0.246 C 
HETATM   51  N4  UNL     1      32.842  10.120 -15.982  1.00  0.00    -0.055 NA
HETATM   52  N5  UNL     1      34.473  11.593 -16.798  1.00  0.00    -0.274 N 
ATOM     53  H5  UNL     1      34.939  12.105 -17.547  1.00  0.00     0.189 HD
BRANCH  52  54
HETATM   54  N6  UNL     1      34.909  11.717 -15.482  1.00  0.00    -0.342 N 
ATOM     55  H62 UNL     1      34.926  12.638 -15.043  1.00  0.00     0.176 HD
ATOM     56  H61 UNL     1      35.206  10.883 -14.976  1.00  0.00     0.176 HD
ENDBRANCH  52  54
ENDBRANCH  49  50
ENDBRANCH  43  49
ENDBRANCH  35  40
ENDBRANCH  32  33
ENDBRANCH   3  32
TORSDOF 14
ENDMDL
MODEL 3
REMARK VINA RESULT: -7.462471148      6.181     10.054
REMARK  14 active torsions:
REMARK  status: ('A' for Active; 'I' for Inactive)
REMARK    1  A    between atoms: C2_5  and  C3_6 
REMARK       I    between atoms: C3_6  and  N2_8 
REMARK    2  A    between atoms: N2_8  and  C4_10 
REMARK    3  A    between atoms: C4_10  and  C5_11 
REMARK    4  A    between atoms: N3_13  and  C7_14 
REMARK    5  A    between atoms: C8_16  and  C9_17 
REMARK    6  A    between atoms: C10_20  and  O5_21 
REMARK    7  A    between atoms: O5_21  and  C11_22 
REMARK    8  A    between atoms: N5_24  and  N6_26 
REMARK    9  A    between atoms: C13_35  and  N9_36 
REMARK   10  A    between atoms: C14_40  and  N10_41 
REMARK   11  A    between atoms: C16_46  and  N11_47 
REMARK   12  A    between atoms: C17_51  and  C18_52 
REMARK   13  A    between atoms: C18_52  and  O7_53 
REMARK   14  A    between atoms: C18_52  and  O8_55 
ROOT
HETATM    1  C3  UNL     1      33.477  12.320 -24.099  1.00  0.00     0.229 C 
HETATM    2  O1  UNL     1      32.716  13.307 -24.058  1.00  0.00    -0.273 OA
HETATM    3  N2  UNL     1      33.924  11.680 -22.903  1.00  0.00    -0.355 N 
ATOM      4  H2  UNL     1      34.546  10.872 -22.937  1.00  0.00     0.162 HD
ENDROOT
BRANCH   1   5
HETATM    5  C2  UNL     1      33.945  11.775 -25.402  1.00  0.00     0.156 C 
HETATM    6  C1  UNL     1      32.805  11.056 -26.095  1.00  0.00     0.006 C 
HETATM    7  N1  UNL     1      31.772  11.028 -25.395  1.00  0.00    -0.404 N 
HETATM    8  C17 UNL     1      32.798  10.426 -27.408  1.00  0.00     0.117 C 
ATOM      9  H12 UNL     1      31.777  11.469 -24.475  1.00  0.00     0.155 HD
ATOM     10  H11 UNL     1      31.005  10.545 -25.861  1.00  0.00     0.155 HD
HETATM   11  C16 UNL     1      34.067  10.765 -28.181  1.00  0.00     0.199 C 
HETATM   12  C15 UNL     1      34.073  12.185 -28.638  1.00  0.00     0.068 C 
HETATM   13  C14 UNL     1      33.798  13.158 -27.505  1.00  0.00     0.217 C 
HETATM   14  C13 UNL     1      34.613  12.774 -26.288  1.00  0.00     0.232 C 
BRANCH   8  15
HETATM   15  C18 UNL     1      31.612  10.654 -28.273  1.00  0.00     0.265 C 
BRANCH  15  16
HETATM   16  O7  UNL     1      30.635   9.650 -28.102  1.00  0.00    -0.371 OA
ATOM     17  H7  UNL     1      31.024   8.785 -28.036  1.00  0.00     0.212 HD
ENDBRANCH  15  16
BRANCH  15  18
HETATM   18  O8  UNL     1      30.957  11.841 -27.938  1.00  0.00    -0.371 OA
ATOM     19  H8  UNL     1      30.032  11.799 -28.154  1.00  0.00     0.212 HD
ENDBRANCH  15  18
ENDBRANCH   8  15
BRANCH  11  20
HETATM   20  N11 UNL     1      34.158   9.882 -29.313  1.00  0.00    -0.074 N 
ATOM     21 3H11 UNL     1      33.863  10.337 -30.176  1.00  0.00     0.274 HD
ATOM     22 2H11 UNL     1      35.127   9.690 -29.569  1.00  0.00     0.274 HD
ATOM     23 1H11 UNL     1      33.633   9.027 -29.133  1.00  0.00     0.274 HD
ENDBRANCH  11  20
BRANCH  13  24
HETATM   24  N10 UNL     1      34.303  14.464 -27.953  1.00  0.00    -0.073 N 
ATOM     25 3H10 UNL     1      33.571  15.080 -28.307  1.00  0.00     0.274 HD
ATOM     26 2H10 UNL     1      34.611  15.062 -27.187  1.00  0.00     0.274 HD
ATOM     27 1H10 UNL     1      35.036  14.274 -28.636  1.00  0.00     0.274 HD
ENDBRANCH  13  24
BRANCH  14  28
HETATM   28  N9  UNL     1      35.102  13.957 -25.595  1.00  0.00    -0.072 N 
ATOM     29  H93 UNL     1      34.742  14.803 -26.036  1.00  0.00     0.274 HD
ATOM     30  H92 UNL     1      34.665  14.038 -24.677  1.00  0.00     0.274 HD
ATOM     31  H91 UNL     1      36.118  14.004 -25.510  1.00  0.00     0.274 HD
ENDBRANCH  14  28
ENDBRANCH   1   5
BRANCH   3  32
HETATM   32  C4  UNL     1      33.463  12.215 -21.644  1.00  0.00     0.182 C 
BRANCH  32  33
HETATM   33  C5  UNL     1      32.579  11.285 -20.905  1.00  0.00     0.062 A 
HETATM   34  C6  UNL     1      32.836   9.985 -20.494  1.00  0.00     0.143 A 
HETATM   35  N3  UNL     1      31.765   9.490 -19.848  1.00  0.00    -0.251 N 
HETATM   36  N7  UNL     1      30.864  10.445 -19.853  1.00  0.00    -0.238 N 
HETATM   37  N8  UNL     1      31.327  11.535 -20.481  1.00  0.00    -0.287 N 
ATOM     38  H7  UNL     1      29.936  10.367 -19.436  1.00  0.00     0.208 HD
ATOM     39  H8  UNL     1      30.816  12.408 -20.615  1.00  0.00     0.188 HD
BRANCH  35  40
HETATM   40  C7  UNL     1      31.681   8.152 -19.280  1.00  0.00     0.319 C 
HETATM   41  O2  UNL     1      32.939   7.533 -19.235  1.00  0.00    -0.339 OA
HETATM   42  C8  UNL     1      32.942   6.819 -18.024  1.00  0.00     0.262 C 
HETATM   43  C10 UNL     1      32.484   7.921 -17.094  1.00  0.00     0.245 C 
HETATM   44  C12 UNL     1      31.206   8.274 -17.869  1.00  0.00     0.209 C 
HETATM   45  O6  UNL     1      30.130   8.568 -17.469  1.00  0.00    -0.290 OA
BRANCH  42  46
HETATM   46  C9  UNL     1      34.200   6.183 -17.738  1.00  0.00     0.206 C 
HETATM   47  O3  UNL     1      34.706   6.235 -16.587  1.00  0.00    -0.646 OA
HETATM   48  O4  UNL     1      34.901   5.491 -18.714  1.00  0.00    -0.646 OA
ENDBRANCH  42  46
BRANCH  43  49
HETATM   49  O5  UNL     1      33.216   9.096 -17.124  1.00  0.00    -0.307 OA
BRANCH  49  50
HETATM   50  C11 UNL     1      33.752   9.679 -16.010  1.00  0.00     0.246 C 
HETATM   51  N4  UNL     1      33.945  11.086 -15.824  1.00  0.00    -0.055 NA
HETATM   52  N5  UNL     1      34.099   8.872 -15.070  1.00  0.00    -0.274 N 
ATOM     53  H5  UNL     1      33.970   7.866 -15.178  1.00  0.00     0.189 HD
BRANCH  52  54
HETATM   54  N6  UNL     1      34.654   9.389 -13.902  1.00  0.00    -0.342 N 
ATOM     55  H62 UNL     1      34.285  10.257 -13.514  1.00  0.00     0.176 HD
ATOM     56  H61 UNL     1      35.422   8.890 -13.453  1.00  0.00     0.176 HD
ENDBRANCH  52  54
ENDBRANCH  49  50
ENDBRANCH  43  49
ENDBRANCH  35  40
ENDBRANCH  32  33
ENDBRANCH   3  32
TORSDOF 14
ENDMDL
MODEL 4
REMARK VINA RESULT: -7.434868278      2.137      3.147
REMARK  14 active torsions:
REMARK  status: ('A' for Active; 'I' for Inactive)
REMARK    1  A    between atoms: C2_5  and  C3_6 
REMARK       I    between atoms: C3_6  and  N2_8 
REMARK    2  A    between atoms: N2_8  and  C4_10 
REMARK    3  A    between atoms: C4_10  and  C5_11 
REMARK    4  A    between atoms: N3_13  and  C7_14 
REMARK    5  A    between atoms: C8_16  and  C9_17 
REMARK    6  A    between atoms: C10_20  and  O5_21 
REMARK    7  A    between atoms: O5_21  and  C11_22 
REMARK    8  A    between atoms: N5_24  and  N6_26 
REMARK    9  A    between atoms: C13_35  and  N9_36 
REMARK   10  A    between atoms: C14_40  and  N10_41 
REMARK   11  A    between atoms: C16_46  and  N11_47 
REMARK   12  A    between atoms: C17_51  and  C18_52 
REMARK   13  A    between atoms: C18_52  and  O7_53 
REMARK   14  A    between atoms: C18_52  and  O8_55 
ROOT
HETATM    1  C3  UNL     1      35.307  16.765 -25.477  1.00  0.00     0.229 C 
HETATM    2  O1  UNL     1      36.383  16.781 -26.108  1.00  0.00    -0.273 OA
HETATM    3  N2  UNL     1      34.059  16.982 -26.136  1.00  0.00    -0.355 N 
ATOM      4  H2  UNL     1      33.180  16.969 -25.619  1.00  0.00     0.162 HD
ENDROOT
BRANCH   1   5
HETATM    5  C2  UNL     1      35.291  16.515 -24.010  1.00  0.00     0.156 C 
HETATM    6  C1  UNL     1      35.183  15.027 -23.745  1.00  0.00     0.006 C 
HETATM    7  N1  UNL     1      35.067  14.369 -24.799  1.00  0.00    -0.404 N 
HETATM    8  C17 UNL     1      35.192  14.334 -22.464  1.00  0.00     0.117 C 
ATOM      9  H12 UNL     1      35.061  14.855 -25.696  1.00  0.00     0.155 HD
ATOM     10  H11 UNL     1      34.995  13.368 -24.621  1.00  0.00     0.155 HD
HETATM   11  C16 UNL     1      35.568  15.284 -21.333  1.00  0.00     0.199 C 
HETATM   12  C15 UNL     1      37.013  15.650 -21.375  1.00  0.00     0.068 C 
HETATM   13  C14 UNL     1      37.440  16.163 -22.739  1.00  0.00     0.217 C 
HETATM   14  C13 UNL     1      36.416  17.150 -23.261  1.00  0.00     0.232 C 
BRANCH   8  15
HETATM   15  C18 UNL     1      36.002  13.093 -22.361  1.00  0.00     0.265 C 
BRANCH  15  16
HETATM   16  O7  UNL     1      35.232  11.939 -22.623  1.00  0.00    -0.371 OA
ATOM     17  H7  UNL     1      34.324  12.152 -22.802  1.00  0.00     0.212 HD
ENDBRANCH  15  16
BRANCH  15  18
HETATM   18  O8  UNL     1      37.015  13.063 -23.322  1.00  0.00    -0.371 OA
ATOM     19  H8  UNL     1      36.934  12.304 -23.888  1.00  0.00     0.212 HD
ENDBRANCH  15  18
ENDBRANCH   8  15
BRANCH  11  20
HETATM   20  N11 UNL     1      35.256  14.646 -20.083  1.00  0.00    -0.074 N 
ATOM     21 3H11 UNL     1      35.458  13.646 -20.103  1.00  0.00     0.274 HD
ATOM     22 2H11 UNL     1      35.907  14.914 -19.345  1.00  0.00     0.274 HD
ATOM     23 1H11 UNL     1      34.288  14.834 -19.825  1.00  0.00     0.274 HD
ENDBRANCH  11  20
BRANCH  13  24
HETATM   24  N10 UNL     1      38.681  16.921 -22.523  1.00  0.00    -0.073 N 
ATOM     25 3H10 UNL     1      38.741  17.767 -23.089  1.00  0.00     0.274 HD
ATOM     26 2H10 UNL     1      38.723  17.375 -21.611  1.00  0.00     0.274 HD
ATOM     27 1H10 UNL     1      39.451  16.271 -22.685  1.00  0.00     0.274 HD
ENDBRANCH  13  24
BRANCH  14  28
HETATM   28  N9  UNL     1      37.063  18.246 -23.967  1.00  0.00    -0.072 N 
ATOM     29  H93 UNL     1      38.058  18.054 -24.089  1.00  0.00     0.274 HD
ATOM     30  H92 UNL     1      36.768  18.265 -24.943  1.00  0.00     0.274 HD
ATOM     31  H91 UNL     1      36.927  19.161 -23.537  1.00  0.00     0.274 HD
ENDBRANCH  14  28
ENDBRANCH   1   5
BRANCH   3  32
HETATM   32  C4  UNL     1      34.085  17.222 -27.559  1.00  0.00     0.182 C 
BRANCH  32  33
HETATM   33  C5  UNL     1      33.903  15.989 -28.360  1.00  0.00     0.062 A 
HETATM   34  C6  UNL     1      34.314  14.697 -28.070  1.00  0.00     0.143 A 
HETATM   35  N3  UNL     1      33.947  13.867 -29.063  1.00  0.00    -0.251 N 
HETATM   36  N7  UNL     1      33.327  14.612 -29.949  1.00  0.00    -0.238 N 
HETATM   37  N8  UNL     1      33.285  15.892 -29.551  1.00  0.00    -0.287 N 
ATOM     38  H7  UNL     1      32.931  14.264 -30.822  1.00  0.00     0.208 HD
ATOM     39  H8  UNL     1      32.857  16.662 -30.066  1.00  0.00     0.188 HD
BRANCH  35  40
HETATM   40  C7  UNL     1      34.216  12.436 -29.094  1.00  0.00     0.319 C 
HETATM   41  O2  UNL     1      35.166  12.071 -28.129  1.00  0.00    -0.339 OA
HETATM   42  C8  UNL     1      34.723  10.829 -27.643  1.00  0.00     0.262 C 
HETATM   43  C10 UNL     1      33.282  11.187 -27.348  1.00  0.00     0.245 C 
HETATM   44  C12 UNL     1      32.951  11.718 -28.751  1.00  0.00     0.209 C 
HETATM   45  O6  UNL     1      31.965  11.599 -29.396  1.00  0.00    -0.290 OA
BRANCH  42  46
HETATM   46  C9  UNL     1      35.519  10.322 -26.559  1.00  0.00     0.206 C 
HETATM   47  O3  UNL     1      35.886   9.118 -26.531  1.00  0.00    -0.646 OA
HETATM   48  O4  UNL     1      35.914  11.134 -25.507  1.00  0.00    -0.646 OA
ENDBRANCH  42  46
BRANCH  43  49
HETATM   49  O5  UNL     1      33.075  12.285 -26.530  1.00  0.00    -0.307 OA
BRANCH  49  50
HETATM   50  C11 UNL     1      32.716  12.188 -25.215  1.00  0.00     0.246 C 
HETATM   51  N4  UNL     1      32.212  13.262 -24.413  1.00  0.00    -0.055 NA
HETATM   52  N5  UNL     1      32.851  11.023 -24.684  1.00  0.00    -0.274 N 
ATOM     53  H5  UNL     1      33.206  10.242 -25.235  1.00  0.00     0.189 HD
BRANCH  52  54
HETATM   54  N6  UNL     1      32.506  10.843 -23.347  1.00  0.00    -0.342 N 
ATOM     55  H62 UNL     1      31.973  11.566 -22.865  1.00  0.00     0.176 HD
ATOM     56  H61 UNL     1      32.794   9.988 -22.871  1.00  0.00     0.176 HD
ENDBRANCH  52  54
ENDBRANCH  49  50
ENDBRANCH  43  49
ENDBRANCH  35  40
ENDBRANCH  32  33
ENDBRANCH   3  32
TORSDOF 14
ENDMDL
MODEL 5
REMARK VINA RESULT: -7.415966391      4.735      8.619
REMARK  14 active torsions:
REMARK  status: ('A' for Active; 'I' for Inactive)
REMARK    1  A    between atoms: C2_5  and  C3_6 
REMARK       I    between atoms: C3_6  and  N2_8 
REMARK    2  A    between atoms: N2_8  and  C4_10 
REMARK    3  A    between atoms: C4_10  and  C5_11 
REMARK    4  A    between atoms: N3_13  and  C7_14 
REMARK    5  A    between atoms: C8_16  and  C9_17 
REMARK    6  A    between atoms: C10_20  and  O5_21 
REMARK    7  A    between atoms: O5_21  and  C11_22 
REMARK    8  A    between atoms: N5_24  and  N6_26 
REMARK    9  A    between atoms: C13_35  and  N9_36 
REMARK   10  A    between atoms: C14_40  and  N10_41 
REMARK   11  A    between atoms: C16_46  and  N11_47 
REMARK   12  A    between atoms: C17_51  and  C18_52 
REMARK   13  A    between atoms: C18_52  and  O7_53 
REMARK   14  A    between atoms: C18_52  and  O8_55 
ROOT
HETATM    1  C3  UNL     1      34.489  13.793 -25.584  1.00  0.00     0.229 C 
HETATM    2  O1  UNL     1      33.550  14.537 -25.237  1.00  0.00    -0.273 OA
HETATM    3  N2  UNL     1      35.467  13.347 -24.644  1.00  0.00    -0.355 N 
ATOM      4  H2  UNL     1      36.234  12.738 -24.928  1.00  0.00     0.162 HD
ENDROOT
BRANCH   1   5
HETATM    5  C2  UNL     1      34.617  13.341 -26.995  1.00  0.00     0.156 C 
HETATM    6  C1  UNL     1      33.531  12.332 -27.312  1.00  0.00     0.006 C 
HETATM    7  N1  UNL     1      32.832  12.066 -26.313  1.00  0.00    -0.404 N 
HETATM    8  C17 UNL     1      33.247  11.677 -28.581  1.00  0.00     0.117 C 
ATOM      9  H12 UNL     1      33.032  12.524 -25.424  1.00  0.00     0.155 HD
ATOM     10  H11 UNL     1      32.101  11.387 -26.526  1.00  0.00     0.155 HD
HETATM   11  C16 UNL     1      34.057  12.303 -29.710  1.00  0.00     0.199 C 
HETATM   12  C15 UNL     1      33.554  13.662 -30.066  1.00  0.00     0.068 C 
HETATM   13  C14 UNL     1      33.437  14.569 -28.854  1.00  0.00     0.217 C 
HETATM   14  C13 UNL     1      34.679  14.447 -27.997  1.00  0.00     0.232 C 
BRANCH   8  15
HETATM   15  C18 UNL     1      31.824  11.567 -28.993  1.00  0.00     0.265 C 
BRANCH  15  16
HETATM   16  O7  UNL     1      31.465  10.234 -29.291  1.00  0.00    -0.371 OA
ATOM     17  H7  UNL     1      30.998   9.824 -28.572  1.00  0.00     0.212 HD
ENDBRANCH  15  16
BRANCH  15  18
HETATM   18  O8  UNL     1      30.963  11.938 -27.959  1.00  0.00    -0.371 OA
ATOM     19  H8  UNL     1      31.082  12.849 -27.718  1.00  0.00     0.212 HD
ENDBRANCH  15  18
ENDBRANCH   8  15
BRANCH  11  20
HETATM   20  N11 UNL     1      33.987  11.435 -30.855  1.00  0.00    -0.074 N 
ATOM     21 3H11 UNL     1      33.141  11.594 -31.402  1.00  0.00     0.274 HD
ATOM     22 2H11 UNL     1      34.674  11.685 -31.566  1.00  0.00     0.274 HD
ATOM     23 1H11 UNL     1      34.075  10.462 -30.563  1.00  0.00     0.274 HD
ENDBRANCH  11  20
BRANCH  13  24
HETATM   24  N10 UNL     1      33.419  15.945 -29.373  1.00  0.00    -0.073 N 
ATOM     25 3H10 UNL     1      32.787  16.070 -30.164  1.00  0.00     0.274 HD
ATOM     26 2H10 UNL     1      32.966  16.607 -28.743  1.00  0.00     0.274 HD
ATOM     27 1H10 UNL     1      34.386  16.189 -29.586  1.00  0.00     0.274 HD
ENDBRANCH  13  24
BRANCH  14  28
HETATM   28  N9  UNL     1      35.057  15.738 -27.441  1.00  0.00    -0.072 N 
ATOM     29  H93 UNL     1      34.228  16.258 -27.151  1.00  0.00     0.274 HD
ATOM     30  H92 UNL     1      35.512  15.617 -26.536  1.00  0.00     0.274 HD
ATOM     31  H91 UNL     1      35.637  16.307 -28.057  1.00  0.00     0.274 HD
ENDBRANCH  14  28
ENDBRANCH   1   5
BRANCH   3  32
HETATM   32  C4  UNL     1      35.333  13.789 -23.276  1.00  0.00     0.182 C 
BRANCH  32  33
HETATM   33  C5  UNL     1      34.558  12.848 -22.434  1.00  0.00     0.062 A 
HETATM   34  C6  UNL     1      34.894  12.310 -21.201  1.00  0.00     0.143 A 
HETATM   35  N3  UNL     1      33.911  11.498 -20.774  1.00  0.00    -0.251 N 
HETATM   36  N7  UNL     1      32.987  11.523 -21.707  1.00  0.00    -0.238 N 
HETATM   37  N8  UNL     1      33.350  12.328 -22.716  1.00  0.00    -0.287 N 
ATOM     38  H7  UNL     1      32.112  11.000 -21.669  1.00  0.00     0.208 HD
ATOM     39  H8  UNL     1      32.803  12.513 -23.557  1.00  0.00     0.188 HD
BRANCH  35  40
HETATM   40  C7  UNL     1      33.925  10.762 -19.517  1.00  0.00     0.319 C 
HETATM   41  O2  UNL     1      32.655  10.734 -18.923  1.00  0.00    -0.339 OA
HETATM   42  C8  UNL     1      32.548   9.448 -18.368  1.00  0.00     0.262 C 
HETATM   43  C10 UNL     1      32.959   8.631 -19.575  1.00  0.00     0.245 C 
HETATM   44  C12 UNL     1      34.297   9.345 -19.813  1.00  0.00     0.209 C 
HETATM   45  O6  UNL     1      35.346   8.905 -20.143  1.00  0.00    -0.290 OA
BRANCH  42  46
HETATM   46  C9  UNL     1      31.260   9.180 -17.788  1.00  0.00     0.206 C 
HETATM   47  O3  UNL     1      30.581  10.100 -17.262  1.00  0.00    -0.646 OA
HETATM   48  O4  UNL     1      30.717   7.904 -17.787  1.00  0.00    -0.646 OA
ENDBRANCH  42  46
BRANCH  43  49
HETATM   49  O5  UNL     1      32.255   8.864 -20.744  1.00  0.00    -0.307 OA
BRANCH  49  50
HETATM   50  C11 UNL     1      32.076   7.920 -21.717  1.00  0.00     0.246 C 
HETATM   51  N4  UNL     1      33.071   6.991 -22.163  1.00  0.00    -0.055 NA
HETATM   52  N5  UNL     1      30.907   7.888 -22.255  1.00  0.00    -0.274 N 
ATOM     53  H5  UNL     1      30.181   8.539 -21.953  1.00  0.00     0.189 HD
BRANCH  52  54
HETATM   54  N6  UNL     1      30.645   6.955 -23.254  1.00  0.00    -0.342 N 
ATOM     55  H62 UNL     1      31.402   6.365 -23.600  1.00  0.00     0.176 HD
ATOM     56  H61 UNL     1      29.698   6.877 -23.625  1.00  0.00     0.176 HD
ENDBRANCH  52  54
ENDBRANCH  49  50
ENDBRANCH  43  49
ENDBRANCH  35  40
ENDBRANCH  32  33
ENDBRANCH   3  32
TORSDOF 14
ENDMDL
