MODEL 1
REMARK VINA RESULT: -7.453327673      0.000      0.000
REMARK  12 active torsions:
REMARK  status: ('A' for Active; 'I' for Inactive)
REMARK    1  A    between atoms: N1_1  and  C1_4 
REMARK    2  A    between atoms: C2_7  and  N3_8 
REMARK    3  A    between atoms: C9_24  and  N9_25 
REMARK    4  A    between atoms: N10_28  and  C10_29 
REMARK    5  A    between atoms: C11_31  and  C12_32 
REMARK    6  A    between atoms: C11_31  and  C13_35 
REMARK    7  A    between atoms: C12_32  and  O2_33 
REMARK    8  A    between atoms: C13_35  and  O3_36 
REMARK    9  A    between atoms: O3_36  and  S1_37 
REMARK   10  A    between atoms: S1_37  and  N11_38 
REMARK   11  A    between atoms: C14_43  and  C15_44 
REMARK   12  A    between atoms: C15_44  and  O6_45 
ROOT
HETATM    1  C1  UNL     1      34.599  15.477 -29.271  1.00  0.00     0.146 A 
HETATM    2  N2  UNL     1      34.405  14.187 -29.563  1.00  0.00    -0.175 N 
ATOM      3  H2  UNL     1      34.327  13.908 -30.541  1.00  0.00     0.186 HD
HETATM    4  C2  UNL     1      34.312  13.251 -28.612  1.00  0.00     0.684 A 
HETATM    5  N7  UNL     1      34.410  13.570 -27.323  1.00  0.00    -0.173 N 
ATOM      6  H7  UNL     1      34.336  12.843 -26.611  1.00  0.00     0.186 HD
HETATM    7  C7  UNL     1      34.606  14.853 -26.961  1.00  0.00     0.173 A 
HETATM    8  C8  UNL     1      34.706  15.845 -27.950  1.00  0.00     0.138 A 
HETATM    9  N8  UNL     1      34.901  17.043 -27.377  1.00  0.00    -0.184 N 
ATOM     10  H8  UNL     1      35.008  17.941 -27.849  1.00  0.00     0.184 HD
HETATM   11  C9  UNL     1      34.926  16.819 -26.061  1.00  0.00     0.683 A 
HETATM   12  N10 UNL     1      34.745  15.484 -25.794  1.00  0.00    -0.129 N 
ENDROOT
BRANCH  12  13
HETATM   13  C10 UNL     1      34.722  14.964 -24.472  1.00  0.00     0.341 C 
HETATM   14  O1  UNL     1      36.017  14.825 -23.945  1.00  0.00    -0.339 OA
HETATM   15  C11 UNL     1      36.024  14.313 -22.674  1.00  0.00     0.130 C 
HETATM   16  C14 UNL     1      35.568  12.866 -22.640  1.00  0.00     0.147 C 
HETATM   17  N12 UNL     1      34.454  12.677 -23.581  1.00  0.00    -0.347 N 
HETATM   18  C16 UNL     1      33.866  13.810 -24.209  1.00  0.00     0.268 C 
ATOM     19  H12 UNL     1      34.105  11.741 -23.781  1.00  0.00     0.163 HD
HETATM   20  O7  UNL     1      32.674  13.791 -24.508  1.00  0.00    -0.269 OA
BRANCH  15  21
HETATM   21  C12 UNL     1      35.198  15.129 -21.679  1.00  0.00     0.206 C 
BRANCH  21  22
HETATM   22  O2  UNL     1      35.799  16.334 -21.413  1.00  0.00    -0.398 OA
ATOM     23  H2  UNL     1      36.194  16.696 -22.198  1.00  0.00     0.209 HD
ENDBRANCH  21  22
ENDBRANCH  15  21
BRANCH  15  24
HETATM   24  C13 UNL     1      37.431  14.338 -22.126  1.00  0.00     0.234 C 
BRANCH  24  25
HETATM   25  O3  UNL     1      38.338  14.577 -23.127  1.00  0.00    -0.257 OA
BRANCH  25  26
HETATM   26  S1  UNL     1      39.005  16.115 -22.973  1.00  0.00     0.355 S 
HETATM   27  O4  UNL     1      38.818  16.662 -21.579  1.00  0.00    -0.176 OA
HETATM   28  O5  UNL     1      40.463  16.021 -23.316  1.00  0.00    -0.176 OA
BRANCH  26  29
HETATM   29  N11 UNL     1      38.286  17.199 -24.135  1.00  0.00    -0.306 N 
ATOM     30 2H11 UNL     1      37.723  16.895 -24.930  1.00  0.00     0.171 HD
ATOM     31 1H11 UNL     1      38.513  18.166 -23.901  1.00  0.00     0.171 HD
ENDBRANCH  26  29
ENDBRANCH  25  26
ENDBRANCH  24  25
ENDBRANCH  15  24
BRANCH  16  32
HETATM   32  C15 UNL     1      35.127  12.438 -21.282  1.00  0.00     0.192 C 
BRANCH  32  33
HETATM   33  O6  UNL     1      33.878  11.791 -21.413  1.00  0.00    -0.399 OA
ATOM     34  H6  UNL     1      34.027  10.949 -21.828  1.00  0.00     0.209 HD
ENDBRANCH  32  33
ENDBRANCH  16  32
ENDBRANCH  12  13
BRANCH  11  35
HETATM   35  N9  UNL     1      35.097  17.733 -25.175  1.00  0.00    -0.234 N 
ATOM     36  H92 UNL     1      34.447  18.496 -24.984  1.00  0.00     0.174 HD
ATOM     37  H91 UNL     1      35.910  17.793 -24.562  1.00  0.00     0.174 HD
ENDBRANCH  11  35
BRANCH   4  38
HETATM   38  N3  UNL     1      34.111  11.922 -29.010  1.00  0.00    -0.200 N 
HETATM   39  C3  UNL     1      33.952  11.677 -30.426  1.00  0.00     0.162 C 
HETATM   40  C4  UNL     1      32.512  11.703 -30.851  1.00  0.00     0.143 C 
HETATM   41  N4  UNL     1      31.594  11.226 -29.855  1.00  0.00    -0.363 N 
HETATM   42  C5  UNL     1      31.740  10.363 -28.757  1.00  0.00     0.185 C 
ATOM     43  H4  UNL     1      30.646  11.585 -29.968  1.00  0.00     0.162 HD
HETATM   44  N5  UNL     1      30.648   9.503 -28.436  1.00  0.00    -0.064 NA
HETATM   45  N6  UNL     1      32.774  10.248 -27.971  1.00  0.00    -0.348 N 
HETATM   46  C6  UNL     1      34.059  10.942 -27.969  1.00  0.00     0.267 C 
ATOM     47  H6  UNL     1      32.666   9.556 -27.230  1.00  0.00     0.163 HD
ENDBRANCH   4  38
BRANCH   1  48
HETATM   48  N1  UNL     1      34.682  16.339 -30.238  1.00  0.00    -0.383 N 
ATOM     49  H12 UNL     1      35.526  16.887 -30.406  1.00  0.00     0.157 HD
ATOM     50  H11 UNL     1      33.880  16.477 -30.852  1.00  0.00     0.157 HD
ENDBRANCH   1  48
TORSDOF 12
ENDMDL
MODEL 2
REMARK VINA RESULT: -7.326076258      3.378      4.605
REMARK  12 active torsions:
REMARK  status: ('A' for Active; 'I' for Inactive)
REMARK    1  A    between atoms: N1_1  and  C1_4 
REMARK    2  A    between atoms: C2_7  and  N3_8 
REMARK    3  A    between atoms: C9_24  and  N9_25 
REMARK    4  A    between atoms: N10_28  and  C10_29 
REMARK    5  A    between atoms: C11_31  and  C12_32 
REMARK    6  A    between atoms: C11_31  and  C13_35 
REMARK    7  A    between atoms: C12_32  and  O2_33 
REMARK    8  A    between atoms: C13_35  and  O3_36 
REMARK    9  A    between atoms: O3_36  and  S1_37 
REMARK   10  A    between atoms: S1_37  and  N11_38 
REMARK   11  A    between atoms: C14_43  and  C15_44 
REMARK   12  A    between atoms: C15_44  and  O6_45 
ROOT
HETATM    1  C1  UNL     1      34.501  15.322 -29.747  1.00  0.00     0.146 A 
HETATM    2  N2  UNL     1      34.127  14.349 -30.584  1.00  0.00    -0.175 N 
ATOM      3  H2  UNL     1      34.037  14.561 -31.578  1.00  0.00     0.186 HD
HETATM    4  C2  UNL     1      33.866  13.108 -30.159  1.00  0.00     0.684 A 
HETATM    5  N7  UNL     1      33.970  12.788 -28.871  1.00  0.00    -0.173 N 
ATOM      6  H7  UNL     1      33.768  11.836 -28.564  1.00  0.00     0.186 HD
HETATM    7  C7  UNL     1      34.344  13.721 -27.974  1.00  0.00     0.173 A 
HETATM    8  C8  UNL     1      34.621  15.028 -28.408  1.00  0.00     0.138 A 
HETATM    9  N8  UNL     1      34.974  15.791 -27.361  1.00  0.00    -0.184 N 
ATOM     10  H8  UNL     1      35.228  16.779 -27.379  1.00  0.00     0.184 HD
HETATM   11  C9  UNL     1      34.925  14.992 -26.293  1.00  0.00     0.683 A 
HETATM   12  N10 UNL     1      34.540  13.724 -26.655  1.00  0.00    -0.129 N 
ENDROOT
BRANCH  12  13
HETATM   13  C10 UNL     1      34.399  12.669 -25.714  1.00  0.00     0.341 C 
HETATM   14  O1  UNL     1      34.918  11.460 -26.206  1.00  0.00    -0.339 OA
HETATM   15  C11 UNL     1      34.783  10.422 -25.323  1.00  0.00     0.130 C 
HETATM   16  C14 UNL     1      33.332  10.026 -25.125  1.00  0.00     0.147 C 
HETATM   17  N12 UNL     1      32.492  11.232 -25.088  1.00  0.00    -0.347 N 
HETATM   18  C16 UNL     1      33.105  12.514 -25.053  1.00  0.00     0.268 C 
ATOM     19  H12 UNL     1      31.475  11.149 -25.088  1.00  0.00     0.163 HD
HETATM   20  O7  UNL     1      32.545  13.444 -24.475  1.00  0.00    -0.269 OA
BRANCH  15  21
HETATM   21  C12 UNL     1      35.426  10.687 -23.961  1.00  0.00     0.206 C 
BRANCH  21  22
HETATM   22  O2  UNL     1      36.790  10.789 -24.073  1.00  0.00    -0.398 OA
ATOM     23  H2  UNL     1      37.029  11.366 -24.789  1.00  0.00     0.209 HD
ENDBRANCH  21  22
ENDBRANCH  15  21
BRANCH  15  24
HETATM   24  C13 UNL     1      35.496   9.204 -25.860  1.00  0.00     0.234 C 
BRANCH  24  25
HETATM   25  O3  UNL     1      36.667   9.560 -26.479  1.00  0.00    -0.257 OA
BRANCH  25  26
HETATM   26  S1  UNL     1      36.590   9.243 -28.130  1.00  0.00     0.355 S 
HETATM   27  O4  UNL     1      35.790  10.296 -28.859  1.00  0.00    -0.176 OA
HETATM   28  O5  UNL     1      37.995   9.187 -28.654  1.00  0.00    -0.176 OA
BRANCH  26  29
HETATM   29  N11 UNL     1      35.889   7.670 -28.407  1.00  0.00    -0.306 N 
ATOM     30 2H11 UNL     1      35.015   7.352 -27.988  1.00  0.00     0.171 HD
ATOM     31 1H11 UNL     1      36.477   7.130 -29.042  1.00  0.00     0.171 HD
ENDBRANCH  26  29
ENDBRANCH  25  26
ENDBRANCH  24  25
ENDBRANCH  15  24
BRANCH  16  32
HETATM   32  C15 UNL     1      33.116   9.252 -23.869  1.00  0.00     0.192 C 
BRANCH  32  33
HETATM   33  O6  UNL     1      31.837   8.657 -23.938  1.00  0.00    -0.399 OA
ATOM     34  H6  UNL     1      31.943   7.721 -23.818  1.00  0.00     0.209 HD
ENDBRANCH  32  33
ENDBRANCH  16  32
ENDBRANCH  12  13
BRANCH  11  35
HETATM   35  N9  UNL     1      35.203  15.367 -25.097  1.00  0.00    -0.234 N 
ATOM     36  H92 UNL     1      34.646  15.153 -24.270  1.00  0.00     0.174 HD
ATOM     37  H91 UNL     1      36.020  15.923 -24.845  1.00  0.00     0.174 HD
ENDBRANCH  11  35
BRANCH   4  38
HETATM   38  N3  UNL     1      33.482  12.151 -31.109  1.00  0.00    -0.200 N 
HETATM   39  C3  UNL     1      32.123  11.661 -31.035  1.00  0.00     0.162 C 
HETATM   40  C4  UNL     1      32.008  10.426 -30.190  1.00  0.00     0.143 C 
HETATM   41  N4  UNL     1      33.159   9.569 -30.236  1.00  0.00    -0.363 N 
HETATM   42  C5  UNL     1      34.179   9.391 -31.185  1.00  0.00     0.185 C 
ATOM     43  H4  UNL     1      33.256   8.970 -29.416  1.00  0.00     0.162 HD
HETATM   44  N5  UNL     1      34.697   8.073 -31.367  1.00  0.00    -0.064 NA
HETATM   45  N6  UNL     1      34.729  10.301 -31.938  1.00  0.00    -0.348 N 
HETATM   46  C6  UNL     1      34.483  11.736 -32.043  1.00  0.00     0.267 C 
ATOM     47  H6  UNL     1      35.457   9.951 -32.561  1.00  0.00     0.163 HD
ENDBRANCH   4  38
BRANCH   1  48
HETATM   48  N1  UNL     1      34.741  16.507 -30.218  1.00  0.00    -0.383 N 
ATOM     49  H12 UNL     1      34.099  17.287 -30.080  1.00  0.00     0.157 HD
ATOM     50  H11 UNL     1      35.600  16.669 -30.743  1.00  0.00     0.157 HD
ENDBRANCH   1  48
TORSDOF 12
ENDMDL
MODEL 3
REMARK VINA RESULT: -7.261538340      4.291      7.689
REMARK  12 active torsions:
REMARK  status: ('A' for Active; 'I' for Inactive)
REMARK    1  A    between atoms: N1_1  and  C1_4 
REMARK    2  A    between atoms: C2_7  and  N3_8 
REMARK    3  A    between atoms: C9_24  and  N9_25 
REMARK    4  A    between atoms: N10_28  and  C10_29 
REMARK    5  A    between atoms: C11_31  and  C12_32 
REMARK    6  A    between atoms: C11_31  and  C13_35 
REMARK    7  A    between atoms: C12_32  and  O2_33 
REMARK    8  A    between atoms: C13_35  and  O3_36 
REMARK    9  A    between atoms: O3_36  and  S1_37 
REMARK   10  A    between atoms: S1_37  and  N11_38 
REMARK   11  A    between atoms: C14_43  and  C15_44 
REMARK   12  A    between atoms: C15_44  and  O6_45 
ROOT
HETATM    1  C1  UNL     1      35.236  15.878 -26.260  1.00  0.00     0.146 A 
HETATM    2  N2  UNL     1      35.426  15.217 -25.114  1.00  0.00    -0.175 N 
ATOM      3  H2  UNL     1      35.811  15.718 -24.313  1.00  0.00     0.186 HD
HETATM    4  C2  UNL     1      35.126  13.920 -24.984  1.00  0.00     0.684 A 
HETATM    5  N7  UNL     1      34.620  13.228 -26.003  1.00  0.00    -0.173 N 
ATOM      6  H7  UNL     1      34.397  12.239 -25.887  1.00  0.00     0.186 HD
HETATM    7  C7  UNL     1      34.403  13.834 -27.187  1.00  0.00     0.173 A 
HETATM    8  C8  UNL     1      34.714  15.196 -27.335  1.00  0.00     0.138 A 
HETATM    9  N8  UNL     1      34.421  15.597 -28.581  1.00  0.00    -0.184 N 
ATOM     10  H8  UNL     1      34.544  16.532 -28.971  1.00  0.00     0.184 HD
HETATM   11  C9  UNL     1      33.937  14.523 -29.208  1.00  0.00     0.683 A 
HETATM   12  N10 UNL     1      33.922  13.439 -28.365  1.00  0.00    -0.129 N 
ENDROOT
BRANCH  12  13
HETATM   13  C10 UNL     1      33.460  12.159 -28.773  1.00  0.00     0.341 C 
HETATM   14  O1  UNL     1      33.861  11.854 -30.085  1.00  0.00    -0.339 OA
HETATM   15  C11 UNL     1      33.418  10.630 -30.509  1.00  0.00     0.130 C 
HETATM   16  C14 UNL     1      31.911  10.597 -30.679  1.00  0.00     0.147 C 
HETATM   17  N12 UNL     1      31.274  11.354 -29.592  1.00  0.00    -0.347 N 
HETATM   18  C16 UNL     1      32.064  11.820 -28.505  1.00  0.00     0.268 C 
ATOM     19  H12 UNL     1      30.272  11.543 -29.617  1.00  0.00     0.163 HD
HETATM   20  O7  UNL     1      31.564  11.924 -27.387  1.00  0.00    -0.269 OA
BRANCH  15  21
HETATM   21  C12 UNL     1      33.852   9.474 -29.606  1.00  0.00     0.206 C 
BRANCH  21  22
HETATM   22  O2  UNL     1      35.187   9.199 -29.768  1.00  0.00    -0.398 OA
ATOM     23  H2  UNL     1      35.456   9.341 -30.668  1.00  0.00     0.209 HD
ENDBRANCH  21  22
ENDBRANCH  15  21
BRANCH  15  24
HETATM   24  C13 UNL     1      34.015  10.315 -31.860  1.00  0.00     0.234 C 
BRANCH  24  25
HETATM   25  O3  UNL     1      35.171  11.026 -32.058  1.00  0.00    -0.257 OA
BRANCH  25  26
HETATM   26  S1  UNL     1      35.015  12.063 -33.375  1.00  0.00     0.355 S 
HETATM   27  O4  UNL     1      33.888  11.638 -34.284  1.00  0.00    -0.176 OA
HETATM   28  O5  UNL     1      34.776  13.447 -32.844  1.00  0.00    -0.176 OA
BRANCH  26  29
HETATM   29  N11 UNL     1      36.509  12.123 -34.273  1.00  0.00    -0.306 N 
ATOM     30 2H11 UNL     1      37.431  11.978 -33.860  1.00  0.00     0.171 HD
ATOM     31 1H11 UNL     1      36.321  12.321 -35.255  1.00  0.00     0.171 HD
ENDBRANCH  26  29
ENDBRANCH  25  26
ENDBRANCH  24  25
ENDBRANCH  15  24
BRANCH  16  32
HETATM   32  C15 UNL     1      31.366   9.208 -30.681  1.00  0.00     0.192 C 
BRANCH  32  33
HETATM   33  O6  UNL     1      30.359   9.134 -29.692  1.00  0.00    -0.399 OA
ATOM     34  H6  UNL     1      30.215  10.011 -29.356  1.00  0.00     0.209 HD
ENDBRANCH  32  33
ENDBRANCH  16  32
ENDBRANCH  12  13
BRANCH  11  35
HETATM   35  N9  UNL     1      33.540  14.516 -30.429  1.00  0.00    -0.234 N 
ATOM     36  H92 UNL     1      33.717  15.256 -31.109  1.00  0.00     0.174 HD
ATOM     37  H91 UNL     1      33.002  13.760 -30.854  1.00  0.00     0.174 HD
ENDBRANCH  11  35
BRANCH   4  38
HETATM   38  N3  UNL     1      35.356  13.309 -23.744  1.00  0.00    -0.200 N 
HETATM   39  C3  UNL     1      35.771  11.924 -23.761  1.00  0.00     0.162 C 
HETATM   40  C4  UNL     1      34.608  10.979 -23.670  1.00  0.00     0.143 C 
HETATM   41  N4  UNL     1      33.510  11.468 -22.885  1.00  0.00    -0.363 N 
HETATM   42  C5  UNL     1      33.421  12.416 -21.853  1.00  0.00     0.185 C 
ATOM     43  H4  UNL     1      32.615  11.041 -23.125  1.00  0.00     0.162 HD
HETATM   44  N5  UNL     1      32.485  12.173 -20.804  1.00  0.00    -0.064 NA
HETATM   45  N6  UNL     1      34.102  13.521 -21.731  1.00  0.00    -0.348 N 
HETATM   46  C6  UNL     1      35.131  14.112 -22.581  1.00  0.00     0.267 C 
ATOM     47  H6  UNL     1      33.877  14.066 -20.899  1.00  0.00     0.163 HD
ENDBRANCH   4  38
BRANCH   1  48
HETATM   48  N1  UNL     1      35.546  17.137 -26.325  1.00  0.00    -0.383 N 
ATOM     49  H12 UNL     1      36.413  17.503 -25.931  1.00  0.00     0.157 HD
ATOM     50  H11 UNL     1      34.906  17.784 -26.784  1.00  0.00     0.157 HD
ENDBRANCH   1  48
TORSDOF 12
ENDMDL
MODEL 4
REMARK VINA RESULT: -7.250730187      1.406      1.792
REMARK  12 active torsions:
REMARK  status: ('A' for Active; 'I' for Inactive)
REMARK    1  A    between atoms: N1_1  and  C1_4 
REMARK    2  A    between atoms: C2_7  and  N3_8 
REMARK    3  A    between atoms: C9_24  and  N9_25 
REMARK    4  A    between atoms: N10_28  and  C10_29 
REMARK    5  A    between atoms: C11_31  and  C12_32 
REMARK    6  A    between atoms: C11_31  and  C13_35 
REMARK    7  A    between atoms: C12_32  and  O2_33 
REMARK    8  A    between atoms: C13_35  and  O3_36 
REMARK    9  A    between atoms: O3_36  and  S1_37 
REMARK   10  A    between atoms: S1_37  and  N11_38 
REMARK   11  A    between atoms: C14_43  and  C15_44 
REMARK   12  A    between atoms: C15_44  and  O6_45 
ROOT
HETATM    1  C1  UNL     1      34.400  14.606 -29.322  1.00  0.00     0.146 A 
HETATM    2  N2  UNL     1      34.355  13.270 -29.297  1.00  0.00    -0.175 N 
ATOM      3  H2  UNL     1      34.287  12.761 -30.178  1.00  0.00     0.186 HD
HETATM    4  C2  UNL     1      34.398  12.580 -28.151  1.00  0.00     0.684 A 
HETATM    5  N7  UNL     1      34.488  13.203 -26.978  1.00  0.00    -0.173 N 
ATOM      6  H7  UNL     1      34.520  12.661 -26.114  1.00  0.00     0.186 HD
HETATM    7  C7  UNL     1      34.538  14.549 -26.933  1.00  0.00     0.173 A 
HETATM    8  C8  UNL     1      34.494  15.284 -28.129  1.00  0.00     0.138 A 
HETATM    9  N8  UNL     1      34.557  16.597 -27.859  1.00  0.00    -0.184 N 
ATOM     10  H8  UNL     1      34.543  17.364 -28.531  1.00  0.00     0.184 HD
HETATM   11  C9  UNL     1      34.641  16.694 -26.530  1.00  0.00     0.683 A 
HETATM   12  N10 UNL     1      34.629  15.448 -25.953  1.00  0.00    -0.129 N 
ENDROOT
BRANCH  12  13
HETATM   13  C10 UNL     1      34.700  15.255 -24.547  1.00  0.00     0.341 C 
HETATM   14  O1  UNL     1      36.005  15.445 -24.061  1.00  0.00    -0.339 OA
HETATM   15  C11 UNL     1      36.106  15.252 -22.709  1.00  0.00     0.130 C 
HETATM   16  C14 UNL     1      35.887  13.801 -22.323  1.00  0.00     0.147 C 
HETATM   17  N12 UNL     1      34.810  13.228 -23.142  1.00  0.00    -0.347 N 
HETATM   18  C16 UNL     1      34.043  14.077 -23.987  1.00  0.00     0.268 C 
ATOM     19  H12 UNL     1      34.614  12.228 -23.106  1.00  0.00     0.163 HD
HETATM   20  O7  UNL     1      32.867  13.806 -24.218  1.00  0.00    -0.269 OA
BRANCH  15  21
HETATM   21  C12 UNL     1      35.167  16.141 -21.891  1.00  0.00     0.206 C 
BRANCH  21  22
HETATM   22  O2  UNL     1      35.827  17.248 -21.421  1.00  0.00    -0.398 OA
ATOM     23  H2  UNL     1      36.699  17.022 -21.119  1.00  0.00     0.209 HD
ENDBRANCH  21  22
ENDBRANCH  15  21
BRANCH  15  24
HETATM   24  C13 UNL     1      37.495  15.621 -22.246  1.00  0.00     0.234 C 
BRANCH  24  25
HETATM   25  O3  UNL     1      38.268  16.026 -23.305  1.00  0.00    -0.257 OA
BRANCH  25  26
HETATM   26  S1  UNL     1      38.410  17.702 -23.333  1.00  0.00     0.355 S 
HETATM   27  O4  UNL     1      37.218  18.348 -23.995  1.00  0.00    -0.176 OA
HETATM   28  O5  UNL     1      38.551  18.176 -21.916  1.00  0.00    -0.176 OA
BRANCH  26  29
HETATM   29  N11 UNL     1      39.872  18.167 -24.164  1.00  0.00    -0.306 N 
ATOM     30 2H11 UNL     1      40.313  19.083 -24.076  1.00  0.00     0.171 HD
ATOM     31 1H11 UNL     1      40.209  17.396 -24.740  1.00  0.00     0.171 HD
ENDBRANCH  26  29
ENDBRANCH  25  26
ENDBRANCH  24  25
ENDBRANCH  15  24
BRANCH  16  32
HETATM   32  C15 UNL     1      35.532  13.640 -20.883  1.00  0.00     0.192 C 
BRANCH  32  33
HETATM   33  O6  UNL     1      34.257  13.037 -20.813  1.00  0.00    -0.399 OA
ATOM     34  H6  UNL     1      34.341  12.139 -21.111  1.00  0.00     0.209 HD
ENDBRANCH  32  33
ENDBRANCH  16  32
ENDBRANCH  12  13
BRANCH  11  35
HETATM   35  N9  UNL     1      34.722  17.805 -25.890  1.00  0.00    -0.234 N 
ATOM     36  H92 UNL     1      33.940  18.428 -25.693  1.00  0.00     0.174 HD
ATOM     37  H91 UNL     1      35.588  18.183 -25.505  1.00  0.00     0.174 HD
ENDBRANCH  11  35
BRANCH   4  38
HETATM   38  N3  UNL     1      34.349  11.180 -28.220  1.00  0.00    -0.200 N 
HETATM   39  C3  UNL     1      33.234  10.596 -28.931  1.00  0.00     0.162 C 
HETATM   40  C4  UNL     1      32.077  10.290 -28.025  1.00  0.00     0.143 C 
HETATM   41  N4  UNL     1      32.456   9.909 -26.693  1.00  0.00    -0.363 N 
HETATM   42  C5  UNL     1      33.629   9.356 -26.155  1.00  0.00     0.185 C 
ATOM     43  H4  UNL     1      31.727  10.074 -25.999  1.00  0.00     0.162 HD
HETATM   44  N5  UNL     1      33.495   8.425 -25.082  1.00  0.00    -0.064 NA
HETATM   45  N6  UNL     1      34.857   9.593 -26.520  1.00  0.00    -0.348 N 
HETATM   46  C6  UNL     1      35.398  10.468 -27.556  1.00  0.00     0.267 C 
ATOM     47  H6  UNL     1      35.562   9.080 -25.991  1.00  0.00     0.163 HD
ENDBRANCH   4  38
BRANCH   1  48
HETATM   48  N1  UNL     1      34.354  15.220 -30.464  1.00  0.00    -0.383 N 
ATOM     49  H12 UNL     1      34.593  14.755 -31.340  1.00  0.00     0.157 HD
ATOM     50  H11 UNL     1      34.070  16.198 -30.493  1.00  0.00     0.157 HD
ENDBRANCH   1  48
TORSDOF 12
ENDMDL
MODEL 5
REMARK VINA RESULT: -7.238689307      2.140      4.003
REMARK  12 active torsions:
REMARK  status: ('A' for Active; 'I' for Inactive)
REMARK    1  A    between atoms: N1_1  and  C1_4 
REMARK    2  A    between atoms: C2_7  and  N3_8 
REMARK    3  A    between atoms: C9_24  and  N9_25 
REMARK    4  A    between atoms: N10_28  and  C10_29 
REMARK    5  A    between atoms: C11_31  and  C12_32 
REMARK    6  A    between atoms: C11_31  and  C13_35 
REMARK    7  A    between atoms: C12_32  and  O2_33 
REMARK    8  A    between atoms: C13_35  and  O3_36 
REMARK    9  A    between atoms: O3_36  and  S1_37 
REMARK   10  A    between atoms: S1_37  and  N11_38 
REMARK   11  A    between atoms: C14_43  and  C15_44 
REMARK   12  A    between atoms: C15_44  and  O6_45 
ROOT
HETATM    1  C1  UNL     1      34.582  15.427 -29.567  1.00  0.00     0.146 A 
HETATM    2  N2  UNL     1      34.344  14.201 -30.043  1.00  0.00    -0.175 N 
ATOM      3  H2  UNL     1      34.165  14.084 -31.040  1.00  0.00     0.186 HD
HETATM    4  C2  UNL     1      34.334  13.122 -29.252  1.00  0.00     0.684 A 
HETATM    5  N7  UNL     1      34.564  13.228 -27.945  1.00  0.00    -0.173 N 
ATOM      6  H7  UNL     1      34.553  12.395 -27.356  1.00  0.00     0.186 HD
HETATM    7  C7  UNL     1      34.811  14.436 -27.401  1.00  0.00     0.173 A 
HETATM    8  C8  UNL     1      34.825  15.576 -28.221  1.00  0.00     0.138 A 
HETATM    9  N8  UNL     1      35.091  16.665 -27.484  1.00  0.00    -0.184 N 
ATOM     10  H8  UNL     1      35.161  17.628 -27.813  1.00  0.00     0.184 HD
HETATM   11  C9  UNL     1      35.244  16.231 -26.231  1.00  0.00     0.683 A 
HETATM   12  N10 UNL     1      35.074  14.870 -26.168  1.00  0.00    -0.129 N 
ENDROOT
BRANCH  12  13
HETATM   13  C10 UNL     1      35.176  14.142 -24.952  1.00  0.00     0.341 C 
HETATM   14  O1  UNL     1      34.035  13.356 -24.719  1.00  0.00    -0.339 OA
HETATM   15  C11 UNL     1      34.100  12.652 -23.545  1.00  0.00     0.130 C 
HETATM   16  C14 UNL     1      34.049  13.562 -22.332  1.00  0.00     0.147 C 
HETATM   17  N12 UNL     1      34.836  14.776 -22.590  1.00  0.00    -0.347 N 
HETATM   18  C16 UNL     1      35.634  14.858 -23.764  1.00  0.00     0.268 C 
ATOM     19  H12 UNL     1      34.809  15.554 -21.932  1.00  0.00     0.163 HD
HETATM   20  O7  UNL     1      36.673  15.516 -23.751  1.00  0.00    -0.269 OA
BRANCH  15  21
HETATM   21  C12 UNL     1      35.325  11.741 -23.445  1.00  0.00     0.206 C 
BRANCH  21  22
HETATM   22  O2  UNL     1      34.978  10.429 -23.645  1.00  0.00    -0.398 OA
ATOM     23  H2  UNL     1      35.730   9.858 -23.540  1.00  0.00     0.209 HD
ENDBRANCH  21  22
ENDBRANCH  15  21
BRANCH  15  24
HETATM   24  C13 UNL     1      32.914  11.724 -23.444  1.00  0.00     0.234 C 
BRANCH  24  25
HETATM   25  O3  UNL     1      31.892  12.152 -24.253  1.00  0.00    -0.257 OA
BRANCH  25  26
HETATM   26  S1  UNL     1      31.847  11.260 -25.680  1.00  0.00     0.355 S 
HETATM   27  O4  UNL     1      31.916  12.154 -26.894  1.00  0.00    -0.176 OA
HETATM   28  O5  UNL     1      33.003  10.303 -25.660  1.00  0.00    -0.176 OA
BRANCH  26  29
HETATM   29  N11 UNL     1      30.397  10.293 -25.738  1.00  0.00    -0.306 N 
ATOM     30 2H11 UNL     1      30.070   9.803 -26.571  1.00  0.00     0.171 HD
ATOM     31 1H11 UNL     1      29.937  10.294 -24.828  1.00  0.00     0.171 HD
ENDBRANCH  26  29
ENDBRANCH  25  26
ENDBRANCH  24  25
ENDBRANCH  15  24
BRANCH  16  32
HETATM   32  C15 UNL     1      34.574  12.903 -21.101  1.00  0.00     0.192 C 
BRANCH  32  33
HETATM   33  O6  UNL     1      33.491  12.709 -20.215  1.00  0.00    -0.399 OA
ATOM     34  H6  UNL     1      33.565  11.836 -19.849  1.00  0.00     0.209 HD
ENDBRANCH  32  33
ENDBRANCH  16  32
ENDBRANCH  12  13
BRANCH  11  35
HETATM   35  N9  UNL     1      35.514  16.990 -25.231  1.00  0.00    -0.234 N 
ATOM     36  H92 UNL     1      34.861  17.641 -24.794  1.00  0.00     0.174 HD
ATOM     37  H91 UNL     1      36.419  17.021 -24.762  1.00  0.00     0.174 HD
ENDBRANCH  11  35
BRANCH   4  38
HETATM   38  N3  UNL     1      34.078  11.875 -29.838  1.00  0.00    -0.200 N 
HETATM   39  C3  UNL     1      33.558  11.877 -31.187  1.00  0.00     0.162 C 
HETATM   40  C4  UNL     1      32.057  11.861 -31.218  1.00  0.00     0.143 C 
HETATM   41  N4  UNL     1      31.451  11.138 -30.136  1.00  0.00    -0.363 N 
HETATM   42  C5  UNL     1      31.911  10.106 -29.301  1.00  0.00     0.185 C 
ATOM     43  H4  UNL     1      30.496  11.432 -29.932  1.00  0.00     0.162 HD
HETATM   44  N5  UNL     1      30.972   9.115 -28.888  1.00  0.00    -0.064 NA
HETATM   45  N6  UNL     1      33.119   9.937 -28.841  1.00  0.00    -0.348 N 
HETATM   46  C6  UNL     1      34.336  10.722 -29.030  1.00  0.00     0.267 C 
ATOM     47  H6  UNL     1      33.234   9.116 -28.248  1.00  0.00     0.163 HD
ENDBRANCH   4  38
BRANCH   1  48
HETATM   48  N1  UNL     1      34.579  16.436 -30.384  1.00  0.00    -0.383 N 
ATOM     49  H12 UNL     1      33.901  16.519 -31.141  1.00  0.00     0.157 HD
ATOM     50  H11 UNL     1      35.275  17.172 -30.269  1.00  0.00     0.157 HD
ENDBRANCH   1  48
TORSDOF 12
ENDMDL
