MODEL 1
REMARK VINA RESULT: -8.082796055      0.000      0.000
REMARK  15 active torsions:
REMARK  status: ('A' for Active; 'I' for Inactive)
REMARK    1  A    between atoms: C2_2  and  O1_3 
REMARK    2  A    between atoms: C2_2  and  C3_5 
REMARK    3  A    between atoms: C3_5  and  O2_6 
REMARK    4  A    between atoms: C4_8  and  O3_9 
REMARK    5  A    between atoms: C5_11  and  C6_12 
REMARK    6  A    between atoms: C6_12  and  O4_13 
REMARK    7  A    between atoms: C7_16  and  N1_17 
REMARK    8  A    between atoms: N3_24  and  C10_25 
REMARK    9  A    between atoms: C10_25  and  O7_26 
REMARK   10  A    between atoms: C10_25  and  C11_28 
REMARK       I    between atoms: C11_28  and  N4_30 
REMARK   11  A    between atoms: N4_30  and  C12_32 
REMARK   12  A    between atoms: C15_38  and  N7_39 
REMARK   13  A    between atoms: N7_39  and  C16_41 
REMARK   14  A    between atoms: C16_41  and  C17_42 
REMARK   15  A    between atoms: C17_42  and  O9_43 
ROOT
HETATM    1  N1  UNL     1      33.118   9.838 -22.450  1.00  0.00    -0.233 N 
HETATM    2  C8  UNL     1      32.758   8.725 -23.114  1.00  0.00     0.335 A 
HETATM    3  O5  UNL     1      32.647   7.617 -22.528  1.00  0.00    -0.246 OA
HETATM    4  N2  UNL     1      32.495   8.736 -24.442  1.00  0.00    -0.260 N 
ATOM      5  H2  UNL     1      32.224   7.874 -24.915  1.00  0.00     0.175 HD
HETATM    6  C9  UNL     1      32.590   9.863 -25.125  1.00  0.00     0.337 A 
HETATM    7  O6  UNL     1      32.340   9.854 -26.373  1.00  0.00    -0.246 OA
HETATM    8  N3  UNL     1      32.948  10.990 -24.487  1.00  0.00    -0.214 N 
HETATM    9  C18 UNL     1      33.207  10.972 -23.167  1.00  0.00     0.340 A 
HETATM   10  O10 UNL     1      33.547  12.054 -22.574  1.00  0.00    -0.246 OA
ENDROOT
BRANCH   8  11
HETATM   11  C10 UNL     1      33.038  12.201 -25.284  1.00  0.00     0.327 C 
BRANCH  11  12
HETATM   12  O7  UNL     1      31.990  12.255 -26.227  1.00  0.00    -0.367 OA
ATOM     13  H7  UNL     1      31.147  12.207 -25.793  1.00  0.00     0.212 HD
ENDBRANCH  11  12
BRANCH  11  14
HETATM   14  C11 UNL     1      34.324  12.285 -26.017  1.00  0.00     0.272 C 
HETATM   15  O8  UNL     1      35.343  12.687 -25.403  1.00  0.00    -0.268 OA
HETATM   16  N4  UNL     1      34.477  11.938 -27.379  1.00  0.00    -0.309 N 
ATOM     17  H4  UNL     1      34.846  11.012 -27.595  1.00  0.00     0.170 HD
BRANCH  16  18
HETATM   18  C12 UNL     1      34.186  12.702 -28.356  1.00  0.00     0.126 A 
HETATM   19  C13 UNL     1      34.132  12.288 -29.674  1.00  0.00     0.094 A 
HETATM   20  C14 UNL     1      33.805  13.207 -30.650  1.00  0.00     0.135 A 
HETATM   21  N5  UNL     1      33.737  12.828 -32.014  1.00  0.00    -0.082 NA
HETATM   22  N6  UNL     1      33.536  14.509 -30.341  1.00  0.00    -0.179 N 
HETATM   23  C15 UNL     1      33.591  14.901 -29.058  1.00  0.00     0.681 A 
ATOM     24  H6  UNL     1      33.297  15.175 -31.075  1.00  0.00     0.185 HD
HETATM   25  N8  UNL     1      33.913  13.989 -28.115  1.00  0.00    -0.177 N 
ATOM     26  H8  UNL     1      33.951  14.305 -27.146  1.00  0.00     0.186 HD
BRANCH  23  27
HETATM   27  N7  UNL     1      33.340  16.126 -28.745  1.00  0.00    -0.224 N 
ATOM     28  H7  UNL     1      32.372  16.442 -28.797  1.00  0.00     0.177 HD
BRANCH  27  29
HETATM   29  C16 UNL     1      34.338  17.079 -28.326  1.00  0.00     0.164 C 
BRANCH  29  30
HETATM   30  C17 UNL     1      34.356  17.098 -26.796  1.00  0.00     0.184 C 
BRANCH  30  31
HETATM   31  O9  UNL     1      33.131  16.712 -26.308  1.00  0.00    -0.399 OA
ATOM     32  H9  UNL     1      32.440  17.034 -26.876  1.00  0.00     0.209 HD
ENDBRANCH  30  31
ENDBRANCH  29  30
ENDBRANCH  27  29
ENDBRANCH  23  27
ENDBRANCH  16  18
ENDBRANCH  11  14
ENDBRANCH   8  11
BRANCH   1  33
HETATM   33  C7  UNL     1      33.381   9.757 -21.044  1.00  0.00     0.201 C 
HETATM   34  C3  UNL     1      32.230   9.724 -20.143  1.00  0.00     0.140 C 
HETATM   35  C4  UNL     1      32.318   8.797 -19.040  1.00  0.00     0.173 C 
HETATM   36  C5  UNL     1      33.579   8.050 -18.959  1.00  0.00     0.105 C 
HETATM   37  S1  UNL     1      34.262   8.200 -20.631  1.00  0.00    -0.130 SA
BRANCH  34  38
HETATM   38  C2  UNL     1      31.959  11.128 -19.572  1.00  0.00     0.154 C 
HETATM   39  C1  UNL     1      31.473  11.073 -18.147  1.00  0.00     0.042 C 
BRANCH  38  40
HETATM   40  O1  UNL     1      30.936  11.739 -20.336  1.00  0.00    -0.393 OA
ATOM     41  H1  UNL     1      30.445  11.040 -20.754  1.00  0.00     0.210 HD
ENDBRANCH  38  40
ENDBRANCH  34  38
BRANCH  34  42
HETATM   42  O2  UNL     1      31.069   9.442 -20.903  1.00  0.00    -0.382 OA
ATOM     43  H2  UNL     1      30.959   8.504 -20.807  1.00  0.00     0.211 HD
ENDBRANCH  34  42
BRANCH  35  44
HETATM   44  O3  UNL     1      31.268   7.846 -19.087  1.00  0.00    -0.391 OA
ATOM     45  H3  UNL     1      30.424   8.271 -19.177  1.00  0.00     0.210 HD
ENDBRANCH  35  44
BRANCH  36  46
HETATM   46  C6  UNL     1      33.395   6.600 -18.565  1.00  0.00     0.181 C 
BRANCH  46  47
HETATM   47  O4  UNL     1      32.921   6.572 -17.238  1.00  0.00    -0.400 OA
ATOM     48  H4  UNL     1      33.309   5.819 -16.808  1.00  0.00     0.209 HD
ENDBRANCH  46  47
ENDBRANCH  36  46
ENDBRANCH   1  33
TORSDOF 15
ENDMDL
MODEL 2
REMARK VINA RESULT: -7.961083777      2.584      8.812
REMARK  15 active torsions:
REMARK  status: ('A' for Active; 'I' for Inactive)
REMARK    1  A    between atoms: C2_2  and  O1_3 
REMARK    2  A    between atoms: C2_2  and  C3_5 
REMARK    3  A    between atoms: C3_5  and  O2_6 
REMARK    4  A    between atoms: C4_8  and  O3_9 
REMARK    5  A    between atoms: C5_11  and  C6_12 
REMARK    6  A    between atoms: C6_12  and  O4_13 
REMARK    7  A    between atoms: C7_16  and  N1_17 
REMARK    8  A    between atoms: N3_24  and  C10_25 
REMARK    9  A    between atoms: C10_25  and  O7_26 
REMARK   10  A    between atoms: C10_25  and  C11_28 
REMARK       I    between atoms: C11_28  and  N4_30 
REMARK   11  A    between atoms: N4_30  and  C12_32 
REMARK   12  A    between atoms: C15_38  and  N7_39 
REMARK   13  A    between atoms: N7_39  and  C16_41 
REMARK   14  A    between atoms: C16_41  and  C17_42 
REMARK   15  A    between atoms: C17_42  and  O9_43 
ROOT
HETATM    1  N1  UNL     1      34.002  12.681 -27.728  1.00  0.00    -0.233 N 
HETATM    2  C8  UNL     1      34.014  11.867 -28.799  1.00  0.00     0.335 A 
HETATM    3  O5  UNL     1      34.698  12.135 -29.820  1.00  0.00    -0.246 OA
HETATM    4  N2  UNL     1      33.295  10.720 -28.836  1.00  0.00    -0.260 N 
ATOM      5  H2  UNL     1      33.326  10.125 -29.663  1.00  0.00     0.175 HD
HETATM    6  C9  UNL     1      32.552  10.372 -27.799  1.00  0.00     0.337 A 
HETATM    7  O6  UNL     1      31.883   9.292 -27.852  1.00  0.00    -0.246 OA
HETATM    8  N3  UNL     1      32.521  11.167 -26.717  1.00  0.00    -0.214 N 
HETATM    9  C18 UNL     1      33.239  12.305 -26.687  1.00  0.00     0.340 A 
HETATM   10  O10 UNL     1      33.198  13.051 -25.648  1.00  0.00    -0.246 OA
ENDROOT
BRANCH   8  11
HETATM   11  C10 UNL     1      31.690  10.739 -25.605  1.00  0.00     0.327 C 
BRANCH  11  12
HETATM   12  O7  UNL     1      31.158  11.854 -24.924  1.00  0.00    -0.367 OA
ATOM     13  H7  UNL     1      30.214  11.782 -24.850  1.00  0.00     0.212 HD
ENDBRANCH  11  12
BRANCH  11  14
HETATM   14  C11 UNL     1      32.450   9.921 -24.630  1.00  0.00     0.272 C 
HETATM   15  O8  UNL     1      32.124   8.719 -24.468  1.00  0.00    -0.268 OA
HETATM   16  N4  UNL     1      33.530  10.414 -23.862  1.00  0.00    -0.309 N 
ATOM     17  H4  UNL     1      34.476  10.221 -24.193  1.00  0.00     0.170 HD
BRANCH  16  18
HETATM   18  C12 UNL     1      33.404  11.084 -22.786  1.00  0.00     0.126 A 
HETATM   19  C13 UNL     1      34.241  12.119 -22.415  1.00  0.00     0.094 A 
HETATM   20  C14 UNL     1      34.008  12.774 -21.223  1.00  0.00     0.135 A 
HETATM   21  N5  UNL     1      34.840  13.841 -20.802  1.00  0.00    -0.082 NA
HETATM   22  N6  UNL     1      32.971  12.420 -20.408  1.00  0.00    -0.179 N 
HETATM   23  C15 UNL     1      32.163  11.414 -20.777  1.00  0.00     0.681 A 
ATOM     24  H6  UNL     1      32.813  12.914 -19.530  1.00  0.00     0.185 HD
HETATM   25  N8  UNL     1      32.407  10.783 -21.947  1.00  0.00    -0.177 N 
ATOM     26  H8  UNL     1      31.783  10.020 -22.211  1.00  0.00     0.186 HD
BRANCH  23  27
HETATM   27  N7  UNL     1      31.179  11.064 -20.022  1.00  0.00    -0.224 N 
ATOM     28  H7  UNL     1      30.317  10.759 -20.473  1.00  0.00     0.177 HD
BRANCH  27  29
HETATM   29  C16 UNL     1      31.215  11.075 -18.581  1.00  0.00     0.164 C 
BRANCH  29  30
HETATM   30  C17 UNL     1      31.524   9.653 -18.108  1.00  0.00     0.184 C 
BRANCH  30  31
HETATM   31  O9  UNL     1      30.405   9.093 -17.541  1.00  0.00    -0.399 OA
ATOM     32  H9  UNL     1      29.953   9.739 -17.011  1.00  0.00     0.209 HD
ENDBRANCH  30  31
ENDBRANCH  29  30
ENDBRANCH  27  29
ENDBRANCH  23  27
ENDBRANCH  16  18
ENDBRANCH  11  14
ENDBRANCH   8  11
BRANCH   1  33
HETATM   33  C7  UNL     1      34.786  13.879 -27.755  1.00  0.00     0.201 C 
HETATM   34  C3  UNL     1      34.176  15.073 -28.342  1.00  0.00     0.140 C 
HETATM   35  C4  UNL     1      34.409  16.312 -27.638  1.00  0.00     0.173 C 
HETATM   36  C5  UNL     1      35.269  16.198 -26.453  1.00  0.00     0.105 C 
HETATM   37  S1  UNL     1      35.199  14.431 -26.054  1.00  0.00    -0.130 SA
BRANCH  34  38
HETATM   38  C2  UNL     1      34.642  15.249 -29.798  1.00  0.00     0.154 C 
HETATM   39  C1  UNL     1      34.994  16.682 -30.107  1.00  0.00     0.042 C 
BRANCH  38  40
HETATM   40  O1  UNL     1      33.581  14.887 -30.661  1.00  0.00    -0.393 OA
ATOM     41  H1  UNL     1      33.429  13.957 -30.541  1.00  0.00     0.210 HD
ENDBRANCH  38  40
ENDBRANCH  34  38
BRANCH  34  42
HETATM   42  O2  UNL     1      32.782  14.854 -28.461  1.00  0.00    -0.382 OA
ATOM     43  H2  UNL     1      32.421  15.284 -27.694  1.00  0.00     0.211 HD
ENDBRANCH  34  42
BRANCH  35  44
HETATM   44  O3  UNL     1      33.190  16.898 -27.217  1.00  0.00    -0.391 OA
ATOM     45  H3  UNL     1      33.161  16.986 -26.272  1.00  0.00     0.210 HD
ENDBRANCH  35  44
BRANCH  36  46
HETATM   46  C6  UNL     1      34.806  17.047 -25.290  1.00  0.00     0.181 C 
BRANCH  46  47
HETATM   47  O4  UNL     1      35.915  17.784 -24.828  1.00  0.00    -0.400 OA
ATOM     48  H4  UNL     1      36.701  17.333 -25.112  1.00  0.00     0.209 HD
ENDBRANCH  46  47
ENDBRANCH  36  46
ENDBRANCH   1  33
TORSDOF 15
ENDMDL
MODEL 3
REMARK VINA RESULT: -7.840209414      1.504      2.244
REMARK  15 active torsions:
REMARK  status: ('A' for Active; 'I' for Inactive)
REMARK    1  A    between atoms: C2_2  and  O1_3 
REMARK    2  A    between atoms: C2_2  and  C3_5 
REMARK    3  A    between atoms: C3_5  and  O2_6 
REMARK    4  A    between atoms: C4_8  and  O3_9 
REMARK    5  A    between atoms: C5_11  and  C6_12 
REMARK    6  A    between atoms: C6_12  and  O4_13 
REMARK    7  A    between atoms: C7_16  and  N1_17 
REMARK    8  A    between atoms: N3_24  and  C10_25 
REMARK    9  A    between atoms: C10_25  and  O7_26 
REMARK   10  A    between atoms: C10_25  and  C11_28 
REMARK       I    between atoms: C11_28  and  N4_30 
REMARK   11  A    between atoms: N4_30  and  C12_32 
REMARK   12  A    between atoms: C15_38  and  N7_39 
REMARK   13  A    between atoms: N7_39  and  C16_41 
REMARK   14  A    between atoms: C16_41  and  C17_42 
REMARK   15  A    between atoms: C17_42  and  O9_43 
ROOT
HETATM    1  N1  UNL     1      33.584  11.469 -21.811  1.00  0.00    -0.233 N 
HETATM    2  C8  UNL     1      33.877  12.782 -21.798  1.00  0.00     0.335 A 
HETATM    3  O5  UNL     1      34.307  13.349 -20.761  1.00  0.00    -0.246 OA
HETATM    4  N2  UNL     1      33.726  13.561 -22.895  1.00  0.00    -0.260 N 
ATOM      5  H2  UNL     1      33.958  14.554 -22.852  1.00  0.00     0.175 HD
HETATM    6  C9  UNL     1      33.279  13.035 -24.023  1.00  0.00     0.337 A 
HETATM    7  O6  UNL     1      33.144  13.783 -25.043  1.00  0.00    -0.246 OA
HETATM    8  N3  UNL     1      32.979  11.727 -24.064  1.00  0.00    -0.214 N 
HETATM    9  C18 UNL     1      33.131  10.958 -22.970  1.00  0.00     0.340 A 
HETATM   10  O10 UNL     1      32.840   9.713 -23.026  1.00  0.00    -0.246 OA
ENDROOT
BRANCH   8  11
HETATM   11  C10 UNL     1      32.492  11.199 -25.327  1.00  0.00     0.327 C 
BRANCH  11  12
HETATM   12  O7  UNL     1      31.646  10.091 -25.110  1.00  0.00    -0.367 OA
ATOM     13  H7  UNL     1      30.763  10.378 -24.909  1.00  0.00     0.212 HD
ENDBRANCH  11  12
BRANCH  11  14
HETATM   14  C11 UNL     1      33.602  10.767 -26.209  1.00  0.00     0.272 C 
HETATM   15  O8  UNL     1      34.625  10.258 -25.686  1.00  0.00    -0.268 OA
HETATM   16  N4  UNL     1      33.583  10.892 -27.617  1.00  0.00    -0.309 N 
ATOM     17  H4  UNL     1      33.327  10.070 -28.164  1.00  0.00     0.170 HD
BRANCH  16  18
HETATM   18  C12 UNL     1      33.861  11.962 -28.251  1.00  0.00     0.126 A 
HETATM   19  C13 UNL     1      33.763  12.098 -29.623  1.00  0.00     0.094 A 
HETATM   20  C14 UNL     1      34.094  13.307 -30.200  1.00  0.00     0.135 A 
HETATM   21  N5  UNL     1      34.008  13.492 -31.603  1.00  0.00    -0.082 NA
HETATM   22  N6  UNL     1      34.513  14.364 -29.446  1.00  0.00    -0.179 N 
HETATM   23  C15 UNL     1      34.604  14.223 -28.114  1.00  0.00     0.681 A 
ATOM     24  H6  UNL     1      34.753  15.251 -29.889  1.00  0.00     0.185 HD
HETATM   25  N8  UNL     1      34.278  13.032 -27.565  1.00  0.00    -0.177 N 
ATOM     26  H8  UNL     1      34.354  12.943 -26.552  1.00  0.00     0.186 HD
BRANCH  23  27
HETATM   27  N7  UNL     1      34.998  15.210 -27.384  1.00  0.00    -0.224 N 
ATOM     28  H7  UNL     1      35.431  14.994 -26.487  1.00  0.00     0.177 HD
BRANCH  27  29
HETATM   29  C16 UNL     1      34.869  16.597 -27.753  1.00  0.00     0.164 C 
BRANCH  29  30
HETATM   30  C17 UNL     1      34.222  17.336 -26.578  1.00  0.00     0.184 C 
BRANCH  30  31
HETATM   31  O9  UNL     1      33.098  16.663 -26.164  1.00  0.00    -0.399 OA
ATOM     32  H9  UNL     1      33.332  15.791 -25.870  1.00  0.00     0.209 HD
ENDBRANCH  30  31
ENDBRANCH  29  30
ENDBRANCH  27  29
ENDBRANCH  23  27
ENDBRANCH  16  18
ENDBRANCH  11  14
ENDBRANCH   8  11
BRANCH   1  33
HETATM   33  C7  UNL     1      33.766  10.703 -20.615  1.00  0.00     0.201 C 
HETATM   34  C3  UNL     1      32.566  10.297 -19.884  1.00  0.00     0.140 C 
HETATM   35  C4  UNL     1      32.566   8.947 -19.370  1.00  0.00     0.173 C 
HETATM   36  C5  UNL     1      33.800   8.191 -19.620  1.00  0.00     0.105 C 
HETATM   37  S1  UNL     1      34.578   9.098 -20.982  1.00  0.00    -0.130 SA
BRANCH  34  38
HETATM   38  C2  UNL     1      32.303  11.259 -18.712  1.00  0.00     0.154 C 
HETATM   39  C1  UNL     1      31.451  10.625 -17.642  1.00  0.00     0.042 C 
BRANCH  38  40
HETATM   40  O1  UNL     1      31.593  12.382 -19.197  1.00  0.00    -0.393 OA
ATOM     41  H1  UNL     1      31.374  12.203 -20.104  1.00  0.00     0.210 HD
ENDBRANCH  38  40
ENDBRANCH  34  38
BRANCH  34  42
HETATM   42  O2  UNL     1      31.441  10.480 -20.725  1.00  0.00    -0.382 OA
ATOM     43  H2  UNL     1      31.814  10.830 -21.526  1.00  0.00     0.211 HD
ENDBRANCH  34  42
BRANCH  35  44
HETATM   44  O3  UNL     1      31.495   8.194 -19.912  1.00  0.00    -0.391 OA
ATOM     45  H3  UNL     1      31.468   8.268 -20.858  1.00  0.00     0.210 HD
ENDBRANCH  35  44
BRANCH  36  46
HETATM   46  C6  UNL     1      33.554   6.743 -19.989  1.00  0.00     0.181 C 
BRANCH  46  47
HETATM   47  O4  UNL     1      33.525   6.657 -21.395  1.00  0.00    -0.400 OA
ATOM     48  H4  UNL     1      33.130   5.824 -21.625  1.00  0.00     0.209 HD
ENDBRANCH  46  47
ENDBRANCH  36  46
ENDBRANCH   1  33
TORSDOF 15
ENDMDL
MODEL 4
REMARK VINA RESULT: -7.819412125      2.185      3.932
REMARK  15 active torsions:
REMARK  status: ('A' for Active; 'I' for Inactive)
REMARK    1  A    between atoms: C2_2  and  O1_3 
REMARK    2  A    between atoms: C2_2  and  C3_5 
REMARK    3  A    between atoms: C3_5  and  O2_6 
REMARK    4  A    between atoms: C4_8  and  O3_9 
REMARK    5  A    between atoms: C5_11  and  C6_12 
REMARK    6  A    between atoms: C6_12  and  O4_13 
REMARK    7  A    between atoms: C7_16  and  N1_17 
REMARK    8  A    between atoms: N3_24  and  C10_25 
REMARK    9  A    between atoms: C10_25  and  O7_26 
REMARK   10  A    between atoms: C10_25  and  C11_28 
REMARK       I    between atoms: C11_28  and  N4_30 
REMARK   11  A    between atoms: N4_30  and  C12_32 
REMARK   12  A    between atoms: C15_38  and  N7_39 
REMARK   13  A    between atoms: N7_39  and  C16_41 
REMARK   14  A    between atoms: C16_41  and  C17_42 
REMARK   15  A    between atoms: C17_42  and  O9_43 
ROOT
HETATM    1  N1  UNL     1      34.001  11.110 -21.146  1.00  0.00    -0.233 N 
HETATM    2  C8  UNL     1      34.458  11.909 -20.164  1.00  0.00     0.335 A 
HETATM    3  O5  UNL     1      34.738  11.455 -19.025  1.00  0.00    -0.246 OA
HETATM    4  N2  UNL     1      34.640  13.238 -20.348  1.00  0.00    -0.260 N 
ATOM      5  H2  UNL     1      34.987  13.816 -19.583  1.00  0.00     0.175 HD
HETATM    6  C9  UNL     1      34.367  13.786 -21.520  1.00  0.00     0.337 A 
HETATM    7  O6  UNL     1      34.543  15.037 -21.673  1.00  0.00    -0.246 OA
HETATM    8  N3  UNL     1      33.909  13.012 -22.517  1.00  0.00    -0.214 N 
HETATM    9  C18 UNL     1      33.731  11.692 -22.327  1.00  0.00     0.340 A 
HETATM   10  O10 UNL     1      33.294  10.968 -23.288  1.00  0.00    -0.246 OA
ENDROOT
BRANCH   8  11
HETATM   11  C10 UNL     1      33.625  13.664 -23.783  1.00  0.00     0.327 C 
BRANCH  11  12
HETATM   12  O7  UNL     1      32.454  13.133 -24.365  1.00  0.00    -0.367 OA
ATOM     13  H7  UNL     1      32.048  13.769 -24.941  1.00  0.00     0.212 HD
ENDBRANCH  11  12
BRANCH  11  14
HETATM   14  C11 UNL     1      34.736  13.500 -24.751  1.00  0.00     0.272 C 
HETATM   15  O8  UNL     1      35.729  14.265 -24.663  1.00  0.00    -0.268 OA
HETATM   16  N4  UNL     1      34.749  12.527 -25.777  1.00  0.00    -0.309 N 
ATOM     17  H4  UNL     1      35.269  11.665 -25.607  1.00  0.00     0.170 HD
BRANCH  16  18
HETATM   18  C12 UNL     1      34.158  12.652 -26.898  1.00  0.00     0.126 A 
HETATM   19  C13 UNL     1      34.605  13.461 -27.924  1.00  0.00     0.094 A 
HETATM   20  C14 UNL     1      33.879  13.518 -29.096  1.00  0.00     0.135 A 
HETATM   21  N5  UNL     1      34.300  14.334 -30.176  1.00  0.00    -0.082 NA
HETATM   22  N6  UNL     1      32.735  12.793 -29.260  1.00  0.00    -0.179 N 
HETATM   23  C15 UNL     1      32.308  12.008 -28.257  1.00  0.00     0.681 A 
ATOM     24  H6  UNL     1      32.210  12.846 -30.133  1.00  0.00     0.185 HD
HETATM   25  N8  UNL     1      33.030  11.965 -27.116  1.00  0.00    -0.177 N 
ATOM     26  H8  UNL     1      32.691  11.365 -26.365  1.00  0.00     0.186 HD
BRANCH  23  27
HETATM   27  N7  UNL     1      31.229  11.316 -28.392  1.00  0.00    -0.224 N 
ATOM     28  H7  UNL     1      30.540  11.637 -29.071  1.00  0.00     0.177 HD
BRANCH  27  29
HETATM   29  C16 UNL     1      30.932  10.118 -27.646  1.00  0.00     0.164 C 
BRANCH  29  30
HETATM   30  C17 UNL     1      30.361  10.540 -26.290  1.00  0.00     0.184 C 
BRANCH  30  31
HETATM   31  O9  UNL     1      31.236  10.200 -25.287  1.00  0.00    -0.399 OA
ATOM     32  H9  UNL     1      31.226   9.259 -25.152  1.00  0.00     0.209 HD
ENDBRANCH  30  31
ENDBRANCH  29  30
ENDBRANCH  27  29
ENDBRANCH  23  27
ENDBRANCH  16  18
ENDBRANCH  11  14
ENDBRANCH   8  11
BRANCH   1  33
HETATM   33  C7  UNL     1      33.831   9.712 -20.884  1.00  0.00     0.201 C 
HETATM   34  C3  UNL     1      32.473   9.233 -20.631  1.00  0.00     0.140 C 
HETATM   35  C4  UNL     1      32.119   7.979 -21.255  1.00  0.00     0.173 C 
HETATM   36  C5  UNL     1      33.199   7.343 -22.019  1.00  0.00     0.105 C 
HETATM   37  S1  UNL     1      34.352   8.706 -22.328  1.00  0.00    -0.130 SA
BRANCH  34  38
HETATM   38  C2  UNL     1      32.225   9.105 -19.117  1.00  0.00     0.154 C 
HETATM   39  C1  UNL     1      31.819   7.706 -18.728  1.00  0.00     0.042 C 
BRANCH  38  40
HETATM   40  O1  UNL     1      31.158   9.962 -18.758  1.00  0.00    -0.393 OA
ATOM     41  H1  UNL     1      31.232  10.124 -17.825  1.00  0.00     0.210 HD
ENDBRANCH  38  40
ENDBRANCH  34  38
BRANCH  34  42
HETATM   42  O2  UNL     1      31.558  10.235 -21.036  1.00  0.00    -0.382 OA
ATOM     43  H2  UNL     1      30.708   9.829 -20.906  1.00  0.00     0.211 HD
ENDBRANCH  34  42
BRANCH  35  44
HETATM   44  O3  UNL     1      31.019   8.138 -22.133  1.00  0.00    -0.391 OA
ATOM     45  H3  UNL     1      31.197   7.745 -22.979  1.00  0.00     0.210 HD
ENDBRANCH  35  44
BRANCH  36  46
HETATM   46  C6  UNL     1      32.729   6.712 -23.312  1.00  0.00     0.181 C 
BRANCH  46  47
HETATM   47  O4  UNL     1      32.736   7.711 -24.306  1.00  0.00    -0.400 OA
ATOM     48  H4  UNL     1      33.554   8.189 -24.230  1.00  0.00     0.209 HD
ENDBRANCH  46  47
ENDBRANCH  36  46
ENDBRANCH   1  33
TORSDOF 15
ENDMDL
MODEL 5
REMARK VINA RESULT: -7.784004662      1.101      1.165
REMARK  15 active torsions:
REMARK  status: ('A' for Active; 'I' for Inactive)
REMARK    1  A    between atoms: C2_2  and  O1_3 
REMARK    2  A    between atoms: C2_2  and  C3_5 
REMARK    3  A    between atoms: C3_5  and  O2_6 
REMARK    4  A    between atoms: C4_8  and  O3_9 
REMARK    5  A    between atoms: C5_11  and  C6_12 
REMARK    6  A    between atoms: C6_12  and  O4_13 
REMARK    7  A    between atoms: C7_16  and  N1_17 
REMARK    8  A    between atoms: N3_24  and  C10_25 
REMARK    9  A    between atoms: C10_25  and  O7_26 
REMARK   10  A    between atoms: C10_25  and  C11_28 
REMARK       I    between atoms: C11_28  and  N4_30 
REMARK   11  A    between atoms: N4_30  and  C12_32 
REMARK   12  A    between atoms: C15_38  and  N7_39 
REMARK   13  A    between atoms: N7_39  and  C16_41 
REMARK   14  A    between atoms: C16_41  and  C17_42 
REMARK   15  A    between atoms: C17_42  and  O9_43 
ROOT
HETATM    1  N1  UNL     1      33.143  10.023 -21.940  1.00  0.00    -0.233 N 
HETATM    2  C8  UNL     1      32.705   8.965 -22.645  1.00  0.00     0.335 A 
HETATM    3  O5  UNL     1      32.465   7.860 -22.092  1.00  0.00    -0.246 OA
HETATM    4  N2  UNL     1      32.499   9.029 -23.982  1.00  0.00    -0.260 N 
ATOM      5  H2  UNL     1      32.166   8.208 -24.487  1.00  0.00     0.175 HD
HETATM    6  C9  UNL     1      32.729  10.157 -24.632  1.00  0.00     0.337 A 
HETATM    7  O6  UNL     1      32.530  10.199 -25.888  1.00  0.00    -0.246 OA
HETATM    8  N3  UNL     1      33.167  11.230 -23.952  1.00  0.00    -0.214 N 
HETATM    9  C18 UNL     1      33.370  11.158 -22.624  1.00  0.00     0.340 A 
HETATM   10  O10 UNL     1      33.787  12.189 -21.992  1.00  0.00    -0.246 OA
ENDROOT
BRANCH   8  11
HETATM   11  C10 UNL     1      33.404  12.444 -24.714  1.00  0.00     0.327 C 
BRANCH  11  12
HETATM   12  O7  UNL     1      32.361  12.663 -25.638  1.00  0.00    -0.367 OA
ATOM     13  H7  UNL     1      32.140  13.586 -25.681  1.00  0.00     0.212 HD
ENDBRANCH  11  12
BRANCH  11  14
HETATM   14  C11 UNL     1      34.681  12.383 -25.466  1.00  0.00     0.272 C 
HETATM   15  O8  UNL     1      35.760  12.486 -24.831  1.00  0.00    -0.268 OA
HETATM   16  N4  UNL     1      34.762  12.214 -26.868  1.00  0.00    -0.309 N 
ATOM     17  H4  UNL     1      34.941  11.275 -27.224  1.00  0.00     0.170 HD
BRANCH  16  18
HETATM   18  C12 UNL     1      34.625  13.154 -27.717  1.00  0.00     0.126 A 
HETATM   19  C13 UNL     1      34.311  12.956 -29.048  1.00  0.00     0.094 A 
HETATM   20  C14 UNL     1      34.189  14.052 -29.877  1.00  0.00     0.135 A 
HETATM   21  N5  UNL     1      33.868  13.896 -31.248  1.00  0.00    -0.082 NA
HETATM   22  N6  UNL     1      34.371  15.321 -29.409  1.00  0.00    -0.179 N 
HETATM   23  C15 UNL     1      34.675  15.504 -28.114  1.00  0.00     0.681 A 
ATOM     24  H6  UNL     1      34.277  16.120 -30.035  1.00  0.00     0.185 HD
HETATM   25  N8  UNL     1      34.791  14.419 -27.317  1.00  0.00    -0.177 N 
ATOM     26  H8  UNL     1      35.024  14.577 -26.336  1.00  0.00     0.186 HD
BRANCH  23  27
HETATM   27  N7  UNL     1      34.851  16.695 -27.652  1.00  0.00    -0.224 N 
ATOM     28  H7  UNL     1      35.285  17.383 -28.267  1.00  0.00     0.177 HD
BRANCH  27  29
HETATM   29  C16 UNL     1      34.476  17.118 -26.326  1.00  0.00     0.164 C 
BRANCH  29  30
HETATM   30  C17 UNL     1      35.699  16.957 -25.420  1.00  0.00     0.184 C 
BRANCH  30  31
HETATM   31  O9  UNL     1      35.674  15.725 -24.813  1.00  0.00    -0.399 OA
ATOM     32  H9  UNL     1      35.413  15.817 -23.904  1.00  0.00     0.209 HD
ENDBRANCH  30  31
ENDBRANCH  29  30
ENDBRANCH  27  29
ENDBRANCH  23  27
ENDBRANCH  16  18
ENDBRANCH  11  14
ENDBRANCH   8  11
BRANCH   1  33
HETATM   33  C7  UNL     1      33.340   9.886 -20.528  1.00  0.00     0.201 C 
HETATM   34  C3  UNL     1      32.148   9.846 -19.681  1.00  0.00     0.140 C 
HETATM   35  C4  UNL     1      32.168   8.878 -18.609  1.00  0.00     0.173 C 
HETATM   36  C5  UNL     1      33.410   8.103 -18.499  1.00  0.00     0.105 C 
HETATM   37  S1  UNL     1      34.172   8.299 -20.132  1.00  0.00    -0.130 SA
BRANCH  34  38
HETATM   38  C2  UNL     1      31.878  11.234 -19.072  1.00  0.00     0.154 C 
HETATM   39  C1  UNL     1      33.149  11.909 -18.623  1.00  0.00     0.042 C 
BRANCH  38  40
HETATM   40  O1  UNL     1      31.065  11.076 -17.925  1.00  0.00    -0.393 OA
ATOM     41  H1  UNL     1      31.365  10.295 -17.476  1.00  0.00     0.210 HD
ENDBRANCH  38  40
ENDBRANCH  34  38
BRANCH  34  42
HETATM   42  O2  UNL     1      31.018   9.615 -20.503  1.00  0.00    -0.382 OA
ATOM     43  H2  UNL     1      31.381   9.588 -21.381  1.00  0.00     0.211 HD
ENDBRANCH  34  42
BRANCH  35  44
HETATM   44  O3  UNL     1      31.105   7.951 -18.739  1.00  0.00    -0.391 OA
ATOM     45  H3  UNL     1      31.432   7.066 -18.846  1.00  0.00     0.210 HD
ENDBRANCH  35  44
BRANCH  36  46
HETATM   46  C6  UNL     1      33.181   6.644 -18.167  1.00  0.00     0.181 C 
BRANCH  46  47
HETATM   47  O4  UNL     1      32.645   6.579 -16.865  1.00  0.00    -0.400 OA
ATOM     48  H4  UNL     1      32.670   7.454 -16.498  1.00  0.00     0.209 HD
ENDBRANCH  46  47
ENDBRANCH  36  46
ENDBRANCH   1  33
TORSDOF 15
ENDMDL
