MODEL 1
REMARK VINA RESULT: -6.590542980      0.000      0.000
REMARK  16 active torsions:
REMARK  status: ('A' for Active; 'I' for Inactive)
REMARK    1  A    between atoms: N1_1  and  C1_5 
REMARK    2  A    between atoms: C1_5  and  C2_6 
REMARK    3  A    between atoms: C3_7  and  O1_8 
REMARK    4  A    between atoms: C4_10  and  O2_11 
REMARK    5  A    between atoms: C4_10  and  O3_13 
REMARK    6  A    between atoms: O3_13  and  C5_14 
REMARK       I    between atoms: C5_14  and  N2_16 
REMARK    7  A    between atoms: N3_19  and  C6_20 
REMARK    8  A    between atoms: C6_20  and  C7_21 
REMARK    9  A    between atoms: C8_22  and  O6_23 
REMARK   10  A    between atoms: C10_26  and  C11_27 
REMARK   11  A    between atoms: C11_27  and  O7_28 
REMARK   12  A    between atoms: O7_28  and  C12_29 
REMARK   13  A    between atoms: C12_29  and  C13_31 
REMARK   14  A    between atoms: C13_31  and  O9_32 
REMARK   15  A    between atoms: C13_31  and  C14_34 
REMARK   16  A    between atoms: C17_45  and  O11_46 
ROOT
HETATM    1  C5  UNL     1       6.664   1.891  21.367  1.00  0.00     0.469 C 
HETATM    2  O4  UNL     1       6.652   1.145  20.383  1.00  0.00    -0.218 OA
HETATM    3  N2  UNL     1       7.779   2.644  21.871  1.00  0.00    -0.213 NA
HETATM    4  O5  UNL     1       8.702   3.267  22.287  1.00  0.00    -0.213 OA
ATOM      5  H5  UNL     1       9.439   3.765  22.620  1.00  0.00     0.262 HD
ENDROOT
BRANCH   1   6
HETATM    6  O3  UNL     1       5.424   1.983  22.036  1.00  0.00    -0.230 OA
BRANCH   6   7
HETATM    7  C4  UNL     1       4.526   3.021  21.731  1.00  0.00     0.287 C 
HETATM    8  C3  UNL     1       3.269   2.688  21.020  1.00  0.00     0.228 C 
HETATM    9  C2  UNL     1       2.628   3.642  22.013  1.00  0.00     0.150 C 
HETATM   10  N3  UNL     1       3.811   3.622  22.817  1.00  0.00    -0.324 N 
BRANCH   8  11
HETATM   11  O1  UNL     1       3.145   3.157  19.724  1.00  0.00    -0.386 OA
ATOM     12  H1  UNL     1       3.994   3.226  19.303  1.00  0.00     0.210 HD
ENDBRANCH   8  11
BRANCH   9  13
HETATM   13  C1  UNL     1       2.328   5.000  21.377  1.00  0.00     0.257 C 
BRANCH  13  14
HETATM   14  N1  UNL     1       1.375   5.730  22.153  1.00  0.00    -0.077 N 
ATOM     15  H13 UNL     1       0.485   5.822  21.664  1.00  0.00     0.274 HD
ATOM     16  H12 UNL     1       1.054   5.191  22.959  1.00  0.00     0.274 HD
ATOM     17  H11 UNL     1       1.747   6.637  22.432  1.00  0.00     0.274 HD
ENDBRANCH  13  14
ENDBRANCH   9  13
BRANCH  10  18
HETATM   18  C6  UNL     1       4.236   4.031  24.109  1.00  0.00     0.108 C 
BRANCH  18  19
HETATM   19  C7  UNL     1       5.014   5.001  24.460  1.00  0.00     0.048 A 
HETATM   20  C8  UNL     1       4.628   6.312  24.602  1.00  0.00     0.081 A 
HETATM   21  C9  UNL     1       5.548   7.300  24.960  1.00  0.00     0.053 A 
HETATM   22  C10 UNL     1       6.868   7.010  25.183  1.00  0.00     0.016 A 
HETATM   23  C16 UNL     1       7.244   5.701  25.041  1.00  0.00     0.092 A 
HETATM   24  N7  UNL     1       8.621   5.332  25.264  1.00  0.00    -0.099 NA
HETATM   25  C17 UNL     1       6.370   4.713  24.693  1.00  0.00     0.105 A 
BRANCH  20  26
HETATM   26  O6  UNL     1       3.304   6.660  24.392  1.00  0.00    -0.360 OA
ATOM     27  H6  UNL     1       3.096   7.360  23.784  1.00  0.00     0.217 HD
ENDBRANCH  20  26
BRANCH  22  28
HETATM   28  C11 UNL     1       7.749   7.948  25.501  1.00  0.00     0.159 C 
BRANCH  28  29
HETATM   29  O7  UNL     1       8.272   8.766  24.509  1.00  0.00    -0.288 OA
BRANCH  29  30
HETATM   30  C12 UNL     1       7.609   9.888  24.042  1.00  0.00     0.299 C 
HETATM   31  O8  UNL     1       7.516  10.839  24.880  1.00  0.00    -0.261 OA
BRANCH  30  32
HETATM   32  C13 UNL     1       7.028  10.041  22.698  1.00  0.00     0.286 C 
BRANCH  32  33
HETATM   33  O9  UNL     1       5.805  10.694  22.814  1.00  0.00    -0.378 OA
ATOM     34  H9  UNL     1       5.795  11.429  22.212  1.00  0.00     0.211 HD
ENDBRANCH  32  33
BRANCH  32  35
HETATM   35  C14 UNL     1       6.818   8.725  22.062  1.00  0.00     0.139 A 
HETATM   36  N4  UNL     1       5.634   8.258  21.662  1.00  0.00    -0.282 N 
HETATM   37  N5  UNL     1       5.835   7.072  21.142  1.00  0.00    -0.250 N 
ATOM     38  H4  UNL     1       4.737   8.736  21.746  1.00  0.00     0.188 HD
HETATM   39  C15 UNL     1       7.148   6.759  21.199  1.00  0.00     0.340 A 
ATOM     40  H5  UNL     1       5.108   6.473  20.752  1.00  0.00     0.192 HD
HETATM   41  O10 UNL     1       7.692   5.707  20.792  1.00  0.00    -0.245 OA
HETATM   42  N6  UNL     1       7.745   7.809  21.779  1.00  0.00    -0.293 N 
ATOM     43  H6  UNL     1       8.743   7.894  21.972  1.00  0.00     0.172 HD
ENDBRANCH  32  35
ENDBRANCH  30  32
ENDBRANCH  29  30
ENDBRANCH  28  29
ENDBRANCH  22  28
BRANCH  25  44
HETATM   44  O11 UNL     1       6.805   3.410  24.564  1.00  0.00    -0.358 OA
ATOM     45  H11 UNL     1       7.739   3.238  24.554  1.00  0.00     0.217 HD
ENDBRANCH  25  44
ENDBRANCH  18  19
ENDBRANCH  10  18
BRANCH   7  46
HETATM   46  O2  UNL     1       5.238   4.012  21.014  1.00  0.00    -0.346 OA
ATOM     47  H2  UNL     1       4.860   4.867  21.181  1.00  0.00     0.215 HD
ENDBRANCH   7  46
ENDBRANCH   6   7
ENDBRANCH   1   6
TORSDOF 16
ENDMDL
MODEL 2
REMARK VINA RESULT: -6.389642557      2.012      3.408
REMARK  16 active torsions:
REMARK  status: ('A' for Active; 'I' for Inactive)
REMARK    1  A    between atoms: N1_1  and  C1_5 
REMARK    2  A    between atoms: C1_5  and  C2_6 
REMARK    3  A    between atoms: C3_7  and  O1_8 
REMARK    4  A    between atoms: C4_10  and  O2_11 
REMARK    5  A    between atoms: C4_10  and  O3_13 
REMARK    6  A    between atoms: O3_13  and  C5_14 
REMARK       I    between atoms: C5_14  and  N2_16 
REMARK    7  A    between atoms: N3_19  and  C6_20 
REMARK    8  A    between atoms: C6_20  and  C7_21 
REMARK    9  A    between atoms: C8_22  and  O6_23 
REMARK   10  A    between atoms: C10_26  and  C11_27 
REMARK   11  A    between atoms: C11_27  and  O7_28 
REMARK   12  A    between atoms: O7_28  and  C12_29 
REMARK   13  A    between atoms: C12_29  and  C13_31 
REMARK   14  A    between atoms: C13_31  and  O9_32 
REMARK   15  A    between atoms: C13_31  and  C14_34 
REMARK   16  A    between atoms: C17_45  and  O11_46 
ROOT
HETATM    1  C5  UNL     1       4.622   3.492  21.587  1.00  0.00     0.469 C 
HETATM    2  O4  UNL     1       4.145   2.381  21.831  1.00  0.00    -0.218 OA
HETATM    3  N2  UNL     1       5.780   3.783  20.787  1.00  0.00    -0.213 NA
HETATM    4  O5  UNL     1       6.737   4.023  20.124  1.00  0.00    -0.213 OA
ATOM      5  H5  UNL     1       7.502   4.214  19.595  1.00  0.00     0.262 HD
ENDROOT
BRANCH   1   6
HETATM    6  O3  UNL     1       3.920   4.565  22.179  1.00  0.00    -0.230 OA
BRANCH   6   7
HETATM    7  C4  UNL     1       2.648   4.932  21.705  1.00  0.00     0.287 C 
HETATM    8  C3  UNL     1       1.455   4.546  22.496  1.00  0.00     0.228 C 
HETATM    9  C2  UNL     1       0.981   5.956  22.194  1.00  0.00     0.150 C 
HETATM   10  N3  UNL     1       2.294   6.318  21.754  1.00  0.00    -0.324 N 
BRANCH   8  11
HETATM   11  O1  UNL     1       0.614   3.604  21.932  1.00  0.00    -0.386 OA
ATOM     12  H1  UNL     1       0.963   3.282  21.109  1.00  0.00     0.210 HD
ENDBRANCH   8  11
BRANCH   9  13
HETATM   13  C1  UNL     1      -0.073   5.973  21.087  1.00  0.00     0.257 C 
BRANCH  13  14
HETATM   14  N1  UNL     1      -1.386   6.127  21.632  1.00  0.00    -0.077 N 
ATOM     15  H13 UNL     1      -1.919   5.259  21.579  1.00  0.00     0.274 HD
ATOM     16  H12 UNL     1      -1.362   6.234  22.646  1.00  0.00     0.274 HD
ATOM     17  H11 UNL     1      -1.880   6.899  21.184  1.00  0.00     0.274 HD
ENDBRANCH  13  14
ENDBRANCH   9  13
BRANCH  10  18
HETATM   18  C6  UNL     1       3.030   7.487  21.425  1.00  0.00     0.108 C 
BRANCH  18  19
HETATM   19  C7  UNL     1       3.938   8.114  22.098  1.00  0.00     0.048 A 
HETATM   20  C8  UNL     1       3.695   9.045  23.078  1.00  0.00     0.081 A 
HETATM   21  C9  UNL     1       4.743   9.695  23.733  1.00  0.00     0.053 A 
HETATM   22  C10 UNL     1       6.053   9.435  23.431  1.00  0.00     0.016 A 
HETATM   23  C16 UNL     1       6.288   8.505  22.454  1.00  0.00     0.092 A 
HETATM   24  N7  UNL     1       7.649   8.187  22.091  1.00  0.00    -0.099 NA
HETATM   25  C17 UNL     1       5.286   7.853  21.795  1.00  0.00     0.105 A 
BRANCH  20  26
HETATM   26  O6  UNL     1       2.387   9.343  23.426  1.00  0.00    -0.360 OA
ATOM     27  H6  UNL     1       2.208   9.749  24.266  1.00  0.00     0.217 HD
ENDBRANCH  20  26
BRANCH  22  28
HETATM   28  C11 UNL     1       7.052  10.065  24.035  1.00  0.00     0.159 C 
BRANCH  28  29
HETATM   29  O7  UNL     1       7.441   9.677  25.309  1.00  0.00    -0.288 OA
BRANCH  29  30
HETATM   30  C12 UNL     1       8.116   8.493  25.553  1.00  0.00     0.299 C 
HETATM   31  O8  UNL     1       9.382   8.577  25.473  1.00  0.00    -0.261 OA
BRANCH  30  32
HETATM   32  C13 UNL     1       7.490   7.203  25.882  1.00  0.00     0.286 C 
BRANCH  32  33
HETATM   33  O9  UNL     1       8.172   6.638  26.955  1.00  0.00    -0.378 OA
ATOM     34  H9  UNL     1       8.689   5.907  26.636  1.00  0.00     0.211 HD
ENDBRANCH  32  33
BRANCH  32  35
HETATM   35  C14 UNL     1       7.548   6.281  24.730  1.00  0.00     0.139 A 
HETATM   36  N4  UNL     1       6.485   5.691  24.178  1.00  0.00    -0.282 N 
HETATM   37  N5  UNL     1       6.918   4.956  23.183  1.00  0.00    -0.250 N 
ATOM     38  H4  UNL     1       5.515   5.794  24.476  1.00  0.00     0.188 HD
HETATM   39  C15 UNL     1       8.260   5.061  23.080  1.00  0.00     0.340 A 
ATOM     40  H5  UNL     1       6.328   4.387  22.576  1.00  0.00     0.192 HD
HETATM   41  O10 UNL     1       9.000   4.496  22.242  1.00  0.00    -0.245 OA
HETATM   42  N6  UNL     1       8.634   5.897  24.059  1.00  0.00    -0.293 N 
ATOM     43  H6  UNL     1       9.591   6.189  24.258  1.00  0.00     0.172 HD
ENDBRANCH  32  35
ENDBRANCH  30  32
ENDBRANCH  29  30
ENDBRANCH  28  29
ENDBRANCH  22  28
BRANCH  25  44
HETATM   44  O11 UNL     1       5.581   6.925  20.819  1.00  0.00    -0.358 OA
ATOM     45  H11 UNL     1       6.468   6.881  20.482  1.00  0.00     0.217 HD
ENDBRANCH  25  44
ENDBRANCH  18  19
ENDBRANCH  10  18
BRANCH   7  46
HETATM   46  O2  UNL     1       2.525   4.448  20.380  1.00  0.00    -0.346 OA
ATOM     47  H2  UNL     1       3.369   4.142  20.068  1.00  0.00     0.215 HD
ENDBRANCH   7  46
ENDBRANCH   6   7
ENDBRANCH   1   6
TORSDOF 16
ENDMDL
MODEL 3
REMARK VINA RESULT: -6.317793730      3.048      5.978
REMARK  16 active torsions:
REMARK  status: ('A' for Active; 'I' for Inactive)
REMARK    1  A    between atoms: N1_1  and  C1_5 
REMARK    2  A    between atoms: C1_5  and  C2_6 
REMARK    3  A    between atoms: C3_7  and  O1_8 
REMARK    4  A    between atoms: C4_10  and  O2_11 
REMARK    5  A    between atoms: C4_10  and  O3_13 
REMARK    6  A    between atoms: O3_13  and  C5_14 
REMARK       I    between atoms: C5_14  and  N2_16 
REMARK    7  A    between atoms: N3_19  and  C6_20 
REMARK    8  A    between atoms: C6_20  and  C7_21 
REMARK    9  A    between atoms: C8_22  and  O6_23 
REMARK   10  A    between atoms: C10_26  and  C11_27 
REMARK   11  A    between atoms: C11_27  and  O7_28 
REMARK   12  A    between atoms: O7_28  and  C12_29 
REMARK   13  A    between atoms: C12_29  and  C13_31 
REMARK   14  A    between atoms: C13_31  and  O9_32 
REMARK   15  A    between atoms: C13_31  and  C14_34 
REMARK   16  A    between atoms: C17_45  and  O11_46 
ROOT
HETATM    1  C5  UNL     1       9.306   2.898  24.295  1.00  0.00     0.469 C 
HETATM    2  O4  UNL     1       8.074   2.877  24.361  1.00  0.00    -0.218 OA
HETATM    3  N2  UNL     1      10.177   1.801  23.973  1.00  0.00    -0.213 NA
HETATM    4  O5  UNL     1      10.896   0.894  23.705  1.00  0.00    -0.213 OA
ATOM      5  H5  UNL     1      11.471   0.169  23.492  1.00  0.00     0.262 HD
ENDROOT
BRANCH   1   6
HETATM    6  O3  UNL     1       9.878   4.159  24.575  1.00  0.00    -0.230 OA
BRANCH   6   7
HETATM    7  C4  UNL     1      10.745   4.320  25.670  1.00  0.00     0.287 C 
HETATM    8  C3  UNL     1      12.187   4.540  25.409  1.00  0.00     0.228 C 
HETATM    9  C2  UNL     1      12.073   5.592  26.498  1.00  0.00     0.150 C 
HETATM   10  N3  UNL     1      10.645   5.534  26.423  1.00  0.00    -0.324 N 
BRANCH   8  11
HETATM   11  O1  UNL     1      13.048   3.523  25.784  1.00  0.00    -0.386 OA
ATOM     12  H1  UNL     1      13.899   3.867  26.028  1.00  0.00     0.210 HD
ENDBRANCH   8  11
BRANCH   9  13
HETATM   13  C1  UNL     1      12.649   5.097  27.824  1.00  0.00     0.257 C 
BRANCH  13  14
HETATM   14  N1  UNL     1      13.918   5.700  28.090  1.00  0.00    -0.077 N 
ATOM     15  H13 UNL     1      14.490   5.757  27.248  1.00  0.00     0.274 HD
ATOM     16  H12 UNL     1      13.826   6.698  28.283  1.00  0.00     0.274 HD
ATOM     17  H11 UNL     1      14.404   5.214  28.843  1.00  0.00     0.274 HD
ENDBRANCH  13  14
ENDBRANCH   9  13
BRANCH  10  18
HETATM   18  C6  UNL     1       9.517   6.261  26.887  1.00  0.00     0.108 C 
BRANCH  18  19
HETATM   19  C7  UNL     1       8.625   6.921  26.227  1.00  0.00     0.048 A 
HETATM   20  C8  UNL     1       8.736   8.235  25.842  1.00  0.00     0.081 A 
HETATM   21  C9  UNL     1       7.704   8.876  25.153  1.00  0.00     0.053 A 
HETATM   22  C10 UNL     1       6.541   8.228  24.831  1.00  0.00     0.016 A 
HETATM   23  C16 UNL     1       6.438   6.918  25.216  1.00  0.00     0.092 A 
HETATM   24  N7  UNL     1       5.237   6.180  24.904  1.00  0.00    -0.099 NA
HETATM   25  C17 UNL     1       7.428   6.264  25.890  1.00  0.00     0.105 A 
BRANCH  20  26
HETATM   26  O6  UNL     1       9.892   8.938  26.140  1.00  0.00    -0.360 OA
ATOM     27  H6  UNL     1      10.632   8.893  25.546  1.00  0.00     0.217 HD
ENDBRANCH  20  26
BRANCH  22  28
HETATM   28  C11 UNL     1       5.549   8.838  24.196  1.00  0.00     0.159 C 
BRANCH  28  29
HETATM   29  O7  UNL     1       5.710   9.216  22.871  1.00  0.00    -0.288 OA
BRANCH  29  30
HETATM   30  C12 UNL     1       6.385   8.434  21.950  1.00  0.00     0.299 C 
HETATM   31  O8  UNL     1       7.538   8.863  21.629  1.00  0.00    -0.261 OA
BRANCH  30  32
HETATM   32  C13 UNL     1       5.875   7.194  21.343  1.00  0.00     0.286 C 
BRANCH  32  33
HETATM   33  O9  UNL     1       4.738   6.793  22.039  1.00  0.00    -0.378 OA
ATOM     34  H9  UNL     1       4.341   6.063  21.577  1.00  0.00     0.211 HD
ENDBRANCH  32  33
BRANCH  32  35
HETATM   35  C14 UNL     1       6.888   6.121  21.406  1.00  0.00     0.139 A 
HETATM   36  N4  UNL     1       7.974   6.151  22.180  1.00  0.00    -0.282 N 
HETATM   37  N5  UNL     1       8.630   5.034  21.978  1.00  0.00    -0.250 N 
ATOM     38  H4  UNL     1       8.244   6.904  22.813  1.00  0.00     0.188 HD
HETATM   39  C15 UNL     1       7.978   4.272  21.074  1.00  0.00     0.340 A 
ATOM     40  H5  UNL     1       9.504   4.778  22.436  1.00  0.00     0.192 HD
HETATM   41  O10 UNL     1       8.320   3.145  20.649  1.00  0.00    -0.245 OA
HETATM   42  N6  UNL     1       6.888   4.972  20.729  1.00  0.00    -0.293 N 
ATOM     43  H6  UNL     1       6.178   4.676  20.059  1.00  0.00     0.172 HD
ENDBRANCH  32  35
ENDBRANCH  30  32
ENDBRANCH  29  30
ENDBRANCH  28  29
ENDBRANCH  22  28
BRANCH  25  44
HETATM   44  O11 UNL     1       7.270   4.943  26.253  1.00  0.00    -0.358 OA
ATOM     45  H11 UNL     1       6.995   4.317  25.593  1.00  0.00     0.217 HD
ENDBRANCH  25  44
ENDBRANCH  18  19
ENDBRANCH  10  18
BRANCH   7  46
HETATM   46  O2  UNL     1      10.573   3.205  26.525  1.00  0.00    -0.346 OA
ATOM     47  H2  UNL     1      10.985   2.439  26.144  1.00  0.00     0.215 HD
ENDBRANCH   7  46
ENDBRANCH   6   7
ENDBRANCH   1   6
TORSDOF 16
ENDMDL
MODEL 4
REMARK VINA RESULT: -6.278745182      2.185      3.820
REMARK  16 active torsions:
REMARK  status: ('A' for Active; 'I' for Inactive)
REMARK    1  A    between atoms: N1_1  and  C1_5 
REMARK    2  A    between atoms: C1_5  and  C2_6 
REMARK    3  A    between atoms: C3_7  and  O1_8 
REMARK    4  A    between atoms: C4_10  and  O2_11 
REMARK    5  A    between atoms: C4_10  and  O3_13 
REMARK    6  A    between atoms: O3_13  and  C5_14 
REMARK       I    between atoms: C5_14  and  N2_16 
REMARK    7  A    between atoms: N3_19  and  C6_20 
REMARK    8  A    between atoms: C6_20  and  C7_21 
REMARK    9  A    between atoms: C8_22  and  O6_23 
REMARK   10  A    between atoms: C10_26  and  C11_27 
REMARK   11  A    between atoms: C11_27  and  O7_28 
REMARK   12  A    between atoms: O7_28  and  C12_29 
REMARK   13  A    between atoms: C12_29  and  C13_31 
REMARK   14  A    between atoms: C13_31  and  O9_32 
REMARK   15  A    between atoms: C13_31  and  C14_34 
REMARK   16  A    between atoms: C17_45  and  O11_46 
ROOT
HETATM    1  C5  UNL     1       8.082   3.944  21.627  1.00  0.00     0.469 C 
HETATM    2  O4  UNL     1       8.879   3.103  21.202  1.00  0.00    -0.218 OA
HETATM    3  N2  UNL     1       7.737   5.199  21.017  1.00  0.00    -0.213 NA
HETATM    4  O5  UNL     1       7.451   6.236  20.512  1.00  0.00    -0.213 OA
ATOM      5  H5  UNL     1       7.223   7.064  20.108  1.00  0.00     0.262 HD
ENDROOT
BRANCH   1   6
HETATM    6  O3  UNL     1       7.467   3.591  22.849  1.00  0.00    -0.230 OA
BRANCH   6   7
HETATM    7  C4  UNL     1       6.785   2.368  22.975  1.00  0.00     0.287 C 
HETATM    8  C3  UNL     1       7.292   1.368  23.944  1.00  0.00     0.228 C 
HETATM    9  C2  UNL     1       5.827   1.188  24.300  1.00  0.00     0.150 C 
HETATM   10  N3  UNL     1       5.494   2.387  23.593  1.00  0.00    -0.324 N 
BRANCH   8  11
HETATM   11  O1  UNL     1       7.825   0.205  23.416  1.00  0.00    -0.386 OA
ATOM     12  H1  UNL     1       8.517   0.397  22.794  1.00  0.00     0.210 HD
ENDBRANCH   8  11
BRANCH   9  13
HETATM   13  C1  UNL     1       5.247  -0.084  23.680  1.00  0.00     0.257 C 
BRANCH  13  14
HETATM   14  N1  UNL     1       5.108  -1.115  24.660  1.00  0.00    -0.077 N 
ATOM     15  H13 UNL     1       5.376  -0.789  25.588  1.00  0.00     0.274 HD
ATOM     16  H12 UNL     1       4.127  -1.326  24.847  1.00  0.00     0.274 HD
ATOM     17  H11 UNL     1       5.627  -1.950  24.389  1.00  0.00     0.274 HD
ENDBRANCH  13  14
ENDBRANCH   9  13
BRANCH  10  18
HETATM   18  C6  UNL     1       4.394   3.272  23.442  1.00  0.00     0.108 C 
BRANCH  18  19
HETATM   19  C7  UNL     1       4.337   4.557  23.565  1.00  0.00     0.048 A 
HETATM   20  C8  UNL     1       4.037   5.228  24.726  1.00  0.00     0.081 A 
HETATM   21  C9  UNL     1       3.972   6.622  24.757  1.00  0.00     0.053 A 
HETATM   22  C10 UNL     1       4.202   7.380  23.640  1.00  0.00     0.016 A 
HETATM   23  C16 UNL     1       4.503   6.704  22.488  1.00  0.00     0.092 A 
HETATM   24  N7  UNL     1       4.757   7.448  21.276  1.00  0.00    -0.099 NA
HETATM   25  C17 UNL     1       4.574   5.343  22.424  1.00  0.00     0.105 A 
BRANCH  20  26
HETATM   26  O6  UNL     1       3.798   4.510  25.887  1.00  0.00    -0.360 OA
ATOM     27  H6  UNL     1       4.056   4.877  26.724  1.00  0.00     0.217 HD
ENDBRANCH  20  26
BRANCH  22  28
HETATM   28  C11 UNL     1       4.120   8.704  23.659  1.00  0.00     0.159 C 
BRANCH  28  29
HETATM   29  O7  UNL     1       5.112   9.446  24.284  1.00  0.00    -0.288 OA
BRANCH  29  30
HETATM   30  C12 UNL     1       6.208   9.946  23.603  1.00  0.00     0.299 C 
HETATM   31  O8  UNL     1       6.099  11.157  23.234  1.00  0.00    -0.261 OA
BRANCH  30  32
HETATM   32  C13 UNL     1       7.436   9.197  23.291  1.00  0.00     0.286 C 
BRANCH  32  33
HETATM   33  O9  UNL     1       7.412   8.844  21.945  1.00  0.00    -0.378 OA
ATOM     34  H9  UNL     1       8.305   8.822  21.622  1.00  0.00     0.211 HD
ENDBRANCH  32  33
BRANCH  32  35
HETATM   35  C14 UNL     1       7.530   7.973  24.113  1.00  0.00     0.139 A 
HETATM   36  N4  UNL     1       7.789   6.756  23.630  1.00  0.00    -0.282 N 
HETATM   37  N5  UNL     1       7.801   5.927  24.646  1.00  0.00    -0.250 N 
ATOM     38  H4  UNL     1       7.948   6.515  22.652  1.00  0.00     0.188 HD
HETATM   39  C15 UNL     1       7.551   6.596  25.792  1.00  0.00     0.340 A 
ATOM     40  H5  UNL     1       7.973   4.924  24.580  1.00  0.00     0.192 HD
HETATM   41  O10 UNL     1       7.489   6.118  26.947  1.00  0.00    -0.245 OA
HETATM   42  N6  UNL     1       7.384   7.877  25.435  1.00  0.00    -0.293 N 
ATOM     43  H6  UNL     1       7.179   8.649  26.068  1.00  0.00     0.172 HD
ENDBRANCH  32  35
ENDBRANCH  30  32
ENDBRANCH  29  30
ENDBRANCH  28  29
ENDBRANCH  22  28
BRANCH  25  44
HETATM   44  O11 UNL     1       4.881   4.715  21.235  1.00  0.00    -0.358 OA
ATOM     45  H11 UNL     1       5.780   4.453  21.074  1.00  0.00     0.217 HD
ENDBRANCH  25  44
ENDBRANCH  18  19
ENDBRANCH  10  18
BRANCH   7  46
HETATM   46  O2  UNL     1       6.696   1.788  21.686  1.00  0.00    -0.346 OA
ATOM     47  H2  UNL     1       5.995   2.199  21.195  1.00  0.00     0.215 HD
ENDBRANCH   7  46
ENDBRANCH   6   7
ENDBRANCH   1   6
TORSDOF 16
ENDMDL
MODEL 5
REMARK VINA RESULT: -6.244246131      2.686      5.799
REMARK  16 active torsions:
REMARK  status: ('A' for Active; 'I' for Inactive)
REMARK    1  A    between atoms: N1_1  and  C1_5 
REMARK    2  A    between atoms: C1_5  and  C2_6 
REMARK    3  A    between atoms: C3_7  and  O1_8 
REMARK    4  A    between atoms: C4_10  and  O2_11 
REMARK    5  A    between atoms: C4_10  and  O3_13 
REMARK    6  A    between atoms: O3_13  and  C5_14 
REMARK       I    between atoms: C5_14  and  N2_16 
REMARK    7  A    between atoms: N3_19  and  C6_20 
REMARK    8  A    between atoms: C6_20  and  C7_21 
REMARK    9  A    between atoms: C8_22  and  O6_23 
REMARK   10  A    between atoms: C10_26  and  C11_27 
REMARK   11  A    between atoms: C11_27  and  O7_28 
REMARK   12  A    between atoms: O7_28  and  C12_29 
REMARK   13  A    between atoms: C12_29  and  C13_31 
REMARK   14  A    between atoms: C13_31  and  O9_32 
REMARK   15  A    between atoms: C13_31  and  C14_34 
REMARK   16  A    between atoms: C17_45  and  O11_46 
ROOT
HETATM    1  C5  UNL     1       8.608   3.840  23.377  1.00  0.00     0.469 C 
HETATM    2  O4  UNL     1       7.677   3.566  24.139  1.00  0.00    -0.218 OA
HETATM    3  N2  UNL     1       8.775   3.403  22.019  1.00  0.00    -0.213 NA
HETATM    4  O5  UNL     1       8.912   3.042  20.895  1.00  0.00    -0.213 OA
ATOM      5  H5  UNL     1       9.022   2.753  19.997  1.00  0.00     0.262 HD
ENDROOT
BRANCH   1   6
HETATM    6  O3  UNL     1       9.593   4.677  23.947  1.00  0.00    -0.230 OA
BRANCH   6   7
HETATM    7  C4  UNL     1      10.260   4.293  25.124  1.00  0.00     0.287 C 
HETATM    8  C3  UNL     1      11.734   4.145  25.090  1.00  0.00     0.228 C 
HETATM    9  C2  UNL     1      11.689   4.867  26.425  1.00  0.00     0.150 C 
HETATM   10  N3  UNL     1      10.330   5.246  26.190  1.00  0.00    -0.324 N 
BRANCH   8  11
HETATM   11  O1  UNL     1      12.232   2.862  25.233  1.00  0.00    -0.386 OA
ATOM     12  H1  UNL     1      11.661   2.224  24.821  1.00  0.00     0.210 HD
ENDBRANCH   8  11
BRANCH   9  13
HETATM   13  C1  UNL     1      11.874   3.902  27.596  1.00  0.00     0.257 C 
BRANCH  13  14
HETATM   14  N1  UNL     1      13.206   3.970  28.111  1.00  0.00    -0.077 N 
ATOM     15  H13 UNL     1      13.783   3.206  27.760  1.00  0.00     0.274 HD
ATOM     16  H12 UNL     1      13.724   4.753  27.712  1.00  0.00     0.274 HD
ATOM     17  H11 UNL     1      13.203   4.001  29.131  1.00  0.00     0.274 HD
ENDBRANCH  13  14
ENDBRANCH   9  13
BRANCH  10  18
HETATM   18  C6  UNL     1       9.352   6.124  26.730  1.00  0.00     0.108 C 
BRANCH  18  19
HETATM   19  C7  UNL     1       8.385   6.751  26.147  1.00  0.00     0.048 A 
HETATM   20  C8  UNL     1       7.125   6.245  25.939  1.00  0.00     0.081 A 
HETATM   21  C9  UNL     1       6.149   6.988  25.272  1.00  0.00     0.053 A 
HETATM   22  C10 UNL     1       6.401   8.247  24.797  1.00  0.00     0.016 A 
HETATM   23  C16 UNL     1       7.659   8.746  25.009  1.00  0.00     0.092 A 
HETATM   24  N7  UNL     1       7.986  10.069  24.532  1.00  0.00    -0.099 NA
HETATM   25  C17 UNL     1       8.634   8.045  25.657  1.00  0.00     0.105 A 
BRANCH  20  26
HETATM   26  O6  UNL     1       6.815   4.976  26.403  1.00  0.00    -0.360 OA
ATOM     27  H6  UNL     1       5.959   4.607  26.218  1.00  0.00     0.217 HD
ENDBRANCH  20  26
BRANCH  22  28
HETATM   28  C11 UNL     1       5.485   8.948  24.143  1.00  0.00     0.159 C 
BRANCH  28  29
HETATM   29  O7  UNL     1       5.538   9.028  22.759  1.00  0.00    -0.288 OA
BRANCH  29  30
HETATM   30  C12 UNL     1       5.462   7.911  21.945  1.00  0.00     0.299 C 
HETATM   31  O8  UNL     1       4.314   7.694  21.444  1.00  0.00    -0.261 OA
BRANCH  30  32
HETATM   32  C13 UNL     1       6.575   6.997  21.639  1.00  0.00     0.286 C 
BRANCH  32  33
HETATM   33  O9  UNL     1       7.135   7.371  20.421  1.00  0.00    -0.378 OA
ATOM     34  H9  UNL     1       7.146   6.613  19.848  1.00  0.00     0.211 HD
ENDBRANCH  32  33
BRANCH  32  35
HETATM   35  C14 UNL     1       6.101   5.602  21.549  1.00  0.00     0.139 A 
HETATM   36  N4  UNL     1       6.496   4.728  20.620  1.00  0.00    -0.282 N 
HETATM   37  N5  UNL     1       5.876   3.597  20.858  1.00  0.00    -0.250 N 
ATOM     38  H4  UNL     1       7.157   4.906  19.865  1.00  0.00     0.188 HD
HETATM   39  C15 UNL     1       5.077   3.727  21.939  1.00  0.00     0.340 A 
ATOM     40  H5  UNL     1       5.981   2.745  20.308  1.00  0.00     0.192 HD
HETATM   41  O10 UNL     1       4.343   2.848  22.446  1.00  0.00    -0.245 OA
HETATM   42  N6  UNL     1       5.234   4.991  22.356  1.00  0.00    -0.293 N 
ATOM     43  H6  UNL     1       4.767   5.415  23.157  1.00  0.00     0.172 HD
ENDBRANCH  32  35
ENDBRANCH  30  32
ENDBRANCH  29  30
ENDBRANCH  28  29
ENDBRANCH  22  28
BRANCH  25  44
HETATM   44  O11 UNL     1       9.884   8.598  25.842  1.00  0.00    -0.358 OA
ATOM     45  H11 UNL     1      10.275   9.095  25.134  1.00  0.00     0.217 HD
ENDBRANCH  25  44
ENDBRANCH  18  19
ENDBRANCH  10  18
BRANCH   7  46
HETATM   46  O2  UNL     1       9.665   3.094  25.586  1.00  0.00    -0.346 OA
ATOM     47  H2  UNL     1       9.715   2.427  24.911  1.00  0.00     0.215 HD
ENDBRANCH   7  46
ENDBRANCH   6   7
ENDBRANCH   1   6
TORSDOF 16
ENDMDL
