MODEL 1
REMARK VINA RESULT: -7.739517564      0.000      0.000
REMARK  12 active torsions:
REMARK  status: ('A' for Active; 'I' for Inactive)
REMARK    1  A    between atoms: C5_10  and  C6_11 
REMARK    2  A    between atoms: C6_11  and  N3_12 
REMARK    3  A    between atoms: N4_14  and  C8_15 
REMARK    4  A    between atoms: C10_19  and  C11_20 
REMARK    5  A    between atoms: C11_20  and  O3_21 
REMARK    6  A    between atoms: C11_20  and  C12_23 
REMARK    7  A    between atoms: C12_23  and  O4_24 
REMARK    8  A    between atoms: C14_27  and  O5_28 
REMARK    9  A    between atoms: C14_27  and  C15_30 
REMARK   10  A    between atoms: C16_33  and  O8_34 
REMARK   11  A    between atoms: C17_36  and  O9_37 
REMARK   12  A    between atoms: C17_36  and  O10_39 
ROOT
HETATM    1  C8  UNL     1       2.600   6.032  23.418  1.00  0.00     0.311 C 
HETATM    2  O1  UNL     1       3.912   5.584  23.352  1.00  0.00    -0.326 OA
HETATM    3  C9  UNL     1       3.913   4.298  22.895  1.00  0.00     0.307 C 
HETATM    4  O2  UNL     1       4.811   4.210  21.813  1.00  0.00    -0.350 OA
HETATM    5  C10 UNL     1       4.964   2.869  21.544  1.00  0.00     0.159 C 
HETATM    6  C13 UNL     1       3.693   2.213  21.108  1.00  0.00     0.087 C 
HETATM    7  C14 UNL     1       2.529   3.184  21.101  1.00  0.00     0.189 C 
HETATM    8  C16 UNL     1       2.537   3.990  22.345  1.00  0.00     0.209 C 
HETATM    9  C17 UNL     1       2.028   5.422  22.129  1.00  0.00     0.247 C 
ENDROOT
BRANCH   1  10
HETATM   10  N4  UNL     1       2.499   7.453  23.408  1.00  0.00    -0.237 N 
HETATM   11  C7  UNL     1       3.512   8.318  23.419  1.00  0.00     0.219 A 
HETATM   12  N3  UNL     1       3.024   9.594  23.404  1.00  0.00    -0.265 N 
HETATM   13  N6  UNL     1       1.712   9.441  23.383  1.00  0.00    -0.005 NA
HETATM   14  N5  UNL     1       1.384   8.160  23.386  1.00  0.00    -0.003 NA
BRANCH  12  15
HETATM   15  C6  UNL     1       3.749  10.838  23.407  1.00  0.00     0.223 C 
BRANCH  15  16
HETATM   16  C5  UNL     1       5.207  10.556  23.403  1.00  0.00     0.102 A 
HETATM   17  N2  UNL     1       6.002  10.897  24.413  1.00  0.00    -0.331 N 
HETATM   18  C4  UNL     1       7.330  10.662  24.455  1.00  0.00     0.101 A 
ATOM     19  H2  UNL     1       5.579  11.370  25.212  1.00  0.00     0.168 HD
HETATM   20  C3  UNL     1       7.902  10.024  23.371  1.00  0.00     0.072 A 
HETATM   21  N1  UNL     1       8.040  11.024  25.474  1.00  0.00    -0.385 N 
HETATM   22  C2  UNL     1       7.080   9.671  22.326  1.00  0.00     0.010 A 
HETATM   23  C1  UNL     1       7.645   8.982  21.138  1.00  0.00     0.068 C 
HETATM   24  N7  UNL     1       5.771   9.927  22.335  1.00  0.00    -0.348 N 
ATOM     25  H7  UNL     1       5.193   9.652  21.542  1.00  0.00     0.167 HD
ATOM     26  H12 UNL     1       9.043  10.846  25.506  1.00  0.00     0.157 HD
ATOM     27  H11 UNL     1       7.617  11.495  26.274  1.00  0.00     0.157 HD
ENDBRANCH  15  16
ENDBRANCH  12  15
ENDBRANCH   1  10
BRANCH   9  28
HETATM   28  O9  UNL     1       0.660   5.477  22.092  1.00  0.00    -0.359 OA
ATOM     29  H9  UNL     1       0.343   6.293  21.720  1.00  0.00     0.213 HD
ENDBRANCH   9  28
BRANCH   9  30
HETATM   30  O10 UNL     1       2.671   6.010  21.075  1.00  0.00    -0.359 OA
ATOM     31  H10 UNL     1       2.226   5.738  20.281  1.00  0.00     0.213 HD
ENDBRANCH   9  30
BRANCH   8  32
HETATM   32  O8  UNL     1       1.814   3.402  23.383  1.00  0.00    -0.377 OA
ATOM     33  H8  UNL     1       1.167   2.836  22.979  1.00  0.00     0.211 HD
ENDBRANCH   8  32
BRANCH   7  34
HETATM   34  O5  UNL     1       2.475   3.936  19.929  1.00  0.00    -0.376 OA
ATOM     35  H5  UNL     1       1.609   3.933  19.538  1.00  0.00     0.211 HD
ENDBRANCH   7  34
BRANCH   7  36
HETATM   36  C15 UNL     1       1.289   2.326  21.130  1.00  0.00     0.212 C 
HETATM   37  O6  UNL     1       1.303   1.148  21.557  1.00  0.00    -0.646 OA
HETATM   38  O7  UNL     1       0.091   2.856  20.670  1.00  0.00    -0.646 OA
ENDBRANCH   7  36
BRANCH   5  39
HETATM   39  C11 UNL     1       6.049   2.581  20.551  1.00  0.00     0.170 C 
BRANCH  39  40
HETATM   40  O3  UNL     1       6.682   1.358  20.856  1.00  0.00    -0.391 OA
ATOM     41  H3  UNL     1       7.391   1.191  20.245  1.00  0.00     0.210 HD
ENDBRANCH  39  40
BRANCH  39  42
HETATM   42  C12 UNL     1       7.130   3.634  20.550  1.00  0.00     0.198 C 
BRANCH  42  43
HETATM   43  O4  UNL     1       8.377   3.013  20.616  1.00  0.00    -0.398 OA
ATOM     44  H4  UNL     1       8.499   2.473  19.844  1.00  0.00     0.209 HD
ENDBRANCH  42  43
ENDBRANCH  39  42
ENDBRANCH   5  39
TORSDOF 12
ENDMDL
MODEL 2
REMARK VINA RESULT: -7.695645132      2.752      5.210
REMARK  12 active torsions:
REMARK  status: ('A' for Active; 'I' for Inactive)
REMARK    1  A    between atoms: C5_10  and  C6_11 
REMARK    2  A    between atoms: C6_11  and  N3_12 
REMARK    3  A    between atoms: N4_14  and  C8_15 
REMARK    4  A    between atoms: C10_19  and  C11_20 
REMARK    5  A    between atoms: C11_20  and  O3_21 
REMARK    6  A    between atoms: C11_20  and  C12_23 
REMARK    7  A    between atoms: C12_23  and  O4_24 
REMARK    8  A    between atoms: C14_27  and  O5_28 
REMARK    9  A    between atoms: C14_27  and  C15_30 
REMARK   10  A    between atoms: C16_33  and  O8_34 
REMARK   11  A    between atoms: C17_36  and  O9_37 
REMARK   12  A    between atoms: C17_36  and  O10_39 
ROOT
HETATM    1  C8  UNL     1       6.603   3.529  21.733  1.00  0.00     0.311 C 
HETATM    2  O1  UNL     1       5.218   3.490  21.660  1.00  0.00    -0.326 OA
HETATM    3  C9  UNL     1       4.801   2.216  21.922  1.00  0.00     0.307 C 
HETATM    4  O2  UNL     1       3.816   2.267  22.927  1.00  0.00    -0.350 OA
HETATM    5  C10 UNL     1       3.257   1.011  22.987  1.00  0.00     0.159 C 
HETATM    6  C13 UNL     1       4.237  -0.044  23.391  1.00  0.00     0.087 C 
HETATM    7  C14 UNL     1       5.625   0.524  23.606  1.00  0.00     0.189 C 
HETATM    8  C16 UNL     1       5.970   1.445  22.496  1.00  0.00     0.209 C 
HETATM    9  C17 UNL     1       6.848   2.619  22.948  1.00  0.00     0.247 C 
ENDROOT
BRANCH   1  10
HETATM   10  N4  UNL     1       7.109   4.841  21.958  1.00  0.00    -0.237 N 
HETATM   11  C7  UNL     1       6.812   5.934  21.258  1.00  0.00     0.219 A 
HETATM   12  N3  UNL     1       7.490   7.005  21.769  1.00  0.00    -0.265 N 
HETATM   13  N6  UNL     1       8.180   6.501  22.777  1.00  0.00    -0.005 NA
HETATM   14  N5  UNL     1       7.961   5.203  22.900  1.00  0.00    -0.003 NA
BRANCH  12  15
HETATM   15  C6  UNL     1       7.474   8.377  21.332  1.00  0.00     0.223 C 
BRANCH  15  16
HETATM   16  C5  UNL     1       6.971   9.236  22.434  1.00  0.00     0.102 A 
HETATM   17  N2  UNL     1       7.755   9.660  23.422  1.00  0.00    -0.331 N 
HETATM   18  C4  UNL     1       7.345  10.441  24.442  1.00  0.00     0.101 A 
ATOM     19  H2  UNL     1       8.734   9.375  23.406  1.00  0.00     0.168 HD
HETATM   20  C3  UNL     1       6.017  10.825  24.462  1.00  0.00     0.072 A 
HETATM   21  N1  UNL     1       8.167  10.815  25.368  1.00  0.00    -0.385 N 
HETATM   22  C2  UNL     1       5.207  10.386  23.442  1.00  0.00     0.010 A 
HETATM   23  C1  UNL     1       3.773  10.771  23.416  1.00  0.00     0.068 C 
HETATM   24  N7  UNL     1       5.663   9.615  22.454  1.00  0.00    -0.348 N 
ATOM     25  H7  UNL     1       5.032   9.307  21.715  1.00  0.00     0.167 HD
ATOM     26  H12 UNL     1       7.856  11.405  26.140  1.00  0.00     0.157 HD
ATOM     27  H11 UNL     1       9.147  10.532  25.353  1.00  0.00     0.157 HD
ENDBRANCH  15  16
ENDBRANCH  12  15
ENDBRANCH   1  10
BRANCH   9  28
HETATM   28  O9  UNL     1       8.163   2.258  23.069  1.00  0.00    -0.359 OA
ATOM     29  H9  UNL     1       8.707   2.977  23.369  1.00  0.00     0.213 HD
ENDBRANCH   9  28
BRANCH   9  30
HETATM   30  O10 UNL     1       6.303   3.237  24.040  1.00  0.00    -0.359 OA
ATOM     31  H10 UNL     1       6.721   4.087  24.126  1.00  0.00     0.213 HD
ENDBRANCH   9  30
BRANCH   8  32
HETATM   32  O8  UNL     1       6.589   0.801  21.423  1.00  0.00    -0.377 OA
ATOM     33  H8  UNL     1       5.898   0.539  20.827  1.00  0.00     0.211 HD
ENDBRANCH   8  32
BRANCH   7  34
HETATM   34  O5  UNL     1       5.781   1.074  24.877  1.00  0.00    -0.376 OA
ATOM     35  H5  UNL     1       6.362   1.826  24.876  1.00  0.00     0.211 HD
ENDBRANCH   7  34
BRANCH   7  36
HETATM   36  C15 UNL     1       6.561  -0.655  23.519  1.00  0.00     0.212 C 
HETATM   37  O6  UNL     1       6.163  -1.800  23.204  1.00  0.00    -0.646 OA
HETATM   38  O7  UNL     1       7.908  -0.468  23.797  1.00  0.00    -0.646 OA
ENDBRANCH   7  36
BRANCH   5  39
HETATM   39  C11 UNL     1       2.045   0.941  23.865  1.00  0.00     0.170 C 
BRANCH  39  40
HETATM   40  O3  UNL     1       2.191  -0.087  24.822  1.00  0.00    -0.391 OA
ATOM     41  H3  UNL     1       1.532  -0.758  24.690  1.00  0.00     0.210 HD
ENDBRANCH  39  40
BRANCH  39  42
HETATM   42  C12 UNL     1       0.786   0.630  23.094  1.00  0.00     0.198 C 
BRANCH  42  43
HETATM   43  O4  UNL     1       0.862  -0.669  22.594  1.00  0.00    -0.398 OA
ATOM     44  H4  UNL     1       0.187  -0.792  21.936  1.00  0.00     0.209 HD
ENDBRANCH  42  43
ENDBRANCH  39  42
ENDBRANCH   5  39
TORSDOF 12
ENDMDL
MODEL 3
REMARK VINA RESULT: -7.628532134      2.490      5.342
REMARK  12 active torsions:
REMARK  status: ('A' for Active; 'I' for Inactive)
REMARK    1  A    between atoms: C5_10  and  C6_11 
REMARK    2  A    between atoms: C6_11  and  N3_12 
REMARK    3  A    between atoms: N4_14  and  C8_15 
REMARK    4  A    between atoms: C10_19  and  C11_20 
REMARK    5  A    between atoms: C11_20  and  O3_21 
REMARK    6  A    between atoms: C11_20  and  C12_23 
REMARK    7  A    between atoms: C12_23  and  O4_24 
REMARK    8  A    between atoms: C14_27  and  O5_28 
REMARK    9  A    between atoms: C14_27  and  C15_30 
REMARK   10  A    between atoms: C16_33  and  O8_34 
REMARK   11  A    between atoms: C17_36  and  O9_37 
REMARK   12  A    between atoms: C17_36  and  O10_39 
ROOT
HETATM    1  C8  UNL     1       7.483   7.132  22.808  1.00  0.00     0.311 C 
HETATM    2  O1  UNL     1       6.947   6.650  21.622  1.00  0.00    -0.326 OA
HETATM    3  C9  UNL     1       7.347   5.355  21.454  1.00  0.00     0.307 C 
HETATM    4  O2  UNL     1       6.209   4.565  21.205  1.00  0.00    -0.350 OA
HETATM    5  C10 UNL     1       6.673   3.333  20.804  1.00  0.00     0.159 C 
HETATM    6  C13 UNL     1       7.462   2.635  21.866  1.00  0.00     0.087 C 
HETATM    7  C14 UNL     1       7.589   3.474  23.121  1.00  0.00     0.189 C 
HETATM    8  C16 UNL     1       7.937   4.870  22.761  1.00  0.00     0.209 C 
HETATM    9  C17 UNL     1       7.319   5.902  23.714  1.00  0.00     0.247 C 
ENDROOT
BRANCH   1  10
HETATM   10  N4  UNL     1       6.771   8.254  23.322  1.00  0.00    -0.237 N 
HETATM   11  C7  UNL     1       5.984   9.075  22.630  1.00  0.00     0.219 A 
HETATM   12  N3  UNL     1       5.475  10.032  23.464  1.00  0.00    -0.265 N 
HETATM   13  N6  UNL     1       5.988   9.739  24.646  1.00  0.00    -0.005 NA
HETATM   14  N5  UNL     1       6.768   8.674  24.574  1.00  0.00    -0.003 NA
BRANCH  12  15
HETATM   15  C6  UNL     1       4.583  11.119  23.153  1.00  0.00     0.223 C 
BRANCH  15  16
HETATM   16  C5  UNL     1       3.183  10.688  23.396  1.00  0.00     0.102 A 
HETATM   17  N2  UNL     1       2.207  11.553  23.660  1.00  0.00    -0.331 N 
HETATM   18  C4  UNL     1       0.922  11.210  23.887  1.00  0.00     0.101 A 
ATOM     19  H2  UNL     1       2.447  12.543  23.692  1.00  0.00     0.168 HD
HETATM   20  C3  UNL     1       0.600   9.866  23.844  1.00  0.00     0.072 A 
HETATM   21  N1  UNL     1       0.026  12.109  24.136  1.00  0.00    -0.385 N 
HETATM   22  C2  UNL     1       1.609   8.973  23.572  1.00  0.00     0.010 A 
HETATM   23  C1  UNL     1       1.315   7.518  23.513  1.00  0.00     0.068 C 
HETATM   24  N7  UNL     1       2.865   9.365  23.354  1.00  0.00    -0.348 N 
ATOM     25  H7  UNL     1       3.588   8.673  23.157  1.00  0.00     0.167 HD
ATOM     26  H12 UNL     1      -0.945  11.850  24.308  1.00  0.00     0.157 HD
ATOM     27  H11 UNL     1       0.264  13.101  24.167  1.00  0.00     0.157 HD
ENDBRANCH  15  16
ENDBRANCH  12  15
ENDBRANCH   1  10
BRANCH   9  28
HETATM   28  O9  UNL     1       8.031   6.015  24.877  1.00  0.00    -0.359 OA
ATOM     29  H9  UNL     1       7.853   5.302  25.479  1.00  0.00     0.213 HD
ENDBRANCH   9  28
BRANCH   9  30
HETATM   30  O10 UNL     1       5.977   5.678  23.863  1.00  0.00    -0.359 OA
ATOM     31  H10 UNL     1       5.765   5.817  24.779  1.00  0.00     0.213 HD
ENDBRANCH   9  30
BRANCH   8  32
HETATM   32  O8  UNL     1       9.313   5.089  22.684  1.00  0.00    -0.377 OA
ATOM     33  H8  UNL     1       9.720   4.477  23.286  1.00  0.00     0.211 HD
ENDBRANCH   8  32
BRANCH   7  34
HETATM   34  O5  UNL     1       6.477   3.356  23.952  1.00  0.00    -0.376 OA
ATOM     35  H5  UNL     1       6.579   3.840  24.762  1.00  0.00     0.211 HD
ENDBRANCH   7  34
BRANCH   7  36
HETATM   36  C15 UNL     1       8.763   2.899  23.873  1.00  0.00     0.212 C 
HETATM   37  O6  UNL     1       9.615   2.166  23.320  1.00  0.00    -0.646 OA
HETATM   38  O7  UNL     1       8.907   3.190  25.223  1.00  0.00    -0.646 OA
ENDBRANCH   7  36
BRANCH   5  39
HETATM   39  C11 UNL     1       5.592   2.426  20.298  1.00  0.00     0.170 C 
BRANCH  39  40
HETATM   40  O3  UNL     1       5.223   2.789  18.985  1.00  0.00    -0.391 OA
ATOM     41  H3  UNL     1       4.313   3.062  18.961  1.00  0.00     0.210 HD
ENDBRANCH  39  40
BRANCH  39  42
HETATM   42  C12 UNL     1       4.337   2.497  21.131  1.00  0.00     0.198 C 
BRANCH  42  43
HETATM   43  O4  UNL     1       3.592   3.612  20.747  1.00  0.00    -0.398 OA
ATOM     44  H4  UNL     1       3.011   3.860  21.456  1.00  0.00     0.209 HD
ENDBRANCH  42  43
ENDBRANCH  39  42
ENDBRANCH   5  39
TORSDOF 12
ENDMDL
MODEL 4
REMARK VINA RESULT: -7.425342359      4.794      8.347
REMARK  12 active torsions:
REMARK  status: ('A' for Active; 'I' for Inactive)
REMARK    1  A    between atoms: C5_10  and  C6_11 
REMARK    2  A    between atoms: C6_11  and  N3_12 
REMARK    3  A    between atoms: N4_14  and  C8_15 
REMARK    4  A    between atoms: C10_19  and  C11_20 
REMARK    5  A    between atoms: C11_20  and  O3_21 
REMARK    6  A    between atoms: C11_20  and  C12_23 
REMARK    7  A    between atoms: C12_23  and  O4_24 
REMARK    8  A    between atoms: C14_27  and  O5_28 
REMARK    9  A    between atoms: C14_27  and  C15_30 
REMARK   10  A    between atoms: C16_33  and  O8_34 
REMARK   11  A    between atoms: C17_36  and  O9_37 
REMARK   12  A    between atoms: C17_36  and  O10_39 
ROOT
HETATM    1  C8  UNL     1       6.832   6.259  21.875  1.00  0.00     0.311 C 
HETATM    2  O1  UNL     1       7.945   6.200  22.702  1.00  0.00    -0.326 OA
HETATM    3  C9  UNL     1       8.152   7.434  23.248  1.00  0.00     0.307 C 
HETATM    4  O2  UNL     1       8.265   7.291  24.644  1.00  0.00    -0.350 OA
HETATM    5  C10 UNL     1       8.710   8.501  25.124  1.00  0.00     0.159 C 
HETATM    6  C13 UNL     1       7.744   9.616  24.878  1.00  0.00     0.087 C 
HETATM    7  C14 UNL     1       6.516   9.145  24.125  1.00  0.00     0.189 C 
HETATM    8  C16 UNL     1       6.920   8.276  22.995  1.00  0.00     0.209 C 
HETATM    9  C17 UNL     1       5.907   7.158  22.711  1.00  0.00     0.247 C 
ENDROOT
BRANCH   1  10
HETATM   10  N4  UNL     1       6.244   4.982  21.645  1.00  0.00    -0.237 N 
HETATM   11  C7  UNL     1       6.893   3.847  21.392  1.00  0.00     0.219 A 
HETATM   12  N3  UNL     1       5.992   2.832  21.227  1.00  0.00    -0.265 N 
HETATM   13  N6  UNL     1       4.816   3.411  21.392  1.00  0.00    -0.005 NA
HETATM   14  N5  UNL     1       4.954   4.702  21.643  1.00  0.00    -0.003 NA
BRANCH  12  15
HETATM   15  C6  UNL     1       6.240   1.443  20.941  1.00  0.00     0.223 C 
BRANCH  15  16
HETATM   16  C5  UNL     1       6.106   0.653  22.191  1.00  0.00     0.102 A 
HETATM   17  N2  UNL     1       6.998  -0.265  22.554  1.00  0.00    -0.331 N 
HETATM   18  C4  UNL     1       6.919  -1.005  23.678  1.00  0.00     0.101 A 
ATOM     19  H2  UNL     1       7.797  -0.419  21.939  1.00  0.00     0.168 HD
HETATM   20  C3  UNL     1       5.834  -0.796  24.509  1.00  0.00     0.072 A 
HETATM   21  N1  UNL     1       7.827  -1.880  23.966  1.00  0.00    -0.385 N 
HETATM   22  C2  UNL     1       4.912   0.152  24.134  1.00  0.00     0.010 A 
HETATM   23  C1  UNL     1       3.729   0.415  24.991  1.00  0.00     0.068 C 
HETATM   24  N7  UNL     1       5.037   0.858  23.010  1.00  0.00    -0.348 N 
ATOM     25  H7  UNL     1       4.332   1.552  22.763  1.00  0.00     0.167 HD
ATOM     26  H12 UNL     1       7.768  -2.440  24.816  1.00  0.00     0.157 HD
ATOM     27  H11 UNL     1       8.628  -2.034  23.353  1.00  0.00     0.157 HD
ENDBRANCH  15  16
ENDBRANCH  12  15
ENDBRANCH   1  10
BRANCH   9  28
HETATM   28  O9  UNL     1       4.835   7.611  21.991  1.00  0.00    -0.359 OA
ATOM     29  H9  UNL     1       4.821   8.559  21.923  1.00  0.00     0.213 HD
ENDBRANCH   9  28
BRANCH   9  30
HETATM   30  O10 UNL     1       5.602   6.480  23.860  1.00  0.00    -0.359 OA
ATOM     31  H10 UNL     1       5.651   7.099  24.579  1.00  0.00     0.213 HD
ENDBRANCH   9  30
BRANCH   8  32
HETATM   32  O8  UNL     1       7.156   8.985  21.816  1.00  0.00    -0.377 OA
ATOM     33  H8  UNL     1       6.607   9.759  21.850  1.00  0.00     0.211 HD
ENDBRANCH   8  32
BRANCH   7  34
HETATM   34  O5  UNL     1       5.561   8.581  24.970  1.00  0.00    -0.376 OA
ATOM     35  H5  UNL     1       5.426   7.658  24.795  1.00  0.00     0.211 HD
ENDBRANCH   7  34
BRANCH   7  36
HETATM   36  C15 UNL     1       5.902  10.391  23.537  1.00  0.00     0.212 C 
HETATM   37  O6  UNL     1       6.551  11.453  23.402  1.00  0.00    -0.646 OA
HETATM   38  O7  UNL     1       4.575  10.361  23.132  1.00  0.00    -0.646 OA
ENDBRANCH   7  36
BRANCH   5  39
HETATM   39  C11 UNL     1       9.084   8.466  26.575  1.00  0.00     0.170 C 
BRANCH  39  40
HETATM   40  O3  UNL     1      10.145   9.361  26.830  1.00  0.00    -0.391 OA
ATOM     41  H3  UNL     1      10.901   9.138  26.300  1.00  0.00     0.210 HD
ENDBRANCH  39  40
BRANCH  39  42
HETATM   42  C12 UNL     1       9.558   7.104  27.019  1.00  0.00     0.198 C 
BRANCH  42  43
HETATM   43  O4  UNL     1      10.748   6.794  26.362  1.00  0.00    -0.398 OA
ATOM     44  H4  UNL     1      11.368   6.439  26.988  1.00  0.00     0.209 HD
ENDBRANCH  42  43
ENDBRANCH  39  42
ENDBRANCH   5  39
TORSDOF 12
ENDMDL
MODEL 5
REMARK VINA RESULT: -7.386911161      3.607      6.449
REMARK  12 active torsions:
REMARK  status: ('A' for Active; 'I' for Inactive)
REMARK    1  A    between atoms: C5_10  and  C6_11 
REMARK    2  A    between atoms: C6_11  and  N3_12 
REMARK    3  A    between atoms: N4_14  and  C8_15 
REMARK    4  A    between atoms: C10_19  and  C11_20 
REMARK    5  A    between atoms: C11_20  and  O3_21 
REMARK    6  A    between atoms: C11_20  and  C12_23 
REMARK    7  A    between atoms: C12_23  and  O4_24 
REMARK    8  A    between atoms: C14_27  and  O5_28 
REMARK    9  A    between atoms: C14_27  and  C15_30 
REMARK   10  A    between atoms: C16_33  and  O8_34 
REMARK   11  A    between atoms: C17_36  and  O9_37 
REMARK   12  A    between atoms: C17_36  and  O10_39 
ROOT
HETATM    1  C8  UNL     1       3.811   6.635  23.443  1.00  0.00     0.311 C 
HETATM    2  O1  UNL     1       4.308   7.429  24.466  1.00  0.00    -0.326 OA
HETATM    3  C9  UNL     1       5.649   7.202  24.586  1.00  0.00     0.307 C 
HETATM    4  O2  UNL     1       6.316   8.442  24.557  1.00  0.00    -0.350 OA
HETATM    5  C10 UNL     1       7.619   8.191  24.921  1.00  0.00     0.159 C 
HETATM    6  C13 UNL     1       8.329   7.293  23.959  1.00  0.00     0.087 C 
HETATM    7  C14 UNL     1       7.426   6.848  22.827  1.00  0.00     0.189 C 
HETATM    8  C16 UNL     1       6.109   6.433  23.367  1.00  0.00     0.209 C 
HETATM    9  C17 UNL     1       4.948   6.753  22.415  1.00  0.00     0.247 C 
ENDROOT
BRANCH   1  10
HETATM   10  N4  UNL     1       2.581   7.119  22.913  1.00  0.00    -0.237 N 
HETATM   11  C7  UNL     1       1.540   7.567  23.613  1.00  0.00     0.219 A 
HETATM   12  N3  UNL     1       0.543   7.945  22.758  1.00  0.00    -0.265 N 
HETATM   13  N6  UNL     1       1.035   7.705  21.556  1.00  0.00    -0.005 NA
HETATM   14  N5  UNL     1       2.258   7.208  21.636  1.00  0.00    -0.003 NA
BRANCH  12  15
HETATM   15  C6  UNL     1      -0.755   8.486  23.069  1.00  0.00     0.223 C 
BRANCH  15  16
HETATM   16  C5  UNL     1      -0.623   9.482  24.162  1.00  0.00     0.102 A 
HETATM   17  N2  UNL     1      -0.212  10.728  23.945  1.00  0.00    -0.331 N 
HETATM   18  C4  UNL     1      -0.077  11.667  24.903  1.00  0.00     0.101 A 
ATOM     19  H2  UNL     1       0.016  10.992  22.987  1.00  0.00     0.168 HD
HETATM   20  C3  UNL     1      -0.385  11.306  26.202  1.00  0.00     0.072 A 
HETATM   21  N1  UNL     1       0.329  12.861  24.615  1.00  0.00    -0.385 N 
HETATM   22  C2  UNL     1      -0.809  10.018  26.427  1.00  0.00     0.010 A 
HETATM   23  C1  UNL     1      -1.153   9.580  27.803  1.00  0.00     0.068 C 
HETATM   24  N7  UNL     1      -0.926   9.127  25.441  1.00  0.00    -0.348 N 
ATOM     25  H7  UNL     1      -1.243   8.180  25.646  1.00  0.00     0.167 HD
ATOM     26  H12 UNL     1       0.431  13.571  25.340  1.00  0.00     0.157 HD
ATOM     27  H11 UNL     1       0.556  13.127  23.657  1.00  0.00     0.157 HD
ENDBRANCH  15  16
ENDBRANCH  12  15
ENDBRANCH   1  10
BRANCH   9  28
HETATM   28  O9  UNL     1       4.839   5.827  21.413  1.00  0.00    -0.359 OA
ATOM     29  H9  UNL     1       4.312   5.079  21.669  1.00  0.00     0.213 HD
ENDBRANCH   9  28
BRANCH   9  30
HETATM   30  O10 UNL     1       5.002   8.058  22.010  1.00  0.00    -0.359 OA
ATOM     31  H10 UNL     1       5.918   8.298  21.940  1.00  0.00     0.213 HD
ENDBRANCH   9  30
BRANCH   8  32
HETATM   32  O8  UNL     1       6.059   5.080  23.706  1.00  0.00    -0.377 OA
ATOM     33  H8  UNL     1       6.010   5.038  24.654  1.00  0.00     0.211 HD
ENDBRANCH   8  32
BRANCH   7  34
HETATM   34  O5  UNL     1       7.355   7.792  21.804  1.00  0.00    -0.376 OA
ATOM     35  H5  UNL     1       8.211   8.012  21.456  1.00  0.00     0.211 HD
ENDBRANCH   7  34
BRANCH   7  36
HETATM   36  C15 UNL     1       8.081   5.619  22.247  1.00  0.00     0.212 C 
HETATM   37  O6  UNL     1       8.978   4.993  22.856  1.00  0.00    -0.646 OA
HETATM   38  O7  UNL     1       7.679   5.167  20.998  1.00  0.00    -0.646 OA
ENDBRANCH   7  36
BRANCH   5  39
HETATM   39  C11 UNL     1       8.426   9.434  25.144  1.00  0.00     0.170 C 
BRANCH  39  40
HETATM   40  O3  UNL     1       9.089   9.372  26.388  1.00  0.00    -0.391 OA
ATOM     41  H3  UNL     1       9.978   9.700  26.306  1.00  0.00     0.210 HD
ENDBRANCH  39  40
BRANCH  39  42
HETATM   42  C12 UNL     1       7.576  10.680  25.174  1.00  0.00     0.198 C 
BRANCH  42  43
HETATM   43  O4  UNL     1       7.415  11.158  23.875  1.00  0.00    -0.398 OA
ATOM     44  H4  UNL     1       7.051  12.035  23.906  1.00  0.00     0.209 HD
ENDBRANCH  42  43
ENDBRANCH  39  42
ENDBRANCH   5  39
TORSDOF 12
ENDMDL
