MODEL 1
REMARK VINA RESULT: -7.665767972      0.000      0.000
REMARK  11 active torsions:
REMARK  status: ('A' for Active; 'I' for Inactive)
REMARK    1  A    between atoms: N5_15  and  C6_16 
REMARK    2  A    between atoms: C8_19  and  O2_20 
REMARK    3  A    between atoms: C9_22  and  N6_23 
REMARK    4  A    between atoms: N6_23  and  C10_25 
REMARK    5  A    between atoms: C10_25  and  O3_26 
REMARK    6  A    between atoms: C10_25  and  C11_28 
REMARK    7  A    between atoms: C11_28  and  C12_29 
REMARK    8  A    between atoms: C11_28  and  N7_34 
REMARK    9  A    between atoms: C12_29  and  O4_30 
REMARK   10  A    between atoms: C12_29  and  O5_32 
REMARK   11  A    between atoms: C17_46  and  O9_47 
ROOT
HETATM    1  C6  UNL     1       3.691   7.655  23.381  1.00  0.00     0.145 C 
HETATM    2  C7  UNL     1       3.653   6.635  24.466  1.00  0.00     0.199 C 
HETATM    3  O1  UNL     1       3.271   5.424  23.982  1.00  0.00    -0.351 OA
HETATM    4  C8  UNL     1       2.483   5.361  22.885  1.00  0.00     0.191 A 
HETATM    5  C9  UNL     1       3.134   4.592  21.713  1.00  0.00     0.154 A 
HETATM    6  C16 UNL     1       3.074   6.061  21.655  1.00  0.00     0.108 A 
HETATM    7  C17 UNL     1       4.153   6.955  22.118  1.00  0.00     0.155 C 
ENDROOT
BRANCH   5   8
HETATM    8  N6  UNL     1       4.292   3.861  21.990  1.00  0.00    -0.382 N 
ATOM      9  H6  UNL     1       4.803   4.106  22.839  1.00  0.00     0.156 HD
BRANCH   8  10
HETATM   10  C10 UNL     1       4.811   2.832  21.216  1.00  0.00     0.267 C 
BRANCH  10  11
HETATM   11  O3  UNL     1       4.331   3.040  19.888  1.00  0.00    -0.372 OA
ATOM     12  H3  UNL     1       4.378   2.199  19.448  1.00  0.00     0.212 HD
ENDBRANCH  10  11
BRANCH  10  13
HETATM   13  C11 UNL     1       6.256   2.509  21.185  1.00  0.00     0.105 C 
BRANCH  13  14
HETATM   14  C12 UNL     1       7.162   3.371  20.377  1.00  0.00     0.306 C 
BRANCH  14  15
HETATM   15  O4  UNL     1       6.938   4.747  20.505  1.00  0.00    -0.366 OA
ATOM     16  H4  UNL     1       6.106   4.984  20.897  1.00  0.00     0.213 HD
ENDBRANCH  14  15
BRANCH  14  17
HETATM   17  O5  UNL     1       8.524   3.106  20.742  1.00  0.00    -0.366 OA
ATOM     18  H5  UNL     1       8.978   2.716  20.004  1.00  0.00     0.213 HD
ENDBRANCH  14  17
ENDBRANCH  13  14
BRANCH  13  19
HETATM   19  N7  UNL     1       6.770   2.037  22.452  1.00  0.00    -0.213 N 
HETATM   20  C13 UNL     1       6.899   0.717  22.664  1.00  0.00     0.339 A 
HETATM   21  O6  UNL     1       6.561  -0.142  21.805  1.00  0.00    -0.246 OA
HETATM   22  N8  UNL     1       7.415   0.299  23.847  1.00  0.00    -0.260 N 
HETATM   23  C14 UNL     1       7.798   1.166  24.808  1.00  0.00     0.332 A 
ATOM     24  H8  UNL     1       7.517  -0.702  24.015  1.00  0.00     0.175 HD
HETATM   25  O7  UNL     1       8.275   0.800  25.900  1.00  0.00    -0.246 OA
HETATM   26  N9  UNL     1       7.667   2.482  24.594  1.00  0.00    -0.260 N 
HETATM   27  C15 UNL     1       7.165   2.901  23.440  1.00  0.00     0.339 A 
ATOM     28  H9  UNL     1       7.950   3.153  25.308  1.00  0.00     0.175 HD
HETATM   29  O8  UNL     1       7.047   4.160  23.253  1.00  0.00    -0.246 OA
ENDBRANCH  13  19
ENDBRANCH  10  13
ENDBRANCH   8  10
ENDBRANCH   5   8
BRANCH   4  30
HETATM   30  O2  UNL     1       1.096   5.350  22.986  1.00  0.00    -0.363 OA
ATOM     31  H2  UNL     1       0.543   5.600  22.255  1.00  0.00     0.213 HD
ENDBRANCH   4  30
BRANCH   7  32
HETATM   32  O9  UNL     1       5.340   6.299  22.432  1.00  0.00    -0.393 OA
ATOM     33  H9  UNL     1       5.100   5.492  22.873  1.00  0.00     0.210 HD
ENDBRANCH   7  32
BRANCH   1  34
HETATM   34  N5  UNL     1       4.541   8.794  23.685  1.00  0.00    -0.318 N 
HETATM   35  C3  UNL     1       5.700   8.673  24.361  1.00  0.00     0.141 A 
HETATM   36  N3  UNL     1       6.383   7.627  24.906  1.00  0.00    -0.336 N 
HETATM   37  C4  UNL     1       6.291   9.914  24.505  1.00  0.00     0.122 A 
HETATM   38  C2  UNL     1       7.548   7.751  25.548  1.00  0.00     0.183 A 
ATOM     39  H3  UNL     1       5.981   6.693  24.820  1.00  0.00     0.168 HD
HETATM   40  N2  UNL     1       8.092   8.989  25.667  1.00  0.00    -0.337 N 
HETATM   41  C1  UNL     1       7.492  10.072  25.160  1.00  0.00     0.131 A 
ATOM     42  H2  UNL     1       8.981   9.097  26.155  1.00  0.00     0.168 HD
HETATM   43  N1  UNL     1       8.048  11.223  25.298  1.00  0.00    -0.383 N 
ATOM     44  H12 UNL     1       8.938  11.340  25.783  1.00  0.00     0.157 HD
ATOM     45  H11 UNL     1       7.591  12.048  24.912  1.00  0.00     0.157 HD
HETATM   46  N4  UNL     1       5.450  10.765  23.896  1.00  0.00    -0.346 N 
HETATM   47  C5  UNL     1       4.394  10.097  23.399  1.00  0.00     0.185 A 
ATOM     48  H4  UNL     1       5.592  11.772  23.822  1.00  0.00     0.167 HD
ENDBRANCH   1  34
TORSDOF 11
ENDMDL
MODEL 2
REMARK VINA RESULT: -7.612129276      1.917      2.929
REMARK  11 active torsions:
REMARK  status: ('A' for Active; 'I' for Inactive)
REMARK    1  A    between atoms: N5_15  and  C6_16 
REMARK    2  A    between atoms: C8_19  and  O2_20 
REMARK    3  A    between atoms: C9_22  and  N6_23 
REMARK    4  A    between atoms: N6_23  and  C10_25 
REMARK    5  A    between atoms: C10_25  and  O3_26 
REMARK    6  A    between atoms: C10_25  and  C11_28 
REMARK    7  A    between atoms: C11_28  and  C12_29 
REMARK    8  A    between atoms: C11_28  and  N7_34 
REMARK    9  A    between atoms: C12_29  and  O4_30 
REMARK   10  A    between atoms: C12_29  and  O5_32 
REMARK   11  A    between atoms: C17_46  and  O9_47 
ROOT
HETATM    1  C6  UNL     1       3.110   8.295  23.075  1.00  0.00     0.145 C 
HETATM    2  C7  UNL     1       3.003   7.087  23.940  1.00  0.00     0.199 C 
HETATM    3  O1  UNL     1       2.374   6.075  23.285  1.00  0.00    -0.351 OA
HETATM    4  C8  UNL     1       1.486   6.361  22.308  1.00  0.00     0.191 A 
HETATM    5  C9  UNL     1       1.881   5.768  20.936  1.00  0.00     0.154 A 
HETATM    6  C16 UNL     1       2.068   7.208  21.169  1.00  0.00     0.108 A 
HETATM    7  C17 UNL     1       3.323   7.815  21.653  1.00  0.00     0.155 C 
ENDROOT
BRANCH   5   8
HETATM    8  N6  UNL     1       2.919   4.831  20.917  1.00  0.00    -0.382 N 
ATOM      9  H6  UNL     1       3.812   5.137  20.528  1.00  0.00     0.156 HD
BRANCH   8  10
HETATM   10  C10 UNL     1       2.845   3.524  21.378  1.00  0.00     0.267 C 
BRANCH  10  11
HETATM   11  O3  UNL     1       2.628   2.700  20.233  1.00  0.00    -0.372 OA
ATOM     12  H3  UNL     1       1.981   3.144  19.698  1.00  0.00     0.212 HD
ENDBRANCH  10  11
BRANCH  10  13
HETATM   13  C11 UNL     1       3.888   2.924  22.243  1.00  0.00     0.105 C 
BRANCH  13  14
HETATM   14  C12 UNL     1       3.814   1.467  22.539  1.00  0.00     0.306 C 
BRANCH  14  15
HETATM   15  O4  UNL     1       4.337   1.090  23.781  1.00  0.00    -0.366 OA
ATOM     16  H4  UNL     1       3.855   1.410  24.535  1.00  0.00     0.213 HD
ENDBRANCH  14  15
BRANCH  14  17
HETATM   17  O5  UNL     1       2.446   1.038  22.485  1.00  0.00    -0.366 OA
ATOM     18  H5  UNL     1       1.959   1.610  21.902  1.00  0.00     0.213 HD
ENDBRANCH  14  17
ENDBRANCH  13  14
BRANCH  13  19
HETATM   19  N7  UNL     1       5.206   3.477  22.027  1.00  0.00    -0.213 N 
HETATM   20  C13 UNL     1       5.795   4.186  23.003  1.00  0.00     0.339 A 
HETATM   21  O6  UNL     1       5.229   4.418  24.106  1.00  0.00    -0.246 OA
HETATM   22  N8  UNL     1       7.046   4.666  22.791  1.00  0.00    -0.260 N 
HETATM   23  C14 UNL     1       7.709   4.452  21.634  1.00  0.00     0.332 A 
ATOM     24  H8  UNL     1       7.500   5.205  23.528  1.00  0.00     0.175 HD
HETATM   25  O7  UNL     1       8.858   4.883  21.422  1.00  0.00    -0.246 OA
HETATM   26  N9  UNL     1       7.118   3.744  20.661  1.00  0.00    -0.260 N 
HETATM   27  C15 UNL     1       5.895   3.270  20.860  1.00  0.00     0.339 A 
ATOM     28  H9  UNL     1       7.602   3.573  19.780  1.00  0.00     0.175 HD
HETATM   29  O8  UNL     1       5.347   2.598  19.921  1.00  0.00    -0.246 OA
ENDBRANCH  13  19
ENDBRANCH  10  13
ENDBRANCH   8  10
ENDBRANCH   5   8
BRANCH   4  30
HETATM   30  O2  UNL     1       0.134   6.534  22.581  1.00  0.00    -0.363 OA
ATOM     31  H2  UNL     1      -0.466   5.799  22.609  1.00  0.00     0.213 HD
ENDBRANCH   4  30
BRANCH   7  32
HETATM   32  O9  UNL     1       4.405   6.940  21.681  1.00  0.00    -0.393 OA
ATOM     33  H9  UNL     1       5.041   7.269  21.057  1.00  0.00     0.210 HD
ENDBRANCH   7  32
BRANCH   1  34
HETATM   34  N5  UNL     1       4.167   9.206  23.481  1.00  0.00    -0.318 N 
HETATM   35  C3  UNL     1       5.270   8.792  24.135  1.00  0.00     0.141 A 
HETATM   36  N3  UNL     1       5.722   7.583  24.575  1.00  0.00    -0.336 N 
HETATM   37  C4  UNL     1       6.096   9.870  24.393  1.00  0.00     0.122 A 
HETATM   38  C2  UNL     1       6.880   7.410  25.218  1.00  0.00     0.183 A 
ATOM     39  H3  UNL     1       5.142   6.762  24.402  1.00  0.00     0.168 HD
HETATM   40  N2  UNL     1       7.660   8.497  25.450  1.00  0.00    -0.337 N 
HETATM   41  C1  UNL     1       7.295   9.721  25.052  1.00  0.00     0.131 A 
ATOM     42  H2  UNL     1       8.545   8.377  25.941  1.00  0.00     0.168 HD
HETATM   43  N1  UNL     1       8.069  10.718  25.296  1.00  0.00    -0.383 N 
ATOM     44  H12 UNL     1       8.958  10.608  25.783  1.00  0.00     0.157 HD
ATOM     45  H11 UNL     1       7.791  11.651  24.992  1.00  0.00     0.157 HD
HETATM   46  N4  UNL     1       5.450  10.926  23.873  1.00  0.00    -0.346 N 
HETATM   47  C5  UNL     1       4.288  10.533  23.321  1.00  0.00     0.185 A 
ATOM     48  H4  UNL     1       5.792  11.887  23.893  1.00  0.00     0.167 HD
ENDBRANCH   1  34
TORSDOF 11
ENDMDL
MODEL 3
REMARK VINA RESULT: -7.415210710      2.702      7.731
REMARK  11 active torsions:
REMARK  status: ('A' for Active; 'I' for Inactive)
REMARK    1  A    between atoms: N5_15  and  C6_16 
REMARK    2  A    between atoms: C8_19  and  O2_20 
REMARK    3  A    between atoms: C9_22  and  N6_23 
REMARK    4  A    between atoms: N6_23  and  C10_25 
REMARK    5  A    between atoms: C10_25  and  O3_26 
REMARK    6  A    between atoms: C10_25  and  C11_28 
REMARK    7  A    between atoms: C11_28  and  C12_29 
REMARK    8  A    between atoms: C11_28  and  N7_34 
REMARK    9  A    between atoms: C12_29  and  O4_30 
REMARK   10  A    between atoms: C12_29  and  O5_32 
REMARK   11  A    between atoms: C17_46  and  O9_47 
ROOT
HETATM    1  C6  UNL     1       5.944   1.874  22.220  1.00  0.00     0.145 C 
HETATM    2  C7  UNL     1       6.985   2.247  23.217  1.00  0.00     0.199 C 
HETATM    3  O1  UNL     1       7.704   3.319  22.793  1.00  0.00    -0.351 OA
HETATM    4  C8  UNL     1       7.838   3.551  21.468  1.00  0.00     0.191 A 
HETATM    5  C9  UNL     1       7.274   4.922  21.031  1.00  0.00     0.154 A 
HETATM    6  C16 UNL     1       6.505   3.705  20.726  1.00  0.00     0.108 A 
HETATM    7  C17 UNL     1       5.441   3.158  21.590  1.00  0.00     0.155 C 
ENDROOT
BRANCH   5   8
HETATM    8  N6  UNL     1       6.944   5.831  22.041  1.00  0.00    -0.382 N 
ATOM      9  H6  UNL     1       6.964   5.485  23.001  1.00  0.00     0.156 HD
BRANCH   8  10
HETATM   10  C10 UNL     1       6.591   7.161  21.856  1.00  0.00     0.267 C 
BRANCH  10  11
HETATM   11  O3  UNL     1       5.647   7.187  20.786  1.00  0.00    -0.372 OA
ATOM     12  H3  UNL     1       6.074   7.623  20.058  1.00  0.00     0.212 HD
ENDBRANCH  10  11
BRANCH  10  13
HETATM   13  C11 UNL     1       6.120   8.021  22.966  1.00  0.00     0.105 C 
BRANCH  13  14
HETATM   14  C12 UNL     1       4.705   7.897  23.412  1.00  0.00     0.306 C 
BRANCH  14  15
HETATM   15  O4  UNL     1       3.791   8.687  22.705  1.00  0.00    -0.366 OA
ATOM     16  H4  UNL     1       2.881   8.429  22.798  1.00  0.00     0.213 HD
ENDBRANCH  14  15
BRANCH  14  17
HETATM   17  O5  UNL     1       4.289   6.529  23.301  1.00  0.00    -0.366 OA
ATOM     18  H5  UNL     1       3.831   6.273  24.094  1.00  0.00     0.213 HD
ENDBRANCH  14  17
ENDBRANCH  13  14
BRANCH  13  19
HETATM   19  N7  UNL     1       7.111   8.226  23.999  1.00  0.00    -0.213 N 
HETATM   20  C13 UNL     1       7.849   9.347  23.997  1.00  0.00     0.339 A 
HETATM   21  O6  UNL     1       7.734  10.230  23.103  1.00  0.00    -0.246 OA
HETATM   22  N8  UNL     1       8.748   9.533  24.995  1.00  0.00    -0.260 N 
HETATM   23  C14 UNL     1       8.920   8.628  25.983  1.00  0.00     0.332 A 
ATOM     24  H8  UNL     1       9.313  10.383  25.000  1.00  0.00     0.175 HD
HETATM   25  O7  UNL     1       9.739   8.781  26.908  1.00  0.00    -0.246 OA
HETATM   26  N9  UNL     1       8.182   7.509  25.982  1.00  0.00    -0.260 N 
HETATM   27  C15 UNL     1       7.299   7.319  25.010  1.00  0.00     0.339 A 
ATOM     28  H9  UNL     1       8.297   6.813  26.718  1.00  0.00     0.175 HD
HETATM   29  O8  UNL     1       6.605   6.246  25.025  1.00  0.00    -0.246 OA
ENDBRANCH  13  19
ENDBRANCH  10  13
ENDBRANCH   8  10
ENDBRANCH   5   8
BRANCH   4  30
HETATM   30  O2  UNL     1       8.895   3.016  20.739  1.00  0.00    -0.363 OA
ATOM     31  H2  UNL     1       9.627   3.551  20.458  1.00  0.00     0.213 HD
ENDBRANCH   4  30
BRANCH   7  32
HETATM   32  O9  UNL     1       5.066   3.998  22.634  1.00  0.00    -0.393 OA
ATOM     33  H9  UNL     1       5.771   4.624  22.750  1.00  0.00     0.210 HD
ENDBRANCH   7  32
BRANCH   1  34
HETATM   34  N5  UNL     1       4.847   1.107  22.785  1.00  0.00    -0.318 N 
HETATM   35  C3  UNL     1       5.014  -0.125  23.304  1.00  0.00     0.141 A 
HETATM   36  N3  UNL     1       6.084  -0.955  23.467  1.00  0.00    -0.336 N 
HETATM   37  C4  UNL     1       3.805  -0.610  23.764  1.00  0.00     0.122 A 
HETATM   38  C2  UNL     1       6.008  -2.166  24.026  1.00  0.00     0.183 A 
ATOM     39  H3  UNL     1       6.996  -0.632  23.143  1.00  0.00     0.168 HD
HETATM   40  N2  UNL     1       4.799  -2.602  24.463  1.00  0.00    -0.337 N 
HETATM   41  C1  UNL     1       3.697  -1.853  24.346  1.00  0.00     0.131 A 
ATOM     42  H2  UNL     1       4.729  -3.525  24.891  1.00  0.00     0.168 HD
HETATM   43  N1  UNL     1       2.576  -2.312  24.775  1.00  0.00    -0.383 N 
ATOM     44  H12 UNL     1       2.496  -3.233  25.206  1.00  0.00     0.157 HD
ATOM     45  H11 UNL     1       1.736  -1.740  24.686  1.00  0.00     0.157 HD
HETATM   46  N4  UNL     1       2.923   0.368  23.501  1.00  0.00    -0.346 N 
HETATM   47  C5  UNL     1       3.544   1.406  22.912  1.00  0.00     0.185 A 
ATOM     48  H4  UNL     1       1.927   0.330  23.717  1.00  0.00     0.167 HD
ENDBRANCH   1  34
TORSDOF 11
ENDMDL
MODEL 4
REMARK VINA RESULT: -7.371357542      2.729      7.421
REMARK  11 active torsions:
REMARK  status: ('A' for Active; 'I' for Inactive)
REMARK    1  A    between atoms: N5_15  and  C6_16 
REMARK    2  A    between atoms: C8_19  and  O2_20 
REMARK    3  A    between atoms: C9_22  and  N6_23 
REMARK    4  A    between atoms: N6_23  and  C10_25 
REMARK    5  A    between atoms: C10_25  and  O3_26 
REMARK    6  A    between atoms: C10_25  and  C11_28 
REMARK    7  A    between atoms: C11_28  and  C12_29 
REMARK    8  A    between atoms: C11_28  and  N7_34 
REMARK    9  A    between atoms: C12_29  and  O4_30 
REMARK   10  A    between atoms: C12_29  and  O5_32 
REMARK   11  A    between atoms: C17_46  and  O9_47 
ROOT
HETATM    1  C6  UNL     1       5.801   2.208  22.362  1.00  0.00     0.145 C 
HETATM    2  C7  UNL     1       6.890   2.517  23.329  1.00  0.00     0.199 C 
HETATM    3  O1  UNL     1       7.675   3.528  22.871  1.00  0.00    -0.351 OA
HETATM    4  C8  UNL     1       7.794   3.731  21.540  1.00  0.00     0.191 A 
HETATM    5  C9  UNL     1       7.321   5.134  21.096  1.00  0.00     0.154 A 
HETATM    6  C16 UNL     1       6.458   3.973  20.828  1.00  0.00     0.108 A 
HETATM    7  C17 UNL     1       5.378   3.516  21.724  1.00  0.00     0.155 C 
ENDROOT
BRANCH   5   8
HETATM    8  N6  UNL     1       7.083   6.078  22.099  1.00  0.00    -0.382 N 
ATOM      9  H6  UNL     1       7.363   5.828  23.047  1.00  0.00     0.156 HD
BRANCH   8  10
HETATM   10  C10 UNL     1       6.498   7.325  21.921  1.00  0.00     0.267 C 
BRANCH  10  11
HETATM   11  O3  UNL     1       5.378   7.131  21.059  1.00  0.00    -0.372 OA
ATOM     12  H3  UNL     1       5.134   6.216  21.133  1.00  0.00     0.212 HD
ENDBRANCH  10  11
BRANCH  10  13
HETATM   13  C11 UNL     1       6.117   8.195  23.058  1.00  0.00     0.105 C 
BRANCH  13  14
HETATM   14  C12 UNL     1       4.701   8.186  23.517  1.00  0.00     0.306 C 
BRANCH  14  15
HETATM   15  O4  UNL     1       3.824   8.955  22.744  1.00  0.00    -0.366 OA
ATOM     16  H4  UNL     1       3.255   9.534  23.238  1.00  0.00     0.213 HD
ENDBRANCH  14  15
BRANCH  14  17
HETATM   17  O5  UNL     1       4.213   6.837  23.532  1.00  0.00    -0.366 OA
ATOM     18  H5  UNL     1       3.417   6.795  24.049  1.00  0.00     0.213 HD
ENDBRANCH  14  17
ENDBRANCH  13  14
BRANCH  13  19
HETATM   19  N7  UNL     1       7.131   8.284  24.084  1.00  0.00    -0.213 N 
HETATM   20  C13 UNL     1       7.919   9.369  24.146  1.00  0.00     0.339 A 
HETATM   21  O6  UNL     1       7.831  10.316  23.318  1.00  0.00    -0.246 OA
HETATM   22  N8  UNL     1       8.841   9.445  25.138  1.00  0.00    -0.260 N 
HETATM   23  C14 UNL     1       8.987   8.466  26.057  1.00  0.00     0.332 A 
ATOM     24  H8  UNL     1       9.443  10.267  25.192  1.00  0.00     0.175 HD
HETATM   25  O7  UNL     1       9.827   8.519  26.976  1.00  0.00    -0.246 OA
HETATM   26  N9  UNL     1       8.200   7.384  25.992  1.00  0.00    -0.260 N 
HETATM   27  C15 UNL     1       7.295   7.301  25.026  1.00  0.00     0.339 A 
ATOM     28  H9  UNL     1       8.296   6.634  26.677  1.00  0.00     0.175 HD
HETATM   29  O8  UNL     1       6.553   6.261  24.980  1.00  0.00    -0.246 OA
ENDBRANCH  13  19
ENDBRANCH  10  13
ENDBRANCH   8  10
ENDBRANCH   5   8
BRANCH   4  30
HETATM   30  O2  UNL     1       8.791   3.110  20.796  1.00  0.00    -0.363 OA
ATOM     31  H2  UNL     1       8.908   3.293  19.871  1.00  0.00     0.213 HD
ENDBRANCH   4  30
BRANCH   7  32
HETATM   32  O9  UNL     1       5.091   4.397  22.763  1.00  0.00    -0.393 OA
ATOM     33  H9  UNL     1       5.222   5.275  22.424  1.00  0.00     0.210 HD
ENDBRANCH   7  32
BRANCH   1  34
HETATM   34  N5  UNL     1       4.665   1.532  22.964  1.00  0.00    -0.318 N 
HETATM   35  C3  UNL     1       3.414   1.641  22.477  1.00  0.00     0.141 A 
HETATM   36  N3  UNL     1       2.854   2.301  21.423  1.00  0.00    -0.336 N 
HETATM   37  C4  UNL     1       2.542   0.896  23.248  1.00  0.00     0.122 A 
HETATM   38  C2  UNL     1       1.552   2.260  21.125  1.00  0.00     0.183 A 
ATOM     39  H3  UNL     1       3.465   2.861  20.828  1.00  0.00     0.168 HD
HETATM   40  N2  UNL     1       0.732   1.516  21.911  1.00  0.00    -0.337 N 
HETATM   41  C1  UNL     1       1.197   0.833  22.963  1.00  0.00     0.131 A 
ATOM     42  H2  UNL     1      -0.263   1.477  21.693  1.00  0.00     0.168 HD
HETATM   43  N1  UNL     1       0.379   0.143  23.676  1.00  0.00    -0.383 N 
ATOM     44  H12 UNL     1      -0.618   0.096  23.465  1.00  0.00     0.157 HD
ATOM     45  H11 UNL     1       0.733  -0.378  24.478  1.00  0.00     0.157 HD
HETATM   46  N4  UNL     1       3.313   0.347  24.200  1.00  0.00    -0.346 N 
HETATM   47  C5  UNL     1       4.594   0.725  24.035  1.00  0.00     0.185 A 
ATOM     48  H4  UNL     1       2.977  -0.267  24.941  1.00  0.00     0.167 HD
ENDBRANCH   1  34
TORSDOF 11
ENDMDL
MODEL 5
REMARK VINA RESULT: -7.356553482      2.751      7.813
REMARK  11 active torsions:
REMARK  status: ('A' for Active; 'I' for Inactive)
REMARK    1  A    between atoms: N5_15  and  C6_16 
REMARK    2  A    between atoms: C8_19  and  O2_20 
REMARK    3  A    between atoms: C9_22  and  N6_23 
REMARK    4  A    between atoms: N6_23  and  C10_25 
REMARK    5  A    between atoms: C10_25  and  O3_26 
REMARK    6  A    between atoms: C10_25  and  C11_28 
REMARK    7  A    between atoms: C11_28  and  C12_29 
REMARK    8  A    between atoms: C11_28  and  N7_34 
REMARK    9  A    between atoms: C12_29  and  O4_30 
REMARK   10  A    between atoms: C12_29  and  O5_32 
REMARK   11  A    between atoms: C17_46  and  O9_47 
ROOT
HETATM    1  C6  UNL     1       5.645   2.753  22.083  1.00  0.00     0.145 C 
HETATM    2  C7  UNL     1       6.767   2.447  23.013  1.00  0.00     0.199 C 
HETATM    3  O1  UNL     1       7.804   3.306  22.825  1.00  0.00    -0.351 OA
HETATM    4  C8  UNL     1       7.988   3.876  21.613  1.00  0.00     0.191 A 
HETATM    5  C9  UNL     1       7.921   5.419  21.652  1.00  0.00     0.154 A 
HETATM    6  C16 UNL     1       6.776   4.670  21.111  1.00  0.00     0.108 A 
HETATM    7  C17 UNL     1       5.604   4.258  21.906  1.00  0.00     0.155 C 
ENDROOT
BRANCH   5   8
HETATM    8  N6  UNL     1       7.940   6.031  22.909  1.00  0.00    -0.382 N 
ATOM      9  H6  UNL     1       8.078   5.424  23.718  1.00  0.00     0.156 HD
BRANCH   8  10
HETATM   10  C10 UNL     1       7.788   7.388  23.157  1.00  0.00     0.267 C 
BRANCH  10  11
HETATM   11  O3  UNL     1       7.249   7.962  21.967  1.00  0.00    -0.372 OA
ATOM     12  H3  UNL     1       6.452   8.413  22.219  1.00  0.00     0.212 HD
ENDBRANCH  10  11
BRANCH  10  13
HETATM   13  C11 UNL     1       7.063   7.905  24.341  1.00  0.00     0.105 C 
BRANCH  13  14
HETATM   14  C12 UNL     1       7.839   8.210  25.574  1.00  0.00     0.306 C 
BRANCH  14  15
HETATM   15  O4  UNL     1       8.010   7.130  26.447  1.00  0.00    -0.366 OA
ATOM     16  H4  UNL     1       7.359   7.063  27.135  1.00  0.00     0.213 HD
ENDBRANCH  14  15
BRANCH  14  17
HETATM   17  O5  UNL     1       9.139   8.697  25.210  1.00  0.00    -0.366 OA
ATOM     18  H5  UNL     1       9.655   7.984  24.852  1.00  0.00     0.213 HD
ENDBRANCH  14  17
ENDBRANCH  13  14
BRANCH  13  19
HETATM   19  N7  UNL     1       5.989   8.814  24.009  1.00  0.00    -0.213 N 
HETATM   20  C13 UNL     1       4.725   8.363  23.976  1.00  0.00     0.339 A 
HETATM   21  O6  UNL     1       4.432   7.156  24.197  1.00  0.00    -0.246 OA
HETATM   22  N8  UNL     1       3.730   9.241  23.696  1.00  0.00    -0.260 N 
HETATM   23  C14 UNL     1       3.975  10.546  23.451  1.00  0.00     0.332 A 
ATOM     24  H8  UNL     1       2.767   8.905  23.669  1.00  0.00     0.175 HD
HETATM   25  O7  UNL     1       3.074  11.368  23.193  1.00  0.00    -0.246 OA
HETATM   26  N9  UNL     1       5.237  10.994  23.484  1.00  0.00    -0.260 N 
HETATM   27  C15 UNL     1       6.217  10.143  23.758  1.00  0.00     0.339 A 
ATOM     28  H9  UNL     1       5.442  11.976  23.301  1.00  0.00     0.175 HD
HETATM   29  O8  UNL     1       7.415  10.588  23.785  1.00  0.00    -0.246 OA
ENDBRANCH  13  19
ENDBRANCH  10  13
ENDBRANCH   8  10
ENDBRANCH   5   8
BRANCH   4  30
HETATM   30  O2  UNL     1       8.784   3.279  20.642  1.00  0.00    -0.363 OA
ATOM     31  H2  UNL     1       9.533   3.727  20.269  1.00  0.00     0.213 HD
ENDBRANCH   4  30
BRANCH   7  32
HETATM   32  O9  UNL     1       5.557   4.813  23.182  1.00  0.00    -0.393 OA
ATOM     33  H9  UNL     1       5.920   4.166  23.776  1.00  0.00     0.210 HD
ENDBRANCH   7  32
BRANCH   1  34
HETATM   34  N5  UNL     1       4.361   2.247  22.537  1.00  0.00    -0.318 N 
HETATM   35  C3  UNL     1       3.259   2.267  21.763  1.00  0.00     0.141 A 
HETATM   36  N3  UNL     1       2.991   2.689  20.494  1.00  0.00    -0.336 N 
HETATM   37  C4  UNL     1       2.190   1.726  22.452  1.00  0.00     0.122 A 
HETATM   38  C2  UNL     1       1.787   2.605  19.920  1.00  0.00     0.183 A 
ATOM     39  H3  UNL     1       3.754   3.092  19.951  1.00  0.00     0.168 HD
HETATM   40  N2  UNL     1       0.766   2.067  20.635  1.00  0.00    -0.337 N 
HETATM   41  C1  UNL     1       0.940   1.626  21.885  1.00  0.00     0.131 A 
ATOM     42  H2  UNL     1      -0.157   1.999  20.207  1.00  0.00     0.168 HD
HETATM   43  N1  UNL     1      -0.060   1.125  22.520  1.00  0.00    -0.383 N 
ATOM     44  H12 UNL     1      -0.986   1.050  22.100  1.00  0.00     0.157 HD
ATOM     45  H11 UNL     1       0.073   0.788  23.473  1.00  0.00     0.157 HD
HETATM   46  N4  UNL     1       2.693   1.389  23.650  1.00  0.00    -0.346 N 
HETATM   47  C5  UNL     1       4.001   1.699  23.708  1.00  0.00     0.185 A 
ATOM     48  H4  UNL     1       2.161   0.959  24.407  1.00  0.00     0.167 HD
ENDBRANCH   1  34
TORSDOF 11
ENDMDL
