MODEL 1
REMARK VINA RESULT: -7.746742274      0.000      0.000
REMARK  12 active torsions:
REMARK  status: ('A' for Active; 'I' for Inactive)
REMARK    1  A    between atoms: S1_2  and  C2_3 
REMARK    2  A    between atoms: C3_5  and  O2_6 
REMARK    3  A    between atoms: C4_8  and  O3_9 
REMARK    4  A    between atoms: C5_11  and  N1_12 
REMARK    5  A    between atoms: C6_16  and  N2_17 
REMARK    6  A    between atoms: C7_21  and  C8_22 
REMARK    7  A    between atoms: C8_22  and  N7_29 
REMARK    8  A    between atoms: N5_23  and  N6_25 
REMARK    9  A    between atoms: N6_25  and  O4_27 
REMARK   10  A    between atoms: N7_29  and  N8_31 
REMARK   11  A    between atoms: N8_31  and  C9_33 
REMARK   12  A    between atoms: C11_40  and  N11_41 
REMARK       I    between atoms: N11_41  and  C12_43 
ROOT
HETATM    1  C8  UNL     1       6.435  10.529  23.364  1.00  0.00     0.184 C 
HETATM    2  N5  UNL     1       7.162  11.063  24.269  1.00  0.00    -0.262 N 
ATOM      3  H5  UNL     1       6.856  11.935  24.702  1.00  0.00     0.190 HD
ENDROOT
BRANCH   1   4
HETATM    4  C7  UNL     1       6.885   9.268  22.742  1.00  0.00     0.182 A 
HETATM    5  N4  UNL     1       7.383   9.074  21.527  1.00  0.00    -0.264 N 
HETATM    6  N3  UNL     1       7.638   7.780  21.423  1.00  0.00    -0.002 NA
ATOM      7  H4  UNL     1       7.538   9.784  20.812  1.00  0.00     0.186 HD
HETATM    8  N2  UNL     1       7.313   7.145  22.549  1.00  0.00    -0.206 N 
HETATM    9  N15 UNL     1       6.849   8.086  23.351  1.00  0.00    -0.266 N 
ATOM     10  H15 UNL     1       6.513   7.930  24.301  1.00  0.00     0.190 HD
BRANCH   8  11
HETATM   11  C6  UNL     1       7.435   5.732  22.843  1.00  0.00     0.197 C 
HETATM   12  C2  UNL     1       8.368   5.474  23.999  1.00  0.00     0.214 C 
HETATM   13  O1  UNL     1       9.418   4.638  23.655  1.00  0.00    -0.341 OA
HETATM   14  C3  UNL     1       8.993   3.422  23.134  1.00  0.00     0.289 C 
HETATM   15  C4  UNL     1       8.116   3.584  21.924  1.00  0.00     0.205 C 
HETATM   16  C5  UNL     1       7.891   5.038  21.579  1.00  0.00     0.246 C 
BRANCH  12  17
HETATM   17  S1  UNL     1       7.412   4.828  25.393  1.00  0.00    -0.139 SA
HETATM   18  C1  UNL     1       5.656   4.778  24.943  1.00  0.00     0.092 C 
ENDBRANCH  12  17
BRANCH  14  19
HETATM   19  O2  UNL     1       8.384   2.612  24.102  1.00  0.00    -0.369 OA
ATOM     20  H2  UNL     1       8.430   2.992  24.972  1.00  0.00     0.212 HD
ENDBRANCH  14  19
BRANCH  15  21
HETATM   21  O3  UNL     1       8.635   2.952  20.799  1.00  0.00    -0.388 OA
ATOM     22  H3  UNL     1       8.015   2.918  20.080  1.00  0.00     0.210 HD
ENDBRANCH  15  21
BRANCH  16  23
HETATM   23  N1  UNL     1       6.853   5.172  20.597  1.00  0.00    -0.070 N 
ATOM     24  H13 UNL     1       6.117   5.807  20.908  1.00  0.00     0.274 HD
ATOM     25  H12 UNL     1       7.170   5.695  19.780  1.00  0.00     0.274 HD
ATOM     26  H11 UNL     1       6.480   4.259  20.339  1.00  0.00     0.274 HD
ENDBRANCH  16  23
ENDBRANCH   8  11
ENDBRANCH   1   4
BRANCH   1  27
HETATM   27  N7  UNL     1       5.209  11.067  22.904  1.00  0.00    -0.267 N 
ATOM     28  H7  UNL     1       5.104  11.375  21.937  1.00  0.00     0.189 HD
BRANCH  27  29
HETATM   29  N8  UNL     1       4.149  11.165  23.803  1.00  0.00    -0.130 N 
ATOM     30  H8  UNL     1       4.262  11.652  24.692  1.00  0.00     0.205 HD
BRANCH  29  31
HETATM   31  C9  UNL     1       3.032  10.630  23.487  1.00  0.00     0.715 A 
HETATM   32  N9  UNL     1       1.867  11.298  23.458  1.00  0.00    -0.139 N 
HETATM   33  C10 UNL     1       0.716  10.696  23.124  1.00  0.00     0.352 A 
ATOM     34  H9  UNL     1       1.857  12.289  23.697  1.00  0.00     0.189 HD
HETATM   35  O5  UNL     1      -0.345  11.335  23.105  1.00  0.00    -0.246 OA
HETATM   36  N10 UNL     1       0.725   9.394  22.810  1.00  0.00    -0.140 N 
HETATM   37  C11 UNL     1       1.880   8.684  22.828  1.00  0.00     0.703 A 
ATOM     38  H10 UNL     1      -0.148   8.931  22.556  1.00  0.00     0.189 HD
HETATM   39  N14 UNL     1       3.008   9.311  23.164  1.00  0.00    -0.020 N 
ATOM     40  H14 UNL     1       3.881   8.782  23.179  1.00  0.00     0.203 HD
BRANCH  37  41
HETATM   41  N11 UNL     1       1.879   7.445  22.528  1.00  0.00    -0.163 N 
HETATM   42  C12 UNL     1       2.781   6.953  21.547  1.00  0.00     0.200 C 
HETATM   43  N12 UNL     1       2.414   6.758  20.316  1.00  0.00    -0.373 N 
HETATM   44  N13 UNL     1       4.114   6.669  21.919  1.00  0.00    -0.063 NA
ATOM     45 2H12 UNL     1       1.452   6.963  20.048  1.00  0.00     0.158 HD
ATOM     46 1H12 UNL     1       3.061   6.405  19.612  1.00  0.00     0.158 HD
ATOM     47  H11 UNL     1       1.232   6.807  22.993  1.00  0.00     0.187 HD
ENDBRANCH  37  41
ENDBRANCH  29  31
ENDBRANCH  27  29
ENDBRANCH   1  27
BRANCH   2  48
HETATM   48  N6  UNL     1       8.351  10.492  24.677  1.00  0.00    -0.208 N 
ATOM     49  H6  UNL     1       9.198  10.658  24.134  1.00  0.00     0.215 HD
BRANCH  48  50
HETATM   50  O4  UNL     1       8.407   9.777  25.699  1.00  0.00    -0.274 OA
ATOM     51  H4  UNL     1       9.148   9.824  26.292  1.00  0.00     0.246 HD
ENDBRANCH  48  50
ENDBRANCH   2  48
TORSDOF 12
ENDMDL
MODEL 2
REMARK VINA RESULT: -7.652052845      1.615      2.958
REMARK  12 active torsions:
REMARK  status: ('A' for Active; 'I' for Inactive)
REMARK    1  A    between atoms: S1_2  and  C2_3 
REMARK    2  A    between atoms: C3_5  and  O2_6 
REMARK    3  A    between atoms: C4_8  and  O3_9 
REMARK    4  A    between atoms: C5_11  and  N1_12 
REMARK    5  A    between atoms: C6_16  and  N2_17 
REMARK    6  A    between atoms: C7_21  and  C8_22 
REMARK    7  A    between atoms: C8_22  and  N7_29 
REMARK    8  A    between atoms: N5_23  and  N6_25 
REMARK    9  A    between atoms: N6_25  and  O4_27 
REMARK   10  A    between atoms: N7_29  and  N8_31 
REMARK   11  A    between atoms: N8_31  and  C9_33 
REMARK   12  A    between atoms: C11_40  and  N11_41 
REMARK       I    between atoms: N11_41  and  C12_43 
ROOT
HETATM    1  C8  UNL     1       6.626  10.484  23.373  1.00  0.00     0.184 C 
HETATM    2  N5  UNL     1       7.409  10.835  24.321  1.00  0.00    -0.262 N 
ATOM      3  H5  UNL     1       7.209  11.692  24.837  1.00  0.00     0.190 HD
ENDROOT
BRANCH   1   4
HETATM    4  C7  UNL     1       6.921   9.242  22.631  1.00  0.00     0.182 A 
HETATM    5  N4  UNL     1       7.395   9.106  21.398  1.00  0.00    -0.264 N 
HETATM    6  N3  UNL     1       7.492   7.807  21.170  1.00  0.00    -0.002 NA
ATOM      7  H4  UNL     1       7.637   9.857  20.753  1.00  0.00     0.186 HD
HETATM    8  N2  UNL     1       7.089   7.112  22.233  1.00  0.00    -0.206 N 
HETATM    9  N15 UNL     1       6.742   8.021  23.125  1.00  0.00    -0.266 N 
ATOM     10  H15 UNL     1       6.387   7.816  24.059  1.00  0.00     0.190 HD
BRANCH   8  11
HETATM   11  C6  UNL     1       7.038   5.672  22.391  1.00  0.00     0.197 C 
HETATM   12  C2  UNL     1       8.412   5.051  22.357  1.00  0.00     0.214 C 
HETATM   13  O1  UNL     1       8.538   4.098  21.359  1.00  0.00    -0.341 OA
HETATM   14  C3  UNL     1       7.586   3.090  21.451  1.00  0.00     0.289 C 
HETATM   15  C4  UNL     1       6.178   3.616  21.412  1.00  0.00     0.205 C 
HETATM   16  C5  UNL     1       6.140   5.124  21.304  1.00  0.00     0.246 C 
BRANCH  12  17
HETATM   17  S1  UNL     1       8.792   4.379  23.994  1.00  0.00    -0.139 SA
HETATM   18  C1  UNL     1       9.289   5.730  25.096  1.00  0.00     0.092 C 
ENDBRANCH  12  17
BRANCH  14  19
HETATM   19  O2  UNL     1       7.792   2.263  22.564  1.00  0.00    -0.369 OA
ATOM     20  H2  UNL     1       6.989   2.099  23.045  1.00  0.00     0.212 HD
ENDBRANCH  14  19
BRANCH  15  21
HETATM   21  O3  UNL     1       5.440   3.093  20.356  1.00  0.00    -0.388 OA
ATOM     22  H3  UNL     1       5.978   2.885  19.601  1.00  0.00     0.210 HD
ENDBRANCH  15  21
BRANCH  16  23
HETATM   23  N1  UNL     1       4.811   5.616  21.532  1.00  0.00    -0.070 N 
ATOM     24  H13 UNL     1       4.244   5.580  20.686  1.00  0.00     0.274 HD
ATOM     25  H12 UNL     1       4.265   4.976  22.110  1.00  0.00     0.274 HD
ATOM     26  H11 UNL     1       4.838   6.555  21.930  1.00  0.00     0.274 HD
ENDBRANCH  16  23
ENDBRANCH   8  11
ENDBRANCH   1   4
BRANCH   1  27
HETATM   27  N7  UNL     1       5.477  11.208  22.976  1.00  0.00    -0.267 N 
ATOM     28  H7  UNL     1       5.463  11.722  22.094  1.00  0.00     0.189 HD
BRANCH  27  29
HETATM   29  N8  UNL     1       4.366  11.203  23.816  1.00  0.00    -0.130 N 
ATOM     30  H8  UNL     1       4.378  11.709  24.701  1.00  0.00     0.205 HD
BRANCH  29  31
HETATM   31  C9  UNL     1       3.331  10.549  23.451  1.00  0.00     0.715 A 
HETATM   32  N9  UNL     1       3.358   9.264  23.064  1.00  0.00    -0.139 N 
HETATM   33  C10 UNL     1       2.246   8.616  22.686  1.00  0.00     0.352 A 
ATOM     34  H9  UNL     1       4.248   8.766  23.058  1.00  0.00     0.189 HD
HETATM   35  O5  UNL     1       2.299   7.429  22.334  1.00  0.00    -0.246 OA
HETATM   36  N10 UNL     1       1.075   9.266  22.692  1.00  0.00    -0.140 N 
HETATM   37  C11 UNL     1       1.005  10.565  23.076  1.00  0.00     0.703 A 
ATOM     38  H10 UNL     1       0.226   8.778  22.405  1.00  0.00     0.189 HD
HETATM   39  N14 UNL     1       2.128  11.181  23.447  1.00  0.00    -0.020 N 
ATOM     40  H14 UNL     1       2.082  12.158  23.737  1.00  0.00     0.203 HD
BRANCH  37  41
HETATM   41  N11 UNL     1      -0.114  11.176  23.078  1.00  0.00    -0.163 N 
HETATM   42  C12 UNL     1      -0.558  11.834  24.256  1.00  0.00     0.200 C 
HETATM   43  N12 UNL     1      -1.405  11.282  25.071  1.00  0.00    -0.373 N 
HETATM   44  N13 UNL     1      -0.066  13.126  24.549  1.00  0.00    -0.063 NA
ATOM     45 2H12 UNL     1      -1.760  10.350  24.859  1.00  0.00     0.158 HD
ATOM     46 1H12 UNL     1      -1.723  11.754  25.917  1.00  0.00     0.158 HD
ATOM     47  H11 UNL     1      -0.689  11.193  22.235  1.00  0.00     0.187 HD
ENDBRANCH  37  41
ENDBRANCH  29  31
ENDBRANCH  27  29
ENDBRANCH   1  27
BRANCH   2  48
HETATM   48  N6  UNL     1       8.517  10.087  24.664  1.00  0.00    -0.208 N 
ATOM     49  H6  UNL     1       9.195   9.837  23.944  1.00  0.00     0.215 HD
BRANCH  48  50
HETATM   50  O4  UNL     1       8.704   9.710  25.840  1.00  0.00    -0.274 OA
ATOM     51  H4  UNL     1       8.623   8.795  26.083  1.00  0.00     0.246 HD
ENDBRANCH  48  50
ENDBRANCH   2  48
TORSDOF 12
ENDMDL
MODEL 3
REMARK VINA RESULT: -7.522354918      1.533      2.003
REMARK  12 active torsions:
REMARK  status: ('A' for Active; 'I' for Inactive)
REMARK    1  A    between atoms: S1_2  and  C2_3 
REMARK    2  A    between atoms: C3_5  and  O2_6 
REMARK    3  A    between atoms: C4_8  and  O3_9 
REMARK    4  A    between atoms: C5_11  and  N1_12 
REMARK    5  A    between atoms: C6_16  and  N2_17 
REMARK    6  A    between atoms: C7_21  and  C8_22 
REMARK    7  A    between atoms: C8_22  and  N7_29 
REMARK    8  A    between atoms: N5_23  and  N6_25 
REMARK    9  A    between atoms: N6_25  and  O4_27 
REMARK   10  A    between atoms: N7_29  and  N8_31 
REMARK   11  A    between atoms: N8_31  and  C9_33 
REMARK   12  A    between atoms: C11_40  and  N11_41 
REMARK       I    between atoms: N11_41  and  C12_43 
ROOT
HETATM    1  C8  UNL     1       6.026  10.455  23.911  1.00  0.00     0.184 C 
HETATM    2  N5  UNL     1       6.851  10.971  24.740  1.00  0.00    -0.262 N 
ATOM      3  H5  UNL     1       6.543  11.746  25.328  1.00  0.00     0.190 HD
ENDROOT
BRANCH   1   4
HETATM    4  C7  UNL     1       6.478   9.335  23.063  1.00  0.00     0.182 A 
HETATM    5  N4  UNL     1       6.943   9.370  21.820  1.00  0.00    -0.264 N 
HETATM    6  N3  UNL     1       7.217   8.121  21.480  1.00  0.00    -0.002 NA
ATOM      7  H4  UNL     1       7.066  10.199  21.239  1.00  0.00     0.186 HD
HETATM    8  N2  UNL     1       6.936   7.290  22.483  1.00  0.00    -0.206 N 
HETATM    9  N15 UNL     1       6.481   8.063  23.452  1.00  0.00    -0.266 N 
ATOM     10  H15 UNL     1       6.176   7.732  24.367  1.00  0.00     0.190 HD
BRANCH   8  11
HETATM   11  C6  UNL     1       7.090   5.849  22.517  1.00  0.00     0.197 C 
HETATM   12  C2  UNL     1       8.540   5.436  22.515  1.00  0.00     0.214 C 
HETATM   13  O1  UNL     1       8.853   4.605  21.450  1.00  0.00    -0.341 OA
HETATM   14  C3  UNL     1       8.056   3.468  21.401  1.00  0.00     0.289 C 
HETATM   15  C4  UNL     1       6.590   3.789  21.321  1.00  0.00     0.205 C 
HETATM   16  C5  UNL     1       6.336   5.279  21.336  1.00  0.00     0.246 C 
BRANCH  12  17
HETATM   17  S1  UNL     1       8.938   4.679  24.109  1.00  0.00    -0.139 SA
HETATM   18  C1  UNL     1       9.259   5.982  25.328  1.00  0.00     0.092 C 
ENDBRANCH  12  17
BRANCH  14  19
HETATM   19  O2  UNL     1       8.328   2.581  22.451  1.00  0.00    -0.369 OA
ATOM     20  H2  UNL     1       7.690   2.643  23.151  1.00  0.00     0.212 HD
ENDBRANCH  14  19
BRANCH  15  21
HETATM   21  O3  UNL     1       5.987   3.264  20.183  1.00  0.00    -0.388 OA
ATOM     22  H3  UNL     1       5.525   2.452  20.355  1.00  0.00     0.210 HD
ENDBRANCH  15  21
BRANCH  16  23
HETATM   23  N1  UNL     1       4.939   5.555  21.525  1.00  0.00    -0.070 N 
ATOM     24  H13 UNL     1       4.556   6.108  20.758  1.00  0.00     0.274 HD
ATOM     25  H12 UNL     1       4.370   4.716  21.408  1.00  0.00     0.274 HD
ATOM     26  H11 UNL     1       4.778   5.998  22.429  1.00  0.00     0.274 HD
ENDBRANCH  16  23
ENDBRANCH   8  11
ENDBRANCH   1   4
BRANCH   1  27
HETATM   27  N7  UNL     1       4.688  10.884  23.742  1.00  0.00    -0.267 N 
ATOM     28  H7  UNL     1       4.416  11.843  23.961  1.00  0.00     0.189 HD
BRANCH  27  29
HETATM   29  N8  UNL     1       3.752   9.968  23.269  1.00  0.00    -0.130 N 
ATOM     30  H8  UNL     1       4.049   9.086  22.851  1.00  0.00     0.205 HD
BRANCH  29  31
HETATM   31  C9  UNL     1       2.512  10.257  23.370  1.00  0.00     0.715 A 
HETATM   32  N9  UNL     1       2.054  11.417  23.871  1.00  0.00    -0.139 N 
HETATM   33  C10 UNL     1       0.743  11.679  23.963  1.00  0.00     0.352 A 
ATOM     34  H9  UNL     1       2.723  12.117  24.191  1.00  0.00     0.189 HD
HETATM   35  O5  UNL     1       0.347  12.757  24.428  1.00  0.00    -0.246 OA
HETATM   36  N10 UNL     1      -0.139  10.761  23.545  1.00  0.00    -0.140 N 
HETATM   37  C11 UNL     1       0.281   9.577  23.033  1.00  0.00     0.703 A 
ATOM     38  H10 UNL     1      -1.139  10.955  23.613  1.00  0.00     0.189 HD
HETATM   39  N14 UNL     1       1.592   9.347  22.955  1.00  0.00    -0.020 N 
ATOM     40  H14 UNL     1       1.915   8.458  22.571  1.00  0.00     0.203 HD
BRANCH  37  41
HETATM   41  N11 UNL     1      -0.565   8.709  22.639  1.00  0.00    -0.163 N 
HETATM   42  C12 UNL     1      -0.720   8.453  21.250  1.00  0.00     0.200 C 
HETATM   43  N12 UNL     1      -1.675   8.995  20.557  1.00  0.00    -0.373 N 
HETATM   44  N13 UNL     1       0.188   7.584  20.606  1.00  0.00    -0.063 NA
ATOM     45 2H12 UNL     1      -2.331   9.622  21.022  1.00  0.00     0.158 HD
ATOM     46 1H12 UNL     1      -1.787   8.812  19.560  1.00  0.00     0.158 HD
ATOM     47  H11 UNL     1      -1.129   8.200  23.319  1.00  0.00     0.187 HD
ENDBRANCH  37  41
ENDBRANCH  29  31
ENDBRANCH  27  29
ENDBRANCH   1  27
BRANCH   2  48
HETATM   48  N6  UNL     1       8.146  10.510  24.860  1.00  0.00    -0.208 N 
ATOM     49  H6  UNL     1       8.874  10.902  24.264  1.00  0.00     0.215 HD
BRANCH  48  50
HETATM   50  O4  UNL     1       8.441   9.621  25.686  1.00  0.00    -0.274 OA
ATOM     51  H4  UNL     1       9.343   9.354  25.822  1.00  0.00     0.246 HD
ENDBRANCH  48  50
ENDBRANCH   2  48
TORSDOF 12
ENDMDL
MODEL 4
REMARK VINA RESULT: -7.515639584      3.639      6.235
REMARK  12 active torsions:
REMARK  status: ('A' for Active; 'I' for Inactive)
REMARK    1  A    between atoms: S1_2  and  C2_3 
REMARK    2  A    between atoms: C3_5  and  O2_6 
REMARK    3  A    between atoms: C4_8  and  O3_9 
REMARK    4  A    between atoms: C5_11  and  N1_12 
REMARK    5  A    between atoms: C6_16  and  N2_17 
REMARK    6  A    between atoms: C7_21  and  C8_22 
REMARK    7  A    between atoms: C8_22  and  N7_29 
REMARK    8  A    between atoms: N5_23  and  N6_25 
REMARK    9  A    between atoms: N6_25  and  O4_27 
REMARK   10  A    between atoms: N7_29  and  N8_31 
REMARK   11  A    between atoms: N8_31  and  C9_33 
REMARK   12  A    between atoms: C11_40  and  N11_41 
REMARK       I    between atoms: N11_41  and  C12_43 
ROOT
HETATM    1  C8  UNL     1       7.747   4.848  21.189  1.00  0.00     0.184 C 
HETATM    2  N5  UNL     1       8.753   4.315  21.771  1.00  0.00    -0.262 N 
ATOM      3  H5  UNL     1       9.596   4.872  21.912  1.00  0.00     0.190 HD
ENDROOT
BRANCH   1   4
HETATM    4  C7  UNL     1       6.530   4.036  20.988  1.00  0.00     0.182 A 
HETATM    5  N4  UNL     1       6.219   3.246  19.968  1.00  0.00    -0.264 N 
HETATM    6  N3  UNL     1       5.030   2.732  20.233  1.00  0.00    -0.002 NA
ATOM      7  H4  UNL     1       6.787   3.070  19.139  1.00  0.00     0.186 HD
HETATM    8  N2  UNL     1       4.576   3.179  21.404  1.00  0.00    -0.206 N 
HETATM    9  N15 UNL     1       5.522   3.983  21.853  1.00  0.00    -0.266 N 
ATOM     10  H15 UNL     1       5.484   4.491  22.737  1.00  0.00     0.190 HD
BRANCH   8  11
HETATM   11  C6  UNL     1       3.321   2.860  22.055  1.00  0.00     0.197 C 
HETATM   12  C2  UNL     1       3.454   1.689  22.995  1.00  0.00     0.214 C 
HETATM   13  O1  UNL     1       2.589   0.654  22.677  1.00  0.00    -0.341 OA
HETATM   14  C3  UNL     1       1.259   1.054  22.635  1.00  0.00     0.289 C 
HETATM   15  C4  UNL     1       1.020   2.172  21.659  1.00  0.00     0.205 C 
HETATM   16  C5  UNL     1       2.295   2.606  20.972  1.00  0.00     0.246 C 
BRANCH  12  17
HETATM   17  S1  UNL     1       3.225   2.270  24.693  1.00  0.00    -0.139 SA
HETATM   18  C1  UNL     1       2.951   4.062  24.681  1.00  0.00     0.092 C 
ENDBRANCH  12  17
BRANCH  14  19
HETATM   19  O2  UNL     1       0.758   1.369  23.905  1.00  0.00    -0.369 OA
ATOM     20  H2  UNL     1      -0.180   1.519  23.896  1.00  0.00     0.212 HD
ENDBRANCH  14  19
BRANCH  15  21
HETATM   21  O3  UNL     1       0.098   1.836  20.674  1.00  0.00    -0.388 OA
ATOM     22  H3  UNL     1       0.023   2.500  19.999  1.00  0.00     0.210 HD
ENDBRANCH  15  21
BRANCH  16  23
HETATM   23  N1  UNL     1       2.093   3.832  20.253  1.00  0.00    -0.070 N 
ATOM     24  H13 UNL     1       1.911   3.664  19.263  1.00  0.00     0.274 HD
ATOM     25  H12 UNL     1       1.207   4.273  20.499  1.00  0.00     0.274 HD
ATOM     26  H11 UNL     1       2.881   4.464  20.390  1.00  0.00     0.274 HD
ENDBRANCH  16  23
ENDBRANCH   8  11
ENDBRANCH   1   4
BRANCH   1  27
HETATM   27  N7  UNL     1       7.711   6.181  20.715  1.00  0.00    -0.267 N 
ATOM     28  H7  UNL     1       8.562   6.643  20.394  1.00  0.00     0.189 HD
BRANCH  27  29
HETATM   29  N8  UNL     1       6.487   6.845  20.697  1.00  0.00    -0.130 N 
ATOM     30  H8  UNL     1       5.781   6.622  19.995  1.00  0.00     0.205 HD
BRANCH  29  31
HETATM   31  C9  UNL     1       6.269   7.742  21.581  1.00  0.00     0.715 A 
HETATM   32  N9  UNL     1       5.041   8.143  21.949  1.00  0.00    -0.139 N 
HETATM   33  C10 UNL     1       4.858   9.091  22.880  1.00  0.00     0.352 A 
ATOM     34  H9  UNL     1       4.227   7.716  21.510  1.00  0.00     0.189 HD
HETATM   35  O5  UNL     1       3.714   9.443  23.203  1.00  0.00    -0.246 OA
HETATM   36  N10 UNL     1       5.925   9.655  23.460  1.00  0.00    -0.140 N 
HETATM   37  C11 UNL     1       7.182   9.278  23.115  1.00  0.00     0.703 A 
ATOM     38  H10 UNL     1       5.792  10.377  24.169  1.00  0.00     0.189 HD
HETATM   39  N14 UNL     1       7.332   8.333  22.187  1.00  0.00    -0.020 N 
ATOM     40  H14 UNL     1       8.274   8.045  21.923  1.00  0.00     0.203 HD
BRANCH  37  41
HETATM   41  N11 UNL     1       8.192   9.822  23.672  1.00  0.00    -0.163 N 
HETATM   42  C12 UNL     1       8.193  10.043  25.075  1.00  0.00     0.200 C 
HETATM   43  N12 UNL     1       7.895  11.200  25.585  1.00  0.00    -0.373 N 
HETATM   44  N13 UNL     1       8.528   8.977  25.939  1.00  0.00    -0.063 NA
ATOM     45 2H12 UNL     1       7.654  11.970  24.962  1.00  0.00     0.158 HD
ATOM     46 1H12 UNL     1       7.895  11.359  26.592  1.00  0.00     0.158 HD
ATOM     47  H11 UNL     1       8.999  10.097  23.110  1.00  0.00     0.187 HD
ENDBRANCH  37  41
ENDBRANCH  29  31
ENDBRANCH  27  29
ENDBRANCH   1  27
BRANCH   2  48
HETATM   48  N6  UNL     1       8.730   3.008  22.212  1.00  0.00    -0.208 N 
ATOM     49  H6  UNL     1       8.153   2.324  21.722  1.00  0.00     0.215 HD
BRANCH  48  50
HETATM   50  O4  UNL     1       9.402   2.647  23.201  1.00  0.00    -0.274 OA
ATOM     51  H4  UNL     1      10.093   1.999  23.117  1.00  0.00     0.246 HD
ENDBRANCH  48  50
ENDBRANCH   2  48
TORSDOF 12
ENDMDL
MODEL 5
REMARK VINA RESULT: -7.500051611      1.378      1.666
REMARK  12 active torsions:
REMARK  status: ('A' for Active; 'I' for Inactive)
REMARK    1  A    between atoms: S1_2  and  C2_3 
REMARK    2  A    between atoms: C3_5  and  O2_6 
REMARK    3  A    between atoms: C4_8  and  O3_9 
REMARK    4  A    between atoms: C5_11  and  N1_12 
REMARK    5  A    between atoms: C6_16  and  N2_17 
REMARK    6  A    between atoms: C7_21  and  C8_22 
REMARK    7  A    between atoms: C8_22  and  N7_29 
REMARK    8  A    between atoms: N5_23  and  N6_25 
REMARK    9  A    between atoms: N6_25  and  O4_27 
REMARK   10  A    between atoms: N7_29  and  N8_31 
REMARK   11  A    between atoms: N8_31  and  C9_33 
REMARK   12  A    between atoms: C11_40  and  N11_41 
REMARK       I    between atoms: N11_41  and  C12_43 
ROOT
HETATM    1  C8  UNL     1       7.153   9.995  24.545  1.00  0.00     0.184 C 
HETATM    2  N5  UNL     1       8.091  10.127  25.403  1.00  0.00    -0.262 N 
ATOM      3  H5  UNL     1       8.041  10.890  26.079  1.00  0.00     0.190 HD
ENDROOT
BRANCH   1   4
HETATM    4  C7  UNL     1       7.233   8.890  23.569  1.00  0.00     0.182 A 
HETATM    5  N4  UNL     1       7.519   8.945  22.274  1.00  0.00    -0.264 N 
HETATM    6  N3  UNL     1       7.468   7.704  21.820  1.00  0.00    -0.002 NA
ATOM      7  H4  UNL     1       7.737   9.782  21.734  1.00  0.00     0.186 HD
HETATM    8  N2  UNL     1       7.155   6.858  22.800  1.00  0.00    -0.206 N 
HETATM    9  N15 UNL     1       7.015   7.614  23.874  1.00  0.00    -0.266 N 
ATOM     10  H15 UNL     1       6.774   7.269  24.803  1.00  0.00     0.190 HD
BRANCH   8  11
HETATM   11  C6  UNL     1       6.998   5.419  22.721  1.00  0.00     0.197 C 
HETATM   12  C2  UNL     1       8.327   4.708  22.671  1.00  0.00     0.214 C 
HETATM   13  O1  UNL     1       8.461   3.915  21.542  1.00  0.00    -0.341 OA
HETATM   14  C3  UNL     1       7.441   2.982  21.413  1.00  0.00     0.289 C 
HETATM   15  C4  UNL     1       6.077   3.613  21.375  1.00  0.00     0.205 C 
HETATM   16  C5  UNL     1       6.147   5.117  21.508  1.00  0.00     0.246 C 
BRANCH  12  17
HETATM   17  S1  UNL     1       8.544   3.762  24.198  1.00  0.00    -0.139 SA
HETATM   18  C1  UNL     1       7.129   4.058  25.293  1.00  0.00     0.092 C 
ENDBRANCH  12  17
BRANCH  14  19
HETATM   19  O2  UNL     1       7.512   1.978  22.389  1.00  0.00    -0.369 OA
ATOM     20  H2  UNL     1       6.912   1.262  22.214  1.00  0.00     0.212 HD
ENDBRANCH  14  19
BRANCH  15  21
HETATM   21  O3  UNL     1       5.384   3.319  20.205  1.00  0.00    -0.388 OA
ATOM     22  H3  UNL     1       4.814   2.564  20.298  1.00  0.00     0.210 HD
ENDBRANCH  15  21
BRANCH  16  23
HETATM   23  N1  UNL     1       4.840   5.668  21.732  1.00  0.00    -0.070 N 
ATOM     24  H13 UNL     1       4.554   6.284  20.971  1.00  0.00     0.274 HD
ATOM     25  H12 UNL     1       4.111   4.960  21.639  1.00  0.00     0.274 HD
ATOM     26  H11 UNL     1       4.797   6.138  22.635  1.00  0.00     0.274 HD
ENDBRANCH  16  23
ENDBRANCH   8  11
ENDBRANCH   1   4
BRANCH   1  27
HETATM   27  N7  UNL     1       6.024  10.844  24.458  1.00  0.00    -0.267 N 
ATOM     28  H7  UNL     1       5.759  11.441  25.241  1.00  0.00     0.189 HD
BRANCH  27  29
HETATM   29  N8  UNL     1       5.284  10.845  23.277  1.00  0.00    -0.130 N 
ATOM     30  H8  UNL     1       5.719  11.092  22.388  1.00  0.00     0.205 HD
BRANCH  29  31
HETATM   31  C9  UNL     1       4.048  10.528  23.334  1.00  0.00     0.715 A 
HETATM   32  N9  UNL     1       3.059  11.412  23.545  1.00  0.00    -0.139 N 
HETATM   33  C10 UNL     1       1.774  11.035  23.600  1.00  0.00     0.352 A 
ATOM     34  H9  UNL     1       3.293  12.397  23.666  1.00  0.00     0.189 HD
HETATM   35  O5  UNL     1       0.881  11.871  23.795  1.00  0.00    -0.246 OA
HETATM   36  N10 UNL     1       1.464   9.741  23.442  1.00  0.00    -0.140 N 
HETATM   37  C11 UNL     1       2.432   8.816  23.228  1.00  0.00     0.703 A 
ATOM     38  H10 UNL     1       0.487   9.448  23.484  1.00  0.00     0.189 HD
HETATM   39  N14 UNL     1       3.701   9.223  23.178  1.00  0.00    -0.020 N 
ATOM     40  H14 UNL     1       4.435   8.532  23.016  1.00  0.00     0.203 HD
BRANCH  37  41
HETATM   41  N11 UNL     1       2.128   7.587  23.079  1.00  0.00    -0.163 N 
HETATM   42  C12 UNL     1       1.406   7.171  21.928  1.00  0.00     0.200 C 
HETATM   43  N12 UNL     1       0.120   6.990  21.955  1.00  0.00    -0.373 N 
HETATM   44  N13 UNL     1       2.106   6.949  20.721  1.00  0.00    -0.063 NA
ATOM     45 2H12 UNL     1      -0.385   7.150  22.827  1.00  0.00     0.158 HD
ATOM     46 1H12 UNL     1      -0.398   6.692  21.129  1.00  0.00     0.158 HD
ATOM     47  H11 UNL     1       2.402   6.904  23.786  1.00  0.00     0.187 HD
ENDBRANCH  37  41
ENDBRANCH  29  31
ENDBRANCH  27  29
ENDBRANCH   1  27
BRANCH   2  48
HETATM   48  N6  UNL     1       9.170   9.267  25.439  1.00  0.00    -0.208 N 
ATOM     49  H6  UNL     1       9.392   8.707  24.616  1.00  0.00     0.215 HD
BRANCH  48  50
HETATM   50  O4  UNL     1       9.879   9.162  26.462  1.00  0.00    -0.274 OA
ATOM     51  H4  UNL     1       9.578   8.679  27.222  1.00  0.00     0.246 HD
ENDBRANCH  48  50
ENDBRANCH   2  48
TORSDOF 12
ENDMDL
