MODEL 1
REMARK VINA RESULT: -6.901432879      0.000      0.000
REMARK  7 active torsions:
REMARK  status: ('A' for Active; 'I' for Inactive)
REMARK    1  A    between atoms: N1_1  and  C1_5 
REMARK    2  A    between atoms: C6_10  and  N2_11 
REMARK    3  A    between atoms: C8_13  and  C9_14 
REMARK    4  A    between atoms: C11_16  and  N3_17 
REMARK    5  A    between atoms: C14_20  and  C15_21 
REMARK    6  A    between atoms: C17_26  and  C18_27 
REMARK    7  A    between atoms: C18_27  and  C19_28 
ROOT
HETATM    1  N2  UNL     1      21.170  -1.091 -11.076  1.00  0.00    -0.280 N 
HETATM    2  C7  UNL     1      22.151  -0.368 -11.688  1.00  0.00     0.139 A 
HETATM    3  C8  UNL     1      23.371  -0.705 -11.143  1.00  0.00     0.050 A 
HETATM    4  N4  UNL     1      23.096  -1.630 -10.209  1.00  0.00    -0.288 N 
ATOM      5  H4  UNL     1      23.781  -2.094  -9.612  1.00  0.00     0.188 HD
HETATM    6  N5  UNL     1      21.807  -1.835 -10.191  1.00  0.00    -0.240 N 
ATOM      7  H5  UNL     1      21.346  -2.495  -9.565  1.00  0.00     0.208 HD
ENDROOT
BRANCH   3   8
HETATM    8  C9  UNL     1      24.719  -0.197 -11.470  1.00  0.00     0.063 A 
HETATM    9  C10 UNL     1      24.927   1.048 -12.204  1.00  0.00     0.039 A 
HETATM   10  C11 UNL     1      25.187   1.115 -10.747  1.00  0.00     0.094 A 
BRANCH  10  11
HETATM   11  N3  UNL     1      26.456   1.029 -10.169  1.00  0.00    -0.383 N 
HETATM   12  C12 UNL     1      26.610   1.924  -9.100  1.00  0.00     0.060 C 
HETATM   13  C13 UNL     1      27.734   1.620  -8.154  1.00  0.00     0.057 C 
HETATM   14  C14 UNL     1      28.503   0.384  -8.435  1.00  0.00     0.100 C 
HETATM   15  C16 UNL     1      28.761   0.272  -9.890  1.00  0.00     0.039 C 
HETATM   16  C17 UNL     1      27.556   0.472 -10.787  1.00  0.00     0.089 C 
BRANCH  14  17
HETATM   17  C15 UNL     1      27.970  -0.871  -7.789  1.00  0.00     0.391 C 
HETATM   18  F1  UNL     1      28.402  -1.927  -8.577  1.00  0.00    -0.171 F 
HETATM   19  F2  UNL     1      28.538  -1.025  -6.539  1.00  0.00    -0.171 F 
HETATM   20  F3  UNL     1      26.618  -0.915  -7.651  1.00  0.00    -0.171 F 
ENDBRANCH  14  17
BRANCH  16  21
HETATM   21  C18 UNL     1      28.076   1.069 -12.055  1.00  0.00     0.096 C 
BRANCH  21  22
HETATM   22  C19 UNL     1      27.957   0.237 -13.292  1.00  0.00     0.355 C 
HETATM   23  F4  UNL     1      27.188   0.928 -14.237  1.00  0.00    -0.214 F 
HETATM   24  F5  UNL     1      27.237  -0.922 -12.998  1.00  0.00    -0.214 F 
ENDBRANCH  21  22
ENDBRANCH  16  21
ENDBRANCH  10  11
ENDBRANCH   3   8
BRANCH   1  25
HETATM   25  C6  UNL     1      19.751  -1.040 -11.355  1.00  0.00     0.139 C 
HETATM   26  C1  UNL     1      19.026   0.016 -10.558  1.00  0.00     0.208 C 
HETATM   27  C2  UNL     1      18.829  -0.396  -9.119  1.00  0.00     0.035 C 
HETATM   28  C3  UNL     1      18.052  -1.710  -9.084  1.00  0.00     0.002 C 
HETATM   29  C4  UNL     1      18.950  -2.752  -9.714  1.00  0.00     0.002 C 
HETATM   30  C5  UNL     1      19.106  -2.403 -11.175  1.00  0.00     0.029 C 
BRANCH  26  31
HETATM   31  N1  UNL     1      19.730   1.262 -10.591  1.00  0.00    -0.073 N 
ATOM     32  H13 UNL     1      19.116   2.060 -10.430  1.00  0.00     0.274 HD
ATOM     33  H12 UNL     1      20.339   1.386  -9.782  1.00  0.00     0.274 HD
ATOM     34  H11 UNL     1      20.236   1.332 -11.474  1.00  0.00     0.274 HD
ENDBRANCH  26  31
ENDBRANCH   1  25
TORSDOF 7
ENDMDL
MODEL 2
REMARK VINA RESULT: -6.815776790      1.718      2.369
REMARK  7 active torsions:
REMARK  status: ('A' for Active; 'I' for Inactive)
REMARK    1  A    between atoms: N1_1  and  C1_5 
REMARK    2  A    between atoms: C6_10  and  N2_11 
REMARK    3  A    between atoms: C8_13  and  C9_14 
REMARK    4  A    between atoms: C11_16  and  N3_17 
REMARK    5  A    between atoms: C14_20  and  C15_21 
REMARK    6  A    between atoms: C17_26  and  C18_27 
REMARK    7  A    between atoms: C18_27  and  C19_28 
ROOT
HETATM    1  N2  UNL     1      20.729  -1.290 -11.479  1.00  0.00    -0.280 N 
HETATM    2  C7  UNL     1      21.808  -0.458 -11.538  1.00  0.00     0.139 A 
HETATM    3  C8  UNL     1      22.961  -1.210 -11.582  1.00  0.00     0.050 A 
HETATM    4  N4  UNL     1      22.549  -2.488 -11.549  1.00  0.00    -0.288 N 
ATOM      5  H4  UNL     1      23.155  -3.309 -11.569  1.00  0.00     0.188 HD
HETATM    6  N5  UNL     1      21.245  -2.505 -11.489  1.00  0.00    -0.240 N 
ATOM      7  H5  UNL     1      20.689  -3.359 -11.453  1.00  0.00     0.208 HD
ENDROOT
BRANCH   3   8
HETATM    8  C9  UNL     1      24.369  -0.770 -11.652  1.00  0.00     0.063 A 
HETATM    9  C10 UNL     1      24.775   0.433 -12.374  1.00  0.00     0.039 A 
HETATM   10  C11 UNL     1      24.745   0.555 -10.898  1.00  0.00     0.094 A 
BRANCH  10  11
HETATM   11  N3  UNL     1      25.869   0.446 -10.076  1.00  0.00    -0.383 N 
HETATM   12  C12 UNL     1      25.537   0.025  -8.780  1.00  0.00     0.060 C 
HETATM   13  C13 UNL     1      26.667  -0.535  -7.968  1.00  0.00     0.057 C 
HETATM   14  C14 UNL     1      27.978  -0.625  -8.655  1.00  0.00     0.100 C 
HETATM   15  C16 UNL     1      28.221   0.610  -9.437  1.00  0.00     0.039 C 
HETATM   16  C17 UNL     1      27.081   1.055 -10.330  1.00  0.00     0.089 C 
BRANCH  14  17
HETATM   17  C15 UNL     1      28.230  -1.909  -9.405  1.00  0.00     0.391 C 
HETATM   18  F1  UNL     1      29.509  -2.317  -9.059  1.00  0.00    -0.171 F 
HETATM   19  F2  UNL     1      27.351  -2.881  -8.967  1.00  0.00    -0.171 F 
HETATM   20  F3  UNL     1      28.121  -1.814 -10.757  1.00  0.00    -0.171 F 
ENDBRANCH  14  17
BRANCH  16  21
HETATM   21  C18 UNL     1      27.162   2.546 -10.397  1.00  0.00     0.096 C 
BRANCH  21  22
HETATM   22  C19 UNL     1      26.469   3.310  -9.313  1.00  0.00     0.355 C 
HETATM   23  F4  UNL     1      26.799   4.667  -9.426  1.00  0.00    -0.214 F 
HETATM   24  F5  UNL     1      26.968   2.905  -8.074  1.00  0.00    -0.214 F 
ENDBRANCH  21  22
ENDBRANCH  16  21
ENDBRANCH  10  11
ENDBRANCH   3   8
BRANCH   1  25
HETATM   25  C6  UNL     1      19.336  -0.904 -11.421  1.00  0.00     0.139 C 
HETATM   26  C1  UNL     1      19.095   0.333 -10.592  1.00  0.00     0.208 C 
HETATM   27  C2  UNL     1      19.179   0.049  -9.112  1.00  0.00     0.035 C 
HETATM   28  C3  UNL     1      18.158  -1.031  -8.759  1.00  0.00     0.002 C 
HETATM   29  C4  UNL     1      18.607  -2.290  -9.468  1.00  0.00     0.002 C 
HETATM   30  C5  UNL     1      18.464  -2.057 -10.954  1.00  0.00     0.029 C 
BRANCH  26  31
HETATM   31  N1  UNL     1      20.032   1.365 -10.920  1.00  0.00    -0.073 N 
ATOM     32  H13 UNL     1      19.574   2.243 -11.165  1.00  0.00     0.274 HD
ATOM     33  H12 UNL     1      20.546   1.697 -10.104  1.00  0.00     0.274 HD
ATOM     34  H11 UNL     1      20.649   1.027 -11.658  1.00  0.00     0.274 HD
ENDBRANCH  26  31
ENDBRANCH   1  25
TORSDOF 7
ENDMDL
MODEL 3
REMARK VINA RESULT: -6.553545845      1.036      1.719
REMARK  7 active torsions:
REMARK  status: ('A' for Active; 'I' for Inactive)
REMARK    1  A    between atoms: N1_1  and  C1_5 
REMARK    2  A    between atoms: C6_10  and  N2_11 
REMARK    3  A    between atoms: C8_13  and  C9_14 
REMARK    4  A    between atoms: C11_16  and  N3_17 
REMARK    5  A    between atoms: C14_20  and  C15_21 
REMARK    6  A    between atoms: C17_26  and  C18_27 
REMARK    7  A    between atoms: C18_27  and  C19_28 
ROOT
HETATM    1  N2  UNL     1      20.910  -1.030  -9.922  1.00  0.00    -0.280 N 
HETATM    2  C7  UNL     1      21.842  -0.239 -10.526  1.00  0.00     0.139 A 
HETATM    3  C8  UNL     1      23.027  -0.933 -10.633  1.00  0.00     0.050 A 
HETATM    4  N4  UNL     1      22.782  -2.136 -10.087  1.00  0.00    -0.288 N 
ATOM      5  H4  UNL     1      23.453  -2.899 -10.003  1.00  0.00     0.188 HD
HETATM    6  N5  UNL     1      21.542  -2.164  -9.681  1.00  0.00    -0.240 N 
ATOM      7  H5  UNL     1      21.110  -2.970  -9.229  1.00  0.00     0.208 HD
ENDROOT
BRANCH   3   8
HETATM    8  C9  UNL     1      24.318  -0.506 -11.209  1.00  0.00     0.063 A 
HETATM    9  C10 UNL     1      24.427   0.626 -12.126  1.00  0.00     0.039 A 
HETATM   10  C11 UNL     1      24.891   0.878 -10.741  1.00  0.00     0.094 A 
BRANCH  10  11
HETATM   11  N3  UNL     1      26.228   0.839 -10.339  1.00  0.00    -0.383 N 
HETATM   12  C12 UNL     1      26.473   1.671  -9.237  1.00  0.00     0.060 C 
HETATM   13  C13 UNL     1      27.728   1.381  -8.469  1.00  0.00     0.057 C 
HETATM   14  C14 UNL     1      28.521   0.219  -8.935  1.00  0.00     0.100 C 
HETATM   15  C16 UNL     1      28.590   0.218 -10.416  1.00  0.00     0.039 C 
HETATM   16  C17 UNL     1      27.267   0.396 -11.133  1.00  0.00     0.089 C 
BRANCH  14  17
HETATM   17  C15 UNL     1      28.151  -1.108  -8.319  1.00  0.00     0.391 C 
HETATM   18  F1  UNL     1      29.024  -2.042  -8.856  1.00  0.00    -0.171 F 
HETATM   19  F2  UNL     1      28.376  -1.064  -6.956  1.00  0.00    -0.171 F 
HETATM   20  F3  UNL     1      26.866  -1.498  -8.527  1.00  0.00    -0.171 F 
ENDBRANCH  14  17
BRANCH  16  21
HETATM   21  C18 UNL     1      27.578   1.106 -12.411  1.00  0.00     0.096 C 
BRANCH  21  22
HETATM   22  C19 UNL     1      27.520   0.295 -13.666  1.00  0.00     0.355 C 
HETATM   23  F4  UNL     1      26.806   1.007 -14.639  1.00  0.00    -0.214 F 
HETATM   24  F5  UNL     1      26.780  -0.864 -13.430  1.00  0.00    -0.214 F 
ENDBRANCH  21  22
ENDBRANCH  16  21
ENDBRANCH  10  11
ENDBRANCH   3   8
BRANCH   1  25
HETATM   25  C6  UNL     1      19.537  -0.683  -9.624  1.00  0.00     0.139 C 
HETATM   26  C1  UNL     1      18.590  -0.973 -10.761  1.00  0.00     0.208 C 
HETATM   27  C2  UNL     1      18.710   0.042 -11.872  1.00  0.00     0.035 C 
HETATM   28  C3  UNL     1      18.439   1.432 -11.301  1.00  0.00     0.002 C 
HETATM   29  C4  UNL     1      19.562   1.720 -10.329  1.00  0.00     0.002 C 
HETATM   30  C5  UNL     1      19.423   0.762  -9.169  1.00  0.00     0.029 C 
BRANCH  26  31
HETATM   31  N1  UNL     1      18.816  -2.279 -11.300  1.00  0.00    -0.073 N 
ATOM     32  H13 UNL     1      17.966  -2.697 -11.679  1.00  0.00     0.274 HD
ATOM     33  H12 UNL     1      19.358  -2.255 -12.164  1.00  0.00     0.274 HD
ATOM     34  H11 UNL     1      19.250  -2.861 -10.584  1.00  0.00     0.274 HD
ENDBRANCH  26  31
ENDBRANCH   1  25
TORSDOF 7
ENDMDL
MODEL 4
REMARK VINA RESULT: -6.093441951      1.889      2.869
REMARK  7 active torsions:
REMARK  status: ('A' for Active; 'I' for Inactive)
REMARK    1  A    between atoms: N1_1  and  C1_5 
REMARK    2  A    between atoms: C6_10  and  N2_11 
REMARK    3  A    between atoms: C8_13  and  C9_14 
REMARK    4  A    between atoms: C11_16  and  N3_17 
REMARK    5  A    between atoms: C14_20  and  C15_21 
REMARK    6  A    between atoms: C17_26  and  C18_27 
REMARK    7  A    between atoms: C18_27  and  C19_28 
ROOT
HETATM    1  N2  UNL     1      20.787  -1.295 -10.427  1.00  0.00    -0.280 N 
HETATM    2  C7  UNL     1      21.977  -0.635 -10.331  1.00  0.00     0.139 A 
HETATM    3  C8  UNL     1      22.937  -1.326 -11.036  1.00  0.00     0.050 A 
HETATM    4  N4  UNL     1      22.301  -2.394 -11.546  1.00  0.00    -0.288 N 
ATOM      5  H4  UNL     1      22.725  -3.117 -12.126  1.00  0.00     0.188 HD
HETATM    6  N5  UNL     1      21.051  -2.350 -11.175  1.00  0.00    -0.240 N 
ATOM      7  H5  UNL     1      20.357  -3.051 -11.433  1.00  0.00     0.208 HD
ENDROOT
BRANCH   3   8
HETATM    8  C9  UNL     1      24.368  -1.014 -11.229  1.00  0.00     0.063 A 
HETATM    9  C10 UNL     1      24.826  -0.003 -12.178  1.00  0.00     0.039 A 
HETATM   10  C11 UNL     1      24.866   0.396 -10.751  1.00  0.00     0.094 A 
BRANCH  10  11
HETATM   11  N3  UNL     1      26.015   0.359  -9.956  1.00  0.00    -0.383 N 
HETATM   12  C12 UNL     1      25.729  -0.010  -8.634  1.00  0.00     0.060 C 
HETATM   13  C13 UNL     1      26.896  -0.498  -7.828  1.00  0.00     0.057 C 
HETATM   14  C14 UNL     1      28.191  -0.582  -8.545  1.00  0.00     0.100 C 
HETATM   15  C16 UNL     1      28.376   0.621  -9.390  1.00  0.00     0.039 C 
HETATM   16  C17 UNL     1      27.200   0.990 -10.271  1.00  0.00     0.089 C 
BRANCH  14  17
HETATM   17  C15 UNL     1      28.461  -1.893  -9.242  1.00  0.00     0.391 C 
HETATM   18  F1  UNL     1      27.545  -2.800  -8.732  1.00  0.00    -0.171 F 
HETATM   19  F2  UNL     1      28.207  -1.760 -10.593  1.00  0.00    -0.171 F 
HETATM   20  F3  UNL     1      29.724  -2.372  -9.091  1.00  0.00    -0.171 F 
ENDBRANCH  14  17
BRANCH  16  21
HETATM   21  C18 UNL     1      27.234   2.478 -10.409  1.00  0.00     0.096 C 
BRANCH  21  22
HETATM   22  C19 UNL     1      26.516   3.270  -9.363  1.00  0.00     0.355 C 
HETATM   23  F4  UNL     1      26.865   4.622  -9.491  1.00  0.00    -0.214 F 
HETATM   24  F5  UNL     1      26.971   2.884  -8.101  1.00  0.00    -0.214 F 
ENDBRANCH  21  22
ENDBRANCH  16  21
ENDBRANCH  10  11
ENDBRANCH   3   8
BRANCH   1  25
HETATM   25  C6  UNL     1      19.526  -0.903  -9.834  1.00  0.00     0.139 C 
HETATM   26  C1  UNL     1      18.354  -1.062 -10.770  1.00  0.00     0.208 C 
HETATM   27  C2  UNL     1      18.313   0.025 -11.816  1.00  0.00     0.035 C 
HETATM   28  C3  UNL     1      18.250   1.381 -11.117  1.00  0.00     0.002 C 
HETATM   29  C4  UNL     1      19.561   1.540 -10.379  1.00  0.00     0.002 C 
HETATM   30  C5  UNL     1      19.597   0.508  -9.276  1.00  0.00     0.029 C 
BRANCH  26  31
HETATM   31  N1  UNL     1      18.385  -2.335 -11.424  1.00  0.00    -0.073 N 
ATOM     32  H13 UNL     1      17.455  -2.741 -11.529  1.00  0.00     0.274 HD
ATOM     33  H12 UNL     1      18.618  -2.258 -12.414  1.00  0.00     0.274 HD
ATOM     34  H11 UNL     1      19.024  -2.949 -10.920  1.00  0.00     0.274 HD
ENDBRANCH  26  31
ENDBRANCH   1  25
TORSDOF 7
ENDMDL
MODEL 5
REMARK VINA RESULT: -6.035659691      1.990      3.459
REMARK  7 active torsions:
REMARK  status: ('A' for Active; 'I' for Inactive)
REMARK    1  A    between atoms: N1_1  and  C1_5 
REMARK    2  A    between atoms: C6_10  and  N2_11 
REMARK    3  A    between atoms: C8_13  and  C9_14 
REMARK    4  A    between atoms: C11_16  and  N3_17 
REMARK    5  A    between atoms: C14_20  and  C15_21 
REMARK    6  A    between atoms: C17_26  and  C18_27 
REMARK    7  A    between atoms: C18_27  and  C19_28 
ROOT
HETATM    1  N2  UNL     1      21.224  -1.430 -11.087  1.00  0.00    -0.280 N 
HETATM    2  C7  UNL     1      21.804  -0.588 -10.184  1.00  0.00     0.139 A 
HETATM    3  C8  UNL     1      23.097  -0.999  -9.945  1.00  0.00     0.050 A 
HETATM    4  N4  UNL     1      23.269  -2.087 -10.714  1.00  0.00    -0.288 N 
ATOM      5  H4  UNL     1      24.123  -2.641 -10.777  1.00  0.00     0.188 HD
HETATM    6  N5  UNL     1      22.163  -2.315 -11.368  1.00  0.00    -0.240 N 
ATOM      7  H5  UNL     1      22.038  -3.088 -12.021  1.00  0.00     0.208 HD
ENDROOT
BRANCH   3   8
HETATM    8  C9  UNL     1      24.119  -0.415  -9.052  1.00  0.00     0.063 A 
HETATM    9  C10 UNL     1      24.644  -1.133  -7.894  1.00  0.00     0.039 A 
HETATM   10  C11 UNL     1      25.545  -1.071  -9.069  1.00  0.00     0.094 A 
BRANCH  10  11
HETATM   11  N3  UNL     1      26.594  -0.159  -9.209  1.00  0.00    -0.383 N 
HETATM   12  C12 UNL     1      27.032  -0.059 -10.538  1.00  0.00     0.060 C 
HETATM   13  C13 UNL     1      27.824   1.170 -10.871  1.00  0.00     0.057 C 
HETATM   14  C14 UNL     1      27.995   2.150  -9.773  1.00  0.00     0.100 C 
HETATM   15  C16 UNL     1      28.302   1.440  -8.508  1.00  0.00     0.039 C 
HETATM   16  C17 UNL     1      27.388   0.280  -8.170  1.00  0.00     0.089 C 
BRANCH  14  17
HETATM   17  C15 UNL     1      26.913   3.197  -9.663  1.00  0.00     0.391 C 
HETATM   18  F1  UNL     1      26.108   3.041 -10.782  1.00  0.00    -0.171 F 
HETATM   19  F2  UNL     1      26.133   2.943  -8.551  1.00  0.00    -0.171 F 
HETATM   20  F3  UNL     1      27.360   4.478  -9.587  1.00  0.00    -0.171 F 
ENDBRANCH  14  17
BRANCH  16  21
HETATM   21  C18 UNL     1      28.223  -0.699  -7.410  1.00  0.00     0.096 C 
BRANCH  21  22
HETATM   22  C19 UNL     1      28.171  -2.124  -7.861  1.00  0.00     0.355 C 
HETATM   23  F4  UNL     1      28.578  -2.954  -6.807  1.00  0.00    -0.214 F 
HETATM   24  F5  UNL     1      29.110  -2.320  -8.875  1.00  0.00    -0.214 F 
ENDBRANCH  21  22
ENDBRANCH  16  21
ENDBRANCH  10  11
ENDBRANCH   3   8
BRANCH   1  25
HETATM   25  C6  UNL     1      19.877  -1.349 -11.609  1.00  0.00     0.139 C 
HETATM   26  C1  UNL     1      19.043  -0.285 -10.941  1.00  0.00     0.208 C 
HETATM   27  C2  UNL     1      18.590  -0.701  -9.563  1.00  0.00     0.035 C 
HETATM   28  C3  UNL     1      17.795  -2.001  -9.677  1.00  0.00     0.002 C 
HETATM   29  C4  UNL     1      18.770  -3.056 -10.149  1.00  0.00     0.002 C 
HETATM   30  C5  UNL     1      19.186  -2.701 -11.558  1.00  0.00     0.029 C 
BRANCH  26  31
HETATM   31  N1  UNL     1      19.764   0.948 -10.839  1.00  0.00    -0.073 N 
ATOM     32  H13 UNL     1      19.215   1.685 -10.397  1.00  0.00     0.274 HD
ATOM     33  H12 UNL     1      20.517   0.902 -10.153  1.00  0.00     0.274 HD
ATOM     34  H11 UNL     1      20.097   1.213 -11.766  1.00  0.00     0.274 HD
ENDBRANCH  26  31
ENDBRANCH   1  25
TORSDOF 7
ENDMDL
