MODEL 1
REMARK VINA RESULT: -6.220742504      0.000      0.000
REMARK  4 active torsions:
REMARK  status: ('A' for Active; 'I' for Inactive)
REMARK    1  A    between atoms: C1_2  and  C2_3 
REMARK       I    between atoms: C1_2  and  N2_11 
REMARK    2  A    between atoms: N3_14  and  C7_15 
REMARK    3  A    between atoms: C7_15  and  C8_16 
REMARK    4  A    between atoms: C11_20  and  C12_21 
ROOT
HETATM    1  O1  UNL     1      27.395   0.412 -11.185  1.00  0.00    -0.266 OA
HETATM    2  C1  UNL     1      26.663  -0.129 -10.308  1.00  0.00     0.273 C 
HETATM    3  N2  UNL     1      25.281  -0.028 -10.478  1.00  0.00    -0.340 N 
HETATM    4  C5  UNL     1      24.770   0.699 -11.665  1.00  0.00     0.146 C 
HETATM    5  C6  UNL     1      23.707  -0.257 -12.232  1.00  0.00     0.147 C 
HETATM    6  N3  UNL     1      22.633  -0.299 -11.333  1.00  0.00    -0.366 N 
HETATM    7  C13 UNL     1      22.905  -0.347  -9.956  1.00  0.00     0.083 C 
HETATM    8  C14 UNL     1      24.346  -0.588  -9.570  1.00  0.00     0.170 C 
ENDROOT
BRANCH   2   9
HETATM    9  C2  UNL     1      27.342  -0.819  -9.185  1.00  0.00     0.131 A 
HETATM   10  N1  UNL     1      27.388  -2.151  -9.151  1.00  0.00    -0.319 N 
HETATM   11  S1  UNL     1      28.222  -2.526  -7.758  1.00  0.00     0.000 SA
ATOM     12  H1  UNL     1      26.995  -2.802  -9.831  1.00  0.00     0.174 HD
HETATM   13  C3  UNL     1      28.525  -0.950  -7.198  1.00  0.00     0.115 A 
HETATM   14 CL1  UNL     1      29.385  -0.422  -5.736  1.00  0.00    -0.073 Cl
HETATM   15  C4  UNL     1      27.944  -0.167  -8.151  1.00  0.00     0.096 A 
HETATM   16 CL2  UNL     1      28.007   1.617  -7.988  1.00  0.00    -0.079 Cl
ENDBRANCH   2   9
BRANCH   6  17
HETATM   17  C7  UNL     1      21.357  -0.679 -11.765  1.00  0.00     0.104 C 
BRANCH  17  18
HETATM   18  C8  UNL     1      20.291  -0.088 -10.926  1.00  0.00     0.019 A 
HETATM   19  C9  UNL     1      20.085   1.213 -10.549  1.00  0.00     0.155 A 
HETATM   20  O2  UNL     1      19.035   1.330  -9.760  1.00  0.00    -0.333 OA
HETATM   21  C10 UNL     1      18.543   0.151  -9.604  1.00  0.00     0.158 A 
HETATM   22  C11 UNL     1      19.263  -0.791 -10.295  1.00  0.00     0.083 A 
BRANCH  22  23
HETATM   23  C12 UNL     1      19.086  -2.250 -10.418  1.00  0.00     0.420 C 
HETATM   24  F1  UNL     1      19.338  -2.706 -11.695  1.00  0.00    -0.166 F 
HETATM   25  F2  UNL     1      17.828  -2.598  -9.974  1.00  0.00    -0.166 F 
HETATM   26  F3  UNL     1      19.992  -2.861  -9.570  1.00  0.00    -0.166 F 
ENDBRANCH  22  23
ENDBRANCH  17  18
ENDBRANCH   6  17
TORSDOF 4
ENDMDL
MODEL 2
REMARK VINA RESULT: -6.111385668      1.802      2.106
REMARK  4 active torsions:
REMARK  status: ('A' for Active; 'I' for Inactive)
REMARK    1  A    between atoms: C1_2  and  C2_3 
REMARK       I    between atoms: C1_2  and  N2_11 
REMARK    2  A    between atoms: N3_14  and  C7_15 
REMARK    3  A    between atoms: C7_15  and  C8_16 
REMARK    4  A    between atoms: C11_20  and  C12_21 
ROOT
HETATM    1  O1  UNL     1      27.379   0.478 -11.233  1.00  0.00    -0.266 OA
HETATM    2  C1  UNL     1      26.611  -0.050 -10.380  1.00  0.00     0.273 C 
HETATM    3  N2  UNL     1      25.236   0.092 -10.583  1.00  0.00    -0.340 N 
HETATM    4  C5  UNL     1      24.776   0.845 -11.775  1.00  0.00     0.146 C 
HETATM    5  C6  UNL     1      23.701  -0.074 -12.378  1.00  0.00     0.147 C 
HETATM    6  N3  UNL     1      22.604  -0.094 -11.506  1.00  0.00    -0.366 N 
HETATM    7  C13 UNL     1      22.840  -0.163 -10.123  1.00  0.00     0.083 C 
HETATM    8  C14 UNL     1      24.264  -0.449  -9.704  1.00  0.00     0.170 C 
ENDROOT
BRANCH   2   9
HETATM    9  C2  UNL     1      27.242  -0.770  -9.248  1.00  0.00     0.131 A 
HETATM   10  N1  UNL     1      27.202  -2.102  -9.200  1.00  0.00    -0.319 N 
HETATM   11  S1  UNL     1      28.007  -2.515  -7.801  1.00  0.00     0.000 SA
ATOM     12  H1  UNL     1      26.771  -2.734  -9.875  1.00  0.00     0.174 HD
HETATM   13  C3  UNL     1      28.408  -0.956  -7.256  1.00  0.00     0.115 A 
HETATM   14 CL1  UNL     1      29.296  -0.468  -5.796  1.00  0.00    -0.073 Cl
HETATM   15  C4  UNL     1      27.881  -0.147  -8.219  1.00  0.00     0.096 A 
HETATM   16 CL2  UNL     1      28.056   1.631  -8.073  1.00  0.00    -0.079 Cl
ENDBRANCH   2   9
BRANCH   6  17
HETATM   17  C7  UNL     1      21.329  -0.432 -11.973  1.00  0.00     0.104 C 
BRANCH  17  18
HETATM   18  C8  UNL     1      20.437  -0.871 -10.877  1.00  0.00     0.019 A 
HETATM   19  C9  UNL     1      20.305  -2.099 -10.285  1.00  0.00     0.155 A 
HETATM   20  O2  UNL     1      19.366  -2.094  -9.359  1.00  0.00    -0.333 OA
HETATM   21  C10 UNL     1      18.874  -0.905  -9.322  1.00  0.00     0.158 A 
HETATM   22  C11 UNL     1      19.482  -0.080 -10.233  1.00  0.00     0.083 A 
BRANCH  22  23
HETATM   23  C12 UNL     1      19.263   1.343 -10.553  1.00  0.00     0.420 C 
HETATM   24  F1  UNL     1      18.579   1.519 -11.738  1.00  0.00    -0.166 F 
HETATM   25  F2  UNL     1      20.471   2.008 -10.538  1.00  0.00    -0.166 F 
HETATM   26  F3  UNL     1      18.493   1.892  -9.542  1.00  0.00    -0.166 F 
ENDBRANCH  22  23
ENDBRANCH  17  18
ENDBRANCH   6  17
TORSDOF 4
ENDMDL
MODEL 3
REMARK VINA RESULT: -5.435116663      4.849      7.595
REMARK  4 active torsions:
REMARK  status: ('A' for Active; 'I' for Inactive)
REMARK    1  A    between atoms: C1_2  and  C2_3 
REMARK       I    between atoms: C1_2  and  N2_11 
REMARK    2  A    between atoms: N3_14  and  C7_15 
REMARK    3  A    between atoms: C7_15  and  C8_16 
REMARK    4  A    between atoms: C11_20  and  C12_21 
ROOT
HETATM    1  O1  UNL     1      21.844   0.539 -12.991  1.00  0.00    -0.266 OA
HETATM    2  C1  UNL     1      22.086   0.086 -11.837  1.00  0.00     0.273 C 
HETATM    3  N2  UNL     1      23.415  -0.221 -11.536  1.00  0.00    -0.340 N 
HETATM    4  C5  UNL     1      24.442   0.007 -12.580  1.00  0.00     0.146 C 
HETATM    5  C6  UNL     1      25.550   0.760 -11.825  1.00  0.00     0.147 C 
HETATM    6  N3  UNL     1      26.138  -0.127 -10.914  1.00  0.00    -0.366 N 
HETATM    7  C13 UNL     1      25.311  -0.998 -10.186  1.00  0.00     0.083 C 
HETATM    8  C14 UNL     1      23.825  -0.737 -10.280  1.00  0.00     0.170 C 
ENDROOT
BRANCH   2   9
HETATM    9  C2  UNL     1      20.937  -0.077 -10.914  1.00  0.00     0.131 A 
HETATM   10  N1  UNL     1      20.616   0.903 -10.069  1.00  0.00    -0.319 N 
HETATM   11  S1  UNL     1      19.294   0.340  -9.226  1.00  0.00     0.000 SA
ATOM     12  H1  UNL     1      21.080   1.805  -9.962  1.00  0.00     0.174 HD
HETATM   13  C3  UNL     1      19.140  -1.184  -9.961  1.00  0.00     0.115 A 
HETATM   14 CL1  UNL     1      17.952  -2.469  -9.649  1.00  0.00    -0.073 Cl
HETATM   15  C4  UNL     1      20.159  -1.195 -10.867  1.00  0.00     0.096 A 
HETATM   16 CL2  UNL     1      20.403  -2.635 -11.906  1.00  0.00    -0.079 Cl
ENDBRANCH   2   9
BRANCH   6  17
HETATM   17  C7  UNL     1      27.436   0.096 -10.439  1.00  0.00     0.104 C 
BRANCH  17  18
HETATM   18  C8  UNL     1      27.438   0.874  -9.180  1.00  0.00     0.019 A 
HETATM   19  C9  UNL     1      27.231   2.212  -8.970  1.00  0.00     0.155 A 
HETATM   20  O2  UNL     1      27.352   2.528  -7.695  1.00  0.00    -0.333 OA
HETATM   21  C10 UNL     1      27.634   1.445  -7.060  1.00  0.00     0.158 A 
HETATM   22  C11 UNL     1      27.706   0.368  -7.906  1.00  0.00     0.083 A 
BRANCH  22  23
HETATM   23  C12 UNL     1      27.996  -1.055  -7.646  1.00  0.00     0.420 C 
HETATM   24  F1  UNL     1      28.779  -1.622  -8.628  1.00  0.00    -0.166 F 
HETATM   25  F2  UNL     1      26.811  -1.736  -7.458  1.00  0.00    -0.166 F 
HETATM   26  F3  UNL     1      28.696  -1.135  -6.455  1.00  0.00    -0.166 F 
ENDBRANCH  22  23
ENDBRANCH  17  18
ENDBRANCH   6  17
TORSDOF 4
ENDMDL
MODEL 4
REMARK VINA RESULT: -5.359820342      4.613      7.512
REMARK  4 active torsions:
REMARK  status: ('A' for Active; 'I' for Inactive)
REMARK    1  A    between atoms: C1_2  and  C2_3 
REMARK       I    between atoms: C1_2  and  N2_11 
REMARK    2  A    between atoms: N3_14  and  C7_15 
REMARK    3  A    between atoms: C7_15  and  C8_16 
REMARK    4  A    between atoms: C11_20  and  C12_21 
ROOT
HETATM    1  O1  UNL     1      21.235  -2.052 -12.170  1.00  0.00    -0.266 OA
HETATM    2  C1  UNL     1      21.500  -1.363 -11.144  1.00  0.00     0.273 C 
HETATM    3  N2  UNL     1      22.841  -1.052 -10.911  1.00  0.00    -0.340 N 
HETATM    4  C5  UNL     1      23.854  -1.546 -11.875  1.00  0.00     0.146 C 
HETATM    5  C6  UNL     1      24.709  -0.298 -12.156  1.00  0.00     0.147 C 
HETATM    6  N3  UNL     1      25.425   0.011 -10.991  1.00  0.00    -0.366 N 
HETATM    7  C13 UNL     1      24.774  -0.084  -9.750  1.00  0.00     0.083 C 
HETATM    8  C14 UNL     1      23.277  -0.287  -9.799  1.00  0.00     0.170 C 
ENDROOT
BRANCH   2   9
HETATM    9  C2  UNL     1      20.361  -0.950 -10.288  1.00  0.00     0.131 A 
HETATM   10  N1  UNL     1      19.673  -1.867  -9.607  1.00  0.00    -0.319 N 
HETATM   11  S1  UNL     1      18.502  -1.014  -8.785  1.00  0.00     0.000 SA
ATOM     12  H1  UNL     1      19.830  -2.874  -9.592  1.00  0.00     0.174 HD
HETATM   13  C3  UNL     1      18.891   0.553  -9.318  1.00  0.00     0.115 A 
HETATM   14 CL1  UNL     1      18.119   2.102  -8.914  1.00  0.00    -0.073 Cl
HETATM   15  C4  UNL     1      19.955   0.342 -10.143  1.00  0.00     0.096 A 
HETATM   16 CL2  UNL     1      20.728   1.737 -10.961  1.00  0.00    -0.079 Cl
ENDBRANCH   2   9
BRANCH   6  17
HETATM   17  C7  UNL     1      26.604   0.763 -11.059  1.00  0.00     0.104 C 
BRANCH  17  18
HETATM   18  C8  UNL     1      27.254   0.892  -9.736  1.00  0.00     0.019 A 
HETATM   19  C9  UNL     1      27.398   1.989  -8.928  1.00  0.00     0.155 A 
HETATM   20  O2  UNL     1      28.077   1.700  -7.834  1.00  0.00    -0.333 OA
HETATM   21  C10 UNL     1      28.386   0.452  -7.895  1.00  0.00     0.158 A 
HETATM   22  C11 UNL     1      27.913  -0.127  -9.045  1.00  0.00     0.083 A 
BRANCH  22  23
HETATM   23  C12 UNL     1      28.015  -1.510  -9.549  1.00  0.00     0.420 C 
HETATM   24  F1  UNL     1      28.039  -1.570 -10.927  1.00  0.00    -0.166 F 
HETATM   25  F2  UNL     1      27.001  -2.271  -9.006  1.00  0.00    -0.166 F 
HETATM   26  F3  UNL     1      29.205  -2.044  -9.087  1.00  0.00    -0.166 F 
ENDBRANCH  22  23
ENDBRANCH  17  18
ENDBRANCH   6  17
TORSDOF 4
ENDMDL
MODEL 5
REMARK VINA RESULT: -5.032655341      1.465      1.475
REMARK  4 active torsions:
REMARK  status: ('A' for Active; 'I' for Inactive)
REMARK    1  A    between atoms: C1_2  and  C2_3 
REMARK       I    between atoms: C1_2  and  N2_11 
REMARK    2  A    between atoms: N3_14  and  C7_15 
REMARK    3  A    between atoms: C7_15  and  C8_16 
REMARK    4  A    between atoms: C11_20  and  C12_21 
ROOT
HETATM    1  O1  UNL     1      27.398   1.002 -11.553  1.00  0.00    -0.266 OA
HETATM    2  C1  UNL     1      26.765   0.537 -10.563  1.00  0.00     0.273 C 
HETATM    3  N2  UNL     1      25.379   0.424 -10.687  1.00  0.00    -0.340 N 
HETATM    4  C5  UNL     1      24.750   0.851 -11.960  1.00  0.00     0.146 C 
HETATM    5  C6  UNL     1      23.817  -0.322 -12.303  1.00  0.00     0.147 C 
HETATM    6  N3  UNL     1      22.777  -0.341 -11.364  1.00  0.00    -0.366 N 
HETATM    7  C13 UNL     1      23.079  -0.103 -10.013  1.00  0.00     0.083 C 
HETATM    8  C14 UNL     1      24.547  -0.080  -9.654  1.00  0.00     0.170 C 
ENDROOT
BRANCH   2   9
HETATM    9  C2  UNL     1      27.554   0.156  -9.367  1.00  0.00     0.131 A 
HETATM   10  N1  UNL     1      28.224   1.087  -8.687  1.00  0.00    -0.319 N 
HETATM   11  S1  UNL     1      28.965   0.269  -7.438  1.00  0.00     0.000 SA
ATOM     12  H1  UNL     1      28.274   2.086  -8.887  1.00  0.00     0.174 HD
HETATM   13  C3  UNL     1      28.411  -1.300  -7.784  1.00  0.00     0.115 A 
HETATM   14 CL1  UNL     1      28.735  -2.822  -6.924  1.00  0.00    -0.073 Cl
HETATM   15  C4  UNL     1      27.645  -1.119  -8.897  1.00  0.00     0.096 A 
HETATM   16 CL2  UNL     1      26.831  -2.528  -9.648  1.00  0.00    -0.079 Cl
ENDBRANCH   2   9
BRANCH   6  17
HETATM   17  C7  UNL     1      21.556  -0.956 -11.666  1.00  0.00     0.104 C 
BRANCH  17  18
HETATM   18  C8  UNL     1      20.414  -0.259 -11.034  1.00  0.00     0.019 A 
HETATM   19  C9  UNL     1      20.217   1.076 -10.800  1.00  0.00     0.155 A 
HETATM   20  O2  UNL     1      19.076   1.297 -10.175  1.00  0.00    -0.333 OA
HETATM   21  C10 UNL     1      18.517   0.152  -9.987  1.00  0.00     0.158 A 
HETATM   22  C11 UNL     1      19.281  -0.869 -10.491  1.00  0.00     0.083 A 
BRANCH  22  23
HETATM   23  C12 UNL     1      19.060  -2.328 -10.512  1.00  0.00     0.420 C 
HETATM   24  F1  UNL     1      19.369  -2.891 -11.733  1.00  0.00    -0.166 F 
HETATM   25  F2  UNL     1      17.766  -2.600 -10.119  1.00  0.00    -0.166 F 
HETATM   26  F3  UNL     1      19.893  -2.898  -9.566  1.00  0.00    -0.166 F 
ENDBRANCH  22  23
ENDBRANCH  17  18
ENDBRANCH   6  17
TORSDOF 4
ENDMDL
