MODEL 1
REMARK VINA RESULT: -5.844391785      0.000      0.000
REMARK  6 active torsions:
REMARK  status: ('A' for Active; 'I' for Inactive)
REMARK    1  A    between atoms: N1_2  and  C2_3 
REMARK    2  A    between atoms: N1_2  and  C7_11 
REMARK    3  A    between atoms: C2_3  and  C3_4 
REMARK    4  A    between atoms: C7_11  and  O1_12 
REMARK    5  A    between atoms: C7_11  and  C8_14 
REMARK    6  A    between atoms: C9_17  and  C10_18 
ROOT
HETATM    1  C8  UNL     1      25.386   0.153 -10.963  1.00  0.00     0.090 A 
HETATM    2  N4  UNL     1      25.586  -0.313  -9.734  1.00  0.00    -0.353 N 
ATOM      3  H4  UNL     1      24.794  -0.732  -9.247  1.00  0.00     0.166 HD
HETATM    4  C9  UNL     1      26.775  -0.266  -9.085  1.00  0.00     0.086 A 
HETATM    5  C11 UNL     1      27.881   0.294  -9.705  1.00  0.00     0.062 A 
HETATM    6 CL4  UNL     1      29.455   0.400  -8.949  1.00  0.00    -0.082 Cl
HETATM    7  C12 UNL     1      27.715   0.788 -10.981  1.00  0.00     0.052 A 
HETATM    8  C13 UNL     1      26.491   0.723 -11.610  1.00  0.00     0.062 A 
HETATM    9 CL5  UNL     1      26.376   1.380 -13.234  1.00  0.00    -0.082 Cl
ENDROOT
BRANCH   1  10
HETATM   10  C7  UNL     1      24.095   0.104 -11.646  1.00  0.00     0.409 C 
BRANCH  10  11
HETATM   11  N1  UNL     1      22.960  -0.283 -10.847  1.00  0.00     0.123 N 
HETATM   12  C1  UNL     1      23.363  -1.585 -10.250  1.00  0.00     0.314 C 
BRANCH  11  13
HETATM   13  C2  UNL     1      21.767  -0.595 -11.621  1.00  0.00     0.317 C 
BRANCH  13  14
HETATM   14  C3  UNL     1      20.612  -0.232 -10.711  1.00  0.00     0.004 A 
HETATM   15  C4  UNL     1      19.772  -1.114 -10.051  1.00  0.00     0.117 A 
HETATM   16  N2  UNL     1      18.894  -0.375  -9.352  1.00  0.00    -0.310 N 
HETATM   17  N3  UNL     1      19.110   0.916  -9.518  1.00  0.00    -0.308 N 
ATOM     18  H2  UNL     1      18.153  -0.762  -8.767  1.00  0.00     0.186 HD
HETATM   19  C5  UNL     1      18.351   2.014  -8.911  1.00  0.00     0.177 C 
HETATM   20  C6  UNL     1      20.162   1.020 -10.349  1.00  0.00     0.120 A 
ENDBRANCH  13  14
ENDBRANCH  11  13
ENDBRANCH  10  11
BRANCH  10  21
HETATM   21  O1  UNL     1      24.170  -0.885 -12.671  1.00  0.00    -0.363 OA
ATOM     22  H1  UNL     1      24.197  -0.389 -13.481  1.00  0.00     0.212 HD
ENDBRANCH  10  21
ENDBRANCH   1  10
BRANCH   4  23
HETATM   23  C10 UNL     1      26.945  -0.800  -7.706  1.00  0.00     0.232 C 
HETATM   24 CL1  UNL     1      25.339  -1.169  -7.028  1.00  0.00    -0.077 Cl
HETATM   25 CL2  UNL     1      27.947  -2.242  -7.632  1.00  0.00    -0.077 Cl
HETATM   26 CL3  UNL     1      27.694   0.442  -6.649  1.00  0.00    -0.077 Cl
ENDBRANCH   4  23
TORSDOF 6
ENDMDL
MODEL 2
REMARK VINA RESULT: -5.792934734      0.040      1.037
REMARK  6 active torsions:
REMARK  status: ('A' for Active; 'I' for Inactive)
REMARK    1  A    between atoms: N1_2  and  C2_3 
REMARK    2  A    between atoms: N1_2  and  C7_11 
REMARK    3  A    between atoms: C2_3  and  C3_4 
REMARK    4  A    between atoms: C7_11  and  O1_12 
REMARK    5  A    between atoms: C7_11  and  C8_14 
REMARK    6  A    between atoms: C9_17  and  C10_18 
ROOT
HETATM    1  C8  UNL     1      25.389   0.153 -10.981  1.00  0.00     0.090 A 
HETATM    2  N4  UNL     1      25.586  -0.289  -9.742  1.00  0.00    -0.353 N 
ATOM      3  H4  UNL     1      24.793  -0.700  -9.250  1.00  0.00     0.166 HD
HETATM    4  C9  UNL     1      26.774  -0.229  -9.091  1.00  0.00     0.086 A 
HETATM    5  C11 UNL     1      27.880   0.320  -9.719  1.00  0.00     0.062 A 
HETATM    6 CL4  UNL     1      29.453   0.440  -8.961  1.00  0.00    -0.082 Cl
HETATM    7  C12 UNL     1      27.717   0.790 -11.004  1.00  0.00     0.052 A 
HETATM    8  C13 UNL     1      26.495   0.713 -11.635  1.00  0.00     0.062 A 
HETATM    9 CL5  UNL     1      26.384   1.339 -13.271  1.00  0.00    -0.082 Cl
ENDROOT
BRANCH   1  10
HETATM   10  C7  UNL     1      24.100   0.091 -11.666  1.00  0.00     0.409 C 
BRANCH  10  11
HETATM   11  N1  UNL     1      22.963  -0.281 -10.863  1.00  0.00     0.123 N 
HETATM   12  C1  UNL     1      23.355  -1.583 -10.259  1.00  0.00     0.314 C 
BRANCH  11  13
HETATM   13  C2  UNL     1      21.766  -0.586 -11.633  1.00  0.00     0.317 C 
BRANCH  13  14
HETATM   14  C3  UNL     1      20.616  -0.219 -10.718  1.00  0.00     0.004 A 
HETATM   15  C4  UNL     1      19.794  -1.097 -10.031  1.00  0.00     0.117 A 
HETATM   16  N2  UNL     1      18.914  -0.355  -9.338  1.00  0.00    -0.310 N 
HETATM   17  N3  UNL     1      19.112   0.935  -9.532  1.00  0.00    -0.308 N 
ATOM     18  H2  UNL     1      18.184  -0.739  -8.738  1.00  0.00     0.186 HD
HETATM   19  C5  UNL     1      18.346   2.035  -8.941  1.00  0.00     0.177 C 
HETATM   20  C6  UNL     1      20.154   1.034 -10.377  1.00  0.00     0.120 A 
ENDBRANCH  13  14
ENDBRANCH  11  13
ENDBRANCH  10  11
BRANCH  10  21
HETATM   21  O1  UNL     1      24.178  -0.917 -12.672  1.00  0.00    -0.363 OA
ATOM     22  H1  UNL     1      24.872  -0.625 -13.251  1.00  0.00     0.212 HD
ENDBRANCH  10  21
ENDBRANCH   1  10
BRANCH   4  23
HETATM   23  C10 UNL     1      26.940  -0.738  -7.702  1.00  0.00     0.232 C 
HETATM   24 CL1  UNL     1      27.917  -2.228  -7.746  1.00  0.00    -0.077 Cl
HETATM   25 CL2  UNL     1      27.702   0.418  -6.620  1.00  0.00    -0.077 Cl
HETATM   26 CL3  UNL     1      25.344  -1.171  -7.006  1.00  0.00    -0.077 Cl
ENDBRANCH   4  23
TORSDOF 6
ENDMDL
MODEL 3
REMARK VINA RESULT: -5.717101946      0.831      1.382
REMARK  6 active torsions:
REMARK  status: ('A' for Active; 'I' for Inactive)
REMARK    1  A    between atoms: N1_2  and  C2_3 
REMARK    2  A    between atoms: N1_2  and  C7_11 
REMARK    3  A    between atoms: C2_3  and  C3_4 
REMARK    4  A    between atoms: C7_11  and  O1_12 
REMARK    5  A    between atoms: C7_11  and  C8_14 
REMARK    6  A    between atoms: C9_17  and  C10_18 
ROOT
HETATM    1  C8  UNL     1      25.602   0.231 -11.069  1.00  0.00     0.090 A 
HETATM    2  N4  UNL     1      25.694  -0.248  -9.832  1.00  0.00    -0.353 N 
ATOM      3  H4  UNL     1      24.854  -0.641  -9.409  1.00  0.00     0.166 HD
HETATM    4  C9  UNL     1      26.833  -0.248  -9.097  1.00  0.00     0.086 A 
HETATM    5  C11 UNL     1      28.000   0.275  -9.630  1.00  0.00     0.062 A 
HETATM    6 CL4  UNL     1      29.518   0.319  -8.759  1.00  0.00    -0.082 Cl
HETATM    7  C12 UNL     1      27.947   0.782 -10.910  1.00  0.00     0.052 A 
HETATM    8  C13 UNL     1      26.771   0.765 -11.628  1.00  0.00     0.062 A 
HETATM    9 CL5  UNL     1      26.800   1.435 -13.250  1.00  0.00    -0.082 Cl
ENDROOT
BRANCH   1  10
HETATM   10  C7  UNL     1      24.364   0.234 -11.846  1.00  0.00     0.409 C 
BRANCH  10  11
HETATM   11  N1  UNL     1      23.151  -0.051 -11.121  1.00  0.00     0.123 N 
HETATM   12  C1  UNL     1      23.051  -1.535 -11.148  1.00  0.00     0.314 C 
BRANCH  11  13
HETATM   13  C2  UNL     1      21.940   0.405 -11.788  1.00  0.00     0.317 C 
BRANCH  13  14
HETATM   14  C3  UNL     1      20.808  -0.237 -11.013  1.00  0.00     0.004 A 
HETATM   15  C4  UNL     1      20.233   0.238  -9.845  1.00  0.00     0.117 A 
HETATM   16  N2  UNL     1      19.267  -0.630  -9.500  1.00  0.00    -0.310 N 
HETATM   17  N3  UNL     1      19.182  -1.626 -10.361  1.00  0.00    -0.308 N 
ATOM     18  H2  UNL     1      18.673  -0.531  -8.676  1.00  0.00     0.186 HD
HETATM   19  C5  UNL     1      18.246  -2.752 -10.304  1.00  0.00     0.177 C 
HETATM   20  C6  UNL     1      20.122  -1.399 -11.295  1.00  0.00     0.120 A 
ENDBRANCH  13  14
ENDBRANCH  11  13
ENDBRANCH  10  11
BRANCH  10  21
HETATM   21  O1  UNL     1      24.450  -0.799 -12.826  1.00  0.00    -0.363 OA
ATOM     22  H1  UNL     1      25.258  -0.620 -13.292  1.00  0.00     0.212 HD
ENDBRANCH  10  21
ENDBRANCH   1  10
BRANCH   4  23
HETATM   23  C10 UNL     1      26.881  -0.796  -7.714  1.00  0.00     0.232 C 
HETATM   24 CL1  UNL     1      25.218  -1.123  -7.164  1.00  0.00    -0.077 Cl
HETATM   25 CL2  UNL     1      27.834  -2.267  -7.577  1.00  0.00    -0.077 Cl
HETATM   26 CL3  UNL     1      27.582   0.417  -6.592  1.00  0.00    -0.077 Cl
ENDBRANCH   4  23
TORSDOF 6
ENDMDL
MODEL 4
REMARK VINA RESULT: -5.641198111      0.816      1.729
REMARK  6 active torsions:
REMARK  status: ('A' for Active; 'I' for Inactive)
REMARK    1  A    between atoms: N1_2  and  C2_3 
REMARK    2  A    between atoms: N1_2  and  C7_11 
REMARK    3  A    between atoms: C2_3  and  C3_4 
REMARK    4  A    between atoms: C7_11  and  O1_12 
REMARK    5  A    between atoms: C7_11  and  C8_14 
REMARK    6  A    between atoms: C9_17  and  C10_18 
ROOT
HETATM    1  C8  UNL     1      25.588   0.217 -11.077  1.00  0.00     0.090 A 
HETATM    2  N4  UNL     1      25.696  -0.239  -9.832  1.00  0.00    -0.353 N 
ATOM      3  H4  UNL     1      24.862  -0.629  -9.393  1.00  0.00     0.166 HD
HETATM    4  C9  UNL     1      26.842  -0.218  -9.109  1.00  0.00     0.086 A 
HETATM    5  C11 UNL     1      28.001   0.301  -9.663  1.00  0.00     0.062 A 
HETATM    6 CL4  UNL     1      29.527   0.370  -8.810  1.00  0.00    -0.082 Cl
HETATM    7  C12 UNL     1      27.931   0.784 -10.952  1.00  0.00     0.052 A 
HETATM    8  C13 UNL     1      26.748   0.747 -11.657  1.00  0.00     0.062 A 
HETATM    9 CL5  UNL     1      26.757   1.387 -13.292  1.00  0.00    -0.082 Cl
ENDROOT
BRANCH   1  10
HETATM   10  C7  UNL     1      24.342   0.199 -11.840  1.00  0.00     0.409 C 
BRANCH  10  11
HETATM   11  N1  UNL     1      23.138  -0.074 -11.096  1.00  0.00     0.123 N 
HETATM   12  C1  UNL     1      22.974  -1.549 -11.196  1.00  0.00     0.314 C 
BRANCH  11  13
HETATM   13  C2  UNL     1      21.930   0.466 -11.704  1.00  0.00     0.317 C 
BRANCH  13  14
HETATM   14  C3  UNL     1      20.793  -0.201 -10.958  1.00  0.00     0.004 A 
HETATM   15  C4  UNL     1      20.168   0.269  -9.814  1.00  0.00     0.117 A 
HETATM   16  N2  UNL     1      19.215  -0.622  -9.491  1.00  0.00    -0.310 N 
HETATM   17  N3  UNL     1      19.186  -1.628 -10.344  1.00  0.00    -0.308 N 
ATOM     18  H2  UNL     1      18.593  -0.532  -8.687  1.00  0.00     0.186 HD
HETATM   19  C5  UNL     1      18.280  -2.780 -10.305  1.00  0.00     0.177 C 
HETATM   20  C6  UNL     1      20.148  -1.384 -11.250  1.00  0.00     0.120 A 
ENDBRANCH  13  14
ENDBRANCH  11  13
ENDBRANCH  10  11
BRANCH  10  21
HETATM   21  O1  UNL     1      24.421  -0.856 -12.797  1.00  0.00    -0.363 OA
ATOM     22  H1  UNL     1      25.122  -0.595 -13.384  1.00  0.00     0.212 HD
ENDBRANCH  10  21
ENDBRANCH   1  10
BRANCH   4  23
HETATM   23  C10 UNL     1      26.908  -0.741  -7.717  1.00  0.00     0.232 C 
HETATM   24 CL1  UNL     1      27.854  -2.251  -7.711  1.00  0.00    -0.077 Cl
HETATM   25 CL2  UNL     1      27.623   0.391  -6.578  1.00  0.00    -0.077 Cl
HETATM   26 CL3  UNL     1      25.261  -1.144  -7.128  1.00  0.00    -0.077 Cl
ENDBRANCH   4  23
TORSDOF 6
ENDMDL
MODEL 5
REMARK VINA RESULT: -5.596469895      2.310      3.134
REMARK  6 active torsions:
REMARK  status: ('A' for Active; 'I' for Inactive)
REMARK    1  A    between atoms: N1_2  and  C2_3 
REMARK    2  A    between atoms: N1_2  and  C7_11 
REMARK    3  A    between atoms: C2_3  and  C3_4 
REMARK    4  A    between atoms: C7_11  and  O1_12 
REMARK    5  A    between atoms: C7_11  and  C8_14 
REMARK    6  A    between atoms: C9_17  and  C10_18 
ROOT
HETATM    1  C8  UNL     1      26.699   1.178 -10.256  1.00  0.00     0.090 A 
HETATM    2  N4  UNL     1      27.075  -0.082 -10.059  1.00  0.00    -0.353 N 
ATOM      3  H4  UNL     1      26.832  -0.770 -10.772  1.00  0.00     0.166 HD
HETATM    4  C9  UNL     1      27.760  -0.513  -8.971  1.00  0.00     0.086 A 
HETATM    5  C11 UNL     1      28.113   0.385  -7.976  1.00  0.00     0.062 A 
HETATM    6 CL4  UNL     1      28.996  -0.075  -6.537  1.00  0.00    -0.082 Cl
HETATM    7  C12 UNL     1      27.742   1.702  -8.143  1.00  0.00     0.052 A 
HETATM    8  C13 UNL     1      27.045   2.103  -9.262  1.00  0.00     0.062 A 
HETATM    9 CL5  UNL     1      26.615   3.800  -9.385  1.00  0.00    -0.082 Cl
ENDROOT
BRANCH   1  10
HETATM   10  C7  UNL     1      25.951   1.625 -11.429  1.00  0.00     0.409 C 
BRANCH  10  11
HETATM   11  N1  UNL     1      25.218   0.613 -12.147  1.00  0.00     0.123 N 
HETATM   12  C1  UNL     1      25.795   0.649 -13.518  1.00  0.00     0.314 C 
BRANCH  11  13
HETATM   13  C2  UNL     1      23.809   0.924 -12.340  1.00  0.00     0.317 C 
BRANCH  13  14
HETATM   14  C3  UNL     1      23.070  -0.128 -11.539  1.00  0.00     0.004 A 
HETATM   15  C4  UNL     1      23.621  -1.000 -10.614  1.00  0.00     0.117 A 
HETATM   16  N2  UNL     1      22.616  -1.756 -10.137  1.00  0.00    -0.310 N 
HETATM   17  N3  UNL     1      21.463  -1.430 -10.690  1.00  0.00    -0.308 N 
ATOM     18  H2  UNL     1      22.731  -2.488  -9.436  1.00  0.00     0.186 HD
HETATM   19  C5  UNL     1      20.160  -2.040 -10.413  1.00  0.00     0.177 C 
HETATM   20  C6  UNL     1      21.725  -0.432 -11.552  1.00  0.00     0.120 A 
ENDBRANCH  13  14
ENDBRANCH  11  13
ENDBRANCH  10  11
BRANCH  10  21
HETATM   21  O1  UNL     1      26.880   2.141 -12.380  1.00  0.00    -0.363 OA
ATOM     22  H1  UNL     1      26.339   2.524 -13.061  1.00  0.00     0.212 HD
ENDBRANCH  10  21
ENDBRANCH   1  10
BRANCH   4  23
HETATM   23  C10 UNL     1      28.155  -1.937  -8.798  1.00  0.00     0.232 C 
HETATM   24 CL1  UNL     1      27.426  -2.901 -10.107  1.00  0.00    -0.077 Cl
HETATM   25 CL2  UNL     1      29.895  -2.186  -8.799  1.00  0.00    -0.077 Cl
HETATM   26 CL3  UNL     1      27.511  -2.574  -7.249  1.00  0.00    -0.077 Cl
ENDBRANCH   4  23
TORSDOF 6
ENDMDL
