MODEL 1
REMARK VINA RESULT: -10.154154428      0.000      0.000
REMARK  4 active torsions:
REMARK  status: ('A' for Active; 'I' for Inactive)
REMARK    1  A    between atoms: O1_2  and  C2_3 
REMARK    2  A    between atoms: C6_8  and  C7_9 
REMARK    3  A    between atoms: C7_9  and  N1_10 
REMARK    4  A    between atoms: N1_10  and  C8_13 
ROOT
HETATM    1  C8  UNL     1      16.968  19.086 -17.452  1.00  0.00     0.200 C 
HETATM    2  C9  UNL     1      16.552  19.106 -18.877  1.00  0.00     0.034 C 
HETATM    3  C10 UNL     1      17.774  19.452 -19.738  1.00  0.00     0.002 C 
HETATM    4  C11 UNL     1      18.724  20.386 -18.983  1.00  0.00     0.007 C 
HETATM    5  C12 UNL     1      17.831  21.247 -18.087  1.00  0.00     0.012 C 
HETATM    6  C13 UNL     1      18.475  22.569 -17.844  1.00  0.00     0.057 C 
HETATM    7  C14 UNL     1      17.487  23.533 -17.205  1.00  0.00     0.018 C 
HETATM    8  C15 UNL     1      19.778  22.563 -17.195  1.00  0.00     0.145 C 
HETATM    9  O2  UNL     1      20.600  23.321 -17.680  1.00  0.00    -0.297 OA
HETATM   10  C16 UNL     1      20.369  21.820 -16.031  1.00  0.00     0.169 C 
HETATM   11  C17 UNL     1      21.532  22.498 -15.453  1.00  0.00     0.271 C 
HETATM   12  O3  UNL     1      22.657  22.236 -15.976  1.00  0.00    -0.264 OA
HETATM   13  O4  UNL     1      21.608  23.415 -14.388  1.00  0.00    -0.316 OA
HETATM   14  C18 UNL     1      20.473  23.941 -13.718  1.00  0.00     0.128 C 
HETATM   15  C19 UNL     1      20.837  25.117 -12.872  1.00  0.00     0.040 C 
HETATM   16  C20 UNL     1      19.879  22.847 -12.870  1.00  0.00     0.033 C 
HETATM   17  C21 UNL     1      19.779  21.525 -13.605  1.00  0.00     0.019 C 
HETATM   18  C22 UNL     1      19.229  21.727 -15.005  1.00  0.00     0.068 C 
HETATM   19  S1  UNL     1      18.227  20.335 -15.475  1.00  0.00    -0.156 SA
HETATM   20  C23 UNL     1      17.278  20.510 -16.942  1.00  0.00     0.083 C 
ENDROOT
BRANCH   1  21
HETATM   21  N1  UNL     1      16.145  18.375 -16.541  1.00  0.00    -0.066 N 
ATOM     22  H12 UNL     1      15.235  18.157 -16.946  1.00  0.00     0.278 HD
ATOM     23  H11 UNL     1      15.834  18.968 -15.772  1.00  0.00     0.278 HD
BRANCH  21  24
HETATM   24  C7  UNL     1      16.805  17.204 -16.069  1.00  0.00     0.273 C 
BRANCH  24  25
HETATM   25  C6  UNL     1      16.385  15.974 -16.838  1.00  0.00    -0.008 A 
HETATM   26  C5  UNL     1      16.064  14.879 -16.055  1.00  0.00     0.042 A 
HETATM   27  C4  UNL     1      15.666  13.719 -16.682  1.00  0.00     0.027 A 
HETATM   28 CL1  UNL     1      16.144  14.918 -14.312  1.00  0.00    -0.084 Cl
HETATM   29  C3  UNL     1      15.597  13.670 -18.057  1.00  0.00     0.038 A 
HETATM   30  C2  UNL     1      15.923  14.778 -18.825  1.00  0.00     0.068 A 
HETATM   31  C24 UNL     1      16.327  15.957 -18.210  1.00  0.00     0.047 A 
BRANCH  30  32
HETATM   32  O1  UNL     1      15.850  14.724 -20.209  1.00  0.00    -0.356 OA
HETATM   33  C1  UNL     1      16.444  15.765 -20.952  1.00  0.00     0.210 C 
ENDBRANCH  30  32
ENDBRANCH  24  25
ENDBRANCH  21  24
ENDBRANCH   1  21
TORSDOF 4
ENDMDL
MODEL 2
REMARK VINA RESULT: -9.931145838      1.697      2.306
REMARK  4 active torsions:
REMARK  status: ('A' for Active; 'I' for Inactive)
REMARK    1  A    between atoms: O1_2  and  C2_3 
REMARK    2  A    between atoms: C6_8  and  C7_9 
REMARK    3  A    between atoms: C7_9  and  N1_10 
REMARK    4  A    between atoms: N1_10  and  C8_13 
ROOT
HETATM    1  C8  UNL     1      17.368  19.295 -18.030  1.00  0.00     0.200 C 
HETATM    2  C9  UNL     1      17.133  19.398 -19.492  1.00  0.00     0.034 C 
HETATM    3  C10 UNL     1      18.459  19.756 -20.176  1.00  0.00     0.002 C 
HETATM    4  C11 UNL     1      19.324  20.628 -19.261  1.00  0.00     0.007 C 
HETATM    5  C12 UNL     1      18.342  21.464 -18.437  1.00  0.00     0.012 C 
HETATM    6  C13 UNL     1      18.975  22.756 -18.047  1.00  0.00     0.057 C 
HETATM    7  C14 UNL     1      17.933  23.710 -17.485  1.00  0.00     0.018 C 
HETATM    8  C15 UNL     1      20.187  22.685 -17.244  1.00  0.00     0.145 C 
HETATM    9  O2  UNL     1      21.076  23.447 -17.582  1.00  0.00    -0.297 OA
HETATM   10  C16 UNL     1      20.614  21.870 -16.056  1.00  0.00     0.169 C 
HETATM   11  C17 UNL     1      21.709  22.489 -15.304  1.00  0.00     0.271 C 
HETATM   12  O3  UNL     1      22.885  22.227 -15.698  1.00  0.00    -0.264 OA
HETATM   13  O4  UNL     1      21.668  23.349 -14.190  1.00  0.00    -0.316 OA
HETATM   14  C18 UNL     1      20.468  23.868 -13.639  1.00  0.00     0.128 C 
HETATM   15  C19 UNL     1      20.745  24.990 -12.693  1.00  0.00     0.040 C 
HETATM   16  C20 UNL     1      19.753  22.748 -12.930  1.00  0.00     0.033 C 
HETATM   17  C21 UNL     1      19.722  21.467 -13.741  1.00  0.00     0.019 C 
HETATM   18  C22 UNL     1      19.354  21.753 -15.186  1.00  0.00     0.068 C 
HETATM   19  S1  UNL     1      18.394  20.412 -15.848  1.00  0.00    -0.156 SA
HETATM   20  C23 UNL     1      17.638  20.684 -17.410  1.00  0.00     0.083 C 
ENDROOT
BRANCH   1  21
HETATM   21  N1  UNL     1      16.426  18.559 -17.266  1.00  0.00    -0.066 N 
ATOM     22  H12 UNL     1      15.718  19.167 -16.854  1.00  0.00     0.278 HD
ATOM     23  H11 UNL     1      16.838  18.197 -16.406  1.00  0.00     0.278 HD
BRANCH  21  24
HETATM   24  C7  UNL     1      15.839  17.522 -18.047  1.00  0.00     0.273 C 
BRANCH  24  25
HETATM   25  C6  UNL     1      15.948  16.178 -17.366  1.00  0.00    -0.008 A 
HETATM   26  C5  UNL     1      16.032  15.096 -18.225  1.00  0.00     0.042 A 
HETATM   27  C4  UNL     1      16.139  13.835 -17.682  1.00  0.00     0.027 A 
HETATM   28 CL1  UNL     1      16.007  15.274 -19.962  1.00  0.00    -0.084 Cl
HETATM   29  C3  UNL     1      16.160  13.675 -16.314  1.00  0.00     0.038 A 
HETATM   30  C2  UNL     1      16.075  14.772 -15.470  1.00  0.00     0.068 A 
HETATM   31  C24 UNL     1      15.966  16.052 -15.999  1.00  0.00     0.047 A 
BRANCH  30  32
HETATM   32  O1  UNL     1      16.098  14.606 -14.093  1.00  0.00    -0.356 OA
HETATM   33  C1  UNL     1      17.194  15.123 -13.374  1.00  0.00     0.210 C 
ENDBRANCH  30  32
ENDBRANCH  24  25
ENDBRANCH  21  24
ENDBRANCH   1  21
TORSDOF 4
ENDMDL
MODEL 3
REMARK VINA RESULT: -8.662749979      5.702      9.008
REMARK  4 active torsions:
REMARK  status: ('A' for Active; 'I' for Inactive)
REMARK    1  A    between atoms: O1_2  and  C2_3 
REMARK    2  A    between atoms: C6_8  and  C7_9 
REMARK    3  A    between atoms: C7_9  and  N1_10 
REMARK    4  A    between atoms: N1_10  and  C8_13 
ROOT
HETATM    1  C8  UNL     1      17.357  24.677 -17.091  1.00  0.00     0.200 C 
HETATM    2  C9  UNL     1      16.817  23.966 -15.906  1.00  0.00     0.034 C 
HETATM    3  C10 UNL     1      15.352  23.601 -16.179  1.00  0.00     0.002 C 
HETATM    4  C11 UNL     1      14.690  24.652 -17.076  1.00  0.00     0.007 C 
HETATM    5  C12 UNL     1      15.361  25.980 -16.722  1.00  0.00     0.012 C 
HETATM    6  C13 UNL     1      14.420  27.109 -16.968  1.00  0.00     0.057 C 
HETATM    7  C14 UNL     1      14.958  28.393 -16.357  1.00  0.00     0.018 C 
HETATM    8  C15 UNL     1      13.928  27.278 -18.328  1.00  0.00     0.145 C 
HETATM    9  O2  UNL     1      12.736  27.517 -18.419  1.00  0.00    -0.297 OA
HETATM   10  C16 UNL     1      14.562  27.227 -19.689  1.00  0.00     0.169 C 
HETATM   11  C17 UNL     1      13.785  27.939 -20.706  1.00  0.00     0.271 C 
HETATM   12  O3  UNL     1      12.875  27.275 -21.289  1.00  0.00    -0.264 OA
HETATM   13  O4  UNL     1      13.884  29.269 -21.154  1.00  0.00    -0.316 OA
HETATM   14  C18 UNL     1      14.753  30.232 -20.578  1.00  0.00     0.128 C 
HETATM   15  C19 UNL     1      14.410  31.614 -21.030  1.00  0.00     0.040 C 
HETATM   16  C20 UNL     1      16.165  29.885 -20.972  1.00  0.00     0.033 C 
HETATM   17  C21 UNL     1      16.468  28.407 -20.826  1.00  0.00     0.019 C 
HETATM   18  C22 UNL     1      15.941  27.878 -19.504  1.00  0.00     0.068 C 
HETATM   19  S1  UNL     1      17.025  26.617 -18.875  1.00  0.00    -0.156 SA
HETATM   20  C23 UNL     1      16.737  26.085 -17.226  1.00  0.00     0.083 C 
ENDROOT
BRANCH   1  21
HETATM   21  N1  UNL     1      18.767  24.712 -17.247  1.00  0.00    -0.066 N 
ATOM     22  H12 UNL     1      19.238  24.926 -16.367  1.00  0.00     0.278 HD
ATOM     23  H11 UNL     1      19.067  25.526 -17.784  1.00  0.00     0.278 HD
BRANCH  21  24
HETATM   24  C7  UNL     1      19.245  23.498 -17.819  1.00  0.00     0.273 C 
BRANCH  24  25
HETATM   25  C6  UNL     1      20.246  22.811 -16.921  1.00  0.00    -0.008 A 
HETATM   26  C5  UNL     1      20.829  21.677 -17.460  1.00  0.00     0.042 A 
HETATM   27  C4  UNL     1      21.757  20.996 -16.704  1.00  0.00     0.027 A 
HETATM   28 CL1  UNL     1      20.433  21.087 -19.054  1.00  0.00    -0.084 Cl
HETATM   29  C3  UNL     1      22.083  21.447 -15.444  1.00  0.00     0.038 A 
HETATM   30  C2  UNL     1      21.487  22.584 -14.921  1.00  0.00     0.068 A 
HETATM   31  C24 UNL     1      20.548  23.285 -15.668  1.00  0.00     0.047 A 
BRANCH  30  32
HETATM   32  O1  UNL     1      21.819  23.035 -13.651  1.00  0.00    -0.356 OA
HETATM   33  C1  UNL     1      21.401  24.325 -13.268  1.00  0.00     0.210 C 
ENDBRANCH  30  32
ENDBRANCH  24  25
ENDBRANCH  21  24
ENDBRANCH   1  21
TORSDOF 4
ENDMDL
MODEL 4
REMARK VINA RESULT: -8.363823455      5.630      8.876
REMARK  4 active torsions:
REMARK  status: ('A' for Active; 'I' for Inactive)
REMARK    1  A    between atoms: O1_2  and  C2_3 
REMARK    2  A    between atoms: C6_8  and  C7_9 
REMARK    3  A    between atoms: C7_9  and  N1_10 
REMARK    4  A    between atoms: N1_10  and  C8_13 
ROOT
HETATM    1  C8  UNL     1      17.317  24.815 -16.962  1.00  0.00     0.200 C 
HETATM    2  C9  UNL     1      16.736  24.103 -15.796  1.00  0.00     0.034 C 
HETATM    3  C10 UNL     1      15.298  23.694 -16.141  1.00  0.00     0.002 C 
HETATM    4  C11 UNL     1      14.654  24.713 -17.085  1.00  0.00     0.007 C 
HETATM    5  C12 UNL     1      15.268  26.065 -16.715  1.00  0.00     0.012 C 
HETATM    6  C13 UNL     1      14.311  27.163 -17.026  1.00  0.00     0.057 C 
HETATM    7  C14 UNL     1      14.780  28.470 -16.407  1.00  0.00     0.018 C 
HETATM    8  C15 UNL     1      13.886  27.300 -18.413  1.00  0.00     0.145 C 
HETATM    9  O2  UNL     1      12.695  27.504 -18.569  1.00  0.00    -0.297 OA
HETATM   10  C16 UNL     1      14.592  27.251 -19.737  1.00  0.00     0.169 C 
HETATM   11  C17 UNL     1      13.849  27.927 -20.804  1.00  0.00     0.271 C 
HETATM   12  O3  UNL     1      12.990  27.230 -21.424  1.00  0.00    -0.264 OA
HETATM   13  O4  UNL     1      13.935  29.254 -21.265  1.00  0.00    -0.316 OA
HETATM   14  C18 UNL     1      14.745  30.249 -20.658  1.00  0.00     0.128 C 
HETATM   15  C19 UNL     1      14.387  31.614 -21.147  1.00  0.00     0.040 C 
HETATM   16  C20 UNL     1      16.185  29.938 -20.973  1.00  0.00     0.033 C 
HETATM   17  C21 UNL     1      16.521  28.471 -20.790  1.00  0.00     0.019 C 
HETATM   18  C22 UNL     1      15.940  27.943 -19.490  1.00  0.00     0.068 C 
HETATM   19  S1  UNL     1      17.025  26.722 -18.788  1.00  0.00    -0.156 SA
HETATM   20  C23 UNL     1      16.666  26.203 -17.149  1.00  0.00     0.083 C 
ENDROOT
BRANCH   1  21
HETATM   21  N1  UNL     1      18.732  24.889 -17.044  1.00  0.00    -0.066 N 
ATOM     22  H12 UNL     1      19.039  25.762 -17.472  1.00  0.00     0.278 HD
ATOM     23  H11 UNL     1      19.104  24.239 -17.737  1.00  0.00     0.278 HD
BRANCH  21  24
HETATM   24  C7  UNL     1      19.326  24.692 -15.764  1.00  0.00     0.273 C 
BRANCH  24  25
HETATM   25  C6  UNL     1      20.316  23.552 -15.774  1.00  0.00    -0.008 A 
HETATM   26  C5  UNL     1      21.128  23.477 -14.656  1.00  0.00     0.042 A 
HETATM   27  C4  UNL     1      22.055  22.461 -14.587  1.00  0.00     0.027 A 
HETATM   28 CL1  UNL     1      21.016  24.616 -13.338  1.00  0.00    -0.084 Cl
HETATM   29  C3  UNL     1      22.158  21.552 -15.618  1.00  0.00     0.038 A 
HETATM   30  C2  UNL     1      21.335  21.645 -16.730  1.00  0.00     0.068 A 
HETATM   31  C24 UNL     1      20.394  22.663 -16.818  1.00  0.00     0.047 A 
BRANCH  30  32
HETATM   32  O1  UNL     1      21.442  20.727 -17.765  1.00  0.00    -0.356 OA
HETATM   33  C1  UNL     1      20.703  20.957 -18.944  1.00  0.00     0.210 C 
ENDBRANCH  30  32
ENDBRANCH  24  25
ENDBRANCH  21  24
ENDBRANCH   1  21
TORSDOF 4
ENDMDL
MODEL 5
REMARK VINA RESULT: -7.982536578      5.682      8.791
REMARK  4 active torsions:
REMARK  status: ('A' for Active; 'I' for Inactive)
REMARK    1  A    between atoms: O1_2  and  C2_3 
REMARK    2  A    between atoms: C6_8  and  C7_9 
REMARK    3  A    between atoms: C7_9  and  N1_10 
REMARK    4  A    between atoms: N1_10  and  C8_13 
ROOT
HETATM    1  C8  UNL     1      17.351  24.082 -16.433  1.00  0.00     0.200 C 
HETATM    2  C9  UNL     1      16.442  23.165 -15.703  1.00  0.00     0.034 C 
HETATM    3  C10 UNL     1      15.238  22.852 -16.601  1.00  0.00     0.002 C 
HETATM    4  C11 UNL     1      14.907  24.047 -17.501  1.00  0.00     0.007 C 
HETATM    5  C12 UNL     1      15.279  25.290 -16.690  1.00  0.00     0.012 C 
HETATM    6  C13 UNL     1      14.430  26.442 -17.104  1.00  0.00     0.057 C 
HETATM    7  C14 UNL     1      14.581  27.595 -16.124  1.00  0.00     0.018 C 
HETATM    8  C15 UNL     1      14.506  26.855 -18.499  1.00  0.00     0.145 C 
HETATM    9  O2  UNL     1      13.434  27.103 -19.022  1.00  0.00    -0.297 OA
HETATM   10  C16 UNL     1      15.629  27.056 -19.475  1.00  0.00     0.169 C 
HETATM   11  C17 UNL     1      15.267  27.939 -20.587  1.00  0.00     0.271 C 
HETATM   12  O3  UNL     1      14.717  27.391 -21.588  1.00  0.00    -0.264 OA
HETATM   13  O4  UNL     1      15.434  29.330 -20.728  1.00  0.00    -0.316 OA
HETATM   14  C18 UNL     1      15.927  30.174 -19.699  1.00  0.00     0.128 C 
HETATM   15  C19 UNL     1      15.686  31.614 -20.015  1.00  0.00     0.040 C 
HETATM   16  C20 UNL     1      17.401  29.909 -19.541  1.00  0.00     0.033 C 
HETATM   17  C21 UNL     1      17.734  28.430 -19.532  1.00  0.00     0.019 C 
HETATM   18  C22 UNL     1      16.768  27.666 -18.644  1.00  0.00     0.068 C 
HETATM   19  S1  UNL     1      17.607  26.315 -17.850  1.00  0.00    -0.156 SA
HETATM   20  C23 UNL     1      16.730  25.489 -16.571  1.00  0.00     0.083 C 
ENDROOT
BRANCH   1  21
HETATM   21  N1  UNL     1      18.700  24.150 -15.997  1.00  0.00    -0.066 N 
ATOM     22  H12 UNL     1      19.023  25.114 -15.919  1.00  0.00     0.278 HD
ATOM     23  H11 UNL     1      19.346  23.830 -16.720  1.00  0.00     0.278 HD
BRANCH  21  24
HETATM   24  C7  UNL     1      18.877  23.434 -14.778  1.00  0.00     0.273 C 
BRANCH  24  25
HETATM   25  C6  UNL     1      20.320  23.426 -14.337  1.00  0.00    -0.008 A 
HETATM   26  C5  UNL     1      20.522  23.719 -12.999  1.00  0.00     0.042 A 
HETATM   27  C4  UNL     1      21.812  23.726 -12.517  1.00  0.00     0.027 A 
HETATM   28 CL1  UNL     1      19.205  24.077 -11.909  1.00  0.00    -0.084 Cl
HETATM   29  C3  UNL     1      22.863  23.447 -13.362  1.00  0.00     0.038 A 
HETATM   30  C2  UNL     1      22.641  23.155 -14.699  1.00  0.00     0.068 A 
HETATM   31  C24 UNL     1      21.347  23.143 -15.204  1.00  0.00     0.047 A 
BRANCH  30  32
HETATM   32  O1  UNL     1      23.704  22.873 -15.545  1.00  0.00    -0.356 OA
HETATM   33  C1  UNL     1      23.667  21.676 -16.290  1.00  0.00     0.210 C 
ENDBRANCH  30  32
ENDBRANCH  24  25
ENDBRANCH  21  24
ENDBRANCH   1  21
TORSDOF 4
ENDMDL
