MODEL 1
REMARK VINA RESULT: -5.980909646      0.000      0.000
REMARK  4 active torsions:
REMARK  status: ('A' for Active; 'I' for Inactive)
REMARK       I    between atoms: C1_2  and  N1_3 
REMARK    1  A    between atoms: C1_2  and  C9_23 
REMARK    2  A    between atoms: N1_3  and  C2_5 
REMARK    3  A    between atoms: C4_12  and  C5_13 
REMARK    4  A    between atoms: N6_29  and  O3_30 
ROOT
HETATM    1  C2  UNL     1      22.996  43.495  16.977  1.00  0.00     0.128 A 
HETATM    2  N2  UNL     1      23.661  44.379  17.699  1.00  0.00    -0.286 N 
ATOM      3  H2  UNL     1      24.540  44.228  18.194  1.00  0.00     0.178 HD
HETATM    4  S1  UNL     1      22.775  45.792  17.640  1.00  0.00     0.160 S 
HETATM    5  O2  UNL     1      23.331  47.442  17.774  1.00  0.00    -0.229 OA
HETATM    6  C3  UNL     1      21.504  45.220  16.649  1.00  0.00     0.107 A 
HETATM    7  S2  UNL     1      20.037  45.546  15.846  1.00  0.00    -0.074 SA
HETATM    8  C4  UNL     1      19.809  43.995  15.162  1.00  0.00     0.052 A 
HETATM    9  C7  UNL     1      20.887  43.279  15.586  1.00  0.00     0.040 A 
HETATM   10  C8  UNL     1      21.814  43.912  16.385  1.00  0.00     0.038 A 
ENDROOT
BRANCH   1  11
HETATM   11  N1  UNL     1      23.523  42.274  16.880  1.00  0.00    -0.306 N 
HETATM   12  C1  UNL     1      23.980  41.538  17.985  1.00  0.00     0.276 C 
HETATM   13  O1  UNL     1      25.123  41.804  18.468  1.00  0.00    -0.266 OA
ATOM     14  H1  UNL     1      23.597  41.853  15.953  1.00  0.00     0.170 HD
BRANCH  12  15
HETATM   15  C9  UNL     1      23.176  40.475  18.589  1.00  0.00     0.130 A 
HETATM   16  C10 UNL     1      23.457  39.154  18.316  1.00  0.00     0.039 A 
HETATM   17  C11 UNL     1      22.708  38.124  18.879  1.00  0.00     0.023 A 
HETATM   18  C12 UNL     1      21.668  38.460  19.722  1.00  0.00     0.029 A 
HETATM   19 BR1  UNL     1      20.623  37.049  20.507  1.00  0.00    -0.050 Br
HETATM   20  C13 UNL     1      21.406  39.772  19.979  1.00  0.00     0.142 A 
HETATM   21  N6  UNL     1      22.157  40.758  19.415  1.00  0.00    -0.229 N 
BRANCH  21  22
HETATM   22  O3  UNL     1      21.823  42.053  19.728  1.00  0.00    -0.283 OA
ATOM     23  H3  UNL     1      20.952  42.396  19.566  1.00  0.00     0.245 HD
ENDBRANCH  21  22
ENDBRANCH  12  15
ENDBRANCH   1  11
BRANCH   8  24
HETATM   24  C5  UNL     1      18.707  43.528  14.310  1.00  0.00     0.138 A 
HETATM   25  N3  UNL     1      18.370  42.241  14.184  1.00  0.00    -0.335 N 
HETATM   26  C6  UNL     1      17.330  42.137  13.342  1.00  0.00     0.199 A 
ATOM     27  H3  UNL     1      18.830  41.460  14.653  1.00  0.00     0.168 HD
HETATM   28  N4  UNL     1      17.014  43.375  12.940  1.00  0.00    -0.295 N 
HETATM   29  N5  UNL     1      17.870  44.221  13.544  1.00  0.00    -0.283 N 
ATOM     30  H4  UNL     1      16.264  43.630  12.296  1.00  0.00     0.187 HD
ATOM     31  H5  UNL     1      17.875  45.235  13.431  1.00  0.00     0.188 HD
ENDBRANCH   8  24
TORSDOF 4
ENDMDL
MODEL 2
REMARK VINA RESULT: -5.909865505      1.157      1.621
REMARK  4 active torsions:
REMARK  status: ('A' for Active; 'I' for Inactive)
REMARK       I    between atoms: C1_2  and  N1_3 
REMARK    1  A    between atoms: C1_2  and  C9_23 
REMARK    2  A    between atoms: N1_3  and  C2_5 
REMARK    3  A    between atoms: C4_12  and  C5_13 
REMARK    4  A    between atoms: N6_29  and  O3_30 
ROOT
HETATM    1  C2  UNL     1      23.154  43.699  17.466  1.00  0.00     0.128 A 
HETATM    2  N2  UNL     1      23.714  44.802  17.929  1.00  0.00    -0.286 N 
ATOM      3  H2  UNL     1      24.618  44.881  18.393  1.00  0.00     0.178 HD
HETATM    4  S1  UNL     1      22.644  46.041  17.601  1.00  0.00     0.160 S 
HETATM    5  O2  UNL     1      22.977  47.733  17.324  1.00  0.00    -0.229 OA
HETATM    6  C3  UNL     1      21.435  45.100  16.840  1.00  0.00     0.107 A 
HETATM    7  S2  UNL     1      19.917  45.044  16.069  1.00  0.00    -0.074 SA
HETATM    8  C4  UNL     1      19.882  43.362  15.769  1.00  0.00     0.052 A 
HETATM    9  C7  UNL     1      21.057  42.904  16.283  1.00  0.00     0.040 A 
HETATM   10  C8  UNL     1      21.911  43.816  16.863  1.00  0.00     0.038 A 
ENDROOT
BRANCH   1  11
HETATM   11  N1  UNL     1      23.837  42.564  17.618  1.00  0.00    -0.306 N 
HETATM   12  C1  UNL     1      24.013  41.926  18.857  1.00  0.00     0.276 C 
HETATM   13  O1  UNL     1      24.899  42.365  19.652  1.00  0.00    -0.266 OA
ATOM     14  H1  UNL     1      24.255  42.137  16.791  1.00  0.00     0.170 HD
BRANCH  12  15
HETATM   15  C9  UNL     1      23.203  40.773  19.252  1.00  0.00     0.130 A 
HETATM   16  C10 UNL     1      21.833  40.808  19.110  1.00  0.00     0.039 A 
HETATM   17  C11 UNL     1      21.040  39.724  19.477  1.00  0.00     0.023 A 
HETATM   18  C12 UNL     1      21.663  38.605  19.992  1.00  0.00     0.029 A 
HETATM   19 BR1  UNL     1      20.581  37.099  20.505  1.00  0.00    -0.050 Br
HETATM   20  C13 UNL     1      23.019  38.590  20.125  1.00  0.00     0.142 A 
HETATM   21  N6  UNL     1      23.769  39.665  19.757  1.00  0.00    -0.229 N 
BRANCH  21  22
HETATM   22  O3  UNL     1      25.129  39.565  19.925  1.00  0.00    -0.283 OA
ATOM     23  H3  UNL     1      25.655  38.986  19.387  1.00  0.00     0.245 HD
ENDBRANCH  21  22
ENDBRANCH  12  15
ENDBRANCH   1  11
BRANCH   8  24
HETATM   24  C5  UNL     1      18.829  42.575  15.111  1.00  0.00     0.138 A 
HETATM   25  N3  UNL     1      18.297  42.903  13.929  1.00  0.00    -0.335 N 
HETATM   26  C6  UNL     1      17.367  41.995  13.597  1.00  0.00     0.199 A 
ATOM     27  H3  UNL     1      18.556  43.715  13.369  1.00  0.00     0.168 HD
HETATM   28  N4  UNL     1      17.320  41.089  14.582  1.00  0.00    -0.295 N 
HETATM   29  N5  UNL     1      18.226  41.459  15.508  1.00  0.00    -0.283 N 
ATOM     30  H4  UNL     1      16.712  40.271  14.624  1.00  0.00     0.187 HD
ATOM     31  H5  UNL     1      18.418  40.962  16.377  1.00  0.00     0.188 HD
ENDBRANCH   8  24
TORSDOF 4
ENDMDL
MODEL 3
REMARK VINA RESULT: -5.628830763      1.704      2.003
REMARK  4 active torsions:
REMARK  status: ('A' for Active; 'I' for Inactive)
REMARK       I    between atoms: C1_2  and  N1_3 
REMARK    1  A    between atoms: C1_2  and  C9_23 
REMARK    2  A    between atoms: N1_3  and  C2_5 
REMARK    3  A    between atoms: C4_12  and  C5_13 
REMARK    4  A    between atoms: N6_29  and  O3_30 
ROOT
HETATM    1  C2  UNL     1      23.407  41.819  17.191  1.00  0.00     0.128 A 
HETATM    2  N2  UNL     1      24.343  42.118  18.074  1.00  0.00    -0.286 N 
ATOM      3  H2  UNL     1      25.070  41.497  18.430  1.00  0.00     0.178 HD
HETATM    4  S1  UNL     1      24.099  43.716  18.491  1.00  0.00     0.160 S 
HETATM    5  O2  UNL     1      25.262  44.898  19.037  1.00  0.00    -0.229 OA
HETATM    6  C3  UNL     1      22.742  44.005  17.490  1.00  0.00     0.107 A 
HETATM    7  S2  UNL     1      21.558  45.099  16.938  1.00  0.00    -0.074 SA
HETATM    8  C4  UNL     1      20.756  44.036  15.866  1.00  0.00     0.052 A 
HETATM    9  C7  UNL     1      21.441  42.865  15.979  1.00  0.00     0.040 A 
HETATM   10  C8  UNL     1      22.513  42.819  16.843  1.00  0.00     0.038 A 
ENDROOT
BRANCH   1  11
HETATM   11  N1  UNL     1      23.406  40.576  16.709  1.00  0.00    -0.306 N 
HETATM   12  C1  UNL     1      23.986  39.486  17.377  1.00  0.00     0.276 C 
HETATM   13  O1  UNL     1      25.243  39.325  17.312  1.00  0.00    -0.266 OA
ATOM     14  H1  UNL     1      22.959  40.409  15.807  1.00  0.00     0.170 HD
BRANCH  12  15
HETATM   15  C9  UNL     1      23.181  38.534  18.143  1.00  0.00     0.130 A 
HETATM   16  C10 UNL     1      22.909  37.285  17.629  1.00  0.00     0.039 A 
HETATM   17  C11 UNL     1      22.146  36.362  18.338  1.00  0.00     0.023 A 
HETATM   18  C12 UNL     1      21.663  36.729  19.577  1.00  0.00     0.029 A 
HETATM   19 BR1  UNL     1      20.605  35.464  20.569  1.00  0.00    -0.050 Br
HETATM   20  C13 UNL     1      21.941  37.969  20.068  1.00  0.00     0.142 A 
HETATM   21  N6  UNL     1      22.691  38.851  19.352  1.00  0.00    -0.229 N 
BRANCH  21  22
HETATM   22  O3  UNL     1      22.924  40.079  19.923  1.00  0.00    -0.283 OA
ATOM     23  H3  UNL     1      23.706  40.250  20.434  1.00  0.00     0.245 HD
ENDBRANCH  21  22
ENDBRANCH  12  15
ENDBRANCH   1  11
BRANCH   8  24
HETATM   24  C5  UNL     1      19.591  44.310  15.014  1.00  0.00     0.138 A 
HETATM   25  N3  UNL     1      18.851  43.350  14.449  1.00  0.00    -0.335 N 
HETATM   26  C6  UNL     1      17.865  43.915  13.735  1.00  0.00     0.199 A 
ATOM     27  H3  UNL     1      19.011  42.347  14.544  1.00  0.00     0.168 HD
HETATM   28  N4  UNL     1      17.991  45.243  13.858  1.00  0.00    -0.295 N 
HETATM   29  N5  UNL     1      19.057  45.471  14.648  1.00  0.00    -0.283 N 
ATOM     30  H4  UNL     1      17.390  45.950  13.433  1.00  0.00     0.187 HD
ATOM     31  H5  UNL     1      19.401  46.391  14.923  1.00  0.00     0.188 HD
ENDBRANCH   8  24
TORSDOF 4
ENDMDL
MODEL 4
REMARK VINA RESULT: -5.573665244      0.759      1.079
REMARK  4 active torsions:
REMARK  status: ('A' for Active; 'I' for Inactive)
REMARK       I    between atoms: C1_2  and  N1_3 
REMARK    1  A    between atoms: C1_2  and  C9_23 
REMARK    2  A    between atoms: N1_3  and  C2_5 
REMARK    3  A    between atoms: C4_12  and  C5_13 
REMARK    4  A    between atoms: N6_29  and  O3_30 
ROOT
HETATM    1  C2  UNL     1      23.242  43.688  17.389  1.00  0.00     0.128 A 
HETATM    2  N2  UNL     1      23.805  44.784  17.863  1.00  0.00    -0.286 N 
ATOM      3  H2  UNL     1      24.720  44.860  18.306  1.00  0.00     0.178 HD
HETATM    4  S1  UNL     1      22.718  46.022  17.594  1.00  0.00     0.160 S 
HETATM    5  O2  UNL     1      23.030  47.723  17.349  1.00  0.00    -0.229 OA
HETATM    6  C3  UNL     1      21.497  45.089  16.842  1.00  0.00     0.107 A 
HETATM    7  S2  UNL     1      19.959  45.039  16.109  1.00  0.00    -0.074 SA
HETATM    8  C4  UNL     1      19.929  43.364  15.770  1.00  0.00     0.052 A 
HETATM    9  C7  UNL     1      21.121  42.904  16.242  1.00  0.00     0.040 A 
HETATM   10  C8  UNL     1      21.983  43.809  16.822  1.00  0.00     0.038 A 
ENDROOT
BRANCH   1  11
HETATM   11  N1  UNL     1      23.938  42.556  17.496  1.00  0.00    -0.306 N 
HETATM   12  C1  UNL     1      24.143  41.885  18.713  1.00  0.00     0.276 C 
HETATM   13  O1  UNL     1      25.041  42.309  19.503  1.00  0.00    -0.266 OA
ATOM     14  H1  UNL     1      24.343  42.155  16.649  1.00  0.00     0.170 HD
BRANCH  12  15
HETATM   15  C9  UNL     1      23.351  40.714  19.090  1.00  0.00     0.130 A 
HETATM   16  C10 UNL     1      23.875  39.448  18.949  1.00  0.00     0.039 A 
HETATM   17  C11 UNL     1      23.143  38.318  19.301  1.00  0.00     0.023 A 
HETATM   18  C12 UNL     1      21.868  38.496  19.798  1.00  0.00     0.029 A 
HETATM   19 BR1  UNL     1      20.842  36.944  20.288  1.00  0.00    -0.050 Br
HETATM   20  C13 UNL     1      21.366  39.756  19.930  1.00  0.00     0.142 A 
HETATM   21  N6  UNL     1      22.107  40.843  19.578  1.00  0.00    -0.229 N 
BRANCH  21  22
HETATM   22  O3  UNL     1      21.523  42.076  19.744  1.00  0.00    -0.283 OA
ATOM     23  H3  UNL     1      21.132  42.543  19.016  1.00  0.00     0.245 HD
ENDBRANCH  21  22
ENDBRANCH  12  15
ENDBRANCH   1  11
BRANCH   8  24
HETATM   24  C5  UNL     1      18.866  42.585  15.120  1.00  0.00     0.138 A 
HETATM   25  N3  UNL     1      18.318  42.923  13.949  1.00  0.00    -0.335 N 
HETATM   26  C6  UNL     1      17.382  42.019  13.622  1.00  0.00     0.199 A 
ATOM     27  H3  UNL     1      18.571  43.739  13.392  1.00  0.00     0.168 HD
HETATM   28  N4  UNL     1      17.347  41.105  14.601  1.00  0.00    -0.295 N 
HETATM   29  N5  UNL     1      18.267  41.466  15.517  1.00  0.00    -0.283 N 
ATOM     30  H4  UNL     1      16.738  40.288  14.645  1.00  0.00     0.187 HD
ATOM     31  H5  UNL     1      18.471  40.961  16.379  1.00  0.00     0.188 HD
ENDBRANCH   8  24
TORSDOF 4
ENDMDL
MODEL 5
REMARK VINA RESULT: -5.245662351      1.176      1.288
REMARK  4 active torsions:
REMARK  status: ('A' for Active; 'I' for Inactive)
REMARK       I    between atoms: C1_2  and  N1_3 
REMARK    1  A    between atoms: C1_2  and  C9_23 
REMARK    2  A    between atoms: N1_3  and  C2_5 
REMARK    3  A    between atoms: C4_12  and  C5_13 
REMARK    4  A    between atoms: N6_29  and  O3_30 
ROOT
HETATM    1  C2  UNL     1      22.565  44.523  17.110  1.00  0.00     0.128 A 
HETATM    2  N2  UNL     1      22.885  45.565  17.856  1.00  0.00    -0.286 N 
ATOM      3  H2  UNL     1      23.774  45.732  18.327  1.00  0.00     0.178 HD
HETATM    4  S1  UNL     1      21.542  46.557  17.873  1.00  0.00     0.160 S 
HETATM    5  O2  UNL     1      21.461  48.291  18.065  1.00  0.00    -0.229 OA
HETATM    6  C3  UNL     1      20.536  45.591  16.883  1.00  0.00     0.107 A 
HETATM    7  S2  UNL     1      19.026  45.381  16.122  1.00  0.00    -0.074 SA
HETATM    8  C4  UNL     1      19.358  43.878  15.379  1.00  0.00     0.052 A 
HETATM    9  C7  UNL     1      20.637  43.594  15.752  1.00  0.00     0.040 A 
HETATM   10  C8  UNL     1      21.294  44.496  16.559  1.00  0.00     0.038 A 
ENDROOT
BRANCH   1  11
HETATM   11  N1  UNL     1      23.498  43.584  16.952  1.00  0.00    -0.306 N 
HETATM   12  C1  UNL     1      24.016  42.820  18.011  1.00  0.00     0.276 C 
HETATM   13  O1  UNL     1      24.904  43.332  18.758  1.00  0.00    -0.266 OA
ATOM     14  H1  UNL     1      23.855  43.411  16.011  1.00  0.00     0.170 HD
BRANCH  12  15
HETATM   15  C9  UNL     1      23.560  41.454  18.271  1.00  0.00     0.130 A 
HETATM   16  C10 UNL     1      23.575  40.515  17.264  1.00  0.00     0.039 A 
HETATM   17  C11 UNL     1      23.147  39.209  17.486  1.00  0.00     0.023 A 
HETATM   18  C12 UNL     1      22.701  38.875  18.748  1.00  0.00     0.029 A 
HETATM   19 BR1  UNL     1      22.105  37.075  19.071  1.00  0.00    -0.050 Br
HETATM   20  C13 UNL     1      22.692  39.818  19.732  1.00  0.00     0.142 A 
HETATM   21  N6  UNL     1      23.118  41.088  19.485  1.00  0.00    -0.229 N 
BRANCH  21  22
HETATM   22  O3  UNL     1      23.076  41.975  20.533  1.00  0.00    -0.283 OA
ATOM     23  H3  UNL     1      22.389  41.938  21.188  1.00  0.00     0.245 HD
ENDBRANCH  21  22
ENDBRANCH  12  15
ENDBRANCH   1  11
BRANCH   8  24
HETATM   24  C5  UNL     1      18.475  43.067  14.530  1.00  0.00     0.138 A 
HETATM   25  N3  UNL     1      18.178  41.789  14.786  1.00  0.00    -0.335 N 
HETATM   26  C6  UNL     1      17.353  41.327  13.835  1.00  0.00     0.199 A 
ATOM     27  H3  UNL     1      18.525  41.250  15.580  1.00  0.00     0.168 HD
HETATM   28  N4  UNL     1      17.131  42.330  12.974  1.00  0.00    -0.295 N 
HETATM   29  N5  UNL     1      17.828  43.395  13.415  1.00  0.00    -0.283 N 
ATOM     30  H4  UNL     1      16.544  42.294  12.141  1.00  0.00     0.187 HD
ATOM     31  H5  UNL     1      17.856  44.309  12.964  1.00  0.00     0.188 HD
ENDBRANCH   8  24
TORSDOF 4
ENDMDL
