MODEL 1
REMARK VINA RESULT: -1.628440709      0.000      0.000
REMARK  4 active torsions:
REMARK  status: ('A' for Active; 'I' for Inactive)
REMARK    1  A    between atoms: C5_7  and  C6_8 
REMARK    2  A    between atoms: C8_10  and  C9_11 
REMARK    3  A    between atoms: C10_12  and  C11_13 
REMARK    4  A    between atoms: C18_23  and  C19_24 
ROOT
HETATM    1  C6  UNL     1      22.265  39.538  18.222  1.00  0.00     0.062 A 
HETATM    2  C7  UNL     1      21.392  40.125  17.330  1.00  0.00     0.053 A 
HETATM    3  C8  UNL     1      21.426  41.479  17.024  1.00  0.00     0.033 A 
HETATM    4  C15 UNL     1      22.411  42.202  17.687  1.00  0.00     0.011 A 
HETATM    5  C16 UNL     1      22.517  43.553  17.441  1.00  0.00     0.016 A 
HETATM    6  C17 UNL     1      23.466  44.334  18.060  1.00  0.00     0.017 A 
HETATM    7  C18 UNL     1      24.332  43.728  18.951  1.00  0.00     0.024 A 
HETATM    8  C20 UNL     1      24.231  42.355  19.206  1.00  0.00     0.052 A 
HETATM    9 BR1  UNL     1      25.387  41.459  20.417  1.00  0.00    -0.048 Br
HETATM   10  C21 UNL     1      23.275  41.594  18.576  1.00  0.00     0.063 A 
HETATM   11  N6  UNL     1      23.200  40.287  18.838  1.00  0.00    -0.352 N 
ATOM     12  H6  UNL     1      23.847  39.858  19.500  1.00  0.00     0.166 HD
ENDROOT
BRANCH   1  13
HETATM   13  C5  UNL     1      22.205  38.122  18.522  1.00  0.00     0.075 A 
HETATM   14  C4  UNL     1      22.884  37.198  17.786  1.00  0.00     0.119 A 
HETATM   15  N1  UNL     1      22.806  35.882  18.094  1.00  0.00    -0.371 N 
HETATM   16  C3  UNL     1      22.058  35.454  19.128  1.00  0.00     0.112 A 
ATOM     17  H1  UNL     1      23.323  35.204  17.534  1.00  0.00     0.164 HD
HETATM   18  C2  UNL     1      21.378  36.412  19.859  1.00  0.00     0.021 A 
HETATM   19  C1  UNL     1      20.540  35.954  21.016  1.00  0.00     0.069 C 
HETATM   20  N7  UNL     1      21.462  37.717  19.547  1.00  0.00    -0.356 N 
ATOM     21  H7  UNL     1      20.951  38.403  20.102  1.00  0.00     0.166 HD
ENDBRANCH   1  13
BRANCH   3  22
HETATM   22  C9  UNL     1      20.515  42.087  16.093  1.00  0.00    -0.059 C 
HETATM   23  C10 UNL     1      19.749  42.613  15.322  1.00  0.00    -0.042 C 
BRANCH  23  24
HETATM   24  C11 UNL     1      18.825  43.248  14.427  1.00  0.00     0.105 A 
HETATM   25  C12 UNL     1      17.917  42.672  13.566  1.00  0.00     0.128 A 
HETATM   26  N2  UNL     1      17.240  43.628  12.904  1.00  0.00    -0.359 N 
HETATM   27  C13 UNL     1      17.713  44.799  13.343  1.00  0.00     0.183 A 
ATOM     28  H2  UNL     1      16.510  43.487  12.206  1.00  0.00     0.166 HD
HETATM   29  N3  UNL     1      18.663  44.573  14.256  1.00  0.00    -0.339 N 
HETATM   30  C14 UNL     1      19.417  45.573  14.965  1.00  0.00     0.158 C 
ENDBRANCH  23  24
ENDBRANCH   3  22
BRANCH   7  31
HETATM   31  C19 UNL     1      25.325  44.531  19.602  1.00  0.00     0.121 C 
HETATM   32  N4  UNL     1      25.238  44.862  20.849  1.00  0.00    -0.387 N 
ATOM     33  H42 UNL     1      24.427  44.531  21.371  1.00  0.00     0.157 HD
ATOM     34  H41 UNL     1      25.945  45.433  21.312  1.00  0.00     0.157 HD
HETATM   35  N5  UNL     1      26.466  44.996  18.867  1.00  0.00    -0.082 NA
ENDBRANCH   7  31
TORSDOF 4
ENDMDL
MODEL 2
REMARK VINA RESULT: -1.302155934      0.751      1.310
REMARK  4 active torsions:
REMARK  status: ('A' for Active; 'I' for Inactive)
REMARK    1  A    between atoms: C5_7  and  C6_8 
REMARK    2  A    between atoms: C8_10  and  C9_11 
REMARK    3  A    between atoms: C10_12  and  C11_13 
REMARK    4  A    between atoms: C18_23  and  C19_24 
ROOT
HETATM    1  C6  UNL     1      21.674  39.846  18.927  1.00  0.00     0.062 A 
HETATM    2  C7  UNL     1      20.869  40.381  17.943  1.00  0.00     0.053 A 
HETATM    3  C8  UNL     1      21.079  41.643  17.401  1.00  0.00     0.033 A 
HETATM    4  C15 UNL     1      22.168  42.328  17.927  1.00  0.00     0.011 A 
HETATM    5  C16 UNL     1      22.450  43.588  17.445  1.00  0.00     0.016 A 
HETATM    6  C17 UNL     1      23.511  44.326  17.917  1.00  0.00     0.017 A 
HETATM    7  C18 UNL     1      24.307  43.774  18.903  1.00  0.00     0.024 A 
HETATM    8  C20 UNL     1      24.026  42.494  19.397  1.00  0.00     0.052 A 
HETATM    9 BR1  UNL     1      25.078  41.675  20.750  1.00  0.00    -0.048 Br
HETATM   10  C21 UNL     1      22.962  41.774  18.911  1.00  0.00     0.063 A 
HETATM   11  N6  UNL     1      22.716  40.556  19.401  1.00  0.00    -0.352 N 
ATOM     12  H6  UNL     1      23.314  40.165  20.129  1.00  0.00     0.166 HD
ENDROOT
BRANCH   1  13
HETATM   13  C5  UNL     1      21.429  38.527  19.473  1.00  0.00     0.075 A 
HETATM   14  C4  UNL     1      20.594  38.328  20.532  1.00  0.00     0.119 A 
HETATM   15  N1  UNL     1      20.387  37.081  21.017  1.00  0.00    -0.371 N 
HETATM   16  C3  UNL     1      20.997  36.013  20.473  1.00  0.00     0.112 A 
ATOM     17  H1  UNL     1      19.757  36.950  21.809  1.00  0.00     0.164 HD
HETATM   18  C2  UNL     1      21.840  36.242  19.399  1.00  0.00     0.021 A 
HETATM   19  C1  UNL     1      22.529  35.063  18.779  1.00  0.00     0.069 C 
HETATM   20  N7  UNL     1      22.040  37.483  18.922  1.00  0.00    -0.356 N 
ATOM     21  H7  UNL     1      22.666  37.625  18.130  1.00  0.00     0.166 HD
ENDBRANCH   1  13
BRANCH   3  22
HETATM   22  C9  UNL     1      20.238  42.197  16.376  1.00  0.00    -0.059 C 
HETATM   23  C10 UNL     1      19.531  42.679  15.524  1.00  0.00    -0.042 C 
BRANCH  23  24
HETATM   24  C11 UNL     1      18.677  43.265  14.531  1.00  0.00     0.105 A 
HETATM   25  C12 UNL     1      17.803  42.646  13.664  1.00  0.00     0.128 A 
HETATM   26  N2  UNL     1      17.193  43.564  12.893  1.00  0.00    -0.359 N 
HETATM   27  C13 UNL     1      17.675  44.753  13.268  1.00  0.00     0.183 A 
ATOM     28  H2  UNL     1      16.500  43.387  12.166  1.00  0.00     0.166 HD
HETATM   29  N3  UNL     1      18.564  44.576  14.250  1.00  0.00    -0.339 N 
HETATM   30  C14 UNL     1      19.305  45.610  14.924  1.00  0.00     0.158 C 
ENDBRANCH  23  24
ENDBRANCH   3  22
BRANCH   7  31
HETATM   31  C19 UNL     1      25.415  44.534  19.402  1.00  0.00     0.121 C 
HETATM   32  N4  UNL     1      25.476  44.942  20.627  1.00  0.00    -0.387 N 
ATOM     33  H42 UNL     1      24.700  44.705  21.245  1.00  0.00     0.157 HD
ATOM     34  H41 UNL     1      26.265  45.483  20.982  1.00  0.00     0.157 HD
HETATM   35  N5  UNL     1      26.506  44.867  18.533  1.00  0.00    -0.082 NA
ENDBRANCH   7  31
TORSDOF 4
ENDMDL
MODEL 3
REMARK VINA RESULT: -1.016664868      1.588      7.049
REMARK  4 active torsions:
REMARK  status: ('A' for Active; 'I' for Inactive)
REMARK    1  A    between atoms: C5_7  and  C6_8 
REMARK    2  A    between atoms: C8_10  and  C9_11 
REMARK    3  A    between atoms: C10_12  and  C11_13 
REMARK    4  A    between atoms: C18_23  and  C19_24 
ROOT
HETATM    1  C6  UNL     1      20.599  42.484  16.245  1.00  0.00     0.062 A 
HETATM    2  C7  UNL     1      20.721  41.168  16.640  1.00  0.00     0.053 A 
HETATM    3  C8  UNL     1      21.713  40.733  17.510  1.00  0.00     0.033 A 
HETATM    4  C15 UNL     1      22.577  41.728  17.953  1.00  0.00     0.011 A 
HETATM    5  C16 UNL     1      23.591  41.383  18.820  1.00  0.00     0.016 A 
HETATM    6  C17 UNL     1      24.484  42.312  19.301  1.00  0.00     0.017 A 
HETATM    7  C18 UNL     1      24.346  43.626  18.893  1.00  0.00     0.024 A 
HETATM    8  C20 UNL     1      23.318  43.983  18.012  1.00  0.00     0.052 A 
HETATM    9 BR1  UNL     1      23.071  45.768  17.411  1.00  0.00    -0.048 Br
HETATM   10  C21 UNL     1      22.437  43.038  17.544  1.00  0.00     0.063 A 
HETATM   11  N6  UNL     1      21.466  43.407  16.705  1.00  0.00    -0.352 N 
ATOM     12  H6  UNL     1      21.381  44.381  16.414  1.00  0.00     0.166 HD
ENDROOT
BRANCH   1  13
HETATM   13  C5  UNL     1      19.554  42.908  15.335  1.00  0.00     0.075 A 
HETATM   14  C4  UNL     1      18.792  42.015  14.644  1.00  0.00     0.119 A 
HETATM   15  N1  UNL     1      17.823  42.446  13.802  1.00  0.00    -0.371 N 
HETATM   16  C3  UNL     1      17.589  43.759  13.625  1.00  0.00     0.112 A 
ATOM     17  H1  UNL     1      17.261  41.763  13.293  1.00  0.00     0.164 HD
HETATM   18  C2  UNL     1      18.377  44.645  14.339  1.00  0.00     0.021 A 
HETATM   19  C1  UNL     1      18.131  46.114  14.156  1.00  0.00     0.069 C 
HETATM   20  N7  UNL     1      19.337  44.209  15.174  1.00  0.00    -0.356 N 
ATOM     21  H7  UNL     1      19.903  44.883  15.689  1.00  0.00     0.166 HD
ENDBRANCH   1  13
BRANCH   3  22
HETATM   22  C9  UNL     1      21.837  39.361  17.921  1.00  0.00    -0.059 C 
HETATM   23  C10 UNL     1      21.948  38.214  18.284  1.00  0.00    -0.042 C 
BRANCH  23  24
HETATM   24  C11 UNL     1      22.104  36.858  18.725  1.00  0.00     0.105 A 
HETATM   25  C12 UNL     1      22.908  35.865  18.210  1.00  0.00     0.128 A 
HETATM   26  N2  UNL     1      22.756  34.735  18.923  1.00  0.00    -0.359 N 
HETATM   27  C13 UNL     1      21.865  35.009  19.881  1.00  0.00     0.183 A 
ATOM     28  H2  UNL     1      23.227  33.844  18.764  1.00  0.00     0.166 HD
HETATM   29  N3  UNL     1      21.473  36.281  19.764  1.00  0.00    -0.339 N 
HETATM   30  C14 UNL     1      20.523  36.960  20.606  1.00  0.00     0.158 C 
ENDBRANCH  23  24
ENDBRANCH   3  22
BRANCH   7  31
HETATM   31  C19 UNL     1      25.271  44.602  19.388  1.00  0.00     0.121 C 
HETATM   32  N4  UNL     1      25.261  45.003  20.617  1.00  0.00    -0.387 N 
ATOM     33  H42 UNL     1      24.563  44.599  21.241  1.00  0.00     0.157 HD
ATOM     34  H41 UNL     1      25.920  45.698  20.969  1.00  0.00     0.157 HD
HETATM   35  N5  UNL     1      26.253  45.170  18.509  1.00  0.00    -0.082 NA
ENDBRANCH   7  31
TORSDOF 4
ENDMDL
MODEL 4
REMARK VINA RESULT: -0.655531729      1.567      6.926
REMARK  4 active torsions:
REMARK  status: ('A' for Active; 'I' for Inactive)
REMARK    1  A    between atoms: C5_7  and  C6_8 
REMARK    2  A    between atoms: C8_10  and  C9_11 
REMARK    3  A    between atoms: C10_12  and  C11_13 
REMARK    4  A    between atoms: C18_23  and  C19_24 
ROOT
HETATM    1  C6  UNL     1      20.752  43.068  16.254  1.00  0.00     0.062 A 
HETATM    2  C7  UNL     1      20.826  41.729  16.576  1.00  0.00     0.053 A 
HETATM    3  C8  UNL     1      21.788  41.214  17.437  1.00  0.00     0.033 A 
HETATM    4  C15 UNL     1      22.672  42.154  17.952  1.00  0.00     0.011 A 
HETATM    5  C16 UNL     1      23.658  41.730  18.816  1.00  0.00     0.016 A 
HETATM    6  C17 UNL     1      24.570  42.601  19.365  1.00  0.00     0.017 A 
HETATM    7  C18 UNL     1      24.480  43.940  19.030  1.00  0.00     0.024 A 
HETATM    8  C20 UNL     1      23.480  44.379  18.153  1.00  0.00     0.052 A 
HETATM    9 BR1  UNL     1      23.299  46.201  17.650  1.00  0.00    -0.048 Br
HETATM   10  C21 UNL     1      22.580  43.490  17.616  1.00  0.00     0.063 A 
HETATM   11  N6  UNL     1      21.637  43.936  16.782  1.00  0.00    -0.352 N 
ATOM     12  H6  UNL     1      21.587  44.927  16.545  1.00  0.00     0.166 HD
ENDROOT
BRANCH   1  13
HETATM   13  C5  UNL     1      19.739  43.575  15.352  1.00  0.00     0.075 A 
HETATM   14  C4  UNL     1      19.559  44.911  15.145  1.00  0.00     0.119 A 
HETATM   15  N1  UNL     1      18.602  45.351  14.295  1.00  0.00    -0.371 N 
HETATM   16  C3  UNL     1      17.807  44.488  13.636  1.00  0.00     0.112 A 
ATOM     17  H1  UNL     1      18.482  46.354  14.151  1.00  0.00     0.164 HD
HETATM   18  C2  UNL     1      18.010  43.138  13.864  1.00  0.00     0.021 A 
HETATM   19  C1  UNL     1      17.134  42.160  13.138  1.00  0.00     0.069 C 
HETATM   20  N7  UNL     1      18.963  42.709  14.709  1.00  0.00    -0.356 N 
ATOM     21  H7  UNL     1      19.092  41.708  14.859  1.00  0.00     0.166 HD
ENDBRANCH   1  13
BRANCH   3  22
HETATM   22  C9  UNL     1      21.861  39.818  17.772  1.00  0.00    -0.059 C 
HETATM   23  C10 UNL     1      21.933  38.649  18.069  1.00  0.00    -0.042 C 
BRANCH  23  24
HETATM   24  C11 UNL     1      22.041  37.266  18.433  1.00  0.00     0.105 A 
HETATM   25  C12 UNL     1      22.576  36.220  17.714  1.00  0.00     0.128 A 
HETATM   26  N2  UNL     1      22.480  35.080  18.421  1.00  0.00    -0.359 N 
HETATM   27  C13 UNL     1      21.891  35.401  19.578  1.00  0.00     0.183 A 
ATOM     28  H2  UNL     1      22.795  34.153  18.133  1.00  0.00     0.166 HD
HETATM   29  N3  UNL     1      21.627  36.711  19.586  1.00  0.00    -0.339 N 
HETATM   30  C14 UNL     1      20.997  37.445  20.652  1.00  0.00     0.158 C 
ENDBRANCH  23  24
ENDBRANCH   3  22
BRANCH   7  31
HETATM   31  C19 UNL     1      25.424  44.857  19.596  1.00  0.00     0.121 C 
HETATM   32  N4  UNL     1      25.315  45.303  20.804  1.00  0.00    -0.387 N 
ATOM     33  H42 UNL     1      24.523  44.980  21.359  1.00  0.00     0.157 HD
ATOM     34  H41 UNL     1      25.987  45.956  21.207  1.00  0.00     0.157 HD
HETATM   35  N5  UNL     1      26.539  45.312  18.815  1.00  0.00    -0.082 NA
ENDBRANCH   7  31
TORSDOF 4
ENDMDL
