MODEL 1
REMARK VINA RESULT: -7.036192615      0.000      0.000
REMARK  3 active torsions:
REMARK  status: ('A' for Active; 'I' for Inactive)
REMARK    1  A    between atoms: C4_6  and  N2_7 
REMARK    2  A    between atoms: C9_14  and  S1_15 
REMARK    3  A    between atoms: S1_15  and  N4_16 
ROOT
HETATM    1  C1  UNL     1      18.357  44.985  14.530  1.00  0.00     0.104 C 
HETATM    2  C2  UNL     1      19.368  44.580  15.089  1.00  0.00    -0.130 C 
HETATM    3  C3  UNL     1      20.552  44.079  15.737  1.00  0.00     0.105 A 
HETATM    4  N1  UNL     1      20.930  42.790  15.649  1.00  0.00    -0.183 N 
ATOM      5  H1  UNL     1      20.347  42.157  15.099  1.00  0.00     0.185 HD
HETATM    6  C4  UNL     1      22.027  42.285  16.240  1.00  0.00     0.693 A 
HETATM    7  N5  UNL     1      22.796  43.123  16.963  1.00  0.00    -0.175 N 
ATOM      8  H5  UNL     1      23.633  42.759  17.417  1.00  0.00     0.186 HD
HETATM    9  C13 UNL     1      22.490  44.434  17.103  1.00  0.00     0.135 A 
HETATM   10  N6  UNL     1      23.060  45.469  17.747  1.00  0.00    -0.350 N 
ATOM     11  H6  UNL     1      23.917  45.405  18.296  1.00  0.00     0.166 HD
HETATM   12  C14 UNL     1      22.360  46.585  17.577  1.00  0.00     0.110 A 
HETATM   13  C15 UNL     1      21.276  46.246  16.777  1.00  0.00     0.043 A 
HETATM   14 BR1  UNL     1      19.959  47.496  16.237  1.00  0.00    -0.049 Br
HETATM   15  C16 UNL     1      21.346  44.917  16.477  1.00  0.00     0.062 A 
ENDROOT
BRANCH   6  16
HETATM   16  N2  UNL     1      22.397  40.921  16.128  1.00  0.00    -0.134 N 
HETATM   17  C5  UNL     1      23.063  40.335  15.120  1.00  0.00     0.102 A 
HETATM   18  C6  UNL     1      23.536  41.062  13.908  1.00  0.00     0.090 C 
HETATM   19  N3  UNL     1      23.229  39.024  15.373  1.00  0.00    -0.343 N 
HETATM   20  C7  UNL     1      22.662  38.751  16.569  1.00  0.00     0.063 A 
ATOM     21  H3  UNL     1      23.701  38.353  14.768  1.00  0.00     0.167 HD
HETATM   22  C8  UNL     1      22.532  37.602  17.315  1.00  0.00     0.057 A 
HETATM   23  C12 UNL     1      22.154  39.954  17.011  1.00  0.00     0.085 A 
HETATM   24  C9  UNL     1      21.877  37.675  18.524  1.00  0.00     0.081 A 
HETATM   25  C10 UNL     1      21.351  38.855  19.011  1.00  0.00     0.028 A 
HETATM   26  C11 UNL     1      21.505  39.984  18.228  1.00  0.00     0.034 A 
BRANCH  24  27
HETATM   27  S1  UNL     1      21.725  36.193  19.457  1.00  0.00     0.256 S 
HETATM   28  O1  UNL     1      21.390  36.483  20.882  1.00  0.00    -0.201 OA
HETATM   29  O2  UNL     1      20.647  35.330  18.866  1.00  0.00    -0.201 OA
BRANCH  27  30
HETATM   30  N4  UNL     1      23.195  35.306  19.411  1.00  0.00    -0.324 N 
ATOM     31  H42 UNL     1      23.765  35.187  18.573  1.00  0.00     0.169 HD
ATOM     32  H41 UNL     1      23.408  34.924  20.333  1.00  0.00     0.169 HD
ENDBRANCH  27  30
ENDBRANCH  24  27
ENDBRANCH   6  16
TORSDOF 3
ENDMDL
MODEL 2
REMARK VINA RESULT: -6.237201574      5.137      7.982
REMARK  3 active torsions:
REMARK  status: ('A' for Active; 'I' for Inactive)
REMARK    1  A    between atoms: C4_6  and  N2_7 
REMARK    2  A    between atoms: C9_14  and  S1_15 
REMARK    3  A    between atoms: S1_15  and  N4_16 
ROOT
HETATM    1  C1  UNL     1      22.912  36.623  16.253  1.00  0.00     0.104 C 
HETATM    2  C2  UNL     1      22.729  37.452  17.137  1.00  0.00    -0.130 C 
HETATM    3  C3  UNL     1      22.528  38.443  18.161  1.00  0.00     0.105 A 
HETATM    4  N1  UNL     1      22.912  39.725  18.007  1.00  0.00    -0.183 N 
ATOM      5  H1  UNL     1      23.360  39.988  17.129  1.00  0.00     0.185 HD
HETATM    6  C4  UNL     1      22.741  40.679  18.939  1.00  0.00     0.693 A 
HETATM    7  N5  UNL     1      22.146  40.330  20.097  1.00  0.00    -0.175 N 
ATOM      8  H5  UNL     1      22.007  41.040  20.816  1.00  0.00     0.186 HD
HETATM    9  C13 UNL     1      21.729  39.065  20.334  1.00  0.00     0.135 A 
HETATM   10  N6  UNL     1      21.124  38.452  21.369  1.00  0.00    -0.350 N 
ATOM     11  H6  UNL     1      20.860  38.915  22.238  1.00  0.00     0.166 HD
HETATM   12  C14 UNL     1      20.917  37.166  21.111  1.00  0.00     0.110 A 
HETATM   13  C15 UNL     1      21.419  36.939  19.836  1.00  0.00     0.043 A 
HETATM   14 BR1  UNL     1      21.369  35.243  18.992  1.00  0.00    -0.049 Br
HETATM   15  C16 UNL     1      21.925  38.107  19.346  1.00  0.00     0.062 A 
ENDROOT
BRANCH   6  16
HETATM   16  N2  UNL     1      23.158  42.020  18.746  1.00  0.00    -0.134 N 
HETATM   17  C5  UNL     1      24.293  42.593  19.177  1.00  0.00     0.102 A 
HETATM   18  C6  UNL     1      25.336  41.874  19.961  1.00  0.00     0.090 C 
HETATM   19  N3  UNL     1      24.335  43.883  18.798  1.00  0.00    -0.343 N 
HETATM   20  C7  UNL     1      23.206  44.156  18.106  1.00  0.00     0.063 A 
ATOM     21  H3  UNL     1      25.087  44.541  18.998  1.00  0.00     0.167 HD
HETATM   22  C8  UNL     1      22.722  45.289  17.493  1.00  0.00     0.057 A 
HETATM   23  C12 UNL     1      22.496  42.974  18.093  1.00  0.00     0.085 A 
HETATM   24  C9  UNL     1      21.502  45.221  16.859  1.00  0.00     0.081 A 
HETATM   25  C10 UNL     1      20.752  44.062  16.817  1.00  0.00     0.028 A 
HETATM   26  C11 UNL     1      21.278  42.948  17.447  1.00  0.00     0.034 A 
BRANCH  24  27
HETATM   27  S1  UNL     1      20.906  46.682  16.084  1.00  0.00     0.256 S 
HETATM   28  O1  UNL     1      21.969  47.326  15.257  1.00  0.00    -0.201 OA
HETATM   29  O2  UNL     1      19.736  46.349  15.204  1.00  0.00    -0.201 OA
BRANCH  27  30
HETATM   30  N4  UNL     1      20.375  47.809  17.266  1.00  0.00    -0.324 N 
ATOM     31  H42 UNL     1      19.938  47.547  18.149  1.00  0.00     0.169 HD
ATOM     32  H41 UNL     1      20.561  48.763  16.954  1.00  0.00     0.169 HD
ENDBRANCH  27  30
ENDBRANCH  24  27
ENDBRANCH   6  16
TORSDOF 3
ENDMDL
MODEL 3
REMARK VINA RESULT: -6.123897813      1.840      2.165
REMARK  3 active torsions:
REMARK  status: ('A' for Active; 'I' for Inactive)
REMARK    1  A    between atoms: C4_6  and  N2_7 
REMARK    2  A    between atoms: C9_14  and  S1_15 
REMARK    3  A    between atoms: S1_15  and  N4_16 
ROOT
HETATM    1  C1  UNL     1      18.258  42.664  14.234  1.00  0.00     0.104 C 
HETATM    2  C2  UNL     1      19.161  43.016  14.983  1.00  0.00    -0.130 C 
HETATM    3  C3  UNL     1      20.226  43.404  15.870  1.00  0.00     0.105 A 
HETATM    4  N1  UNL     1      20.967  42.502  16.543  1.00  0.00    -0.183 N 
ATOM      5  H1  UNL     1      20.754  41.514  16.410  1.00  0.00     0.185 HD
HETATM    6  C4  UNL     1      21.969  42.826  17.380  1.00  0.00     0.693 A 
HETATM    7  N5  UNL     1      22.249  44.133  17.552  1.00  0.00    -0.175 N 
ATOM      8  H5  UNL     1      23.006  44.397  18.182  1.00  0.00     0.186 HD
HETATM    9  C13 UNL     1      21.556  45.104  16.915  1.00  0.00     0.135 A 
HETATM   10  N6  UNL     1      21.616  46.448  16.900  1.00  0.00    -0.350 N 
ATOM     11  H6  UNL     1      22.282  47.001  17.440  1.00  0.00     0.166 HD
HETATM   12  C14 UNL     1      20.697  46.962  16.091  1.00  0.00     0.110 A 
HETATM   13  C15 UNL     1      20.003  45.884  15.556  1.00  0.00     0.043 A 
HETATM   14 BR1  UNL     1      18.572  46.081  14.331  1.00  0.00    -0.049 Br
HETATM   15  C16 UNL     1      20.526  44.729  16.059  1.00  0.00     0.062 A 
ENDROOT
BRANCH   6  16
HETATM   16  N2  UNL     1      22.729  41.852  18.074  1.00  0.00    -0.134 N 
HETATM   17  C5  UNL     1      23.925  42.016  18.663  1.00  0.00     0.102 A 
HETATM   18  C6  UNL     1      24.670  43.306  18.676  1.00  0.00     0.090 C 
HETATM   19  N3  UNL     1      24.329  40.861  19.222  1.00  0.00    -0.343 N 
HETATM   20  C7  UNL     1      23.379  39.927  18.995  1.00  0.00     0.063 A 
ATOM     21  H3  UNL     1      25.201  40.715  19.730  1.00  0.00     0.167 HD
HETATM   22  C8  UNL     1      23.259  38.597  19.327  1.00  0.00     0.057 A 
HETATM   23  C12 UNL     1      22.398  40.578  18.278  1.00  0.00     0.085 A 
HETATM   24  C9  UNL     1      22.130  37.920  18.927  1.00  0.00     0.081 A 
HETATM   25  C10 UNL     1      21.118  38.525  18.208  1.00  0.00     0.028 A 
HETATM   26  C11 UNL     1      21.281  39.863  17.896  1.00  0.00     0.034 A 
BRANCH  24  27
HETATM   27  S1  UNL     1      22.002  36.222  19.365  1.00  0.00     0.256 S 
HETATM   28  O1  UNL     1      21.281  36.051  20.660  1.00  0.00    -0.201 OA
HETATM   29  O2  UNL     1      21.264  35.475  18.291  1.00  0.00    -0.201 OA
BRANCH  27  30
HETATM   30  N4  UNL     1      23.565  35.526  19.514  1.00  0.00    -0.324 N 
ATOM     31  H42 UNL     1      24.367  35.795  18.943  1.00  0.00     0.169 HD
ATOM     32  H41 UNL     1      23.569  34.817  20.248  1.00  0.00     0.169 HD
ENDBRANCH  27  30
ENDBRANCH  24  27
ENDBRANCH   6  16
TORSDOF 3
ENDMDL
MODEL 4
REMARK VINA RESULT: -6.027594640      2.032      2.914
REMARK  3 active torsions:
REMARK  status: ('A' for Active; 'I' for Inactive)
REMARK    1  A    between atoms: C4_6  and  N2_7 
REMARK    2  A    between atoms: C9_14  and  S1_15 
REMARK    3  A    between atoms: S1_15  and  N4_16 
ROOT
HETATM    1  C1  UNL     1      20.346  46.704  18.134  1.00  0.00     0.104 C 
HETATM    2  C2  UNL     1      21.024  45.765  17.736  1.00  0.00    -0.130 C 
HETATM    3  C3  UNL     1      21.822  44.652  17.292  1.00  0.00     0.105 A 
HETATM    4  N1  UNL     1      22.193  43.658  18.121  1.00  0.00    -0.183 N 
ATOM      5  H1  UNL     1      21.892  43.708  19.094  1.00  0.00     0.185 HD
HETATM    6  C4  UNL     1      22.937  42.602  17.745  1.00  0.00     0.693 A 
HETATM    7  N5  UNL     1      23.332  42.537  16.458  1.00  0.00    -0.175 N 
ATOM      8  H5  UNL     1      23.896  41.743  16.153  1.00  0.00     0.186 HD
HETATM    9  C13 UNL     1      23.003  43.492  15.558  1.00  0.00     0.135 A 
HETATM   10  N6  UNL     1      23.253  43.678  14.249  1.00  0.00    -0.350 N 
ATOM     11  H6  UNL     1      23.800  43.040  13.671  1.00  0.00     0.166 HD
HETATM   12  C14 UNL     1      22.695  44.799  13.807  1.00  0.00     0.110 A 
HETATM   13  C15 UNL     1      22.049  45.368  14.897  1.00  0.00     0.043 A 
HETATM   14 BR1  UNL     1      21.090  46.998  14.796  1.00  0.00    -0.049 Br
HETATM   15  C16 UNL     1      22.233  44.568  15.987  1.00  0.00     0.062 A 
ENDROOT
BRANCH   6  16
HETATM   16  N2  UNL     1      23.313  41.572  18.643  1.00  0.00    -0.134 N 
HETATM   17  C5  UNL     1      24.179  41.654  19.665  1.00  0.00     0.102 A 
HETATM   18  C6  UNL     1      24.915  42.899  20.027  1.00  0.00     0.090 C 
HETATM   19  N3  UNL     1      24.275  40.467  20.290  1.00  0.00    -0.343 N 
HETATM   20  C7  UNL     1      23.454  39.595  19.664  1.00  0.00     0.063 A 
ATOM     21  H3  UNL     1      24.864  40.260  21.095  1.00  0.00     0.167 HD
HETATM   22  C8  UNL     1      23.151  38.267  19.865  1.00  0.00     0.057 A 
HETATM   23  C12 UNL     1      22.871  40.315  18.644  1.00  0.00     0.085 A 
HETATM   24  C9  UNL     1      22.247  37.664  19.021  1.00  0.00     0.081 A 
HETATM   25  C10 UNL     1      21.635  38.342  17.985  1.00  0.00     0.028 A 
HETATM   26  C11 UNL     1      21.969  39.674  17.820  1.00  0.00     0.034 A 
BRANCH  24  27
HETATM   27  S1  UNL     1      21.879  35.968  19.300  1.00  0.00     0.256 S 
HETATM   28  O1  UNL     1      21.137  35.780  20.582  1.00  0.00    -0.201 OA
HETATM   29  O2  UNL     1      21.045  35.437  18.170  1.00  0.00    -0.201 OA
BRANCH  27  30
HETATM   30  N4  UNL     1      23.327  35.048  19.367  1.00  0.00    -0.324 N 
ATOM     31  H42 UNL     1      23.422  34.104  18.992  1.00  0.00     0.169 HD
ATOM     32  H41 UNL     1      24.064  35.580  19.832  1.00  0.00     0.169 HD
ENDBRANCH  27  30
ENDBRANCH  24  27
ENDBRANCH   6  16
TORSDOF 3
ENDMDL
MODEL 5
REMARK VINA RESULT: -5.809468814      0.760      2.259
REMARK  3 active torsions:
REMARK  status: ('A' for Active; 'I' for Inactive)
REMARK    1  A    between atoms: C4_6  and  N2_7 
REMARK    2  A    between atoms: C9_14  and  S1_15 
REMARK    3  A    between atoms: S1_15  and  N4_16 
ROOT
HETATM    1  C1  UNL     1      22.880  46.515  17.543  1.00  0.00     0.104 C 
HETATM    2  C2  UNL     1      22.321  45.567  17.004  1.00  0.00    -0.130 C 
HETATM    3  C3  UNL     1      21.685  44.438  16.377  1.00  0.00     0.105 A 
HETATM    4  N1  UNL     1      22.212  43.200  16.421  1.00  0.00    -0.183 N 
ATOM      5  H1  UNL     1      23.093  43.072  16.919  1.00  0.00     0.185 HD
HETATM    6  C4  UNL     1      21.648  42.121  15.848  1.00  0.00     0.693 A 
HETATM    7  N5  UNL     1      20.483  42.293  15.192  1.00  0.00    -0.175 N 
ATOM      8  H5  UNL     1      20.040  41.486  14.752  1.00  0.00     0.186 HD
HETATM    9  C13 UNL     1      19.884  43.502  15.100  1.00  0.00     0.135 A 
HETATM   10  N6  UNL     1      18.754  43.951  14.525  1.00  0.00    -0.350 N 
ATOM     11  H6  UNL     1      18.100  43.365  14.005  1.00  0.00     0.166 HD
HETATM   12  C14 UNL     1      18.600  45.256  14.720  1.00  0.00     0.110 A 
HETATM   13  C15 UNL     1      19.698  45.670  15.464  1.00  0.00     0.043 A 
HETATM   14 BR1  UNL     1      19.958  47.465  16.011  1.00  0.00    -0.049 Br
HETATM   15  C16 UNL     1      20.499  44.593  15.705  1.00  0.00     0.062 A 
ENDROOT
BRANCH   6  16
HETATM   16  N2  UNL     1      22.229  40.830  15.912  1.00  0.00    -0.134 N 
HETATM   17  C5  UNL     1      23.119  40.291  15.063  1.00  0.00     0.102 A 
HETATM   18  C6  UNL     1      23.656  41.001  13.868  1.00  0.00     0.090 C 
HETATM   19  N3  UNL     1      23.437  39.044  15.454  1.00  0.00    -0.343 N 
HETATM   20  C7  UNL     1      22.743  38.765  16.580  1.00  0.00     0.063 A 
ATOM     21  H3  UNL     1      24.089  38.418  14.983  1.00  0.00     0.167 HD
HETATM   22  C8  UNL     1      22.674  37.663  17.401  1.00  0.00     0.057 A 
HETATM   23  C12 UNL     1      22.001  39.898  16.836  1.00  0.00     0.085 A 
HETATM   24  C9  UNL     1      21.841  37.712  18.497  1.00  0.00     0.081 A 
HETATM   25  C10 UNL     1      21.078  38.823  18.797  1.00  0.00     0.028 A 
HETATM   26  C11 UNL     1      21.179  39.907  17.944  1.00  0.00     0.034 A 
BRANCH  24  27
HETATM   27  S1  UNL     1      21.772  36.291  19.529  1.00  0.00     0.256 S 
HETATM   28  O1  UNL     1      21.511  36.667  20.949  1.00  0.00    -0.201 OA
HETATM   29  O2  UNL     1      20.680  35.374  19.057  1.00  0.00    -0.201 OA
BRANCH  27  30
HETATM   30  N4  UNL     1      23.255  35.429  19.456  1.00  0.00    -0.324 N 
ATOM     31  H42 UNL     1      24.004  35.634  18.793  1.00  0.00     0.169 HD
ATOM     32  H41 UNL     1      23.272  34.693  20.162  1.00  0.00     0.169 HD
ENDBRANCH  27  30
ENDBRANCH  24  27
ENDBRANCH   6  16
TORSDOF 3
ENDMDL
