MODEL 1
REMARK VINA RESULT: -9.120831021      0.000      0.000
REMARK  2 active torsions:
REMARK  status: ('A' for Active; 'I' for Inactive)
REMARK    1  A    between atoms: C6_12  and  N4_13 
REMARK    2  A    between atoms: C9_19  and  N6_20 
ROOT
HETATM    1  N1  UNL     1      20.650  35.915  20.776  1.00  0.00    -0.172 NA
HETATM    2  C1  UNL     1      21.286  35.939  19.816  1.00  0.00     0.183 C 
HETATM    3  N2  UNL     1      22.034  35.933  18.689  1.00  0.00    -0.279 N 
ATOM      4  H2  UNL     1      22.331  35.003  18.394  1.00  0.00     0.179 HD
HETATM    5  C2  UNL     1      22.436  36.868  17.931  1.00  0.00     0.128 A 
HETATM    6  N3  UNL     1      23.243  36.587  16.759  1.00  0.00    -0.308 N 
ATOM      7  H3  UNL     1      23.553  35.669  16.442  1.00  0.00     0.170 HD
HETATM    8  C3  UNL     1      23.519  37.822  16.143  1.00  0.00     0.258 A 
HETATM    9  O1  UNL     1      24.205  37.994  15.083  1.00  0.00    -0.267 OA
HETATM   10  C4  UNL     1      22.883  38.862  16.933  1.00  0.00     0.048 A 
HETATM   11  C5  UNL     1      22.861  40.226  16.743  1.00  0.00     0.048 A 
HETATM   12  C6  UNL     1      22.195  41.061  17.611  1.00  0.00     0.045 A 
HETATM   13  C14 UNL     1      21.541  40.475  18.692  1.00  0.00     0.031 A 
HETATM   14  C15 UNL     1      21.553  39.117  18.895  1.00  0.00     0.018 A 
HETATM   15  C16 UNL     1      22.223  38.298  18.019  1.00  0.00     0.025 A 
ENDROOT
BRANCH  12  16
HETATM   16  N4  UNL     1      22.170  42.455  17.423  1.00  0.00    -0.262 N 
HETATM   17  C7  UNL     1      23.008  43.406  17.834  1.00  0.00     0.332 A 
HETATM   18  O2  UNL     1      24.039  43.166  18.514  1.00  0.00    -0.246 OA
HETATM   19  N5  UNL     1      22.614  44.624  17.433  1.00  0.00    -0.304 N 
HETATM   20  C8  UNL     1      21.457  44.464  16.724  1.00  0.00     0.098 A 
ATOM     21  H5  UNL     1      23.089  45.507  17.622  1.00  0.00     0.171 HD
HETATM   22  C9  UNL     1      20.626  45.374  16.085  1.00  0.00     0.149 A 
HETATM   23  C13 UNL     1      21.194  43.112  16.725  1.00  0.00     0.073 A 
HETATM   24  C10 UNL     1      19.492  44.943  15.423  1.00  0.00     0.046 A 
HETATM   25 BR1  UNL     1      18.330  46.176  14.536  1.00  0.00    -0.048 Br
HETATM   26  C11 UNL     1      19.240  43.586  15.432  1.00  0.00     0.024 A 
HETATM   27  C12 UNL     1      20.059  42.676  16.063  1.00  0.00     0.034 A 
BRANCH  22  28
HETATM   28  N6  UNL     1      20.945  46.751  16.116  1.00  0.00    -0.112 N 
HETATM   29  O3  UNL     1      21.797  47.192  15.346  1.00  0.00    -0.532 OA
HETATM   30  O4  UNL     1      20.326  47.609  16.989  1.00  0.00    -0.532 OA
ENDBRANCH  22  28
ENDBRANCH  12  16
TORSDOF 2
ENDMDL
MODEL 2
REMARK VINA RESULT: -6.497044908      3.257      7.903
REMARK  2 active torsions:
REMARK  status: ('A' for Active; 'I' for Inactive)
REMARK    1  A    between atoms: C6_12  and  N4_13 
REMARK    2  A    between atoms: C9_19  and  N6_20 
ROOT
HETATM    1  N1  UNL     1      20.814  47.545  18.241  1.00  0.00    -0.172 NA
HETATM    2  C1  UNL     1      21.046  47.207  17.165  1.00  0.00     0.183 C 
HETATM    3  N2  UNL     1      21.316  46.841  15.890  1.00  0.00    -0.279 N 
ATOM      4  H2  UNL     1      21.280  47.611  15.222  1.00  0.00     0.179 HD
HETATM    5  C2  UNL     1      21.605  45.719  15.371  1.00  0.00     0.128 A 
HETATM    6  N3  UNL     1      21.854  45.596  13.947  1.00  0.00    -0.308 N 
ATOM      7  H3  UNL     1      21.825  46.348  13.258  1.00  0.00     0.170 HD
HETATM    8  C3  UNL     1      22.142  44.242  13.696  1.00  0.00     0.258 A 
HETATM    9  O1  UNL     1      22.416  43.733  12.560  1.00  0.00    -0.267 OA
HETATM   10  C4  UNL     1      22.072  43.532  14.961  1.00  0.00     0.048 A 
HETATM   11  C5  UNL     1      22.273  42.198  15.237  1.00  0.00     0.048 A 
HETATM   12  C6  UNL     1      22.160  41.705  16.518  1.00  0.00     0.045 A 
HETATM   13  C14 UNL     1      21.834  42.607  17.527  1.00  0.00     0.031 A 
HETATM   14  C15 UNL     1      21.630  43.940  17.268  1.00  0.00     0.018 A 
HETATM   15  C16 UNL     1      21.747  44.415  15.985  1.00  0.00     0.025 A 
ENDROOT
BRANCH  12  16
HETATM   16  N4  UNL     1      22.364  40.343  16.806  1.00  0.00    -0.262 N 
HETATM   17  C7  UNL     1      23.044  39.405  16.148  1.00  0.00     0.332 A 
HETATM   18  O2  UNL     1      23.659  39.628  15.073  1.00  0.00    -0.246 OA
HETATM   19  N5  UNL     1      22.987  38.219  16.772  1.00  0.00    -0.304 N 
HETATM   20  C8  UNL     1      22.230  38.387  17.896  1.00  0.00     0.098 A 
ATOM     21  H5  UNL     1      23.428  37.351  16.464  1.00  0.00     0.171 HD
HETATM   22  C9  UNL     1      21.848  37.507  18.900  1.00  0.00     0.149 A 
HETATM   23  C13 UNL     1      21.850  39.712  17.905  1.00  0.00     0.073 A 
HETATM   24  C10 UNL     1      21.063  37.940  19.951  1.00  0.00     0.046 A 
HETATM   25 BR1  UNL     1      20.522  36.747  21.345  1.00  0.00    -0.048 Br
HETATM   26  C11 UNL     1      20.690  39.269  19.947  1.00  0.00     0.024 A 
HETATM   27  C12 UNL     1      21.064  40.150  18.956  1.00  0.00     0.034 A 
BRANCH  22  28
HETATM   28  N6  UNL     1      22.266  36.158  18.840  1.00  0.00    -0.112 N 
HETATM   29  O3  UNL     1      23.449  35.883  19.038  1.00  0.00    -0.532 OA
HETATM   30  O4  UNL     1      21.382  35.147  18.564  1.00  0.00    -0.532 OA
ENDBRANCH  22  28
ENDBRANCH  12  16
TORSDOF 2
ENDMDL
MODEL 3
REMARK VINA RESULT: -5.986220705      3.250      8.040
REMARK  2 active torsions:
REMARK  status: ('A' for Active; 'I' for Inactive)
REMARK    1  A    between atoms: C6_12  and  N4_13 
REMARK    2  A    between atoms: C9_19  and  N6_20 
ROOT
HETATM    1  N1  UNL     1      21.408  47.840  18.199  1.00  0.00    -0.172 NA
HETATM    2  C1  UNL     1      20.824  47.360  17.330  1.00  0.00     0.183 C 
HETATM    3  N2  UNL     1      20.129  46.825  16.300  1.00  0.00    -0.279 N 
ATOM      4  H2  UNL     1      19.588  47.506  15.768  1.00  0.00     0.179 HD
HETATM    5  C2  UNL     1      20.022  45.634  15.873  1.00  0.00     0.128 A 
HETATM    6  N3  UNL     1      19.193  45.323  14.725  1.00  0.00    -0.308 N 
ATOM      7  H3  UNL     1      18.644  45.983  14.175  1.00  0.00     0.170 HD
HETATM    8  C3  UNL     1      19.289  43.935  14.513  1.00  0.00     0.258 A 
HETATM    9  O1  UNL     1      18.702  43.275  13.594  1.00  0.00    -0.267 OA
HETATM   10  C4  UNL     1      20.176  43.392  15.527  1.00  0.00     0.048 A 
HETATM   11  C5  UNL     1      20.584  42.095  15.740  1.00  0.00     0.048 A 
HETATM   12  C6  UNL     1      21.441  41.771  16.769  1.00  0.00     0.045 A 
HETATM   13  C14 UNL     1      21.880  42.807  17.588  1.00  0.00     0.031 A 
HETATM   14  C15 UNL     1      21.482  44.106  17.389  1.00  0.00     0.018 A 
HETATM   15  C16 UNL     1      20.628  44.411  16.359  1.00  0.00     0.025 A 
ENDROOT
BRANCH  12  16
HETATM   16  N4  UNL     1      21.861  40.447  16.991  1.00  0.00    -0.262 N 
HETATM   17  C7  UNL     1      22.664  39.656  16.281  1.00  0.00     0.332 A 
HETATM   18  O2  UNL     1      23.212  40.018  15.208  1.00  0.00    -0.246 OA
HETATM   19  N5  UNL     1      22.807  38.450  16.851  1.00  0.00    -0.304 N 
HETATM   20  C8  UNL     1      22.058  38.450  17.994  1.00  0.00     0.098 A 
ATOM     21  H5  UNL     1      23.370  37.676  16.498  1.00  0.00     0.171 HD
HETATM   22  C9  UNL     1      21.840  37.479  18.962  1.00  0.00     0.149 A 
HETATM   23  C13 UNL     1      21.477  39.697  18.068  1.00  0.00     0.073 A 
HETATM   24  C10 UNL     1      21.021  37.738  20.044  1.00  0.00     0.046 A 
HETATM   25 BR1  UNL     1      20.704  36.418  21.390  1.00  0.00    -0.048 Br
HETATM   26  C11 UNL     1      20.445  38.991  20.106  1.00  0.00     0.024 A 
HETATM   27  C12 UNL     1      20.655  39.961  19.150  1.00  0.00     0.034 A 
BRANCH  22  28
HETATM   28  N6  UNL     1      22.462  36.216  18.834  1.00  0.00    -0.112 N 
HETATM   29  O3  UNL     1      23.664  36.107  19.074  1.00  0.00    -0.532 OA
HETATM   30  O4  UNL     1      21.755  35.106  18.448  1.00  0.00    -0.532 OA
ENDBRANCH  22  28
ENDBRANCH  12  16
TORSDOF 2
ENDMDL
MODEL 4
REMARK VINA RESULT: -5.868524893      1.736      2.096
REMARK  2 active torsions:
REMARK  status: ('A' for Active; 'I' for Inactive)
REMARK    1  A    between atoms: C6_12  and  N4_13 
REMARK    2  A    between atoms: C9_19  and  N6_20 
ROOT
HETATM    1  N1  UNL     1      20.852  35.599  18.658  1.00  0.00    -0.172 NA
HETATM    2  C1  UNL     1      21.788  36.029  19.173  1.00  0.00     0.183 C 
HETATM    3  N2  UNL     1      22.895  36.504  19.790  1.00  0.00    -0.279 N 
ATOM      4  H2  UNL     1      23.397  35.804  20.336  1.00  0.00     0.179 HD
HETATM    5  C2  UNL     1      23.425  37.657  19.816  1.00  0.00     0.128 A 
HETATM    6  N3  UNL     1      24.638  37.906  20.570  1.00  0.00    -0.308 N 
ATOM      7  H3  UNL     1      25.160  37.226  21.123  1.00  0.00     0.170 HD
HETATM    8  C3  UNL     1      24.959  39.265  20.396  1.00  0.00     0.258 A 
HETATM    9  O1  UNL     1      25.960  39.869  20.903  1.00  0.00    -0.267 OA
HETATM   10  C4  UNL     1      23.947  39.852  19.535  1.00  0.00     0.048 A 
HETATM   11  C5  UNL     1      23.821  41.144  19.074  1.00  0.00     0.048 A 
HETATM   12  C6  UNL     1      22.779  41.516  18.255  1.00  0.00     0.045 A 
HETATM   13  C14 UNL     1      21.853  40.535  17.909  1.00  0.00     0.031 A 
HETATM   14  C15 UNL     1      21.964  39.243  18.360  1.00  0.00     0.018 A 
HETATM   15  C16 UNL     1      23.011  38.889  19.176  1.00  0.00     0.025 A 
ENDROOT
BRANCH  12  16
HETATM   16  N4  UNL     1      22.645  42.834  17.782  1.00  0.00    -0.262 N 
HETATM   17  C7  UNL     1      23.431  43.899  17.934  1.00  0.00     0.332 A 
HETATM   18  O2  UNL     1      24.507  43.872  18.585  1.00  0.00    -0.246 OA
HETATM   19  N5  UNL     1      22.932  44.979  17.313  1.00  0.00    -0.304 N 
HETATM   20  C8  UNL     1      21.757  44.602  16.725  1.00  0.00     0.098 A 
ATOM     21  H5  UNL     1      23.351  45.908  17.285  1.00  0.00     0.171 HD
HETATM   22  C9  UNL     1      20.834  45.304  15.963  1.00  0.00     0.149 A 
HETATM   23  C13 UNL     1      21.592  43.267  17.024  1.00  0.00     0.073 A 
HETATM   24  C10 UNL     1      19.704  44.675  15.475  1.00  0.00     0.046 A 
HETATM   25 BR1  UNL     1      18.416  45.620  14.424  1.00  0.00    -0.048 Br
HETATM   26  C11 UNL     1      19.551  43.338  15.782  1.00  0.00     0.024 A 
HETATM   27  C12 UNL     1      20.462  42.633  16.538  1.00  0.00     0.034 A 
BRANCH  22  28
HETATM   28  N6  UNL     1      21.054  46.673  15.687  1.00  0.00    -0.112 N 
HETATM   29  O3  UNL     1      21.982  46.999  14.948  1.00  0.00    -0.532 OA
HETATM   30  O4  UNL     1      20.255  47.649  16.226  1.00  0.00    -0.532 OA
ENDBRANCH  22  28
ENDBRANCH  12  16
TORSDOF 2
ENDMDL
