MODEL 1
REMARK VINA RESULT: -8.198134061      0.000      0.000
REMARK  8 active torsions:
REMARK  status: ('A' for Active; 'I' for Inactive)
REMARK    1  A    between atoms: C2_2  and  N1_3 
REMARK    2  A    between atoms: N1_3  and  C3_5 
REMARK    3  A    between atoms: C4_8  and  N3_9 
REMARK    4  A    between atoms: N5_18  and  C11_20 
REMARK    5  A    between atoms: C11_20  and  C12_21 
REMARK    6  A    between atoms: C12_21  and  C13_22 
REMARK    7  A    between atoms: C13_22  and  N6_23 
REMARK    8  A    between atoms: N6_23  and  C15_25 
ROOT
HETATM    1  C3  UNL     1     -21.866 -37.828  12.811  1.00  0.00     0.707 A 
HETATM    2  N2  UNL     1     -23.173 -37.888  13.187  1.00  0.00    -0.021 N 
ATOM      3  H2  UNL     1     -23.461 -37.572  14.113  1.00  0.00     0.203 HD
HETATM    4  C4  UNL     1     -24.068 -38.366  12.327  1.00  0.00     0.709 A 
HETATM    5  N4  UNL     1     -23.677 -38.784  11.099  1.00  0.00    -0.021 N 
ATOM      6  H4  UNL     1     -24.387 -39.146  10.462  1.00  0.00     0.203 HD
HETATM    7  C10 UNL     1     -22.410 -38.747  10.678  1.00  0.00     0.710 A 
HETATM    8  N5  UNL     1     -21.961 -39.111   9.554  1.00  0.00    -0.204 N 
ATOM      9  H5  UNL     1     -20.954 -39.000   9.427  1.00  0.00     0.183 HD
HETATM   10  N7  UNL     1     -21.515 -38.248  11.591  1.00  0.00    -0.021 N 
ATOM     11  H7  UNL     1     -20.532 -38.193  11.325  1.00  0.00     0.203 HD
ENDROOT
BRANCH   8  12
HETATM   12  C11 UNL     1     -22.647 -39.643   8.461  1.00  0.00     0.080 C 
BRANCH  12  13
HETATM   13  C12 UNL     1     -22.677 -38.874   7.179  1.00  0.00     0.065 C 
BRANCH  13  14
HETATM   14  C13 UNL     1     -24.068 -38.205   7.118  1.00  0.00     0.127 C 
BRANCH  14  15
HETATM   15  N6  UNL     1     -24.930 -38.906   6.165  1.00  0.00    -0.386 N 
HETATM   16  C14 UNL     1     -24.339 -39.307   4.914  1.00  0.00     0.149 C 
BRANCH  15  17
HETATM   17  C15 UNL     1     -26.274 -39.167   6.481  1.00  0.00     0.037 C 
HETATM   18  C16 UNL     1     -27.310 -38.882   5.437  1.00  0.00     0.071 C 
HETATM   19  C17 UNL     1     -26.696 -39.650   7.634  1.00  0.00     0.112 C 
HETATM   20  C18 UNL     1     -28.152 -39.901   7.893  1.00  0.00     0.084 C 
HETATM   21  F1  UNL     1     -25.812 -39.929   8.609  1.00  0.00    -0.209 F 
ENDBRANCH  15  17
ENDBRANCH  14  15
ENDBRANCH  13  14
ENDBRANCH  12  13
ENDBRANCH   8  12
BRANCH   4  22
HETATM   22  N3  UNL     1     -25.454 -38.456  12.615  1.00  0.00    -0.217 N 
HETATM   23  C5  UNL     1     -26.390 -38.375  11.512  1.00  0.00     0.141 C 
HETATM   24  C6  UNL     1     -27.301 -39.586  11.566  1.00  0.00     0.020 C 
HETATM   25  C7  UNL     1     -27.023 -40.489  12.727  1.00  0.00     0.003 C 
HETATM   26  C8  UNL     1     -26.897 -39.788  14.055  1.00  0.00     0.020 C 
HETATM   27  C9  UNL     1     -25.921 -38.629  13.982  1.00  0.00     0.141 C 
ENDBRANCH   4  22
BRANCH   1  28
HETATM   28  N1  UNL     1     -21.052 -37.365  13.700  1.00  0.00    -0.225 N 
ATOM     29  H1  UNL     1     -20.558 -36.488  13.535  1.00  0.00     0.177 HD
BRANCH  28  30
HETATM   30  C2  UNL     1     -20.844 -38.090  14.924  1.00  0.00     0.133 C 
HETATM   31  C1  UNL     1     -19.790 -39.156  14.605  1.00  0.00     0.027 C 
ENDBRANCH  28  30
ENDBRANCH   1  28
TORSDOF 8
ENDMDL
MODEL 2
REMARK VINA RESULT: -8.095107699      2.171      5.150
REMARK  8 active torsions:
REMARK  status: ('A' for Active; 'I' for Inactive)
REMARK    1  A    between atoms: C2_2  and  N1_3 
REMARK    2  A    between atoms: N1_3  and  C3_5 
REMARK    3  A    between atoms: C4_8  and  N3_9 
REMARK    4  A    between atoms: N5_18  and  C11_20 
REMARK    5  A    between atoms: C11_20  and  C12_21 
REMARK    6  A    between atoms: C12_21  and  C13_22 
REMARK    7  A    between atoms: C13_22  and  N6_23 
REMARK    8  A    between atoms: N6_23  and  C15_25 
ROOT
HETATM    1  C3  UNL     1     -28.417 -38.799  11.639  1.00  0.00     0.707 A 
HETATM    2  N2  UNL     1     -28.416 -39.685  12.672  1.00  0.00    -0.021 N 
ATOM      3  H2  UNL     1     -29.277 -40.154  12.953  1.00  0.00     0.203 HD
HETATM    4  C4  UNL     1     -27.274 -39.929  13.309  1.00  0.00     0.709 A 
HETATM    5  N4  UNL     1     -26.135 -39.302  12.929  1.00  0.00    -0.021 N 
ATOM      6  H4  UNL     1     -25.275 -39.510  13.437  1.00  0.00     0.203 HD
HETATM    7  C10 UNL     1     -26.078 -38.424  11.924  1.00  0.00     0.710 A 
HETATM    8  N5  UNL     1     -25.063 -37.800  11.502  1.00  0.00    -0.204 N 
ATOM      9  H5  UNL     1     -25.230 -37.171  10.717  1.00  0.00     0.183 HD
HETATM   10  N7  UNL     1     -27.274 -38.198  11.290  1.00  0.00    -0.021 N 
ATOM     11  H7  UNL     1     -27.292 -37.538  10.512  1.00  0.00     0.203 HD
ENDROOT
BRANCH   8  12
HETATM   12  C11 UNL     1     -23.745 -37.850  11.960  1.00  0.00     0.080 C 
BRANCH  12  13
HETATM   13  C12 UNL     1     -22.654 -38.184  10.995  1.00  0.00     0.065 C 
BRANCH  13  14
HETATM   14  C13 UNL     1     -23.188 -37.797   9.599  1.00  0.00     0.127 C 
BRANCH  14  15
HETATM   15  N6  UNL     1     -23.468 -38.998   8.810  1.00  0.00    -0.386 N 
HETATM   16  C14 UNL     1     -22.910 -40.240   9.280  1.00  0.00     0.149 C 
BRANCH  15  17
HETATM   17  C15 UNL     1     -24.253 -38.917   7.647  1.00  0.00     0.037 C 
HETATM   18  C16 UNL     1     -23.597 -38.439   6.387  1.00  0.00     0.071 C 
HETATM   19  C17 UNL     1     -25.531 -39.234   7.578  1.00  0.00     0.112 C 
HETATM   20  C18 UNL     1     -26.299 -39.119   6.295  1.00  0.00     0.084 C 
HETATM   21  F1  UNL     1     -26.175 -39.673   8.676  1.00  0.00    -0.209 F 
ENDBRANCH  15  17
ENDBRANCH  14  15
ENDBRANCH  13  14
ENDBRANCH  12  13
ENDBRANCH   8  12
BRANCH   4  22
HETATM   22  N3  UNL     1     -27.164 -40.846  14.386  1.00  0.00    -0.217 N 
HETATM   23  C5  UNL     1     -27.141 -40.318  15.735  1.00  0.00     0.141 C 
HETATM   24  C6  UNL     1     -28.221 -41.016  16.540  1.00  0.00     0.020 C 
HETATM   25  C7  UNL     1     -28.967 -42.055  15.762  1.00  0.00     0.003 C 
HETATM   26  C8  UNL     1     -28.095 -43.012  14.992  1.00  0.00     0.020 C 
HETATM   27  C9  UNL     1     -27.077 -42.277  14.140  1.00  0.00     0.141 C 
ENDBRANCH   4  22
BRANCH   1  28
HETATM   28  N1  UNL     1     -29.562 -38.601  11.076  1.00  0.00    -0.225 N 
ATOM     29  H1  UNL     1     -30.114 -37.778  11.315  1.00  0.00     0.177 HD
BRANCH  28  30
HETATM   30  C2  UNL     1     -30.057 -39.546  10.112  1.00  0.00     0.133 C 
HETATM   31  C1  UNL     1     -29.688 -38.973   8.738  1.00  0.00     0.027 C 
ENDBRANCH  28  30
ENDBRANCH   1  28
TORSDOF 8
ENDMDL
MODEL 3
REMARK VINA RESULT: -7.945716192      1.246      1.874
REMARK  8 active torsions:
REMARK  status: ('A' for Active; 'I' for Inactive)
REMARK    1  A    between atoms: C2_2  and  N1_3 
REMARK    2  A    between atoms: N1_3  and  C3_5 
REMARK    3  A    between atoms: C4_8  and  N3_9 
REMARK    4  A    between atoms: N5_18  and  C11_20 
REMARK    5  A    between atoms: C11_20  and  C12_21 
REMARK    6  A    between atoms: C12_21  and  C13_22 
REMARK    7  A    between atoms: C13_22  and  N6_23 
REMARK    8  A    between atoms: N6_23  and  C15_25 
ROOT
HETATM    1  C3  UNL     1     -21.794 -38.069  13.205  1.00  0.00     0.707 A 
HETATM    2  N2  UNL     1     -22.853 -38.586  13.886  1.00  0.00    -0.021 N 
ATOM      3  H2  UNL     1     -22.990 -38.369  14.874  1.00  0.00     0.203 HD
HETATM    4  C4  UNL     1     -23.707 -39.378  13.243  1.00  0.00     0.709 A 
HETATM    5  N4  UNL     1     -23.518 -39.660  11.931  1.00  0.00    -0.021 N 
ATOM      6  H4  UNL     1     -24.190 -40.270  11.466  1.00  0.00     0.203 HD
HETATM    7  C10 UNL     1     -22.497 -39.181  11.216  1.00  0.00     0.710 A 
HETATM    8  N5  UNL     1     -22.249 -39.389   9.994  1.00  0.00    -0.204 N 
ATOM      9  H5  UNL     1     -21.415 -38.926   9.631  1.00  0.00     0.183 HD
HETATM   10  N7  UNL     1     -21.638 -38.368  11.911  1.00  0.00    -0.021 N 
ATOM     11  H7  UNL     1     -20.840 -37.971  11.415  1.00  0.00     0.203 HD
ENDROOT
BRANCH   8  12
HETATM   12  C11 UNL     1     -22.955 -40.162   9.070  1.00  0.00     0.080 C 
BRANCH  12  13
HETATM   13  C12 UNL     1     -23.246 -39.592   7.719  1.00  0.00     0.065 C 
BRANCH  13  14
HETATM   14  C13 UNL     1     -24.330 -38.515   7.937  1.00  0.00     0.127 C 
BRANCH  14  15
HETATM   15  N6  UNL     1     -25.634 -39.004   7.484  1.00  0.00    -0.386 N 
HETATM   16  C14 UNL     1     -25.876 -39.015   6.064  1.00  0.00     0.149 C 
BRANCH  15  17
HETATM   17  C15 UNL     1     -26.590 -39.443   8.415  1.00  0.00     0.037 C 
HETATM   18  C16 UNL     1     -26.429 -39.017   9.843  1.00  0.00     0.071 C 
HETATM   19  C17 UNL     1     -27.627 -40.205   8.127  1.00  0.00     0.112 C 
HETATM   20  C18 UNL     1     -28.604 -40.631   9.183  1.00  0.00     0.084 C 
HETATM   21  F1  UNL     1     -27.827 -40.618   6.862  1.00  0.00    -0.209 F 
ENDBRANCH  15  17
ENDBRANCH  14  15
ENDBRANCH  13  14
ENDBRANCH  12  13
ENDBRANCH   8  12
BRANCH   4  22
HETATM   22  N3  UNL     1     -24.849 -39.953  13.857  1.00  0.00    -0.217 N 
HETATM   23  C5  UNL     1     -25.361 -39.338  15.065  1.00  0.00     0.141 C 
HETATM   24  C6  UNL     1     -26.835 -39.040  14.862  1.00  0.00     0.020 C 
HETATM   25  C7  UNL     1     -27.355 -39.481  13.530  1.00  0.00     0.003 C 
HETATM   26  C8  UNL     1     -26.981 -40.889  13.142  1.00  0.00     0.020 C 
HETATM   27  C9  UNL     1     -25.489 -41.128  13.285  1.00  0.00     0.141 C 
ENDBRANCH   4  22
BRANCH   1  28
HETATM   28  N1  UNL     1     -21.000 -37.321  13.896  1.00  0.00    -0.225 N 
ATOM     29  H1  UNL     1     -20.769 -36.383  13.569  1.00  0.00     0.177 HD
BRANCH  28  30
HETATM   30  C2  UNL     1     -20.443 -37.814  15.126  1.00  0.00     0.133 C 
HETATM   31  C1  UNL     1     -19.471 -38.930  14.727  1.00  0.00     0.027 C 
ENDBRANCH  28  30
ENDBRANCH   1  28
TORSDOF 8
ENDMDL
MODEL 4
REMARK VINA RESULT: -7.894253956      2.187      4.570
REMARK  8 active torsions:
REMARK  status: ('A' for Active; 'I' for Inactive)
REMARK    1  A    between atoms: C2_2  and  N1_3 
REMARK    2  A    between atoms: N1_3  and  C3_5 
REMARK    3  A    between atoms: C4_8  and  N3_9 
REMARK    4  A    between atoms: N5_18  and  C11_20 
REMARK    5  A    between atoms: C11_20  and  C12_21 
REMARK    6  A    between atoms: C12_21  and  C13_22 
REMARK    7  A    between atoms: C13_22  and  N6_23 
REMARK    8  A    between atoms: N6_23  and  C15_25 
ROOT
HETATM    1  C3  UNL     1     -27.469 -38.822  13.928  1.00  0.00     0.707 A 
HETATM    2  N2  UNL     1     -28.338 -39.291  12.992  1.00  0.00    -0.021 N 
ATOM      3  H2  UNL     1     -29.280 -39.581  13.257  1.00  0.00     0.203 HD
HETATM    4  C4  UNL     1     -27.939 -39.367  11.725  1.00  0.00     0.709 A 
HETATM    5  N4  UNL     1     -26.687 -38.981  11.381  1.00  0.00    -0.021 N 
ATOM      6  H4  UNL     1     -26.411 -39.051  10.402  1.00  0.00     0.203 HD
HETATM    7  C10 UNL     1     -25.795 -38.513  12.258  1.00  0.00     0.710 A 
HETATM    8  N5  UNL     1     -24.613 -38.129  12.024  1.00  0.00    -0.204 N 
ATOM      9  H5  UNL     1     -24.090 -37.802  12.837  1.00  0.00     0.183 HD
HETATM   10  N7  UNL     1     -26.241 -38.448  13.554  1.00  0.00    -0.021 N 
ATOM     11  H7  UNL     1     -25.603 -38.097  14.269  1.00  0.00     0.203 HD
ENDROOT
BRANCH   8  12
HETATM   12  C11 UNL     1     -23.924 -38.087  10.811  1.00  0.00     0.080 C 
BRANCH  12  13
HETATM   13  C12 UNL     1     -22.814 -39.060  10.573  1.00  0.00     0.065 C 
BRANCH  13  14
HETATM   14  C13 UNL     1     -23.232 -39.887   9.337  1.00  0.00     0.127 C 
BRANCH  14  15
HETATM   15  N6  UNL     1     -22.790 -39.225   8.108  1.00  0.00    -0.386 N 
HETATM   16  C14 UNL     1     -21.429 -38.756   8.065  1.00  0.00     0.149 C 
BRANCH  15  17
HETATM   17  C15 UNL     1     -23.676 -39.068   7.028  1.00  0.00     0.037 C 
HETATM   18  C16 UNL     1     -23.092 -38.931   5.655  1.00  0.00     0.071 C 
HETATM   19  C17 UNL     1     -24.990 -39.035   7.130  1.00  0.00     0.112 C 
HETATM   20  C18 UNL     1     -25.866 -38.864   5.925  1.00  0.00     0.084 C 
HETATM   21  F1  UNL     1     -25.573 -39.156   8.337  1.00  0.00    -0.209 F 
ENDBRANCH  15  17
ENDBRANCH  14  15
ENDBRANCH  13  14
ENDBRANCH  12  13
ENDBRANCH   8  12
BRANCH   4  22
HETATM   22  N3  UNL     1     -28.772 -39.826  10.672  1.00  0.00    -0.217 N 
HETATM   23  C5  UNL     1     -30.156 -39.398  10.656  1.00  0.00     0.141 C 
HETATM   24  C6  UNL     1     -30.451 -38.782   9.303  1.00  0.00     0.020 C 
HETATM   25  C7  UNL     1     -29.285 -38.816   8.365  1.00  0.00     0.003 C 
HETATM   26  C8  UNL     1     -28.594 -40.151   8.266  1.00  0.00     0.020 C 
HETATM   27  C9  UNL     1     -28.247 -40.702   9.636  1.00  0.00     0.141 C 
ENDBRANCH   4  22
BRANCH   1  28
HETATM   28  N1  UNL     1     -27.920 -38.789  15.138  1.00  0.00    -0.225 N 
ATOM     29  H1  UNL     1     -28.924 -38.736  15.308  1.00  0.00     0.177 HD
BRANCH  28  30
HETATM   30  C2  UNL     1     -27.002 -38.825  16.244  1.00  0.00     0.133 C 
HETATM   31  C1  UNL     1     -27.829 -39.260  17.460  1.00  0.00     0.027 C 
ENDBRANCH  28  30
ENDBRANCH   1  28
TORSDOF 8
ENDMDL
MODEL 5
REMARK VINA RESULT: -7.885387965      2.247      5.213
REMARK  8 active torsions:
REMARK  status: ('A' for Active; 'I' for Inactive)
REMARK    1  A    between atoms: C2_2  and  N1_3 
REMARK    2  A    between atoms: N1_3  and  C3_5 
REMARK    3  A    between atoms: C4_8  and  N3_9 
REMARK    4  A    between atoms: N5_18  and  C11_20 
REMARK    5  A    between atoms: C11_20  and  C12_21 
REMARK    6  A    between atoms: C12_21  and  C13_22 
REMARK    7  A    between atoms: C13_22  and  N6_23 
REMARK    8  A    between atoms: N6_23  and  C15_25 
ROOT
HETATM    1  C3  UNL     1     -27.494 -40.154  14.760  1.00  0.00     0.707 A 
HETATM    2  N2  UNL     1     -28.155 -39.815  13.619  1.00  0.00    -0.021 N 
ATOM      3  H2  UNL     1     -29.175 -39.835  13.586  1.00  0.00     0.203 HD
HETATM    4  C4  UNL     1     -27.451 -39.459  12.549  1.00  0.00     0.709 A 
HETATM    5  N4  UNL     1     -26.097 -39.436  12.601  1.00  0.00    -0.021 N 
ATOM      6  H4  UNL     1     -25.585 -39.158  11.764  1.00  0.00     0.203 HD
HETATM    7  C10 UNL     1     -25.398 -39.758  13.692  1.00  0.00     0.710 A 
HETATM    8  N5  UNL     1     -24.141 -39.759  13.830  1.00  0.00    -0.204 N 
ATOM      9  H5  UNL     1     -23.801 -40.037  14.750  1.00  0.00     0.183 HD
HETATM   10  N7  UNL     1     -26.157 -40.119  14.777  1.00  0.00    -0.021 N 
ATOM     11  H7  UNL     1     -25.678 -40.374  15.641  1.00  0.00     0.203 HD
ENDROOT
BRANCH   8  12
HETATM   12  C11 UNL     1     -23.153 -39.434  12.898  1.00  0.00     0.080 C 
BRANCH  12  13
HETATM   13  C12 UNL     1     -22.883 -37.994  12.600  1.00  0.00     0.065 C 
BRANCH  13  14
HETATM   14  C13 UNL     1     -23.561 -37.708  11.242  1.00  0.00     0.127 C 
BRANCH  14  15
HETATM   15  N6  UNL     1     -22.719 -38.182  10.142  1.00  0.00    -0.386 N 
HETATM   16  C14 UNL     1     -21.336 -37.779  10.149  1.00  0.00     0.149 C 
BRANCH  15  17
HETATM   17  C15 UNL     1     -23.261 -38.997   9.133  1.00  0.00     0.037 C 
HETATM   18  C16 UNL     1     -23.250 -40.480   9.348  1.00  0.00     0.071 C 
HETATM   19  C17 UNL     1     -23.784 -38.554   8.007  1.00  0.00     0.112 C 
HETATM   20  C18 UNL     1     -24.342 -39.494   6.979  1.00  0.00     0.084 C 
HETATM   21  F1  UNL     1     -23.825 -37.232   7.759  1.00  0.00    -0.209 F 
ENDBRANCH  15  17
ENDBRANCH  14  15
ENDBRANCH  13  14
ENDBRANCH  12  13
ENDBRANCH   8  12
BRANCH   4  22
HETATM   22  N3  UNL     1     -28.044 -39.074  11.318  1.00  0.00    -0.217 N 
HETATM   23  C5  UNL     1     -27.170 -38.734  10.214  1.00  0.00     0.141 C 
HETATM   24  C6  UNL     1     -27.567 -39.574   9.014  1.00  0.00     0.020 C 
HETATM   25  C7  UNL     1     -28.738 -40.468   9.274  1.00  0.00     0.003 C 
HETATM   26  C8  UNL     1     -29.913 -39.793   9.933  1.00  0.00     0.020 C 
HETATM   27  C9  UNL     1     -29.490 -39.025  11.172  1.00  0.00     0.141 C 
ENDBRANCH   4  22
BRANCH   1  28
HETATM   28  N1  UNL     1     -28.241 -40.501  15.754  1.00  0.00    -0.225 N 
ATOM     29  H1  UNL     1     -28.772 -39.797  16.265  1.00  0.00     0.177 HD
BRANCH  28  30
HETATM   30  C2  UNL     1     -28.322 -41.884  16.138  1.00  0.00     0.133 C 
HETATM   31  C1  UNL     1     -29.484 -42.475  15.330  1.00  0.00     0.027 C 
ENDBRANCH  28  30
ENDBRANCH   1  28
TORSDOF 8
ENDMDL
