MODEL 1
REMARK VINA RESULT: -7.524736160      0.000      0.000
REMARK  8 active torsions:
REMARK  status: ('A' for Active; 'I' for Inactive)
REMARK    1  A    between atoms: N1_1  and  C1_5 
REMARK    2  A    between atoms: C1_5  and  C2_6 
REMARK    3  A    between atoms: C2_6  and  O1_7 
REMARK    4  A    between atoms: C4_11  and  O3_12 
REMARK    5  A    between atoms: O3_12  and  C5_13 
REMARK    6  A    between atoms: C5_13  and  C6_14 
REMARK    7  A    between atoms: N2_15  and  C7_17 
REMARK    8  A    between atoms: C7_17  and  C8_18 
ROOT
HETATM    1  C2  UNL     1     -25.443 -38.822  14.289  1.00  0.00     0.136 C 
HETATM    2  C3  UNL     1     -24.023 -38.377  14.054  1.00  0.00     0.216 C 
HETATM    3  O2  UNL     1     -23.202 -39.416  13.626  1.00  0.00    -0.354 OA
HETATM    4  C4  UNL     1     -23.637 -39.800  12.351  1.00  0.00     0.285 C 
HETATM    5  C14 UNL     1     -24.980 -40.420  12.461  1.00  0.00     0.051 C 
HETATM    6  C15 UNL     1     -25.811 -39.942  13.380  1.00  0.00     0.027 C 
HETATM    7 BR1  UNL     1     -27.537 -40.736  13.525  1.00  0.00    -0.052 Br
ENDROOT
BRANCH   4   8
HETATM    8  O3  UNL     1     -23.698 -38.690  11.567  1.00  0.00    -0.353 OA
BRANCH   8   9
HETATM    9  C5  UNL     1     -22.824 -38.635  10.518  1.00  0.00     0.215 C 
BRANCH   9  10
HETATM   10  C6  UNL     1     -22.812 -39.822   9.653  1.00  0.00     0.082 C 
HETATM   11  N2  UNL     1     -23.477 -39.891   8.563  1.00  0.00    -0.396 N 
ATOM     12  H2  UNL     1     -23.451 -40.728   7.980  1.00  0.00     0.159 HD
BRANCH  11  13
HETATM   13  C7  UNL     1     -24.260 -38.747   8.189  1.00  0.00     0.157 C 
BRANCH  13  14
HETATM   14  C8  UNL     1     -25.697 -39.195   8.217  1.00  0.00    -0.041 A 
HETATM   15  C9  UNL     1     -26.412 -39.232   9.387  1.00  0.00     0.009 A 
HETATM   16  C10 UNL     1     -27.729 -39.642   9.408  1.00  0.00     0.001 A 
HETATM   17  C11 UNL     1     -28.357 -40.027   8.239  1.00  0.00     0.000 A 
HETATM   18  C12 UNL     1     -27.617 -39.982   7.071  1.00  0.00     0.001 A 
HETATM   19  C13 UNL     1     -26.308 -39.575   7.040  1.00  0.00     0.009 A 
ENDBRANCH  13  14
ENDBRANCH  11  13
ENDBRANCH   9  10
ENDBRANCH   8   9
ENDBRANCH   4   8
BRANCH   1  20
HETATM   20  C1  UNL     1     -25.563 -39.288  15.723  1.00  0.00     0.275 C 
BRANCH  20  21
HETATM   21  N1  UNL     1     -24.406 -38.944  16.508  1.00  0.00    -0.076 N 
ATOM     22  H13 UNL     1     -23.545 -39.223  16.037  1.00  0.00     0.274 HD
ATOM     23  H12 UNL     1     -24.261 -37.934  16.526  1.00  0.00     0.274 HD
ATOM     24  H11 UNL     1     -24.451 -39.327  17.452  1.00  0.00     0.274 HD
ENDBRANCH  20  21
ENDBRANCH   1  20
BRANCH   1  25
HETATM   25  O1  UNL     1     -26.280 -37.750  14.019  1.00  0.00    -0.381 OA
ATOM     26  H1  UNL     1     -27.128 -37.846  14.436  1.00  0.00     0.211 HD
ENDBRANCH   1  25
TORSDOF 8
ENDMDL
MODEL 2
REMARK VINA RESULT: -7.387078610      1.342      1.487
REMARK  8 active torsions:
REMARK  status: ('A' for Active; 'I' for Inactive)
REMARK    1  A    between atoms: N1_1  and  C1_5 
REMARK    2  A    between atoms: C1_5  and  C2_6 
REMARK    3  A    between atoms: C2_6  and  O1_7 
REMARK    4  A    between atoms: C4_11  and  O3_12 
REMARK    5  A    between atoms: O3_12  and  C5_13 
REMARK    6  A    between atoms: C5_13  and  C6_14 
REMARK    7  A    between atoms: N2_15  and  C7_17 
REMARK    8  A    between atoms: C7_17  and  C8_18 
ROOT
HETATM    1  C2  UNL     1     -26.020 -39.096  14.077  1.00  0.00     0.136 C 
HETATM    2  C3  UNL     1     -24.552 -39.433  14.063  1.00  0.00     0.216 C 
HETATM    3  O2  UNL     1     -24.244 -40.435  13.149  1.00  0.00    -0.354 OA
HETATM    4  C4  UNL     1     -24.472 -39.921  11.865  1.00  0.00     0.285 C 
HETATM    5  C14 UNL     1     -25.927 -39.698  11.682  1.00  0.00     0.051 C 
HETATM    6  C15 UNL     1     -26.634 -39.310  12.738  1.00  0.00     0.027 C 
HETATM    7 BR1  UNL     1     -28.503 -39.023  12.507  1.00  0.00    -0.052 Br
ENDROOT
BRANCH   4   8
HETATM    8  O3  UNL     1     -23.801 -38.744  11.750  1.00  0.00    -0.353 OA
BRANCH   8   9
HETATM    9  C5  UNL     1     -23.021 -38.593  10.637  1.00  0.00     0.215 C 
BRANCH   9  10
HETATM   10  C6  UNL     1     -22.919 -39.780   9.781  1.00  0.00     0.082 C 
HETATM   11  N2  UNL     1     -23.294 -39.787   8.558  1.00  0.00    -0.396 N 
ATOM     12  H2  UNL     1     -23.213 -40.627   7.984  1.00  0.00     0.159 HD
BRANCH  11  13
HETATM   13  C7  UNL     1     -23.834 -38.569   8.022  1.00  0.00     0.157 C 
BRANCH  13  14
HETATM   14  C8  UNL     1     -25.188 -38.919   7.465  1.00  0.00    -0.041 A 
HETATM   15  C9  UNL     1     -26.157 -39.492   8.247  1.00  0.00     0.009 A 
HETATM   16  C10 UNL     1     -27.397 -39.811   7.733  1.00  0.00     0.001 A 
HETATM   17  C11 UNL     1     -27.686 -39.554   6.406  1.00  0.00     0.000 A 
HETATM   18  C12 UNL     1     -26.694 -38.975   5.636  1.00  0.00     0.001 A 
HETATM   19  C13 UNL     1     -25.459 -38.655   6.138  1.00  0.00     0.009 A 
ENDBRANCH  13  14
ENDBRANCH  11  13
ENDBRANCH   9  10
ENDBRANCH   8   9
ENDBRANCH   4   8
BRANCH   1  20
HETATM   20  C1  UNL     1     -26.703 -39.996  15.084  1.00  0.00     0.275 C 
BRANCH  20  21
HETATM   21  N1  UNL     1     -26.692 -41.377  14.677  1.00  0.00    -0.076 N 
ATOM     22  H13 UNL     1     -26.811 -41.465  13.668  1.00  0.00     0.274 HD
ATOM     23  H12 UNL     1     -25.759 -41.780  14.766  1.00  0.00     0.274 HD
ATOM     24  H11 UNL     1     -27.384 -41.934  15.180  1.00  0.00     0.274 HD
ENDBRANCH  20  21
ENDBRANCH   1  20
BRANCH   1  25
HETATM   25  O1  UNL     1     -26.151 -37.755  14.406  1.00  0.00    -0.381 OA
ATOM     26  H1  UNL     1     -25.502 -37.480  15.043  1.00  0.00     0.211 HD
ENDBRANCH   1  25
TORSDOF 8
ENDMDL
MODEL 3
REMARK VINA RESULT: -7.382895741      2.287      2.971
REMARK  8 active torsions:
REMARK  status: ('A' for Active; 'I' for Inactive)
REMARK    1  A    between atoms: N1_1  and  C1_5 
REMARK    2  A    between atoms: C1_5  and  C2_6 
REMARK    3  A    between atoms: C2_6  and  O1_7 
REMARK    4  A    between atoms: C4_11  and  O3_12 
REMARK    5  A    between atoms: O3_12  and  C5_13 
REMARK    6  A    between atoms: C5_13  and  C6_14 
REMARK    7  A    between atoms: N2_15  and  C7_17 
REMARK    8  A    between atoms: C7_17  and  C8_18 
ROOT
HETATM    1  C2  UNL     1     -23.257 -38.248  11.832  1.00  0.00     0.136 C 
HETATM    2  C3  UNL     1     -22.300 -37.703  10.804  1.00  0.00     0.216 C 
HETATM    3  O2  UNL     1     -21.575 -38.705  10.166  1.00  0.00    -0.354 OA
HETATM    4  C4  UNL     1     -22.478 -39.458   9.403  1.00  0.00     0.285 C 
HETATM    5  C14 UNL     1     -23.390 -40.193  10.312  1.00  0.00     0.051 C 
HETATM    6  C15 UNL     1     -23.741 -39.603  11.450  1.00  0.00     0.027 C 
HETATM    7 BR1  UNL     1     -24.912 -40.544  12.621  1.00  0.00    -0.052 Br
ENDROOT
BRANCH   4   8
HETATM    8  O3  UNL     1     -23.189 -38.605   8.617  1.00  0.00    -0.353 OA
BRANCH   8   9
HETATM    9  C5  UNL     1     -23.244 -38.905   7.284  1.00  0.00     0.215 C 
BRANCH   9  10
HETATM   10  C6  UNL     1     -24.219 -38.128   6.510  1.00  0.00     0.082 C 
HETATM   11  N2  UNL     1     -25.409 -38.539   6.284  1.00  0.00    -0.396 N 
ATOM     12  H2  UNL     1     -26.068 -37.979   5.742  1.00  0.00     0.159 HD
BRANCH  11  13
HETATM   13  C7  UNL     1     -25.784 -39.816   6.821  1.00  0.00     0.157 C 
BRANCH  13  14
HETATM   14  C8  UNL     1     -26.882 -39.549   7.815  1.00  0.00    -0.041 A 
HETATM   15  C9  UNL     1     -26.608 -39.319   9.139  1.00  0.00     0.009 A 
HETATM   16  C10 UNL     1     -27.617 -39.074  10.048  1.00  0.00     0.001 A 
HETATM   17  C11 UNL     1     -28.935 -39.057   9.634  1.00  0.00     0.000 A 
HETATM   18  C12 UNL     1     -29.189 -39.292   8.294  1.00  0.00     0.001 A 
HETATM   19  C13 UNL     1     -28.193 -39.535   7.385  1.00  0.00     0.009 A 
ENDBRANCH  13  14
ENDBRANCH  11  13
ENDBRANCH   9  10
ENDBRANCH   8   9
ENDBRANCH   4   8
BRANCH   1  20
HETATM   20  C1  UNL     1     -22.529 -38.339  13.156  1.00  0.00     0.275 C 
BRANCH  20  21
HETATM   21  N1  UNL     1     -21.344 -37.522  13.185  1.00  0.00    -0.076 N 
ATOM     22  H13 UNL     1     -20.566 -38.017  13.621  1.00  0.00     0.274 HD
ATOM     23  H12 UNL     1     -20.957 -37.402  12.249  1.00  0.00     0.274 HD
ATOM     24  H11 UNL     1     -21.506 -36.621  13.635  1.00  0.00     0.274 HD
ENDBRANCH  20  21
ENDBRANCH   1  20
BRANCH   1  25
HETATM   25  O1  UNL     1     -24.350 -37.397  11.896  1.00  0.00    -0.381 OA
ATOM     26  H1  UNL     1     -24.094 -36.502  12.089  1.00  0.00     0.211 HD
ENDBRANCH   1  25
TORSDOF 8
ENDMDL
MODEL 4
REMARK VINA RESULT: -7.382006426      2.389      3.471
REMARK  8 active torsions:
REMARK  status: ('A' for Active; 'I' for Inactive)
REMARK    1  A    between atoms: N1_1  and  C1_5 
REMARK    2  A    between atoms: C1_5  and  C2_6 
REMARK    3  A    between atoms: C2_6  and  O1_7 
REMARK    4  A    between atoms: C4_11  and  O3_12 
REMARK    5  A    between atoms: O3_12  and  C5_13 
REMARK    6  A    between atoms: C5_13  and  C6_14 
REMARK    7  A    between atoms: N2_15  and  C7_17 
REMARK    8  A    between atoms: C7_17  and  C8_18 
ROOT
HETATM    1  C2  UNL     1     -27.023 -39.319  14.926  1.00  0.00     0.136 C 
HETATM    2  C3  UNL     1     -26.504 -38.439  13.819  1.00  0.00     0.216 C 
HETATM    3  O2  UNL     1     -25.917 -39.167  12.789  1.00  0.00    -0.354 OA
HETATM    4  C4  UNL     1     -26.929 -39.909  12.166  1.00  0.00     0.285 C 
HETATM    5  C14 UNL     1     -27.423 -40.944  13.107  1.00  0.00     0.051 C 
HETATM    6  C15 UNL     1     -27.458 -40.642  14.401  1.00  0.00     0.027 C 
HETATM    7 BR1  UNL     1     -28.091 -41.968  15.613  1.00  0.00    -0.052 Br
ENDROOT
BRANCH   4   8
HETATM    8  O3  UNL     1     -27.939 -39.061  11.833  1.00  0.00    -0.353 OA
BRANCH   8   9
HETATM    9  C5  UNL     1     -29.110 -39.636  11.425  1.00  0.00     0.215 C 
BRANCH   9  10
HETATM   10  C6  UNL     1     -29.739 -39.008  10.257  1.00  0.00     0.082 C 
HETATM   11  N2  UNL     1     -29.466 -39.350   9.055  1.00  0.00    -0.396 N 
ATOM     12  H2  UNL     1     -29.918 -38.897   8.260  1.00  0.00     0.159 HD
BRANCH  11  13
HETATM   13  C7  UNL     1     -28.501 -40.396   8.865  1.00  0.00     0.157 C 
BRANCH  13  14
HETATM   14  C8  UNL     1     -27.436 -39.827   7.966  1.00  0.00    -0.041 A 
HETATM   15  C9  UNL     1     -26.187 -39.519   8.443  1.00  0.00     0.009 A 
HETATM   16  C10 UNL     1     -25.213 -38.998   7.616  1.00  0.00     0.001 A 
HETATM   17  C11 UNL     1     -25.483 -38.775   6.279  1.00  0.00     0.000 A 
HETATM   18  C12 UNL     1     -26.749 -39.093   5.820  1.00  0.00     0.001 A 
HETATM   19  C13 UNL     1     -27.723 -39.611   6.634  1.00  0.00     0.009 A 
ENDBRANCH  13  14
ENDBRANCH  11  13
ENDBRANCH   9  10
ENDBRANCH   8   9
ENDBRANCH   4   8
BRANCH   1  20
HETATM   20  C1  UNL     1     -25.910 -39.525  15.929  1.00  0.00     0.275 C 
BRANCH  20  21
HETATM   21  N1  UNL     1     -24.625 -39.142  15.405  1.00  0.00    -0.076 N 
ATOM     22  H13 UNL     1     -24.506 -39.468  14.445  1.00  0.00     0.274 HD
ATOM     23  H12 UNL     1     -24.579 -38.136  15.241  1.00  0.00     0.274 HD
ATOM     24  H11 UNL     1     -23.856 -39.454  15.998  1.00  0.00     0.274 HD
ENDBRANCH  20  21
ENDBRANCH   1  20
BRANCH   1  25
HETATM   25  O1  UNL     1     -28.124 -38.693  15.493  1.00  0.00    -0.381 OA
ATOM     26  H1  UNL     1     -28.171 -38.837  16.431  1.00  0.00     0.211 HD
ENDBRANCH   1  25
TORSDOF 8
ENDMDL
MODEL 5
REMARK VINA RESULT: -7.373461083      2.550      4.056
REMARK  8 active torsions:
REMARK  status: ('A' for Active; 'I' for Inactive)
REMARK    1  A    between atoms: N1_1  and  C1_5 
REMARK    2  A    between atoms: C1_5  and  C2_6 
REMARK    3  A    between atoms: C2_6  and  O1_7 
REMARK    4  A    between atoms: C4_11  and  O3_12 
REMARK    5  A    between atoms: O3_12  and  C5_13 
REMARK    6  A    between atoms: C5_13  and  C6_14 
REMARK    7  A    between atoms: N2_15  and  C7_17 
REMARK    8  A    between atoms: C7_17  and  C8_18 
ROOT
HETATM    1  C2  UNL     1     -26.724 -39.994  13.525  1.00  0.00     0.136 C 
HETATM    2  C3  UNL     1     -28.177 -40.291  13.264  1.00  0.00     0.216 C 
HETATM    3  O2  UNL     1     -28.852 -39.207  12.713  1.00  0.00    -0.354 OA
HETATM    4  C4  UNL     1     -28.330 -38.991  11.431  1.00  0.00     0.285 C 
HETATM    5  C14 UNL     1     -26.927 -38.523  11.550  1.00  0.00     0.051 C 
HETATM    6  C15 UNL     1     -26.192 -39.010  12.544  1.00  0.00     0.027 C 
HETATM    7 BR1  UNL     1     -24.390 -38.411  12.700  1.00  0.00    -0.052 Br
ENDROOT
BRANCH   4   8
HETATM    8  O3  UNL     1     -28.373 -40.166  10.747  1.00  0.00    -0.353 OA
BRANCH   8   9
HETATM    9  C5  UNL     1     -29.373 -40.298   9.824  1.00  0.00     0.215 C 
BRANCH   9  10
HETATM   10  C6  UNL     1     -29.499 -39.184   8.876  1.00  0.00     0.082 C 
HETATM   11  N2  UNL     1     -28.834 -39.125   7.785  1.00  0.00    -0.396 N 
ATOM     12  H2  UNL     1     -28.939 -38.339   7.144  1.00  0.00     0.159 HD
BRANCH  11  13
HETATM   13  C7  UNL     1     -27.934 -40.205   7.497  1.00  0.00     0.157 C 
BRANCH  13  14
HETATM   14  C8  UNL     1     -26.561 -39.595   7.403  1.00  0.00    -0.041 A 
HETATM   15  C9  UNL     1     -25.744 -39.500   8.501  1.00  0.00     0.009 A 
HETATM   16  C10 UNL     1     -24.486 -38.941   8.412  1.00  0.00     0.001 A 
HETATM   17  C11 UNL     1     -24.023 -38.461   7.201  1.00  0.00     0.000 A 
HETATM   18  C12 UNL     1     -24.864 -38.567   6.108  1.00  0.00     0.001 A 
HETATM   19  C13 UNL     1     -26.115 -39.121   6.187  1.00  0.00     0.009 A 
ENDBRANCH  13  14
ENDBRANCH  11  13
ENDBRANCH   9  10
ENDBRANCH   8   9
ENDBRANCH   4   8
BRANCH   1  20
HETATM   20  C1  UNL     1     -26.601 -39.419  14.919  1.00  0.00     0.275 C 
BRANCH  20  21
HETATM   21  N1  UNL     1     -27.807 -38.762  15.347  1.00  0.00    -0.076 N 
ATOM     22  H13 UNL     1     -28.265 -38.287  14.568  1.00  0.00     0.274 HD
ATOM     23  H12 UNL     1     -28.536 -39.439  15.575  1.00  0.00     0.274 HD
ATOM     24  H11 UNL     1     -27.644 -38.121  16.124  1.00  0.00     0.274 HD
ENDBRANCH  20  21
ENDBRANCH   1  20
BRANCH   1  25
HETATM   25  O1  UNL     1     -26.012 -41.176  13.385  1.00  0.00    -0.381 OA
ATOM     26  H1  UNL     1     -26.572 -41.902  13.134  1.00  0.00     0.211 HD
ENDBRANCH   1  25
TORSDOF 8
ENDMDL
