MODEL 1
REMARK VINA RESULT: -7.829004292      0.000      0.000
REMARK  6 active torsions:
REMARK  status: ('A' for Active; 'I' for Inactive)
REMARK    1  A    between atoms: C2_2  and  C4_4 
REMARK    2  A    between atoms: C11_13  and  N1_14 
REMARK    3  A    between atoms: N1_14  and  C12_16 
REMARK    4  A    between atoms: C12_16  and  C13_17 
REMARK    5  A    between atoms: C13_17  and  N2_18 
REMARK       I    between atoms: N2_18  and  C14_20 
REMARK    6  A    between atoms: C14_20  and  C15_22 
ROOT
HETATM    1  C15 UNL     1     -25.164 -39.231   5.985  1.00  0.00     0.226 C 
HETATM    2  C16 UNL     1     -26.278 -39.598   6.847  1.00  0.00     0.068 C 
HETATM    3  N3  UNL     1     -27.165 -39.873   7.538  1.00  0.00    -0.197 NA
ENDROOT
BRANCH   1   4
HETATM    4  C14 UNL     1     -24.064 -38.577   6.772  1.00  0.00     0.230 C 
HETATM    5  N2  UNL     1     -22.969 -39.357   7.202  1.00  0.00    -0.359 N 
ATOM      6  H2  UNL     1     -22.956 -40.349   6.962  1.00  0.00     0.162 HD
HETATM    7  O2  UNL     1     -24.127 -37.352   7.041  1.00  0.00    -0.273 OA
BRANCH   5   8
HETATM    8  C13 UNL     1     -21.863 -38.822   7.965  1.00  0.00     0.142 C 
BRANCH   8   9
HETATM    9  C12 UNL     1     -22.093 -39.072   9.432  1.00  0.00     0.140 C 
BRANCH   9  10
HETATM   10  N1  UNL     1     -22.921 -38.053  10.031  1.00  0.00    -0.377 N 
ATOM     11  H1  UNL     1     -22.607 -37.084   9.990  1.00  0.00     0.160 HD
BRANCH  10  12
HETATM   12  C11 UNL     1     -24.151 -38.341  10.675  1.00  0.00     0.100 C 
HETATM   13  C10 UNL     1     -25.099 -39.474  10.435  1.00  0.00     0.119 C 
HETATM   14  C7  UNL     1     -25.859 -39.463  11.765  1.00  0.00     0.102 C 
HETATM   15  C6  UNL     1     -25.151 -40.314  12.761  1.00  0.00     0.044 C 
HETATM   16  C8  UNL     1     -27.279 -39.890  11.496  1.00  0.00     0.121 C 
HETATM   17  O3  UNL     1     -25.835 -38.096  12.072  1.00  0.00    -0.267 OA
HETATM   18  C5  UNL     1     -26.067 -41.205  13.564  1.00  0.00     0.037 C 
HETATM   19  C4  UNL     1     -27.324 -40.475  13.986  1.00  0.00     0.100 C 
HETATM   20 CL1  UNL     1     -26.876 -39.091  15.005  1.00  0.00    -0.110 Cl
HETATM   21  C9  UNL     1     -28.033 -40.065  12.752  1.00  0.00     0.153 C 
HETATM   22  O1  UNL     1     -29.220 -39.882  12.792  1.00  0.00    -0.296 OA
HETATM   23  N4  UNL     1     -24.639 -37.606  11.615  1.00  0.00    -0.254 N 
ATOM     24  H4  UNL     1     -24.190 -36.764  11.976  1.00  0.00     0.195 HD
BRANCH  19  25
HETATM   25  C2  UNL     1     -28.157 -41.413  14.828  1.00  0.00     0.008 C 
HETATM   26  C1  UNL     1     -28.058 -41.075  16.298  1.00  0.00     0.012 C 
HETATM   27  C3  UNL     1     -27.789 -42.848  14.643  1.00  0.00     0.012 C 
ENDBRANCH  19  25
ENDBRANCH  10  12
ENDBRANCH   9  10
ENDBRANCH   8   9
ENDBRANCH   5   8
ENDBRANCH   1   4
TORSDOF 6
ENDMDL
MODEL 2
REMARK VINA RESULT: -7.815614277      2.853      6.555
REMARK  6 active torsions:
REMARK  status: ('A' for Active; 'I' for Inactive)
REMARK    1  A    between atoms: C2_2  and  C4_4 
REMARK    2  A    between atoms: C11_13  and  N1_14 
REMARK    3  A    between atoms: N1_14  and  C12_16 
REMARK    4  A    between atoms: C12_16  and  C13_17 
REMARK    5  A    between atoms: C13_17  and  N2_18 
REMARK       I    between atoms: N2_18  and  C14_20 
REMARK    6  A    between atoms: C14_20  and  C15_22 
ROOT
HETATM    1  C15 UNL     1     -28.714 -39.897  11.090  1.00  0.00     0.226 C 
HETATM    2  C16 UNL     1     -30.079 -39.524  10.745  1.00  0.00     0.068 C 
HETATM    3  N3  UNL     1     -31.158 -39.210  10.470  1.00  0.00    -0.197 NA
ENDROOT
BRANCH   1   4
HETATM    4  C14 UNL     1     -28.229 -39.127  12.284  1.00  0.00     0.230 C 
HETATM    5  N2  UNL     1     -27.911 -39.824  13.469  1.00  0.00    -0.359 N 
ATOM      6  H2  UNL     1     -28.022 -40.838  13.480  1.00  0.00     0.162 HD
HETATM    7  O2  UNL     1     -28.109 -37.879  12.219  1.00  0.00    -0.273 OA
BRANCH   5   8
HETATM    8  C13 UNL     1     -27.438 -39.173  14.671  1.00  0.00     0.142 C 
BRANCH   8   9
HETATM    9  C12 UNL     1     -25.937 -39.270  14.741  1.00  0.00     0.140 C 
BRANCH   9  10
HETATM   10  N1  UNL     1     -25.291 -38.225  13.984  1.00  0.00    -0.377 N 
ATOM     11  H1  UNL     1     -25.276 -37.282  14.370  1.00  0.00     0.160 HD
BRANCH  10  12
HETATM   12  C11 UNL     1     -24.676 -38.454  12.726  1.00  0.00     0.100 C 
HETATM   13  C10 UNL     1     -24.563 -39.728  11.949  1.00  0.00     0.119 C 
HETATM   14  C7  UNL     1     -24.301 -39.157  10.552  1.00  0.00     0.102 C 
HETATM   15  C6  UNL     1     -25.593 -38.892   9.860  1.00  0.00     0.044 C 
HETATM   16  C8  UNL     1     -23.399 -40.116   9.817  1.00  0.00     0.121 C 
HETATM   17  O3  UNL     1     -23.583 -37.997  10.871  1.00  0.00    -0.267 OA
HETATM   18  C5  UNL     1     -25.615 -39.337   8.418  1.00  0.00     0.037 C 
HETATM   19  C4  UNL     1     -24.322 -38.997   7.710  1.00  0.00     0.100 C 
HETATM   20 CL1  UNL     1     -24.094 -37.235   7.735  1.00  0.00    -0.110 Cl
HETATM   21  C9  UNL     1     -23.233 -39.720   8.406  1.00  0.00     0.153 C 
HETATM   22  O1  UNL     1     -22.223 -39.977   7.805  1.00  0.00    -0.296 OA
HETATM   23  N4  UNL     1     -24.098 -37.522  12.050  1.00  0.00    -0.254 N 
ATOM     24  H4  UNL     1     -24.031 -36.550  12.353  1.00  0.00     0.195 HD
BRANCH  19  25
HETATM   25  C2  UNL     1     -24.447 -39.423   6.265  1.00  0.00     0.008 C 
HETATM   26  C1  UNL     1     -23.413 -38.743   5.395  1.00  0.00     0.012 C 
HETATM   27  C3  UNL     1     -25.800 -39.159   5.692  1.00  0.00     0.012 C 
ENDBRANCH  19  25
ENDBRANCH  10  12
ENDBRANCH   9  10
ENDBRANCH   8   9
ENDBRANCH   5   8
ENDBRANCH   1   4
TORSDOF 6
ENDMDL
MODEL 3
REMARK VINA RESULT: -7.797227540      3.197      7.426
REMARK  6 active torsions:
REMARK  status: ('A' for Active; 'I' for Inactive)
REMARK    1  A    between atoms: C2_2  and  C4_4 
REMARK    2  A    between atoms: C11_13  and  N1_14 
REMARK    3  A    between atoms: N1_14  and  C12_16 
REMARK    4  A    between atoms: C12_16  and  C13_17 
REMARK    5  A    between atoms: C13_17  and  N2_18 
REMARK       I    between atoms: N2_18  and  C14_20 
REMARK    6  A    between atoms: C14_20  and  C15_22 
ROOT
HETATM    1  C15 UNL     1     -28.916 -42.249  15.646  1.00  0.00     0.226 C 
HETATM    2  C16 UNL     1     -27.901 -42.604  14.664  1.00  0.00     0.068 C 
HETATM    3  N3  UNL     1     -27.084 -42.891  13.897  1.00  0.00    -0.197 NA
ENDROOT
BRANCH   1   4
HETATM    4  C14 UNL     1     -28.374 -41.282  16.658  1.00  0.00     0.230 C 
HETATM    5  N2  UNL     1     -27.660 -40.149  16.213  1.00  0.00    -0.359 N 
ATOM      6  H2  UNL     1     -27.533 -40.019  15.209  1.00  0.00     0.162 HD
HETATM    7  O2  UNL     1     -28.557 -41.487  17.883  1.00  0.00    -0.273 OA
BRANCH   5   8
HETATM    8  C13 UNL     1     -27.097 -39.162  17.109  1.00  0.00     0.142 C 
BRANCH   8   9
HETATM    9  C12 UNL     1     -25.880 -38.541  16.477  1.00  0.00     0.140 C 
BRANCH   9  10
HETATM   10  N1  UNL     1     -26.155 -38.035  15.154  1.00  0.00    -0.377 N 
ATOM     11  H1  UNL     1     -26.914 -37.364  15.037  1.00  0.00     0.160 HD
BRANCH  10  12
HETATM   12  C11 UNL     1     -25.416 -38.429  14.009  1.00  0.00     0.100 C 
HETATM   13  C10 UNL     1     -25.560 -39.661  13.172  1.00  0.00     0.119 C 
HETATM   14  C7  UNL     1     -24.875 -39.185  11.888  1.00  0.00     0.102 C 
HETATM   15  C6  UNL     1     -25.865 -38.511  11.003  1.00  0.00     0.044 C 
HETATM   16  C8  UNL     1     -24.193 -40.370  11.253  1.00  0.00     0.121 C 
HETATM   17  O3  UNL     1     -23.905 -38.318  12.412  1.00  0.00    -0.267 OA
HETATM   18  C5  UNL     1     -25.752 -38.905   9.550  1.00  0.00     0.037 C 
HETATM   19  C4  UNL     1     -24.307 -38.985   9.105  1.00  0.00     0.100 C 
HETATM   20 CL1  UNL     1     -23.553 -37.388   9.300  1.00  0.00    -0.110 Cl
HETATM   21  C9  UNL     1     -23.649 -40.028   9.926  1.00  0.00     0.153 C 
HETATM   22  O1  UNL     1     -22.675 -40.584   9.493  1.00  0.00    -0.296 OA
HETATM   23  N4  UNL     1     -24.459 -37.721  13.515  1.00  0.00    -0.254 N 
ATOM     24  H4  UNL     1     -24.152 -36.826  13.896  1.00  0.00     0.195 HD
BRANCH  19  25
HETATM   25  C2  UNL     1     -24.283 -39.327   7.634  1.00  0.00     0.008 C 
HETATM   26  C1  UNL     1     -23.679 -38.210   6.814  1.00  0.00     0.012 C 
HETATM   27  C3  UNL     1     -25.635 -39.645   7.085  1.00  0.00     0.012 C 
ENDBRANCH  19  25
ENDBRANCH  10  12
ENDBRANCH   9  10
ENDBRANCH   8   9
ENDBRANCH   5   8
ENDBRANCH   1   4
TORSDOF 6
ENDMDL
MODEL 4
REMARK VINA RESULT: -7.775494079      1.047      1.111
REMARK  6 active torsions:
REMARK  status: ('A' for Active; 'I' for Inactive)
REMARK    1  A    between atoms: C2_2  and  C4_4 
REMARK    2  A    between atoms: C11_13  and  N1_14 
REMARK    3  A    between atoms: N1_14  and  C12_16 
REMARK    4  A    between atoms: C12_16  and  C13_17 
REMARK    5  A    between atoms: C13_17  and  N2_18 
REMARK       I    between atoms: N2_18  and  C14_20 
REMARK    6  A    between atoms: C14_20  and  C15_22 
ROOT
HETATM    1  C15 UNL     1     -24.934 -39.343   6.683  1.00  0.00     0.226 C 
HETATM    2  C16 UNL     1     -24.658 -39.350   5.253  1.00  0.00     0.068 C 
HETATM    3  N3  UNL     1     -24.422 -39.362   4.121  1.00  0.00    -0.197 NA
ENDROOT
BRANCH   1   4
HETATM    4  C14 UNL     1     -23.861 -38.613   7.437  1.00  0.00     0.230 C 
HETATM    5  N2  UNL     1     -22.718 -39.322   7.865  1.00  0.00    -0.359 N 
ATOM      6  H2  UNL     1     -22.654 -40.317   7.647  1.00  0.00     0.162 HD
HETATM    7  O2  UNL     1     -23.988 -37.388   7.681  1.00  0.00    -0.273 OA
BRANCH   5   8
HETATM    8  C13 UNL     1     -21.632 -38.710   8.599  1.00  0.00     0.142 C 
BRANCH   8   9
HETATM    9  C12 UNL     1     -21.827 -38.937  10.074  1.00  0.00     0.140 C 
BRANCH   9  10
HETATM   10  N1  UNL     1     -22.710 -37.958  10.661  1.00  0.00    -0.377 N 
ATOM     11  H1  UNL     1     -22.402 -36.987  10.704  1.00  0.00     0.160 HD
BRANCH  10  12
HETATM   12  C11 UNL     1     -23.989 -38.287  11.180  1.00  0.00     0.100 C 
HETATM   13  C10 UNL     1     -24.882 -39.435  10.829  1.00  0.00     0.119 C 
HETATM   14  C7  UNL     1     -25.763 -39.471  12.081  1.00  0.00     0.102 C 
HETATM   15  C6  UNL     1     -25.132 -40.327  13.123  1.00  0.00     0.044 C 
HETATM   16  C8  UNL     1     -27.142 -39.923  11.671  1.00  0.00     0.121 C 
HETATM   17  O3  UNL     1     -25.801 -38.110  12.416  1.00  0.00    -0.267 OA
HETATM   18  C5  UNL     1     -26.098 -41.255  13.818  1.00  0.00     0.037 C 
HETATM   19  C4  UNL     1     -27.406 -40.563  14.134  1.00  0.00     0.100 C 
HETATM   20 CL1  UNL     1     -27.089 -39.192  15.218  1.00  0.00    -0.110 Cl
HETATM   21  C9  UNL     1     -28.005 -40.142  12.846  1.00  0.00     0.153 C 
HETATM   22  O1  UNL     1     -29.195 -39.985  12.778  1.00  0.00    -0.296 OA
HETATM   23  N4  UNL     1     -24.580 -37.584  12.084  1.00  0.00    -0.254 N 
ATOM     24  H4  UNL     1     -24.187 -36.741  12.502  1.00  0.00     0.195 HD
BRANCH  19  25
HETATM   25  C2  UNL     1     -28.291 -41.538  14.874  1.00  0.00     0.008 C 
HETATM   26  C1  UNL     1     -28.212 -41.333  16.371  1.00  0.00     0.012 C 
HETATM   27  C3  UNL     1     -27.973 -42.964  14.571  1.00  0.00     0.012 C 
ENDBRANCH  19  25
ENDBRANCH  10  12
ENDBRANCH   9  10
ENDBRANCH   8   9
ENDBRANCH   5   8
ENDBRANCH   1   4
TORSDOF 6
ENDMDL
MODEL 5
REMARK VINA RESULT: -7.711799062      2.376      3.452
REMARK  6 active torsions:
REMARK  status: ('A' for Active; 'I' for Inactive)
REMARK    1  A    between atoms: C2_2  and  C4_4 
REMARK    2  A    between atoms: C11_13  and  N1_14 
REMARK    3  A    between atoms: N1_14  and  C12_16 
REMARK    4  A    between atoms: C12_16  and  C13_17 
REMARK    5  A    between atoms: C13_17  and  N2_18 
REMARK       I    between atoms: N2_18  and  C14_20 
REMARK    6  A    between atoms: C14_20  and  C15_22 
ROOT
HETATM    1  C15 UNL     1     -27.771 -40.276   7.827  1.00  0.00     0.226 C 
HETATM    2  C16 UNL     1     -28.911 -39.478   8.256  1.00  0.00     0.068 C 
HETATM    3  N3  UNL     1     -29.822 -38.844   8.581  1.00  0.00    -0.197 NA
ENDROOT
BRANCH   1   4
HETATM    4  C14 UNL     1     -27.070 -39.635   6.665  1.00  0.00     0.230 C 
HETATM    5  N2  UNL     1     -25.659 -39.648   6.621  1.00  0.00    -0.359 N 
ATOM      6  H2  UNL     1     -25.154 -40.097   7.386  1.00  0.00     0.162 HD
HETATM    7  O2  UNL     1     -27.737 -39.096   5.748  1.00  0.00    -0.273 OA
BRANCH   5   8
HETATM    8  C13 UNL     1     -24.892 -39.056   5.547  1.00  0.00     0.142 C 
BRANCH   8   9
HETATM    9  C12 UNL     1     -23.609 -38.489   6.094  1.00  0.00     0.140 C 
BRANCH   9  10
HETATM   10  N1  UNL     1     -22.973 -39.388   7.026  1.00  0.00    -0.377 N 
ATOM     11  H1  UNL     1     -22.397 -40.144   6.657  1.00  0.00     0.160 HD
BRANCH  10  12
HETATM   12  C11 UNL     1     -23.114 -39.267   8.432  1.00  0.00     0.100 C 
HETATM   13  C10 UNL     1     -23.557 -38.086   9.237  1.00  0.00     0.119 C 
HETATM   14  C7  UNL     1     -23.980 -38.795  10.527  1.00  0.00     0.102 C 
HETATM   15  C6  UNL     1     -25.404 -39.219  10.432  1.00  0.00     0.044 C 
HETATM   16  C8  UNL     1     -23.693 -37.872  11.684  1.00  0.00     0.121 C 
HETATM   17  O3  UNL     1     -23.074 -39.864  10.550  1.00  0.00    -0.267 OA
HETATM   18  C5  UNL     1     -26.208 -38.944  11.680  1.00  0.00     0.037 C 
HETATM   19  C4  UNL     1     -25.426 -39.281  12.931  1.00  0.00     0.100 C 
HETATM   20 CL1  UNL     1     -25.020 -41.010  12.911  1.00  0.00    -0.110 Cl
HETATM   21  C9  UNL     1     -24.224 -38.415  12.948  1.00  0.00     0.153 C 
HETATM   22  O1  UNL     1     -23.697 -38.166  13.999  1.00  0.00    -0.296 OA
HETATM   23  N4  UNL     1     -22.859 -40.232   9.247  1.00  0.00    -0.254 N 
ATOM     24  H4  UNL     1     -22.538 -41.156   8.959  1.00  0.00     0.195 HD
BRANCH  19  25
HETATM   25  C2  UNL     1     -26.316 -39.032  14.126  1.00  0.00     0.008 C 
HETATM   26  C1  UNL     1     -26.254 -40.178  15.111  1.00  0.00     0.012 C 
HETATM   27  C3  UNL     1     -27.743 -38.798  13.756  1.00  0.00     0.012 C 
ENDBRANCH  19  25
ENDBRANCH  10  12
ENDBRANCH   9  10
ENDBRANCH   8   9
ENDBRANCH   5   8
ENDBRANCH   1   4
TORSDOF 6
ENDMDL
