MODEL 1
REMARK VINA RESULT: -8.298080112      0.000      0.000
REMARK  7 active torsions:
REMARK  status: ('A' for Active; 'I' for Inactive)
REMARK    1  A    between atoms: C1_2  and  C2_3 
REMARK       I    between atoms: C1_2  and  N3_23 
REMARK    2  A    between atoms: C2_3  and  N1_4 
REMARK    3  A    between atoms: N1_4  and  C3_6 
REMARK    4  A    between atoms: C3_6  and  C4_7 
REMARK    5  A    between atoms: C4_7  and  O2_8 
REMARK    6  A    between atoms: N2_12  and  C7_13 
REMARK    7  A    between atoms: C7_13  and  C8_14 
ROOT
HETATM    1  C3  UNL     1     -26.647 -39.695  14.248  1.00  0.00     0.054 C 
HETATM    2  C5  UNL     1     -25.731 -38.566  13.830  1.00  0.00     0.063 C 
HETATM    3  C6  UNL     1     -25.429 -38.511  12.378  1.00  0.00     0.275 C 
HETATM    4  N2  UNL     1     -24.973 -39.764  11.803  1.00  0.00     0.092 N 
HETATM    5  C14 UNL     1     -24.831 -40.693  12.917  1.00  0.00     0.275 C 
HETATM    6  C15 UNL     1     -26.208 -40.940  13.453  1.00  0.00     0.063 C 
ENDROOT
BRANCH   1   7
HETATM    7  N1  UNL     1     -28.008 -39.411  14.010  1.00  0.00    -0.383 N 
ATOM      8  H1  UNL     1     -28.544 -38.805  14.630  1.00  0.00     0.160 HD
BRANCH   7   9
HETATM    9  C2  UNL     1     -28.586 -40.004  12.881  1.00  0.00     0.158 C 
BRANCH   9  10
HETATM   10  C1  UNL     1     -28.955 -38.959  11.834  1.00  0.00     0.258 C 
HETATM   11  O1  UNL     1     -29.226 -37.824  12.253  1.00  0.00    -0.267 OA
HETATM   12  N3  UNL     1     -28.954 -39.381  10.497  1.00  0.00    -0.348 N 
HETATM   13  C16 UNL     1     -29.280 -38.530   9.371  1.00  0.00     0.126 C 
HETATM   14  C19 UNL     1     -28.641 -40.697  10.012  1.00  0.00     0.126 C 
HETATM   15  C17 UNL     1     -29.226 -39.419   8.148  1.00  0.00     0.021 C 
HETATM   16  C18 UNL     1     -28.309 -40.560   8.540  1.00  0.00     0.021 C 
ENDBRANCH   9  10
ENDBRANCH   7   9
ENDBRANCH   1   7
BRANCH   1  17
HETATM   17  C4  UNL     1     -26.267 -40.017  15.678  1.00  0.00     0.195 C 
BRANCH  17  18
HETATM   18  O2  UNL     1     -25.148 -39.374  16.125  1.00  0.00    -0.398 OA
ATOM     19  H2  UNL     1     -24.332 -39.719  15.784  1.00  0.00     0.209 HD
ENDBRANCH  17  18
ENDBRANCH   1  17
BRANCH   4  20
HETATM   20  C7  UNL     1     -23.760 -39.601  11.058  1.00  0.00     0.311 C 
BRANCH  20  21
HETATM   21  C8  UNL     1     -23.905 -39.488   9.610  1.00  0.00    -0.030 A 
HETATM   22  C9  UNL     1     -25.127 -39.182   9.050  1.00  0.00     0.010 A 
HETATM   23  C10 UNL     1     -25.261 -39.070   7.693  1.00  0.00     0.024 A 
HETATM   24  C11 UNL     1     -24.155 -39.266   6.877  1.00  0.00     0.034 A 
HETATM   25 CL1  UNL     1     -24.359 -39.116   5.138  1.00  0.00    -0.084 Cl
HETATM   26  C12 UNL     1     -22.927 -39.573   7.421  1.00  0.00     0.024 A 
HETATM   27  C13 UNL     1     -22.787 -39.687   8.786  1.00  0.00     0.010 A 
ENDBRANCH  20  21
ENDBRANCH   4  20
TORSDOF 7
ENDMDL
MODEL 2
REMARK VINA RESULT: -8.172756599      1.649      2.038
REMARK  7 active torsions:
REMARK  status: ('A' for Active; 'I' for Inactive)
REMARK    1  A    between atoms: C1_2  and  C2_3 
REMARK       I    between atoms: C1_2  and  N3_23 
REMARK    2  A    between atoms: C2_3  and  N1_4 
REMARK    3  A    between atoms: N1_4  and  C3_6 
REMARK    4  A    between atoms: C3_6  and  C4_7 
REMARK    5  A    between atoms: C4_7  and  O2_8 
REMARK    6  A    between atoms: N2_12  and  C7_13 
REMARK    7  A    between atoms: C7_13  and  C8_14 
ROOT
HETATM    1  C3  UNL     1     -27.501 -40.100  14.146  1.00  0.00     0.054 C 
HETATM    2  C5  UNL     1     -26.537 -38.988  14.497  1.00  0.00     0.063 C 
HETATM    3  C6  UNL     1     -25.667 -38.540  13.381  1.00  0.00     0.275 C 
HETATM    4  N2  UNL     1     -24.968 -39.608  12.688  1.00  0.00     0.092 N 
HETATM    5  C14 UNL     1     -25.261 -40.830  13.425  1.00  0.00     0.275 C 
HETATM    6  C15 UNL     1     -26.727 -41.094  13.258  1.00  0.00     0.063 C 
ENDROOT
BRANCH   1   7
HETATM    7  N1  UNL     1     -28.652 -39.635  13.478  1.00  0.00    -0.383 N 
ATOM      8  H1  UNL     1     -29.587 -39.935  13.753  1.00  0.00     0.160 HD
BRANCH   7   9
HETATM    9  C2  UNL     1     -28.449 -38.742  12.420  1.00  0.00     0.158 C 
BRANCH   9  10
HETATM   10  C1  UNL     1     -29.205 -39.181  11.171  1.00  0.00     0.258 C 
HETATM   11  O1  UNL     1     -30.440 -39.229  11.256  1.00  0.00    -0.267 OA
HETATM   12  N3  UNL     1     -28.429 -39.490  10.043  1.00  0.00    -0.348 N 
HETATM   13  C16 UNL     1     -28.972 -39.926   8.774  1.00  0.00     0.126 C 
HETATM   14  C19 UNL     1     -26.997 -39.436   9.945  1.00  0.00     0.126 C 
HETATM   15  C17 UNL     1     -27.779 -40.216   7.889  1.00  0.00     0.021 C 
HETATM   16  C18 UNL     1     -26.655 -39.382   8.470  1.00  0.00     0.021 C 
ENDBRANCH   9  10
ENDBRANCH   7   9
ENDBRANCH   1   7
BRANCH   1  17
HETATM   17  C4  UNL     1     -27.731 -40.859  15.436  1.00  0.00     0.195 C 
BRANCH  17  18
HETATM   18  O2  UNL     1     -28.970 -41.424  15.548  1.00  0.00    -0.398 OA
ATOM     19  H2  UNL     1     -28.967 -42.373  15.606  1.00  0.00     0.209 HD
ENDBRANCH  17  18
ENDBRANCH   1  17
BRANCH   4  20
HETATM   20  C7  UNL     1     -23.562 -39.347  12.583  1.00  0.00     0.311 C 
BRANCH  20  21
HETATM   21  C8  UNL     1     -23.028 -39.241  11.229  1.00  0.00    -0.030 A 
HETATM   22  C9  UNL     1     -23.440 -40.112  10.243  1.00  0.00     0.010 A 
HETATM   23  C10 UNL     1     -22.942 -40.008   8.973  1.00  0.00     0.024 A 
HETATM   24  C11 UNL     1     -22.017 -39.016   8.678  1.00  0.00     0.034 A 
HETATM   25 CL1  UNL     1     -21.397 -38.908   7.037  1.00  0.00    -0.084 Cl
HETATM   26  C12 UNL     1     -21.595 -38.139   9.653  1.00  0.00     0.024 A 
HETATM   27  C13 UNL     1     -22.092 -38.239  10.933  1.00  0.00     0.010 A 
ENDBRANCH  20  21
ENDBRANCH   4  20
TORSDOF 7
ENDMDL
MODEL 3
REMARK VINA RESULT: -7.980629931      1.998      4.672
REMARK  7 active torsions:
REMARK  status: ('A' for Active; 'I' for Inactive)
REMARK    1  A    between atoms: C1_2  and  C2_3 
REMARK       I    between atoms: C1_2  and  N3_23 
REMARK    2  A    between atoms: C2_3  and  N1_4 
REMARK    3  A    between atoms: N1_4  and  C3_6 
REMARK    4  A    between atoms: C3_6  and  C4_7 
REMARK    5  A    between atoms: C4_7  and  O2_8 
REMARK    6  A    between atoms: N2_12  and  C7_13 
REMARK    7  A    between atoms: C7_13  and  C8_14 
ROOT
HETATM    1  C3  UNL     1     -26.200 -39.628  14.636  1.00  0.00     0.054 C 
HETATM    2  C5  UNL     1     -26.915 -40.852  14.106  1.00  0.00     0.063 C 
HETATM    3  C6  UNL     1     -27.035 -40.915  12.628  1.00  0.00     0.275 C 
HETATM    4  N2  UNL     1     -27.571 -39.716  12.009  1.00  0.00     0.092 N 
HETATM    5  C14 UNL     1     -27.956 -38.832  13.102  1.00  0.00     0.275 C 
HETATM    6  C15 UNL     1     -26.692 -38.431  13.800  1.00  0.00     0.063 C 
ENDROOT
BRANCH   1   7
HETATM    7  N1  UNL     1     -24.797 -39.739  14.560  1.00  0.00    -0.383 N 
ATOM      8  H1  UNL     1     -24.318 -40.616  14.766  1.00  0.00     0.160 HD
BRANCH   7   9
HETATM    9  C2  UNL     1     -24.093 -38.588  14.190  1.00  0.00     0.158 C 
BRANCH   9  10
HETATM   10  C1  UNL     1     -22.877 -38.932  13.336  1.00  0.00     0.258 C 
HETATM   11  O1  UNL     1     -21.910 -39.435  13.924  1.00  0.00    -0.267 OA
HETATM   12  N3  UNL     1     -22.969 -38.645  11.966  1.00  0.00    -0.348 N 
HETATM   13  C16 UNL     1     -21.916 -38.900  11.006  1.00  0.00     0.126 C 
HETATM   14  C19 UNL     1     -24.091 -38.060  11.285  1.00  0.00     0.126 C 
HETATM   15  C17 UNL     1     -22.421 -38.366   9.683  1.00  0.00     0.021 C 
HETATM   16  C18 UNL     1     -23.931 -38.378   9.812  1.00  0.00     0.021 C 
ENDBRANCH   9  10
ENDBRANCH   7   9
ENDBRANCH   1   7
BRANCH   1  17
HETATM   17  C4  UNL     1     -26.783 -39.382  16.012  1.00  0.00     0.195 C 
BRANCH  17  18
HETATM   18  O2  UNL     1     -26.927 -38.063  16.339  1.00  0.00    -0.398 OA
ATOM     19  H2  UNL     1     -26.417 -37.786  17.091  1.00  0.00     0.209 HD
ENDBRANCH  17  18
ENDBRANCH   1  17
BRANCH   4  20
HETATM   20  C7  UNL     1     -28.658 -40.011  11.124  1.00  0.00     0.311 C 
BRANCH  20  21
HETATM   21  C8  UNL     1     -28.430 -39.733   9.709  1.00  0.00    -0.030 A 
HETATM   22  C9  UNL     1     -27.214 -40.021   9.126  1.00  0.00     0.010 A 
HETATM   23  C10 UNL     1     -27.003 -39.766   7.799  1.00  0.00     0.024 A 
HETATM   24  C11 UNL     1     -28.023 -39.212   7.036  1.00  0.00     0.034 A 
HETATM   25 CL1  UNL     1     -27.721 -38.895   5.335  1.00  0.00    -0.084 Cl
HETATM   26  C12 UNL     1     -29.242 -38.917   7.605  1.00  0.00     0.024 A 
HETATM   27  C13 UNL     1     -29.461 -39.172   8.941  1.00  0.00     0.010 A 
ENDBRANCH  20  21
ENDBRANCH   4  20
TORSDOF 7
ENDMDL
MODEL 4
REMARK VINA RESULT: -7.875814690      1.894      4.586
REMARK  7 active torsions:
REMARK  status: ('A' for Active; 'I' for Inactive)
REMARK    1  A    between atoms: C1_2  and  C2_3 
REMARK       I    between atoms: C1_2  and  N3_23 
REMARK    2  A    between atoms: C2_3  and  N1_4 
REMARK    3  A    between atoms: N1_4  and  C3_6 
REMARK    4  A    between atoms: C3_6  and  C4_7 
REMARK    5  A    between atoms: C4_7  and  O2_8 
REMARK    6  A    between atoms: N2_12  and  C7_13 
REMARK    7  A    between atoms: C7_13  and  C8_14 
ROOT
HETATM    1  C3  UNL     1     -26.608 -39.724  14.853  1.00  0.00     0.054 C 
HETATM    2  C5  UNL     1     -26.976 -40.962  14.067  1.00  0.00     0.063 C 
HETATM    3  C6  UNL     1     -26.776 -40.854  12.600  1.00  0.00     0.275 C 
HETATM    4  N2  UNL     1     -27.371 -39.678  11.990  1.00  0.00     0.092 N 
HETATM    5  C14 UNL     1     -28.120 -39.008  13.045  1.00  0.00     0.275 C 
HETATM    6  C15 UNL     1     -27.116 -38.516  14.042  1.00  0.00     0.063 C 
ENDROOT
BRANCH   1   7
HETATM    7  N1  UNL     1     -25.221 -39.615  15.085  1.00  0.00    -0.383 N 
ATOM      8  H1  UNL     1     -24.655 -40.426  15.333  1.00  0.00     0.160 HD
BRANCH   7   9
HETATM    9  C2  UNL     1     -24.660 -38.339  14.957  1.00  0.00     0.158 C 
BRANCH   9  10
HETATM   10  C1  UNL     1     -23.189 -38.418  14.564  1.00  0.00     0.258 C 
HETATM   11  O1  UNL     1     -22.363 -38.378  15.487  1.00  0.00    -0.267 OA
HETATM   12  N3  UNL     1     -22.910 -38.527  13.194  1.00  0.00    -0.348 N 
HETATM   13  C16 UNL     1     -21.576 -38.610  12.636  1.00  0.00     0.126 C 
HETATM   14  C19 UNL     1     -23.867 -38.571  12.123  1.00  0.00     0.126 C 
HETATM   15  C17 UNL     1     -21.754 -38.634  11.133  1.00  0.00     0.021 C 
HETATM   16  C18 UNL     1     -23.160 -39.159  10.919  1.00  0.00     0.021 C 
ENDBRANCH   9  10
ENDBRANCH   7   9
ENDBRANCH   1   7
BRANCH   1  17
HETATM   17  C4  UNL     1     -27.495 -39.744  16.080  1.00  0.00     0.195 C 
BRANCH  17  18
HETATM   18  O2  UNL     1     -28.030 -38.532  16.413  1.00  0.00    -0.398 OA
ATOM     19  H2  UNL     1     -28.569 -38.140  15.735  1.00  0.00     0.209 HD
ENDBRANCH  17  18
ENDBRANCH   1  17
BRANCH   4  20
HETATM   20  C7  UNL     1     -28.185 -40.016  10.860  1.00  0.00     0.311 C 
BRANCH  20  21
HETATM   21  C8  UNL     1     -27.587 -39.794   9.547  1.00  0.00    -0.030 A 
HETATM   22  C9  UNL     1     -26.317 -39.269   9.435  1.00  0.00     0.010 A 
HETATM   23  C10 UNL     1     -25.755 -39.067   8.205  1.00  0.00     0.024 A 
HETATM   24  C11 UNL     1     -26.471 -39.395   7.061  1.00  0.00     0.034 A 
HETATM   25 CL1  UNL     1     -25.722 -39.123   5.495  1.00  0.00    -0.084 Cl
HETATM   26  C12 UNL     1     -27.742 -39.919   7.157  1.00  0.00     0.024 A 
HETATM   27  C13 UNL     1     -28.313 -40.125   8.393  1.00  0.00     0.010 A 
ENDBRANCH  20  21
ENDBRANCH   4  20
TORSDOF 7
ENDMDL
MODEL 5
REMARK VINA RESULT: -7.753734578      2.698      5.435
REMARK  7 active torsions:
REMARK  status: ('A' for Active; 'I' for Inactive)
REMARK    1  A    between atoms: C1_2  and  C2_3 
REMARK       I    between atoms: C1_2  and  N3_23 
REMARK    2  A    between atoms: C2_3  and  N1_4 
REMARK    3  A    between atoms: N1_4  and  C3_6 
REMARK    4  A    between atoms: C3_6  and  C4_7 
REMARK    5  A    between atoms: C4_7  and  O2_8 
REMARK    6  A    between atoms: N2_12  and  C7_13 
REMARK    7  A    between atoms: C7_13  and  C8_14 
ROOT
HETATM    1  C3  UNL     1     -26.487 -39.677  14.885  1.00  0.00     0.054 C 
HETATM    2  C5  UNL     1     -26.912 -40.896  14.096  1.00  0.00     0.063 C 
HETATM    3  C6  UNL     1     -26.681 -40.805  12.633  1.00  0.00     0.275 C 
HETATM    4  N2  UNL     1     -27.198 -39.600  12.009  1.00  0.00     0.092 N 
HETATM    5  C14 UNL     1     -27.927 -38.885  13.049  1.00  0.00     0.275 C 
HETATM    6  C15 UNL     1     -26.913 -38.446  14.062  1.00  0.00     0.063 C 
ENDROOT
BRANCH   1   7
HETATM    7  N1  UNL     1     -25.101 -39.646  15.140  1.00  0.00    -0.383 N 
ATOM      8  H1  UNL     1     -24.638 -40.384  15.669  1.00  0.00     0.160 HD
BRANCH   7   9
HETATM    9  C2  UNL     1     -24.392 -38.551  14.630  1.00  0.00     0.158 C 
BRANCH   9  10
HETATM   10  C1  UNL     1     -23.231 -39.004  13.751  1.00  0.00     0.258 C 
HETATM   11  O1  UNL     1     -23.523 -39.460  12.636  1.00  0.00    -0.267 OA
HETATM   12  N3  UNL     1     -21.944 -38.861  14.288  1.00  0.00    -0.348 N 
HETATM   13  C16 UNL     1     -20.726 -39.238  13.601  1.00  0.00     0.126 C 
HETATM   14  C19 UNL     1     -21.606 -38.333  15.582  1.00  0.00     0.126 C 
HETATM   15  C17 UNL     1     -19.600 -38.983  14.579  1.00  0.00     0.021 C 
HETATM   16  C18 UNL     1     -20.145 -37.936  15.531  1.00  0.00     0.021 C 
ENDBRANCH   9  10
ENDBRANCH   7   9
ENDBRANCH   1   7
BRANCH   1  17
HETATM   17  C4  UNL     1     -27.395 -39.643  16.097  1.00  0.00     0.195 C 
BRANCH  17  18
HETATM   18  O2  UNL     1     -27.917 -38.412  16.380  1.00  0.00    -0.398 OA
ATOM     19  H2  UNL     1     -27.604 -38.028  17.191  1.00  0.00     0.209 HD
ENDBRANCH  17  18
ENDBRANCH   1  17
BRANCH   4  20
HETATM   20  C7  UNL     1     -28.011 -39.896  10.867  1.00  0.00     0.311 C 
BRANCH  20  21
HETATM   21  C8  UNL     1     -27.379 -39.714   9.563  1.00  0.00    -0.030 A 
HETATM   22  C9  UNL     1     -26.091 -39.230   9.471  1.00  0.00     0.010 A 
HETATM   23  C10 UNL     1     -25.498 -39.066   8.249  1.00  0.00     0.024 A 
HETATM   24  C11 UNL     1     -26.200 -39.390   7.096  1.00  0.00     0.034 A 
HETATM   25 CL1  UNL     1     -25.411 -39.168   5.542  1.00  0.00    -0.084 Cl
HETATM   26  C12 UNL     1     -27.488 -39.874   7.173  1.00  0.00     0.024 A 
HETATM   27  C13 UNL     1     -28.091 -40.042   8.399  1.00  0.00     0.010 A 
ENDBRANCH  20  21
ENDBRANCH   4  20
TORSDOF 7
ENDMDL
