MODEL 1
REMARK VINA RESULT: -6.233932579      0.000      0.000
REMARK  5 active torsions:
REMARK  status: ('A' for Active; 'I' for Inactive)
REMARK    1  A    between atoms: O1_2  and  C2_3 
REMARK    2  A    between atoms: C2_3  and  C3_4 
REMARK    3  A    between atoms: C3_4  and  N1_5 
REMARK    4  A    between atoms: N3_19  and  C15_20 
REMARK    5  A    between atoms: C15_20  and  C16_21 
ROOT
HETATM    1  N1  UNL     1       4.052  -5.636  16.447  1.00  0.00     0.093 N 
HETATM    2  C4  UNL     1       2.920  -5.898  15.623  1.00  0.00     0.275 C 
HETATM    3  C5  UNL     1       1.957  -4.821  15.943  1.00  0.00     0.062 C 
HETATM    4  C6  UNL     1       2.120  -4.616  17.421  1.00  0.00     0.054 C 
HETATM    5  C7  UNL     1       3.660  -4.764  17.505  1.00  0.00     0.302 C 
HETATM    6  C8  UNL     1       1.588  -5.622  18.321  1.00  0.00     0.042 C 
HETATM    7  C9  UNL     1       0.215  -5.473  18.920  1.00  0.00    -0.029 C 
HETATM    8  C10 UNL     1       0.064  -4.031  19.363  1.00  0.00     0.011 C 
HETATM    9  C11 UNL     1       1.260  -3.410  19.962  1.00  0.00     0.020 C 
HETATM   10  C12 UNL     1       2.197  -2.766  18.973  1.00  0.00     0.114 C 
HETATM   11  N2  UNL     1       1.872  -3.245  17.685  1.00  0.00    -0.411 N 
ATOM     12  H2  UNL     1       1.475  -2.631  16.974  1.00  0.00     0.154 HD
HETATM   13  C13 UNL     1      -0.787  -5.783  17.867  1.00  0.00     0.054 C 
HETATM   14  C14 UNL     1      -1.941  -6.687  18.276  1.00  0.00     0.067 C 
HETATM   15  N3  UNL     1      -1.567  -7.644  19.239  1.00  0.00    -0.341 N 
HETATM   16  C20 UNL     1      -1.056  -7.083  20.449  1.00  0.00     0.141 C 
HETATM   17  C21 UNL     1      -2.093  -6.200  21.107  1.00  0.00     0.072 C 
HETATM   18  C22 UNL     1      -3.211  -6.973  21.769  1.00  0.00     0.081 C 
HETATM   19  S1  UNL     1      -2.408  -7.842  23.179  1.00  0.00    -0.143 SA
HETATM   20  C23 UNL     1      -0.649  -7.865  22.619  1.00  0.00     0.244 C 
HETATM   21  O2  UNL     1      -0.718  -8.140  21.283  1.00  0.00    -0.351 OA
HETATM   22  C24 UNL     1       0.201  -6.337  20.137  1.00  0.00     0.071 C 
ENDROOT
BRANCH  15  23
HETATM   23  C15 UNL     1      -1.252  -8.951  18.902  1.00  0.00     0.074 C 
BRANCH  23  24
HETATM   24  C16 UNL     1      -2.274  -9.953  18.553  1.00  0.00    -0.019 C 
HETATM   25  C17 UNL     1      -2.854  -9.847  17.186  1.00  0.00     0.020 C 
HETATM   26  C18 UNL     1      -1.494 -11.322  18.604  1.00  0.00     0.020 C 
HETATM   27  C19 UNL     1      -3.352 -10.156  19.603  1.00  0.00     0.020 C 
ENDBRANCH  23  24
ENDBRANCH  15  23
BRANCH   1  28
HETATM   28  C3  UNL     1       5.260  -5.263  15.757  1.00  0.00     0.298 C 
BRANCH  28  29
HETATM   29  C2  UNL     1       5.229  -5.378  14.280  1.00  0.00     0.197 C 
BRANCH  29  30
HETATM   30  O1  UNL     1       6.109  -6.367  13.868  1.00  0.00    -0.394 OA
HETATM   31  C1  UNL     1       6.970  -5.994  12.859  1.00  0.00     0.201 C 
ENDBRANCH  29  30
ENDBRANCH  28  29
ENDBRANCH   1  28
TORSDOF 5
ENDMDL
MODEL 2
REMARK VINA RESULT: -6.223464881      1.891      2.151
REMARK  5 active torsions:
REMARK  status: ('A' for Active; 'I' for Inactive)
REMARK    1  A    between atoms: O1_2  and  C2_3 
REMARK    2  A    between atoms: C2_3  and  C3_4 
REMARK    3  A    between atoms: C3_4  and  N1_5 
REMARK    4  A    between atoms: N3_19  and  C15_20 
REMARK    5  A    between atoms: C15_20  and  C16_21 
ROOT
HETATM    1  N1  UNL     1       3.179  -6.222  13.939  1.00  0.00     0.093 N 
HETATM    2  C4  UNL     1       1.793  -6.386  13.657  1.00  0.00     0.275 C 
HETATM    3  C5  UNL     1       1.146  -5.168  14.196  1.00  0.00     0.062 C 
HETATM    4  C6  UNL     1       1.906  -4.884  15.459  1.00  0.00     0.054 C 
HETATM    5  C7  UNL     1       3.330  -5.233  14.955  1.00  0.00     0.302 C 
HETATM    6  C8  UNL     1       1.685  -5.742  16.607  1.00  0.00     0.042 C 
HETATM    7  C9  UNL     1       0.686  -5.366  17.670  1.00  0.00    -0.029 C 
HETATM    8  C10 UNL     1       0.865  -3.890  17.963  1.00  0.00     0.011 C 
HETATM    9  C11 UNL     1       2.255  -3.396  17.972  1.00  0.00     0.020 C 
HETATM   10  C12 UNL     1       2.775  -2.956  16.628  1.00  0.00     0.114 C 
HETATM   11  N2  UNL     1       1.918  -3.476  15.634  1.00  0.00    -0.411 N 
ATOM     12  H2  UNL     1       1.332  -2.866  15.066  1.00  0.00     0.154 HD
HETATM   13  C13 UNL     1      -0.678  -5.612  17.133  1.00  0.00     0.054 C 
HETATM   14  C14 UNL     1      -1.654  -6.320  18.063  1.00  0.00     0.067 C 
HETATM   15  N3  UNL     1      -1.020  -7.249  18.911  1.00  0.00    -0.341 N 
HETATM   16  C20 UNL     1      -0.016  -6.678  19.752  1.00  0.00     0.141 C 
HETATM   17  C21 UNL     1      -0.613  -5.618  20.651  1.00  0.00     0.072 C 
HETATM   18  C22 UNL     1      -1.442  -6.184  21.782  1.00  0.00     0.081 C 
HETATM   19  S1  UNL     1      -0.230  -7.052  22.861  1.00  0.00    -0.143 SA
HETATM   20  C23 UNL     1       1.147  -7.353  21.669  1.00  0.00     0.244 C 
HETATM   21  O2  UNL     1       0.523  -7.709  20.508  1.00  0.00    -0.351 OA
HETATM   22  C24 UNL     1       1.077  -6.133  18.890  1.00  0.00     0.071 C 
ENDROOT
BRANCH  15  23
HETATM   23  C15 UNL     1      -0.993  -8.607  18.635  1.00  0.00     0.074 C 
BRANCH  23  24
HETATM   24  C16 UNL     1      -2.213  -9.429  18.561  1.00  0.00    -0.019 C 
HETATM   25  C17 UNL     1      -2.993  -9.330  17.296  1.00  0.00     0.020 C 
HETATM   26  C18 UNL     1      -1.677 -10.909  18.642  1.00  0.00     0.020 C 
HETATM   27  C19 UNL     1      -3.114  -9.344  19.781  1.00  0.00     0.020 C 
ENDBRANCH  23  24
ENDBRANCH  15  23
BRANCH   1  28
HETATM   28  C3  UNL     1       4.040  -6.066  12.795  1.00  0.00     0.298 C 
BRANCH  28  29
HETATM   29  C2  UNL     1       3.558  -6.666  11.529  1.00  0.00     0.197 C 
BRANCH  29  30
HETATM   30  O1  UNL     1       4.004  -7.975  11.430  1.00  0.00    -0.394 OA
HETATM   31  C1  UNL     1       3.040  -8.891  11.068  1.00  0.00     0.201 C 
ENDBRANCH  29  30
ENDBRANCH  28  29
ENDBRANCH   1  28
TORSDOF 5
ENDMDL
MODEL 3
REMARK VINA RESULT: -6.143658696      1.311      1.596
REMARK  5 active torsions:
REMARK  status: ('A' for Active; 'I' for Inactive)
REMARK    1  A    between atoms: O1_2  and  C2_3 
REMARK    2  A    between atoms: C2_3  and  C3_4 
REMARK    3  A    between atoms: C3_4  and  N1_5 
REMARK    4  A    between atoms: N3_19  and  C15_20 
REMARK    5  A    between atoms: C15_20  and  C16_21 
ROOT
HETATM    1  N1  UNL     1       3.693  -5.248  16.980  1.00  0.00     0.093 N 
HETATM    2  C4  UNL     1       2.622  -5.566  16.097  1.00  0.00     0.275 C 
HETATM    3  C5  UNL     1       1.561  -4.583  16.414  1.00  0.00     0.062 C 
HETATM    4  C6  UNL     1       1.646  -4.428  17.905  1.00  0.00     0.054 C 
HETATM    5  C7  UNL     1       3.189  -4.455  18.052  1.00  0.00     0.302 C 
HETATM    6  C8  UNL     1       1.162  -5.509  18.742  1.00  0.00     0.042 C 
HETATM    7  C9  UNL     1      -0.243  -5.495  19.283  1.00  0.00    -0.029 C 
HETATM    8  C10 UNL     1      -0.529  -4.090  19.775  1.00  0.00     0.011 C 
HETATM    9  C11 UNL     1       0.587  -3.401  20.450  1.00  0.00     0.020 C 
HETATM   10  C12 UNL     1       1.507  -2.643  19.528  1.00  0.00     0.114 C 
HETATM   11  N2  UNL     1       1.276  -3.093  18.210  1.00  0.00    -0.411 N 
ATOM     12  H2  UNL     1       0.861  -2.483  17.506  1.00  0.00     0.154 HD
HETATM   13  C13 UNL     1      -1.171  -5.841  18.176  1.00  0.00     0.054 C 
HETATM   14  C14 UNL     1      -2.264  -6.850  18.499  1.00  0.00     0.067 C 
HETATM   15  N3  UNL     1      -1.853  -7.814  19.440  1.00  0.00    -0.341 N 
HETATM   16  C20 UNL     1      -1.440  -7.265  20.693  1.00  0.00     0.141 C 
HETATM   17  C21 UNL     1      -2.572  -6.495  21.337  1.00  0.00     0.072 C 
HETATM   18  C22 UNL     1      -3.649  -7.382  21.918  1.00  0.00     0.081 C 
HETATM   19  S1  UNL     1      -2.836  -8.242  23.328  1.00  0.00    -0.143 SA
HETATM   20  C23 UNL     1      -1.060  -8.101  22.847  1.00  0.00     0.244 C 
HETATM   21  O2  UNL     1      -1.052  -8.325  21.499  1.00  0.00    -0.351 OA
HETATM   22  C24 UNL     1      -0.236  -6.408  20.465  1.00  0.00     0.071 C 
ENDROOT
BRANCH  15  23
HETATM   23  C15 UNL     1      -1.418  -9.076  19.068  1.00  0.00     0.074 C 
BRANCH  23  24
HETATM   24  C16 UNL     1      -2.334 -10.125  18.588  1.00  0.00    -0.019 C 
HETATM   25  C17 UNL     1      -2.841  -9.966  17.198  1.00  0.00     0.020 C 
HETATM   26  C18 UNL     1      -1.452 -11.431  18.597  1.00  0.00     0.020 C 
HETATM   27  C19 UNL     1      -3.453 -10.484  19.553  1.00  0.00     0.020 C 
ENDBRANCH  23  24
ENDBRANCH  15  23
BRANCH   1  28
HETATM   28  C3  UNL     1       4.894  -4.751  16.359  1.00  0.00     0.298 C 
BRANCH  28  29
HETATM   29  C2  UNL     1       5.557  -3.613  17.036  1.00  0.00     0.197 C 
BRANCH  29  30
HETATM   30  O1  UNL     1       6.824  -3.988  17.454  1.00  0.00    -0.394 OA
HETATM   31  C1  UNL     1       6.892  -4.475  18.741  1.00  0.00     0.201 C 
ENDBRANCH  29  30
ENDBRANCH  28  29
ENDBRANCH   1  28
TORSDOF 5
ENDMDL
MODEL 4
REMARK VINA RESULT: -5.948772258      4.526      7.077
REMARK  5 active torsions:
REMARK  status: ('A' for Active; 'I' for Inactive)
REMARK    1  A    between atoms: O1_2  and  C2_3 
REMARK    2  A    between atoms: C2_3  and  C3_4 
REMARK    3  A    between atoms: C3_4  and  N1_5 
REMARK    4  A    between atoms: N3_19  and  C15_20 
REMARK    5  A    between atoms: C15_20  and  C16_21 
ROOT
HETATM    1  N1  UNL     1      -2.042  -7.965  18.173  1.00  0.00     0.093 N 
HETATM    2  C4  UNL     1      -0.953  -7.080  18.409  1.00  0.00     0.275 C 
HETATM    3  C5  UNL     1      -0.597  -7.281  19.832  1.00  0.00     0.062 C 
HETATM    4  C6  UNL     1      -1.922  -7.477  20.512  1.00  0.00     0.054 C 
HETATM    5  C7  UNL     1      -2.612  -8.341  19.425  1.00  0.00     0.302 C 
HETATM    6  C8  UNL     1      -2.784  -6.325  20.691  1.00  0.00     0.042 C 
HETATM    7  C9  UNL     1      -2.763  -5.539  21.975  1.00  0.00    -0.029 C 
HETATM    8  C10 UNL     1      -2.728  -6.534  23.119  1.00  0.00     0.011 C 
HETATM    9  C11 UNL     1      -3.549  -7.746  22.947  1.00  0.00     0.020 C 
HETATM   10  C12 UNL     1      -2.853  -8.882  22.243  1.00  0.00     0.114 C 
HETATM   11  N2  UNL     1      -1.709  -8.364  21.599  1.00  0.00    -0.411 N 
ATOM     12  H2  UNL     1      -0.768  -8.616  21.902  1.00  0.00     0.154 HD
HETATM   13  C13 UNL     1      -1.531  -4.709  21.992  1.00  0.00     0.054 C 
HETATM   14  C14 UNL     1      -1.696  -3.260  22.428  1.00  0.00     0.067 C 
HETATM   15  N3  UNL     1      -2.941  -2.718  22.054  1.00  0.00    -0.341 N 
HETATM   16  C20 UNL     1      -4.065  -3.422  22.585  1.00  0.00     0.141 C 
HETATM   17  C21 UNL     1      -4.033  -3.413  24.098  1.00  0.00     0.072 C 
HETATM   18  C22 UNL     1      -4.404  -2.077  24.700  1.00  0.00     0.081 C 
HETATM   19  S1  UNL     1      -6.185  -1.857  24.291  1.00  0.00    -0.143 SA
HETATM   20  C23 UNL     1      -6.352  -2.983  22.838  1.00  0.00     0.244 C 
HETATM   21  O2  UNL     1      -5.207  -2.787  22.119  1.00  0.00    -0.351 OA
HETATM   22  C24 UNL     1      -4.066  -4.811  22.031  1.00  0.00     0.071 C 
ENDROOT
BRANCH  15  23
HETATM   23  C15 UNL     1      -3.098  -1.928  20.926  1.00  0.00     0.074 C 
BRANCH  23  24
HETATM   24  C16 UNL     1      -2.234  -2.052  19.740  1.00  0.00    -0.019 C 
HETATM   25  C17 UNL     1      -2.296  -3.352  19.017  1.00  0.00     0.020 C 
HETATM   26  C18 UNL     1      -2.792  -0.961  18.749  1.00  0.00     0.020 C 
HETATM   27  C19 UNL     1      -0.799  -1.597  19.947  1.00  0.00     0.020 C 
ENDBRANCH  23  24
ENDBRANCH  15  23
BRANCH   1  28
HETATM   28  C3  UNL     1      -1.784  -9.052  17.264  1.00  0.00     0.298 C 
BRANCH  28  29
HETATM   29  C2  UNL     1      -1.709 -10.403  17.866  1.00  0.00     0.197 C 
BRANCH  29  30
HETATM   30  O1  UNL     1      -1.742 -11.365  16.868  1.00  0.00    -0.394 OA
HETATM   31  C1  UNL     1      -2.220 -10.925  15.653  1.00  0.00     0.201 C 
ENDBRANCH  29  30
ENDBRANCH  28  29
ENDBRANCH   1  28
TORSDOF 5
ENDMDL
MODEL 5
REMARK VINA RESULT: -5.947468115      4.944      7.476
REMARK  5 active torsions:
REMARK  status: ('A' for Active; 'I' for Inactive)
REMARK    1  A    between atoms: O1_2  and  C2_3 
REMARK    2  A    between atoms: C2_3  and  C3_4 
REMARK    3  A    between atoms: C3_4  and  N1_5 
REMARK    4  A    between atoms: N3_19  and  C15_20 
REMARK    5  A    between atoms: C15_20  and  C16_21 
ROOT
HETATM    1  N1  UNL     1      -2.711  -8.906  18.829  1.00  0.00     0.093 N 
HETATM    2  C4  UNL     1      -1.503  -8.171  18.658  1.00  0.00     0.275 C 
HETATM    3  C5  UNL     1      -0.904  -8.100  20.010  1.00  0.00     0.062 C 
HETATM    4  C6  UNL     1      -2.085  -7.929  20.921  1.00  0.00     0.054 C 
HETATM    5  C7  UNL     1      -3.065  -8.897  20.210  1.00  0.00     0.302 C 
HETATM    6  C8  UNL     1      -2.761  -6.647  20.944  1.00  0.00     0.042 C 
HETATM    7  C9  UNL     1      -2.403  -5.605  21.970  1.00  0.00    -0.029 C 
HETATM    8  C10 UNL     1      -2.259  -6.309  23.305  1.00  0.00     0.011 C 
HETATM    9  C11 UNL     1      -3.229  -7.386  23.576  1.00  0.00     0.020 C 
HETATM   10  C12 UNL     1      -2.814  -8.746  23.074  1.00  0.00     0.114 C 
HETATM   11  N2  UNL     1      -1.766  -8.570  22.146  1.00  0.00    -0.411 N 
ATOM     12  H2  UNL     1      -0.819  -8.891  22.346  1.00  0.00     0.154 HD
HETATM   13  C13 UNL     1      -1.106  -4.994  21.580  1.00  0.00     0.054 C 
HETATM   14  C14 UNL     1      -1.019  -3.477  21.662  1.00  0.00     0.067 C 
HETATM   15  N3  UNL     1      -2.244  -2.846  21.370  1.00  0.00    -0.341 N 
HETATM   16  C20 UNL     1      -3.316  -3.228  22.234  1.00  0.00     0.141 C 
HETATM   17  C21 UNL     1      -2.991  -2.884  23.672  1.00  0.00     0.072 C 
HETATM   18  C22 UNL     1      -3.085  -1.405  23.973  1.00  0.00     0.081 C 
HETATM   19  S1  UNL     1      -4.875  -1.009  23.814  1.00  0.00    -0.143 SA
HETATM   20  C23 UNL     1      -5.446  -2.393  22.735  1.00  0.00     0.244 C 
HETATM   21  O2  UNL     1      -4.448  -2.544  21.815  1.00  0.00    -0.351 OA
HETATM   22  C24 UNL     1      -3.580  -4.689  22.052  1.00  0.00     0.071 C 
ENDROOT
BRANCH  15  23
HETATM   23  C15 UNL     1      -2.527  -2.315  20.122  1.00  0.00     0.074 C 
BRANCH  23  24
HETATM   24  C16 UNL     1      -2.064  -0.982  19.699  1.00  0.00    -0.019 C 
HETATM   25  C17 UNL     1      -0.665  -0.903  19.198  1.00  0.00     0.020 C 
HETATM   26  C18 UNL     1      -2.998  -0.627  18.480  1.00  0.00     0.020 C 
HETATM   27  C19 UNL     1      -2.370   0.138  20.679  1.00  0.00     0.020 C 
ENDBRANCH  23  24
ENDBRANCH  15  23
BRANCH   1  28
HETATM   28  C3  UNL     1      -2.757 -10.197  18.190  1.00  0.00     0.298 C 
BRANCH  28  29
HETATM   29  C2  UNL     1      -1.825 -10.397  17.057  1.00  0.00     0.197 C 
BRANCH  29  30
HETATM   30  O1  UNL     1      -1.787 -11.740  16.713  1.00  0.00    -0.394 OA
HETATM   31  C1  UNL     1      -1.725 -12.611  17.778  1.00  0.00     0.201 C 
ENDBRANCH  29  30
ENDBRANCH  28  29
ENDBRANCH   1  28
TORSDOF 5
ENDMDL
