MODEL 1
REMARK VINA RESULT: -8.427090598      0.000      0.000
REMARK  6 active torsions:
REMARK  status: ('A' for Active; 'I' for Inactive)
REMARK    1  A    between atoms: C4_4  and  C5_5 
REMARK    2  A    between atoms: C5_5  and  C6_6 
REMARK    3  A    between atoms: C8_10  and  O3_11 
REMARK    4  A    between atoms: O3_11  and  C9_12 
REMARK    5  A    between atoms: C9_12  and  C10_14 
REMARK    6  A    between atoms: C10_14  and  C11_15 
ROOT
HETATM    1  C1  UNL     1      -5.195 -10.136  25.280  1.00  0.00     0.018 C 
HETATM    2  C2  UNL     1      -4.848 -10.190  24.121  1.00  0.00    -0.074 C 
HETATM    3  C3  UNL     1      -4.443 -10.231  22.747  1.00  0.00     0.058 A 
HETATM    4  C4  UNL     1      -4.736 -11.361  21.985  1.00  0.00    -0.024 A 
HETATM    5  C7  UNL     1      -4.346 -11.410  20.652  1.00  0.00     0.047 A 
HETATM    6  C8  UNL     1      -3.672 -10.345  20.083  1.00  0.00     0.096 A 
HETATM    7  C14 UNL     1      -3.375  -9.222  20.827  1.00  0.00     0.079 A 
HETATM    8  C15 UNL     1      -3.771  -9.204  22.131  1.00  0.00     0.105 A 
HETATM    9  O5  UNL     1      -3.560  -8.163  23.029  1.00  0.00    -0.338 OA
HETATM   10  C16 UNL     1      -2.870  -6.947  22.908  1.00  0.00     0.069 C 
HETATM   11  C17 UNL     1      -2.341  -6.665  24.321  1.00  0.00     0.047 C 
HETATM   12  C18 UNL     1      -3.904  -5.870  22.655  1.00  0.00     0.047 C 
HETATM   13  C19 UNL     1      -1.718  -6.904  22.005  1.00  0.00     0.062 C 
HETATM   14  C20 UNL     1      -1.176  -5.512  22.048  1.00  0.00    -0.008 C 
HETATM   15  C21 UNL     1      -1.450  -4.877  20.904  1.00  0.00    -0.019 C 
HETATM   16  C22 UNL     1      -1.068  -3.465  20.573  1.00  0.00     0.052 C 
HETATM   17  C23 UNL     1      -2.179  -5.787  20.030  1.00  0.00     0.167 C 
HETATM   18  O6  UNL     1      -2.906  -5.527  19.060  1.00  0.00    -0.292 OA
HETATM   19  C24 UNL     1      -1.848  -7.127  20.575  1.00  0.00     0.145 C 
HETATM   20  C25 UNL     1      -2.683  -8.200  20.085  1.00  0.00     0.177 C 
HETATM   21  O7  UNL     1      -2.826  -8.249  18.828  1.00  0.00    -0.291 OA
ENDROOT
BRANCH   4  22
HETATM   22  C5  UNL     1      -5.451 -12.476  22.608  1.00  0.00     0.153 C 
BRANCH  22  23
HETATM   23  C6  UNL     1      -6.601 -12.969  21.824  1.00  0.00     0.176 C 
HETATM   24  O1  UNL     1      -7.564 -12.243  21.451  1.00  0.00    -0.648 OA
HETATM   25  O2  UNL     1      -6.623 -14.309  21.478  1.00  0.00    -0.648 OA
ENDBRANCH  22  23
ENDBRANCH   4  22
BRANCH   6  26
HETATM   26  O3  UNL     1      -3.293 -10.427  18.739  1.00  0.00    -0.278 OA
BRANCH  26  27
HETATM   27  C9  UNL     1      -2.477 -11.459  18.313  1.00  0.00     0.264 C 
HETATM   28  O4  UNL     1      -1.361 -11.607  18.842  1.00  0.00    -0.265 OA
BRANCH  27  29
HETATM   29  C10 UNL     1      -2.952 -12.357  17.246  1.00  0.00     0.115 C 
BRANCH  29  30
HETATM   30  C11 UNL     1      -3.660 -11.518  16.195  1.00  0.00    -0.013 C 
HETATM   31  C12 UNL     1      -4.742 -12.384  15.580  1.00  0.00     0.010 C 
HETATM   32  C13 UNL     1      -2.658 -11.076  15.121  1.00  0.00     0.010 C 
ENDBRANCH  29  30
ENDBRANCH  27  29
ENDBRANCH  26  27
ENDBRANCH   6  26
TORSDOF 6
ENDMDL
MODEL 2
REMARK VINA RESULT: -8.407857312      1.915      2.658
REMARK  6 active torsions:
REMARK  status: ('A' for Active; 'I' for Inactive)
REMARK    1  A    between atoms: C4_4  and  C5_5 
REMARK    2  A    between atoms: C5_5  and  C6_6 
REMARK    3  A    between atoms: C8_10  and  O3_11 
REMARK    4  A    between atoms: O3_11  and  C9_12 
REMARK    5  A    between atoms: C9_12  and  C10_14 
REMARK    6  A    between atoms: C10_14  and  C11_15 
ROOT
HETATM    1  C1  UNL     1      -3.439  -7.965  23.906  1.00  0.00     0.018 C 
HETATM    2  C2  UNL     1      -3.208  -8.232  22.748  1.00  0.00    -0.074 C 
HETATM    3  C3  UNL     1      -2.936  -8.526  21.372  1.00  0.00     0.058 A 
HETATM    4  C4  UNL     1      -3.538  -9.636  20.781  1.00  0.00    -0.024 A 
HETATM    5  C7  UNL     1      -3.279  -9.929  19.447  1.00  0.00     0.047 A 
HETATM    6  C8  UNL     1      -2.429  -9.124  18.710  1.00  0.00     0.096 A 
HETATM    7  C14 UNL     1      -1.827  -8.024  19.283  1.00  0.00     0.079 A 
HETATM    8  C15 UNL     1      -2.101  -7.763  20.593  1.00  0.00     0.105 A 
HETATM    9  O5  UNL     1      -1.588  -6.704  21.334  1.00  0.00    -0.338 OA
HETATM   10  C16 UNL     1      -0.653  -5.707  21.019  1.00  0.00     0.069 C 
HETATM   11  C17 UNL     1       0.039  -5.395  22.353  1.00  0.00     0.047 C 
HETATM   12  C18 UNL     1      -1.433  -4.453  20.681  1.00  0.00     0.047 C 
HETATM   13  C19 UNL     1       0.402  -6.039  20.059  1.00  0.00     0.062 C 
HETATM   14  C20 UNL     1       1.247  -4.818  19.891  1.00  0.00    -0.008 C 
HETATM   15  C21 UNL     1       1.032  -4.273  18.689  1.00  0.00    -0.019 C 
HETATM   16  C22 UNL     1       1.695  -3.039  18.156  1.00  0.00     0.052 C 
HETATM   17  C23 UNL     1       0.047  -5.082  17.981  1.00  0.00     0.167 C 
HETATM   18  O6  UNL     1      -0.678  -4.773  17.025  1.00  0.00    -0.292 OA
HETATM   19  C24 UNL     1       0.109  -6.390  18.680  1.00  0.00     0.145 C 
HETATM   20  C25 UNL     1      -0.983  -7.286  18.379  1.00  0.00     0.177 C 
HETATM   21  O7  UNL     1      -1.235  -7.445  17.148  1.00  0.00    -0.291 OA
ENDROOT
BRANCH   4  22
HETATM   22  C5  UNL     1      -4.434 -10.472  21.581  1.00  0.00     0.153 C 
BRANCH  22  23
HETATM   23  C6  UNL     1      -5.173 -11.483  20.800  1.00  0.00     0.176 C 
HETATM   24  O1  UNL     1      -4.725 -12.037  19.759  1.00  0.00    -0.648 OA
HETATM   25  O2  UNL     1      -6.436 -11.844  21.238  1.00  0.00    -0.648 OA
ENDBRANCH  22  23
ENDBRANCH   4  22
BRANCH   6  26
HETATM   26  O3  UNL     1      -2.189  -9.448  17.370  1.00  0.00    -0.278 OA
BRANCH  26  27
HETATM   27  C9  UNL     1      -1.934 -10.759  17.011  1.00  0.00     0.264 C 
HETATM   28  O4  UNL     1      -1.333 -11.501  17.810  1.00  0.00    -0.265 OA
BRANCH  27  29
HETATM   29  C10 UNL     1      -2.382 -11.244  15.694  1.00  0.00     0.115 C 
BRANCH  29  30
HETATM   30  C11 UNL     1      -3.901 -11.271  15.687  1.00  0.00    -0.013 C 
HETATM   31  C12 UNL     1      -4.327 -12.696  15.988  1.00  0.00     0.010 C 
HETATM   32  C13 UNL     1      -4.423 -10.840  14.311  1.00  0.00     0.010 C 
ENDBRANCH  29  30
ENDBRANCH  27  29
ENDBRANCH  26  27
ENDBRANCH   6  26
TORSDOF 6
ENDMDL
MODEL 3
REMARK VINA RESULT: -8.060408582      2.739      5.202
REMARK  6 active torsions:
REMARK  status: ('A' for Active; 'I' for Inactive)
REMARK    1  A    between atoms: C4_4  and  C5_5 
REMARK    2  A    between atoms: C5_5  and  C6_6 
REMARK    3  A    between atoms: C8_10  and  O3_11 
REMARK    4  A    between atoms: O3_11  and  C9_12 
REMARK    5  A    between atoms: C9_12  and  C10_14 
REMARK    6  A    between atoms: C10_14  and  C11_15 
ROOT
HETATM    1  C1  UNL     1      -4.546 -11.574  20.190  1.00  0.00     0.018 C 
HETATM    2  C2  UNL     1      -3.778 -10.696  19.867  1.00  0.00    -0.074 C 
HETATM    3  C3  UNL     1      -2.879  -9.642  19.499  1.00  0.00     0.058 A 
HETATM    4  C4  UNL     1      -2.517  -9.493  18.161  1.00  0.00    -0.024 A 
HETATM    5  C7  UNL     1      -1.645  -8.474  17.795  1.00  0.00     0.047 A 
HETATM    6  C8  UNL     1      -1.139  -7.613  18.751  1.00  0.00     0.096 A 
HETATM    7  C14 UNL     1      -1.489  -7.750  20.078  1.00  0.00     0.079 A 
HETATM    8  C15 UNL     1      -2.346  -8.759  20.406  1.00  0.00     0.105 A 
HETATM    9  O5  UNL     1      -2.807  -9.049  21.685  1.00  0.00    -0.338 OA
HETATM   10  C16 UNL     1      -2.504  -8.495  22.938  1.00  0.00     0.069 C 
HETATM   11  C17 UNL     1      -2.668  -9.661  23.923  1.00  0.00     0.047 C 
HETATM   12  C18 UNL     1      -3.621  -7.532  23.283  1.00  0.00     0.047 C 
HETATM   13  C19 UNL     1      -1.158  -7.955  23.137  1.00  0.00     0.062 C 
HETATM   14  C20 UNL     1      -1.097  -7.421  24.531  1.00  0.00    -0.008 C 
HETATM   15  C21 UNL     1      -1.077  -6.084  24.510  1.00  0.00    -0.019 C 
HETATM   16  C22 UNL     1      -1.018  -5.191  25.713  1.00  0.00     0.052 C 
HETATM   17  C23 UNL     1      -1.117  -5.640  23.123  1.00  0.00     0.167 C 
HETATM   18  O6  UNL     1      -1.453  -4.539  22.662  1.00  0.00    -0.292 OA
HETATM   19  C24 UNL     1      -0.654  -6.830  22.367  1.00  0.00     0.145 C 
HETATM   20  C25 UNL     1      -0.888  -6.768  20.943  1.00  0.00     0.177 C 
HETATM   21  O7  UNL     1      -0.513  -5.700  20.374  1.00  0.00    -0.291 OA
ENDROOT
BRANCH   4  22
HETATM   22  C5  UNL     1      -3.065 -10.416  17.166  1.00  0.00     0.153 C 
BRANCH  22  23
HETATM   23  C6  UNL     1      -2.093 -11.404  16.659  1.00  0.00     0.176 C 
HETATM   24  O1  UNL     1      -1.457 -12.209  17.394  1.00  0.00    -0.648 OA
HETATM   25  O2  UNL     1      -1.866 -11.448  15.294  1.00  0.00    -0.648 OA
ENDBRANCH  22  23
ENDBRANCH   4  22
BRANCH   6  26
HETATM   26  O3  UNL     1      -0.264  -6.599  18.349  1.00  0.00    -0.278 OA
BRANCH  26  27
HETATM   27  C9  UNL     1      -0.559  -5.831  17.237  1.00  0.00     0.264 C 
HETATM   28  O4  UNL     1      -1.522  -5.044  17.283  1.00  0.00    -0.265 OA
BRANCH  27  29
HETATM   29  C10 UNL     1       0.274  -5.965  16.029  1.00  0.00     0.115 C 
BRANCH  29  30
HETATM   30  C11 UNL     1       1.423  -4.976  16.131  1.00  0.00    -0.013 C 
HETATM   31  C12 UNL     1       1.682  -4.442  14.735  1.00  0.00     0.010 C 
HETATM   32  C13 UNL     1       2.673  -5.685  16.669  1.00  0.00     0.010 C 
ENDBRANCH  29  30
ENDBRANCH  27  29
ENDBRANCH  26  27
ENDBRANCH   6  26
TORSDOF 6
ENDMDL
MODEL 4
REMARK VINA RESULT: -7.878945754      2.085      3.250
REMARK  6 active torsions:
REMARK  status: ('A' for Active; 'I' for Inactive)
REMARK    1  A    between atoms: C4_4  and  C5_5 
REMARK    2  A    between atoms: C5_5  and  C6_6 
REMARK    3  A    between atoms: C8_10  and  O3_11 
REMARK    4  A    between atoms: O3_11  and  C9_12 
REMARK    5  A    between atoms: C9_12  and  C10_14 
REMARK    6  A    between atoms: C10_14  and  C11_15 
ROOT
HETATM    1  C1  UNL     1      -2.750  -6.080  24.288  1.00  0.00     0.018 C 
HETATM    2  C2  UNL     1      -2.744  -6.681  23.238  1.00  0.00    -0.074 C 
HETATM    3  C3  UNL     1      -2.734  -7.372  21.982  1.00  0.00     0.058 A 
HETATM    4  C4  UNL     1      -3.573  -8.471  21.804  1.00  0.00    -0.024 A 
HETATM    5  C7  UNL     1      -3.569  -9.148  20.590  1.00  0.00     0.047 A 
HETATM    6  C8  UNL     1      -2.739  -8.734  19.563  1.00  0.00     0.096 A 
HETATM    7  C14 UNL     1      -1.905  -7.648  19.727  1.00  0.00     0.079 A 
HETATM    8  C15 UNL     1      -1.931  -7.006  20.929  1.00  0.00     0.105 A 
HETATM    9  O5  UNL     1      -1.163  -5.899  21.275  1.00  0.00    -0.338 OA
HETATM   10  C16 UNL     1      -0.156  -5.205  20.586  1.00  0.00     0.069 C 
HETATM   11  C17 UNL     1       0.772  -4.682  21.690  1.00  0.00     0.047 C 
HETATM   12  C18 UNL     1      -0.794  -3.967  19.991  1.00  0.00     0.047 C 
HETATM   13  C19 UNL     1       0.677  -5.964  19.651  1.00  0.00     0.062 C 
HETATM   14  C20 UNL     1       1.650  -5.004  19.048  1.00  0.00    -0.008 C 
HETATM   15  C21 UNL     1       1.330  -4.767  17.772  1.00  0.00    -0.019 C 
HETATM   16  C22 UNL     1       2.071  -3.857  16.838  1.00  0.00     0.052 C 
HETATM   17  C23 UNL     1       0.142  -5.542  17.439  1.00  0.00     0.167 C 
HETATM   18  O6  UNL     1      -0.673  -5.371  16.520  1.00  0.00    -0.292 OA
HETATM   19  C24 UNL     1       0.125  -6.608  18.471  1.00  0.00     0.145 C 
HETATM   20  C25 UNL     1      -1.117  -7.340  18.562  1.00  0.00     0.177 C 
HETATM   21  O7  UNL     1      -1.578  -7.771  17.464  1.00  0.00    -0.291 OA
ENDROOT
BRANCH   4  22
HETATM   22  C5  UNL     1      -4.442  -8.890  22.903  1.00  0.00     0.153 C 
BRANCH  22  23
HETATM   23  C6  UNL     1      -4.411 -10.341  23.178  1.00  0.00     0.176 C 
HETATM   24  O1  UNL     1      -3.593 -10.893  23.964  1.00  0.00    -0.648 OA
HETATM   25  O2  UNL     1      -5.337 -11.143  22.532  1.00  0.00    -0.648 OA
ENDBRANCH  22  23
ENDBRANCH   4  22
BRANCH   6  26
HETATM   26  O3  UNL     1      -2.761  -9.438  18.354  1.00  0.00    -0.278 OA
BRANCH  26  27
HETATM   27  C9  UNL     1      -2.354 -10.759  18.317  1.00  0.00     0.264 C 
HETATM   28  O4  UNL     1      -1.214 -11.054  18.717  1.00  0.00    -0.265 OA
BRANCH  27  29
HETATM   29  C10 UNL     1      -3.284 -11.782  17.808  1.00  0.00     0.115 C 
BRANCH  29  30
HETATM   30  C11 UNL     1      -3.593 -11.465  16.354  1.00  0.00    -0.013 C 
HETATM   31  C12 UNL     1      -4.473 -12.582  15.827  1.00  0.00     0.010 C 
HETATM   32  C13 UNL     1      -2.289 -11.392  15.550  1.00  0.00     0.010 C 
ENDBRANCH  29  30
ENDBRANCH  27  29
ENDBRANCH  26  27
ENDBRANCH   6  26
TORSDOF 6
ENDMDL
MODEL 5
REMARK VINA RESULT: -7.870279422      2.007      2.812
REMARK  6 active torsions:
REMARK  status: ('A' for Active; 'I' for Inactive)
REMARK    1  A    between atoms: C4_4  and  C5_5 
REMARK    2  A    between atoms: C5_5  and  C6_6 
REMARK    3  A    between atoms: C8_10  and  O3_11 
REMARK    4  A    between atoms: O3_11  and  C9_12 
REMARK    5  A    between atoms: C9_12  and  C10_14 
REMARK    6  A    between atoms: C10_14  and  C11_15 
ROOT
HETATM    1  C1  UNL     1      -2.085  -7.200  25.304  1.00  0.00     0.018 C 
HETATM    2  C2  UNL     1      -2.371  -7.700  24.240  1.00  0.00    -0.074 C 
HETATM    3  C3  UNL     1      -2.707  -8.271  22.969  1.00  0.00     0.058 A 
HETATM    4  C4  UNL     1      -3.713  -9.234  22.901  1.00  0.00    -0.024 A 
HETATM    5  C7  UNL     1      -4.045  -9.794  21.672  1.00  0.00     0.047 A 
HETATM    6  C8  UNL     1      -3.381  -9.399  20.524  1.00  0.00     0.096 A 
HETATM    7  C14 UNL     1      -2.384  -8.448  20.579  1.00  0.00     0.079 A 
HETATM    8  C15 UNL     1      -2.081  -7.918  21.798  1.00  0.00     0.105 A 
HETATM    9  O5  UNL     1      -1.110  -6.954  22.046  1.00  0.00    -0.338 OA
HETATM   10  C16 UNL     1      -0.169  -6.336  21.208  1.00  0.00     0.069 C 
HETATM   11  C17 UNL     1       1.023  -6.037  22.126  1.00  0.00     0.047 C 
HETATM   12  C18 UNL     1      -0.726  -4.977  20.836  1.00  0.00     0.047 C 
HETATM   13  C19 UNL     1       0.347  -7.108  20.076  1.00  0.00     0.062 C 
HETATM   14  C20 UNL     1       1.311  -6.230  19.346  1.00  0.00    -0.008 C 
HETATM   15  C21 UNL     1       0.784  -5.840  18.180  1.00  0.00    -0.019 C 
HETATM   16  C22 UNL     1       1.450  -4.953  17.171  1.00  0.00     0.052 C 
HETATM   17  C23 UNL     1      -0.545  -6.425  18.052  1.00  0.00     0.167 C 
HETATM   18  O6  UNL     1      -1.491  -6.069  17.334  1.00  0.00    -0.292 OA
HETATM   19  C24 UNL     1      -0.512  -7.568  18.998  1.00  0.00     0.145 C 
HETATM   20  C25 UNL     1      -1.804  -8.140  19.298  1.00  0.00     0.177 C 
HETATM   21  O7  UNL     1      -2.528  -8.408  18.294  1.00  0.00    -0.291 OA
ENDROOT
BRANCH   4  22
HETATM   22  C5  UNL     1      -4.401  -9.635  24.128  1.00  0.00     0.153 C 
BRANCH  22  23
HETATM   23  C6  UNL     1      -4.954 -11.003  24.090  1.00  0.00     0.176 C 
HETATM   24  O1  UNL     1      -4.669 -11.903  24.927  1.00  0.00    -0.648 OA
HETATM   25  O2  UNL     1      -5.840 -11.316  23.072  1.00  0.00    -0.648 OA
ENDBRANCH  22  23
ENDBRANCH   4  22
BRANCH   6  26
HETATM   26  O3  UNL     1      -3.740  -9.983  19.305  1.00  0.00    -0.278 OA
BRANCH  26  27
HETATM   27  C9  UNL     1      -3.799 -11.360  19.189  1.00  0.00     0.264 C 
HETATM   28  O4  UNL     1      -4.583 -11.997  19.917  1.00  0.00    -0.265 OA
BRANCH  27  29
HETATM   29  C10 UNL     1      -2.935 -12.036  18.206  1.00  0.00     0.115 C 
BRANCH  29  30
HETATM   30  C11 UNL     1      -3.322 -11.554  16.819  1.00  0.00    -0.013 C 
HETATM   31  C12 UNL     1      -4.213 -12.616  16.205  1.00  0.00     0.010 C 
HETATM   32  C13 UNL     1      -2.062 -11.360  15.965  1.00  0.00     0.010 C 
ENDBRANCH  29  30
ENDBRANCH  27  29
ENDBRANCH  26  27
ENDBRANCH   6  26
TORSDOF 6
ENDMDL
