MODEL 1
REMARK VINA RESULT: -8.391412591      0.000      0.000
REMARK  7 active torsions:
REMARK  status: ('A' for Active; 'I' for Inactive)
REMARK    1  A    between atoms: C4_4  and  C5_5 
REMARK    2  A    between atoms: C5_5  and  O1_6 
REMARK    3  A    between atoms: C5_5  and  N1_8 
REMARK    4  A    between atoms: C11_14  and  N2_15 
REMARK       I    between atoms: N2_15  and  C12_17 
REMARK    5  A    between atoms: C12_17  and  C13_19 
REMARK    6  A    between atoms: C13_19  and  N3_20 
REMARK    7  A    between atoms: N4_23  and  C16_24 
ROOT
HETATM    1  N2  UNL     1      -2.964  -8.294  20.618  1.00  0.00    -0.316 N 
ATOM      2  H2  UNL     1      -3.304  -7.721  19.846  1.00  0.00     0.169 HD
HETATM    3  C12 UNL     1      -1.998  -7.696  21.425  1.00  0.00     0.261 C 
HETATM    4  O2  UNL     1      -1.466  -8.356  22.387  1.00  0.00    -0.267 OA
ENDROOT
BRANCH   1   5
HETATM    5  C11 UNL     1      -3.543  -9.595  20.720  1.00  0.00     0.091 A 
HETATM    6  C4  UNL     1      -3.702 -10.647  19.873  1.00  0.00     0.050 A 
HETATM    7  C3  UNL     1      -4.559 -11.622  20.249  1.00  0.00     0.033 A 
HETATM    8  C2  UNL     1      -5.201 -11.488  21.456  1.00  0.00    -0.018 A 
HETATM    9  C1  UNL     1      -6.196 -12.454  22.070  1.00  0.00     0.056 C 
HETATM   10  S1  UNL     1      -4.610 -10.022  22.045  1.00  0.00    -0.076 SA
BRANCH   6  11
HETATM   11  C5  UNL     1      -2.735 -10.876  18.763  1.00  0.00     0.151 C 
BRANCH  11  12
HETATM   12  O1  UNL     1      -1.560 -10.300  18.835  1.00  0.00    -0.345 OA
ATOM     13  H1  UNL     1      -1.189  -9.932  18.041  1.00  0.00     0.219 HD
ENDBRANCH  11  12
BRANCH  11  14
HETATM   14  N1  UNL     1      -2.888 -11.632  17.606  1.00  0.00    -0.361 N 
HETATM   15  C6  UNL     1      -3.964 -12.532  17.342  1.00  0.00     0.125 C 
HETATM   16  C7  UNL     1      -4.163 -12.539  15.815  1.00  0.00     0.020 C 
HETATM   17  C8  UNL     1      -3.948 -11.135  15.247  1.00  0.00     0.003 C 
HETATM   18  C9  UNL     1      -2.477 -10.767  15.370  1.00  0.00     0.020 C 
HETATM   19  C10 UNL     1      -1.882 -11.555  16.519  1.00  0.00     0.125 C 
ENDBRANCH  11  14
ENDBRANCH   6  11
ENDBRANCH   1   5
BRANCH   3  20
HETATM   20  C13 UNL     1      -1.551  -6.298  21.208  1.00  0.00     0.161 C 
BRANCH  20  21
HETATM   21  N3  UNL     1      -0.345  -6.203  20.500  1.00  0.00    -0.379 N 
HETATM   22  C14 UNL     1      -0.108  -7.096  19.427  1.00  0.00     0.142 C 
HETATM   23  C15 UNL     1      -0.418  -6.541  18.067  1.00  0.00     0.142 C 
HETATM   24  N4  UNL     1      -0.241  -5.138  17.905  1.00  0.00    -0.386 N 
HETATM   25  C22 UNL     1      -0.436  -4.338  19.044  1.00  0.00     0.078 C 
HETATM   26  C23 UNL     1       0.169  -4.877  20.318  1.00  0.00     0.166 C 
BRANCH  24  27
HETATM   27  C16 UNL     1       0.739  -4.747  16.962  1.00  0.00     0.083 C 
HETATM   28  C17 UNL     1       2.142  -4.721  17.460  1.00  0.00     0.025 C 
HETATM   29  C18 UNL     1       3.000  -5.839  16.910  1.00  0.00     0.002 C 
HETATM   30  C19 UNL     1       3.208  -5.700  15.419  1.00  0.00     0.000 C 
HETATM   31  C20 UNL     1       1.918  -5.101  14.863  1.00  0.00     0.002 C 
HETATM   32  C21 UNL     1       0.724  -5.575  15.692  1.00  0.00     0.025 C 
ENDBRANCH  24  27
ENDBRANCH  20  21
ENDBRANCH   3  20
TORSDOF 7
ENDMDL
MODEL 2
REMARK VINA RESULT: -8.134037685      0.863      1.189
REMARK  7 active torsions:
REMARK  status: ('A' for Active; 'I' for Inactive)
REMARK    1  A    between atoms: C4_4  and  C5_5 
REMARK    2  A    between atoms: C5_5  and  O1_6 
REMARK    3  A    between atoms: C5_5  and  N1_8 
REMARK    4  A    between atoms: C11_14  and  N2_15 
REMARK       I    between atoms: N2_15  and  C12_17 
REMARK    5  A    between atoms: C12_17  and  C13_19 
REMARK    6  A    between atoms: C13_19  and  N3_20 
REMARK    7  A    between atoms: N4_23  and  C16_24 
ROOT
HETATM    1  N2  UNL     1      -2.921  -8.320  20.616  1.00  0.00    -0.316 N 
ATOM      2  H2  UNL     1      -3.226  -7.753  19.825  1.00  0.00     0.169 HD
HETATM    3  C12 UNL     1      -1.979  -7.723  21.452  1.00  0.00     0.261 C 
HETATM    4  O2  UNL     1      -1.490  -8.377  22.440  1.00  0.00    -0.267 OA
ENDROOT
BRANCH   1   5
HETATM    5  C11 UNL     1      -3.518  -9.613  20.712  1.00  0.00     0.091 A 
HETATM    6  C4  UNL     1      -3.692 -10.659  19.860  1.00  0.00     0.050 A 
HETATM    7  C3  UNL     1      -4.563 -11.623  20.231  1.00  0.00     0.033 A 
HETATM    8  C2  UNL     1      -5.203 -11.487  21.439  1.00  0.00    -0.018 A 
HETATM    9  C1  UNL     1      -6.211 -12.441  22.048  1.00  0.00     0.056 C 
HETATM   10  S1  UNL     1      -4.591 -10.032  22.035  1.00  0.00    -0.076 SA
BRANCH   6  11
HETATM   11  C5  UNL     1      -2.729 -10.896  18.748  1.00  0.00     0.151 C 
BRANCH  11  12
HETATM   12  O1  UNL     1      -1.547 -10.333  18.821  1.00  0.00    -0.345 OA
ATOM     13  H1  UNL     1      -0.780 -10.876  18.682  1.00  0.00     0.219 HD
ENDBRANCH  11  12
BRANCH  11  14
HETATM   14  N1  UNL     1      -2.890 -11.647  17.590  1.00  0.00    -0.361 N 
HETATM   15  C6  UNL     1      -3.974 -12.539  17.327  1.00  0.00     0.125 C 
HETATM   16  C7  UNL     1      -4.178 -12.540  15.800  1.00  0.00     0.020 C 
HETATM   17  C8  UNL     1      -3.954 -11.137  15.236  1.00  0.00     0.003 C 
HETATM   18  C9  UNL     1      -2.480 -10.779  15.355  1.00  0.00     0.020 C 
HETATM   19  C10 UNL     1      -1.887 -11.575  16.500  1.00  0.00     0.125 C 
ENDBRANCH  11  14
ENDBRANCH   6  11
ENDBRANCH   1   5
BRANCH   3  20
HETATM   20  C13 UNL     1      -1.507  -6.333  21.235  1.00  0.00     0.161 C 
BRANCH  20  21
HETATM   21  N3  UNL     1      -0.188  -6.259  20.768  1.00  0.00    -0.379 N 
HETATM   22  C14 UNL     1       0.183  -7.024  19.636  1.00  0.00     0.142 C 
HETATM   23  C15 UNL     1       0.168  -6.272  18.337  1.00  0.00     0.142 C 
HETATM   24  N4  UNL     1       0.465  -4.883  18.411  1.00  0.00    -0.386 N 
HETATM   25  C22 UNL     1       0.117  -4.221  19.601  1.00  0.00     0.078 C 
HETATM   26  C23 UNL     1       0.438  -4.973  20.870  1.00  0.00     0.166 C 
BRANCH  24  27
HETATM   27  C16 UNL     1       1.628  -4.465  17.718  1.00  0.00     0.083 C 
HETATM   28  C17 UNL     1       2.334  -3.286  18.292  1.00  0.00     0.025 C 
HETATM   29  C18 UNL     1       3.648  -3.634  18.956  1.00  0.00     0.002 C 
HETATM   30  C19 UNL     1       4.664  -4.135  17.954  1.00  0.00     0.000 C 
HETATM   31  C20 UNL     1       3.876  -4.905  16.897  1.00  0.00     0.002 C 
HETATM   32  C21 UNL     1       2.654  -5.566  17.538  1.00  0.00     0.025 C 
ENDBRANCH  24  27
ENDBRANCH  20  21
ENDBRANCH   3  20
TORSDOF 7
ENDMDL
MODEL 3
REMARK VINA RESULT: -8.085103675      2.611      3.801
REMARK  7 active torsions:
REMARK  status: ('A' for Active; 'I' for Inactive)
REMARK    1  A    between atoms: C4_4  and  C5_5 
REMARK    2  A    between atoms: C5_5  and  O1_6 
REMARK    3  A    between atoms: C5_5  and  N1_8 
REMARK    4  A    between atoms: C11_14  and  N2_15 
REMARK       I    between atoms: N2_15  and  C12_17 
REMARK    5  A    between atoms: C12_17  and  C13_19 
REMARK    6  A    between atoms: C13_19  and  N3_20 
REMARK    7  A    between atoms: N4_23  and  C16_24 
ROOT
HETATM    1  N2  UNL     1      -2.896  -8.346  20.612  1.00  0.00    -0.316 N 
ATOM      2  H2  UNL     1      -3.186  -7.779  19.816  1.00  0.00     0.169 HD
HETATM    3  C12 UNL     1      -1.957  -7.756  21.456  1.00  0.00     0.261 C 
HETATM    4  O2  UNL     1      -1.486  -8.412  22.452  1.00  0.00    -0.267 OA
ENDROOT
BRANCH   1   5
HETATM    5  C11 UNL     1      -3.508  -9.633  20.706  1.00  0.00     0.091 A 
HETATM    6  C4  UNL     1      -3.693 -10.675  19.852  1.00  0.00     0.050 A 
HETATM    7  C3  UNL     1      -4.574 -11.631  20.221  1.00  0.00     0.033 A 
HETATM    8  C2  UNL     1      -5.213 -11.489  21.429  1.00  0.00    -0.018 A 
HETATM    9  C1  UNL     1      -6.231 -12.433  22.036  1.00  0.00     0.056 C 
HETATM   10  S1  UNL     1      -4.585 -10.043  22.027  1.00  0.00    -0.076 SA
BRANCH   6  11
HETATM   11  C5  UNL     1      -2.732 -10.920  18.740  1.00  0.00     0.151 C 
BRANCH  11  12
HETATM   12  O1  UNL     1      -1.542 -10.374  18.816  1.00  0.00    -0.345 OA
ATOM     13  H1  UNL     1      -1.234  -9.862  18.078  1.00  0.00     0.219 HD
ENDBRANCH  11  12
BRANCH  11  14
HETATM   14  N1  UNL     1      -2.903 -11.664  17.578  1.00  0.00    -0.361 N 
HETATM   15  C6  UNL     1      -3.997 -12.542  17.311  1.00  0.00     0.125 C 
HETATM   16  C7  UNL     1      -4.202 -12.533  15.784  1.00  0.00     0.020 C 
HETATM   17  C8  UNL     1      -3.961 -11.130  15.227  1.00  0.00     0.003 C 
HETATM   18  C9  UNL     1      -2.483 -10.790  15.347  1.00  0.00     0.020 C 
HETATM   19  C10 UNL     1      -1.900 -11.599  16.487  1.00  0.00     0.125 C 
ENDBRANCH  11  14
ENDBRANCH   6  11
ENDBRANCH   1   5
BRANCH   3  20
HETATM   20  C13 UNL     1      -1.470  -6.371  21.240  1.00  0.00     0.161 C 
BRANCH  20  21
HETATM   21  N3  UNL     1      -2.424  -5.531  20.651  1.00  0.00    -0.379 N 
HETATM   22  C14 UNL     1      -3.280  -4.773  21.487  1.00  0.00     0.142 C 
HETATM   23  C15 UNL     1      -2.844  -3.355  21.713  1.00  0.00     0.142 C 
HETATM   24  N4  UNL     1      -2.127  -2.740  20.649  1.00  0.00    -0.386 N 
HETATM   25  C22 UNL     1      -1.354  -3.584  19.832  1.00  0.00     0.078 C 
HETATM   26  C23 UNL     1      -2.019  -4.881  19.439  1.00  0.00     0.166 C 
BRANCH  24  27
HETATM   27  C16 UNL     1      -2.748  -1.612  20.061  1.00  0.00     0.083 C 
HETATM   28  C17 UNL     1      -2.793  -0.385  20.904  1.00  0.00     0.025 C 
HETATM   29  C18 UNL     1      -1.855   0.704  20.435  1.00  0.00     0.002 C 
HETATM   30  C19 UNL     1      -2.265   1.252  19.086  1.00  0.00     0.000 C 
HETATM   31  C20 UNL     1      -2.854   0.075  18.310  1.00  0.00     0.002 C 
HETATM   32  C21 UNL     1      -2.155  -1.221  18.722  1.00  0.00     0.025 C 
ENDBRANCH  24  27
ENDBRANCH  20  21
ENDBRANCH   3  20
TORSDOF 7
ENDMDL
MODEL 4
REMARK VINA RESULT: -8.077114510      0.762      1.089
REMARK  7 active torsions:
REMARK  status: ('A' for Active; 'I' for Inactive)
REMARK    1  A    between atoms: C4_4  and  C5_5 
REMARK    2  A    between atoms: C5_5  and  O1_6 
REMARK    3  A    between atoms: C5_5  and  N1_8 
REMARK    4  A    between atoms: C11_14  and  N2_15 
REMARK       I    between atoms: N2_15  and  C12_17 
REMARK    5  A    between atoms: C12_17  and  C13_19 
REMARK    6  A    between atoms: C13_19  and  N3_20 
REMARK    7  A    between atoms: N4_23  and  C16_24 
ROOT
HETATM    1  N2  UNL     1      -2.830  -8.379  20.742  1.00  0.00    -0.316 N 
ATOM      2  H2  UNL     1      -3.055  -7.802  19.931  1.00  0.00     0.169 HD
HETATM    3  C12 UNL     1      -1.938  -7.812  21.650  1.00  0.00     0.261 C 
HETATM    4  O2  UNL     1      -1.548  -8.482  22.671  1.00  0.00    -0.267 OA
ENDROOT
BRANCH   1   5
HETATM    5  C11 UNL     1      -3.473  -9.653  20.786  1.00  0.00     0.091 A 
HETATM    6  C4  UNL     1      -3.679 -10.659  19.895  1.00  0.00     0.050 A 
HETATM    7  C3  UNL     1      -4.584 -11.606  20.226  1.00  0.00     0.033 A 
HETATM    8  C2  UNL     1      -5.225 -11.493  21.435  1.00  0.00    -0.018 A 
HETATM    9  C1  UNL     1      -6.269 -12.433  22.004  1.00  0.00     0.056 C 
HETATM   10  S1  UNL     1      -4.566 -10.084  22.088  1.00  0.00    -0.076 SA
BRANCH   6  11
HETATM   11  C5  UNL     1      -2.718 -10.887  18.778  1.00  0.00     0.151 C 
BRANCH  11  12
HETATM   12  O1  UNL     1      -1.542 -10.313  18.845  1.00  0.00    -0.345 OA
ATOM     13  H1  UNL     1      -1.364  -9.735  19.577  1.00  0.00     0.219 HD
ENDBRANCH  11  12
BRANCH  11  14
HETATM   14  N1  UNL     1      -2.879 -11.641  17.621  1.00  0.00    -0.361 N 
HETATM   15  C6  UNL     1      -3.967 -12.526  17.354  1.00  0.00     0.125 C 
HETATM   16  C7  UNL     1      -4.162 -12.530  15.826  1.00  0.00     0.020 C 
HETATM   17  C8  UNL     1      -3.925 -11.130  15.259  1.00  0.00     0.003 C 
HETATM   18  C9  UNL     1      -2.449 -10.782  15.386  1.00  0.00     0.020 C 
HETATM   19  C10 UNL     1      -1.869 -11.579  16.536  1.00  0.00     0.125 C 
ENDBRANCH  11  14
ENDBRANCH   6  11
ENDBRANCH   1   5
BRANCH   3  20
HETATM   20  C13 UNL     1      -1.409  -6.436  21.475  1.00  0.00     0.161 C 
BRANCH  20  21
HETATM   21  N3  UNL     1      -0.055  -6.403  21.118  1.00  0.00    -0.379 N 
HETATM   22  C14 UNL     1       0.383  -7.168  20.010  1.00  0.00     0.142 C 
HETATM   23  C15 UNL     1       0.499  -6.402  18.724  1.00  0.00     0.142 C 
HETATM   24  N4  UNL     1       0.835  -5.025  18.841  1.00  0.00    -0.386 N 
HETATM   25  C22 UNL     1       0.412  -4.364  20.008  1.00  0.00     0.078 C 
HETATM   26  C23 UNL     1       0.604  -5.140  21.288  1.00  0.00     0.166 C 
BRANCH  24  27
HETATM   27  C16 UNL     1       2.063  -4.640  18.251  1.00  0.00     0.083 C 
HETATM   28  C17 UNL     1       2.708  -5.657  17.376  1.00  0.00     0.025 C 
HETATM   29  C18 UNL     1       2.644  -5.314  15.904  1.00  0.00     0.002 C 
HETATM   30  C19 UNL     1       3.460  -4.082  15.582  1.00  0.00     0.000 C 
HETATM   31  C20 UNL     1       3.345  -3.166  16.799  1.00  0.00     0.002 C 
HETATM   32  C21 UNL     1       1.979  -3.349  17.461  1.00  0.00     0.025 C 
ENDBRANCH  24  27
ENDBRANCH  20  21
ENDBRANCH   3  20
TORSDOF 7
ENDMDL
MODEL 5
REMARK VINA RESULT: -8.075393238      1.962      2.854
REMARK  7 active torsions:
REMARK  status: ('A' for Active; 'I' for Inactive)
REMARK    1  A    between atoms: C4_4  and  C5_5 
REMARK    2  A    between atoms: C5_5  and  O1_6 
REMARK    3  A    between atoms: C5_5  and  N1_8 
REMARK    4  A    between atoms: C11_14  and  N2_15 
REMARK       I    between atoms: N2_15  and  C12_17 
REMARK    5  A    between atoms: C12_17  and  C13_19 
REMARK    6  A    between atoms: C13_19  and  N3_20 
REMARK    7  A    between atoms: N4_23  and  C16_24 
ROOT
HETATM    1  N2  UNL     1      -3.953  -8.827  22.750  1.00  0.00    -0.316 N 
ATOM      2  H2  UNL     1      -4.364  -7.991  22.333  1.00  0.00     0.169 HD
HETATM    3  C12 UNL     1      -3.064  -8.597  23.798  1.00  0.00     0.261 C 
HETATM    4  O2  UNL     1      -2.452  -9.580  24.348  1.00  0.00    -0.267 OA
ENDROOT
BRANCH   1   5
HETATM    5  C11 UNL     1      -4.371 -10.067  22.178  1.00  0.00     0.091 A 
HETATM    6  C4  UNL     1      -4.434 -10.573  20.918  1.00  0.00     0.050 A 
HETATM    7  C3  UNL     1      -5.155 -11.701  20.737  1.00  0.00     0.033 A 
HETATM    8  C2  UNL     1      -5.766 -12.260  21.833  1.00  0.00    -0.018 A 
HETATM    9  C1  UNL     1      -6.617 -13.514  21.861  1.00  0.00     0.056 C 
HETATM   10  S1  UNL     1      -5.332 -11.218  23.087  1.00  0.00    -0.076 SA
BRANCH   6  11
HETATM   11  C5  UNL     1      -3.486 -10.104  19.867  1.00  0.00     0.151 C 
BRANCH  11  12
HETATM   12  O1  UNL     1      -3.491  -8.832  19.551  1.00  0.00    -0.345 OA
ATOM     13  H1  UNL     1      -2.660  -8.373  19.520  1.00  0.00     0.219 HD
ENDBRANCH  11  12
BRANCH  11  14
HETATM   14  N1  UNL     1      -2.560 -10.833  19.131  1.00  0.00    -0.361 N 
HETATM   15  C6  UNL     1      -2.515 -12.257  19.034  1.00  0.00     0.125 C 
HETATM   16  C7  UNL     1      -1.928 -12.582  17.648  1.00  0.00     0.020 C 
HETATM   17  C8  UNL     1      -2.438 -11.582  16.610  1.00  0.00     0.003 C 
HETATM   18  C9  UNL     1      -1.834 -10.215  16.893  1.00  0.00     0.020 C 
HETATM   19  C10 UNL     1      -1.493 -10.141  18.367  1.00  0.00     0.125 C 
ENDBRANCH  11  14
ENDBRANCH   6  11
ENDBRANCH   1   5
BRANCH   3  20
HETATM   20  C13 UNL     1      -2.790  -7.231  24.308  1.00  0.00     0.161 C 
BRANCH  20  21
HETATM   21  N3  UNL     1      -1.717  -6.601  23.665  1.00  0.00    -0.379 N 
HETATM   22  C14 UNL     1      -0.746  -7.398  23.009  1.00  0.00     0.142 C 
HETATM   23  C15 UNL     1      -0.950  -7.545  21.529  1.00  0.00     0.142 C 
HETATM   24  N4  UNL     1      -1.564  -6.446  20.866  1.00  0.00    -0.386 N 
HETATM   25  C22 UNL     1      -2.466  -5.673  21.619  1.00  0.00     0.078 C 
HETATM   26  C23 UNL     1      -2.018  -5.354  23.025  1.00  0.00     0.166 C 
BRANCH  24  27
HETATM   27  C16 UNL     1      -0.773  -5.800  19.885  1.00  0.00     0.083 C 
HETATM   28  C17 UNL     1      -0.103  -6.696  18.902  1.00  0.00     0.025 C 
HETATM   29  C18 UNL     1      -0.708  -6.631  17.517  1.00  0.00     0.002 C 
HETATM   30  C19 UNL     1      -0.499  -5.276  16.879  1.00  0.00     0.000 C 
HETATM   31  C20 UNL     1      -0.561  -4.257  18.016  1.00  0.00     0.002 C 
HETATM   32  C21 UNL     1      -1.524  -4.744  19.099  1.00  0.00     0.025 C 
ENDBRANCH  24  27
ENDBRANCH  20  21
ENDBRANCH   3  20
TORSDOF 7
ENDMDL
