MODEL 1
REMARK VINA RESULT: -6.931484953      0.000      0.000
REMARK  8 active torsions:
REMARK  status: ('A' for Active; 'I' for Inactive)
REMARK    1  A    between atoms: N1_2  and  C2_4 
REMARK    2  A    between atoms: C2_4  and  O1_5 
REMARK    3  A    between atoms: C2_4  and  C3_7 
REMARK    4  A    between atoms: C10_16  and  C11_17 
REMARK    5  A    between atoms: C14_20  and  C15_21 
REMARK    6  A    between atoms: C15_21  and  N2_22 
REMARK    7  A    between atoms: C16_24  and  O3_25 
REMARK    8  A    between atoms: C16_24  and  N3_27 
ROOT
HETATM    1  C11 UNL     1      -3.090  -6.021  23.398  1.00  0.00    -0.033 A 
HETATM    2  C12 UNL     1      -1.907  -5.904  24.070  1.00  0.00     0.012 A 
HETATM    3  C13 UNL     1      -1.514  -4.692  24.645  1.00  0.00     0.012 A 
HETATM    4  C14 UNL     1      -2.305  -3.600  24.550  1.00  0.00    -0.007 A 
HETATM    5  C19 UNL     1      -3.529  -3.679  23.867  1.00  0.00     0.076 A 
HETATM    6  O4  UNL     1      -4.278  -2.650  23.774  1.00  0.00    -0.355 OA
HETATM    7  C20 UNL     1      -5.063  -1.657  23.650  1.00  0.00     0.210 C 
HETATM    8  C21 UNL     1      -3.892  -4.906  23.303  1.00  0.00     0.048 A 
ENDROOT
BRANCH   4   9
HETATM    9  C15 UNL     1      -1.935  -2.307  25.138  1.00  0.00     0.164 C 
BRANCH   9  10
HETATM   10  N2  UNL     1      -2.637  -1.956  26.331  1.00  0.00    -0.352 N 
HETATM   11  C16 UNL     1      -2.044  -1.892  27.499  1.00  0.00     0.214 C 
ATOM     12  H2  UNL     1      -3.634  -1.748  26.273  1.00  0.00     0.163 HD
BRANCH  11  13
HETATM   13  O3  UNL     1      -2.777  -1.546  28.624  1.00  0.00    -0.333 OA
ATOM     14  H3  UNL     1      -2.437  -1.748  29.488  1.00  0.00     0.220 HD
ENDBRANCH  11  13
BRANCH  11  15
HETATM   15  N3  UNL     1      -0.668  -2.165  27.659  1.00  0.00    -0.356 N 
HETATM   16  C17 UNL     1       0.318  -1.128  27.508  1.00  0.00     0.152 C 
HETATM   17  C18 UNL     1      -0.245  -3.504  27.975  1.00  0.00     0.152 C 
ENDBRANCH  11  15
ENDBRANCH   9  10
ENDBRANCH   4   9
BRANCH   1  18
HETATM   18  C10 UNL     1      -3.495  -7.266  22.789  1.00  0.00     0.024 C 
HETATM   19  C9  UNL     1      -3.315  -7.652  21.546  1.00  0.00     0.011 C 
HETATM   20  C8  UNL     1      -3.819  -8.994  21.147  1.00  0.00     0.193 C 
HETATM   21  C22 UNL     1      -2.671  -6.832  20.498  1.00  0.00     0.165 C 
HETATM   22  C5  UNL     1      -3.163  -9.723  20.033  1.00  0.00     0.056 A 
HETATM   23  O2  UNL     1      -4.773  -9.425  21.784  1.00  0.00    -0.287 OA
HETATM   24  C4  UNL     1      -2.125  -9.050  19.469  1.00  0.00     0.087 A 
HETATM   25  C6  UNL     1      -3.442 -10.967  19.545  1.00  0.00    -0.024 A 
HETATM   26  S1  UNL     1      -1.542 -10.110  18.291  1.00  0.00    -0.067 SA
HETATM   27  N4  UNL     1      -1.707  -7.718  19.851  1.00  0.00    -0.374 N 
HETATM   28  C3  UNL     1      -2.658 -11.437  18.534  1.00  0.00     0.064 A 
HETATM   29  C23 UNL     1      -0.353  -7.348  19.569  1.00  0.00     0.150 C 
HETATM   30  C7  UNL     1      -4.591 -11.838  20.060  1.00  0.00     0.050 C 
BRANCH  28  31
HETATM   31  C2  UNL     1      -2.630 -12.678  17.763  1.00  0.00     0.153 C 
BRANCH  31  32
HETATM   32  N1  UNL     1      -3.594 -13.139  16.871  1.00  0.00    -0.374 N 
HETATM   33  C1  UNL     1      -4.221 -12.100  15.980  1.00  0.00     0.148 C 
ATOM     34  H1  UNL     1      -3.861 -14.123  16.824  1.00  0.00     0.161 HD
ENDBRANCH  31  32
BRANCH  31  35
HETATM   35  O1  UNL     1      -1.563 -13.407  17.965  1.00  0.00    -0.345 OA
ATOM     36  H1  UNL     1      -1.671 -14.336  18.132  1.00  0.00     0.219 HD
ENDBRANCH  31  35
ENDBRANCH  28  31
ENDBRANCH   1  18
TORSDOF 8
ENDMDL
MODEL 2
REMARK VINA RESULT: -6.795840724      1.287      1.472
REMARK  8 active torsions:
REMARK  status: ('A' for Active; 'I' for Inactive)
REMARK    1  A    between atoms: N1_2  and  C2_4 
REMARK    2  A    between atoms: C2_4  and  O1_5 
REMARK    3  A    between atoms: C2_4  and  C3_7 
REMARK    4  A    between atoms: C10_16  and  C11_17 
REMARK    5  A    between atoms: C14_20  and  C15_21 
REMARK    6  A    between atoms: C15_21  and  N2_22 
REMARK    7  A    between atoms: C16_24  and  O3_25 
REMARK    8  A    between atoms: C16_24  and  N3_27 
ROOT
HETATM    1  C11 UNL     1      -2.850  -6.531  24.035  1.00  0.00    -0.033 A 
HETATM    2  C12 UNL     1      -1.732  -6.603  24.817  1.00  0.00     0.012 A 
HETATM    3  C13 UNL     1      -1.259  -5.488  25.513  1.00  0.00     0.012 A 
HETATM    4  C14 UNL     1      -1.902  -4.302  25.428  1.00  0.00    -0.007 A 
HETATM    5  C19 UNL     1      -3.054  -4.186  24.635  1.00  0.00     0.076 A 
HETATM    6  O4  UNL     1      -3.665  -3.068  24.550  1.00  0.00    -0.355 OA
HETATM    7  C20 UNL     1      -4.312  -1.980  24.430  1.00  0.00     0.210 C 
HETATM    8  C21 UNL     1      -3.502  -5.321  23.951  1.00  0.00     0.048 A 
ENDROOT
BRANCH   4   9
HETATM    9  C15 UNL     1      -1.443  -3.104  26.141  1.00  0.00     0.164 C 
BRANCH   9  10
HETATM   10  N2  UNL     1      -0.886  -2.079  25.317  1.00  0.00    -0.352 N 
HETATM   11  C16 UNL     1      -0.764  -0.840  25.728  1.00  0.00     0.214 C 
ATOM     12  H2  UNL     1      -0.571  -2.319  24.377  1.00  0.00     0.163 HD
BRANCH  11  13
HETATM   13  O3  UNL     1      -0.216   0.114  24.884  1.00  0.00    -0.333 OA
ATOM     14  H3  UNL     1      -0.426   1.031  25.009  1.00  0.00     0.220 HD
ENDBRANCH  11  13
BRANCH  11  15
HETATM   15  N3  UNL     1      -1.176  -0.431  27.015  1.00  0.00    -0.356 N 
HETATM   16  C17 UNL     1      -2.522   0.020  27.256  1.00  0.00     0.152 C 
HETATM   17  C18 UNL     1      -0.235  -0.464  28.102  1.00  0.00     0.152 C 
ENDBRANCH  11  15
ENDBRANCH   9  10
ENDBRANCH   4   9
BRANCH   1  18
HETATM   18  C10 UNL     1      -3.336  -7.675  23.302  1.00  0.00     0.024 C 
HETATM   19  C9  UNL     1      -3.220  -7.919  22.016  1.00  0.00     0.011 C 
HETATM   20  C8  UNL     1      -3.802  -9.180  21.484  1.00  0.00     0.193 C 
HETATM   21  C22 UNL     1      -2.574  -7.010  21.045  1.00  0.00     0.165 C 
HETATM   22  C5  UNL     1      -3.223  -9.800  20.266  1.00  0.00     0.056 A 
HETATM   23  O2  UNL     1      -4.753  -9.641  22.105  1.00  0.00    -0.287 OA
HETATM   24  C4  UNL     1      -2.173  -9.112  19.742  1.00  0.00     0.087 A 
HETATM   25  C6  UNL     1      -3.580 -10.964  19.648  1.00  0.00    -0.024 A 
HETATM   26  S1  UNL     1      -1.686 -10.050  18.426  1.00  0.00    -0.067 SA
HETATM   27  N4  UNL     1      -1.678  -7.855  20.260  1.00  0.00    -0.374 N 
HETATM   28  C3  UNL     1      -2.856 -11.345  18.558  1.00  0.00     0.064 A 
HETATM   29  C23 UNL     1      -0.318  -7.514  19.968  1.00  0.00     0.150 C 
HETATM   30  C7  UNL     1      -4.751 -11.838  20.105  1.00  0.00     0.050 C 
BRANCH  28  31
HETATM   31  C2  UNL     1      -2.916 -12.486  17.647  1.00  0.00     0.153 C 
BRANCH  31  32
HETATM   32  N1  UNL     1      -3.932 -12.794  16.746  1.00  0.00    -0.374 N 
HETATM   33  C1  UNL     1      -4.189 -11.776  15.667  1.00  0.00     0.148 C 
ATOM     34  H1  UNL     1      -4.470 -13.658  16.813  1.00  0.00     0.161 HD
ENDBRANCH  31  32
BRANCH  31  35
HETATM   35  O1  UNL     1      -1.880 -13.281  17.720  1.00  0.00    -0.345 OA
ATOM     36  H1  UNL     1      -1.116 -13.083  17.190  1.00  0.00     0.219 HD
ENDBRANCH  31  35
ENDBRANCH  28  31
ENDBRANCH   1  18
TORSDOF 8
ENDMDL
MODEL 3
REMARK VINA RESULT: -6.787022502      1.063      1.463
REMARK  8 active torsions:
REMARK  status: ('A' for Active; 'I' for Inactive)
REMARK    1  A    between atoms: N1_2  and  C2_4 
REMARK    2  A    between atoms: C2_4  and  O1_5 
REMARK    3  A    between atoms: C2_4  and  C3_7 
REMARK    4  A    between atoms: C10_16  and  C11_17 
REMARK    5  A    between atoms: C14_20  and  C15_21 
REMARK    6  A    between atoms: C15_21  and  N2_22 
REMARK    7  A    between atoms: C16_24  and  O3_25 
REMARK    8  A    between atoms: C16_24  and  N3_27 
ROOT
HETATM    1  C11 UNL     1      -2.879  -6.547  24.062  1.00  0.00    -0.033 A 
HETATM    2  C12 UNL     1      -1.940  -6.678  25.045  1.00  0.00     0.012 A 
HETATM    3  C13 UNL     1      -1.466  -5.568  25.751  1.00  0.00     0.012 A 
HETATM    4  C14 UNL     1      -1.932  -4.330  25.474  1.00  0.00    -0.007 A 
HETATM    5  C19 UNL     1      -2.898  -4.152  24.471  1.00  0.00     0.076 A 
HETATM    6  O4  UNL     1      -3.341  -2.985  24.206  1.00  0.00    -0.355 OA
HETATM    7  C20 UNL     1      -3.816  -1.846  23.900  1.00  0.00     0.210 C 
HETATM    8  C21 UNL     1      -3.351  -5.283  23.783  1.00  0.00     0.048 A 
ENDROOT
BRANCH   4   9
HETATM    9  C15 UNL     1      -1.466  -3.135  26.189  1.00  0.00     0.164 C 
BRANCH   9  10
HETATM   10  N2  UNL     1      -1.496  -3.225  27.613  1.00  0.00    -0.352 N 
HETATM   11  C16 UNL     1      -2.464  -2.704  28.328  1.00  0.00     0.214 C 
ATOM     12  H2  UNL     1      -0.739  -3.712  28.092  1.00  0.00     0.163 HD
BRANCH  11  13
HETATM   13  O3  UNL     1      -2.440  -2.823  29.709  1.00  0.00    -0.333 OA
ATOM     14  H3  UNL     1      -2.654  -3.655  30.115  1.00  0.00     0.220 HD
ENDBRANCH  11  13
BRANCH  11  15
HETATM   15  N3  UNL     1      -3.546  -2.015  27.738  1.00  0.00    -0.356 N 
HETATM   16  C17 UNL     1      -3.450  -0.615  27.419  1.00  0.00     0.152 C 
HETATM   17  C18 UNL     1      -4.765  -2.725  27.453  1.00  0.00     0.152 C 
ENDBRANCH  11  15
ENDBRANCH   9  10
ENDBRANCH   4   9
BRANCH   1  18
HETATM   18  C10 UNL     1      -3.361  -7.687  23.319  1.00  0.00     0.024 C 
HETATM   19  C9  UNL     1      -3.234  -7.925  22.033  1.00  0.00     0.011 C 
HETATM   20  C8  UNL     1      -3.814  -9.182  21.491  1.00  0.00     0.193 C 
HETATM   21  C22 UNL     1      -2.577  -7.014  21.073  1.00  0.00     0.165 C 
HETATM   22  C5  UNL     1      -3.225  -9.799  20.276  1.00  0.00     0.056 A 
HETATM   23  O2  UNL     1      -4.772  -9.644  22.101  1.00  0.00    -0.287 OA
HETATM   24  C4  UNL     1      -2.169  -9.112  19.765  1.00  0.00     0.087 A 
HETATM   25  C6  UNL     1      -3.579 -10.959  19.649  1.00  0.00    -0.024 A 
HETATM   26  S1  UNL     1      -1.672 -10.045  18.449  1.00  0.00    -0.067 SA
HETATM   27  N4  UNL     1      -1.676  -7.858  20.293  1.00  0.00    -0.374 N 
HETATM   28  C3  UNL     1      -2.847 -11.337  18.564  1.00  0.00     0.064 A 
HETATM   29  C23 UNL     1      -0.312  -7.519  20.015  1.00  0.00     0.150 C 
HETATM   30  C7  UNL     1      -4.757 -11.832  20.091  1.00  0.00     0.050 C 
BRANCH  28  31
HETATM   31  C2  UNL     1      -2.901 -12.474  17.648  1.00  0.00     0.153 C 
BRANCH  31  32
HETATM   32  N1  UNL     1      -3.879 -12.744  16.695  1.00  0.00    -0.374 N 
HETATM   33  C1  UNL     1      -4.101 -11.676  15.656  1.00  0.00     0.148 C 
ATOM     34  H1  UNL     1      -4.414 -13.612  16.699  1.00  0.00     0.161 HD
ENDBRANCH  31  32
BRANCH  31  35
HETATM   35  O1  UNL     1      -1.900 -13.307  17.772  1.00  0.00    -0.345 OA
ATOM     36  H1  UNL     1      -1.015 -12.960  17.761  1.00  0.00     0.219 HD
ENDBRANCH  31  35
ENDBRANCH  28  31
ENDBRANCH   1  18
TORSDOF 8
ENDMDL
MODEL 4
REMARK VINA RESULT: -6.778345050      1.527      2.077
REMARK  8 active torsions:
REMARK  status: ('A' for Active; 'I' for Inactive)
REMARK    1  A    between atoms: N1_2  and  C2_4 
REMARK    2  A    between atoms: C2_4  and  O1_5 
REMARK    3  A    between atoms: C2_4  and  C3_7 
REMARK    4  A    between atoms: C10_16  and  C11_17 
REMARK    5  A    between atoms: C14_20  and  C15_21 
REMARK    6  A    between atoms: C15_21  and  N2_22 
REMARK    7  A    between atoms: C16_24  and  O3_25 
REMARK    8  A    between atoms: C16_24  and  N3_27 
ROOT
HETATM    1  C11 UNL     1      -3.112  -6.125  23.591  1.00  0.00    -0.033 A 
HETATM    2  C12 UNL     1      -1.956  -6.055  24.315  1.00  0.00     0.012 A 
HETATM    3  C13 UNL     1      -1.555  -4.868  24.934  1.00  0.00     0.012 A 
HETATM    4  C14 UNL     1      -2.311  -3.752  24.830  1.00  0.00    -0.007 A 
HETATM    5  C19 UNL     1      -3.507  -3.782  24.096  1.00  0.00     0.076 A 
HETATM    6  O4  UNL     1      -4.224  -2.730  23.995  1.00  0.00    -0.355 OA
HETATM    7  C20 UNL     1      -4.975  -1.714  23.862  1.00  0.00     0.210 C 
HETATM    8  C21 UNL     1      -3.879  -4.985  23.489  1.00  0.00     0.048 A 
ENDROOT
BRANCH   4   9
HETATM    9  C15 UNL     1      -1.932  -2.483  25.464  1.00  0.00     0.164 C 
BRANCH   9  10
HETATM   10  N2  UNL     1      -0.592  -2.056  25.220  1.00  0.00    -0.352 N 
HETATM   11  C16 UNL     1      -0.295  -1.172  24.297  1.00  0.00     0.214 C 
ATOM     12  H2  UNL     1       0.162  -2.451  25.783  1.00  0.00     0.163 HD
BRANCH  11  13
HETATM   13  O3  UNL     1       1.025  -0.795  24.105  1.00  0.00    -0.333 OA
ATOM     14  H3  UNL     1       1.318   0.061  24.395  1.00  0.00     0.220 HD
ENDBRANCH  11  13
BRANCH  11  15
HETATM   15  N3  UNL     1      -1.282  -0.581  23.479  1.00  0.00    -0.356 N 
HETATM   16  C17 UNL     1      -2.005   0.585  23.912  1.00  0.00     0.152 C 
HETATM   17  C18 UNL     1      -1.570  -1.156  22.192  1.00  0.00     0.152 C 
ENDBRANCH  11  15
ENDBRANCH   9  10
ENDBRANCH   4   9
BRANCH   1  18
HETATM   18  C10 UNL     1      -3.524  -7.344  22.937  1.00  0.00     0.024 C 
HETATM   19  C9  UNL     1      -3.324  -7.697  21.688  1.00  0.00     0.011 C 
HETATM   20  C8  UNL     1      -3.841  -9.017  21.239  1.00  0.00     0.193 C 
HETATM   21  C22 UNL     1      -2.643  -6.858  20.678  1.00  0.00     0.165 C 
HETATM   22  C5  UNL     1      -3.173  -9.725  20.118  1.00  0.00     0.056 A 
HETATM   23  O2  UNL     1      -4.816  -9.450  21.842  1.00  0.00    -0.287 OA
HETATM   24  C4  UNL     1      -2.111  -9.055  19.596  1.00  0.00     0.087 A 
HETATM   25  C6  UNL     1      -3.463 -10.949  19.588  1.00  0.00    -0.024 A 
HETATM   26  S1  UNL     1      -1.521 -10.090  18.401  1.00  0.00    -0.067 SA
HETATM   27  N4  UNL     1      -1.680  -7.742  20.027  1.00  0.00    -0.374 N 
HETATM   28  C3  UNL     1      -2.665 -11.404  18.580  1.00  0.00     0.064 A 
HETATM   29  C23 UNL     1      -0.314  -7.388  19.786  1.00  0.00     0.150 C 
HETATM   30  C7  UNL     1      -4.637 -11.815  20.052  1.00  0.00     0.050 C 
BRANCH  28  31
HETATM   31  C2  UNL     1      -2.641 -12.622  17.774  1.00  0.00     0.153 C 
BRANCH  31  32
HETATM   32  N1  UNL     1      -3.574 -13.023  16.822  1.00  0.00    -0.374 N 
HETATM   33  C1  UNL     1      -4.131 -11.934  15.944  1.00  0.00     0.148 C 
ATOM     34  H1  UNL     1      -3.863 -13.996  16.725  1.00  0.00     0.161 HD
ENDBRANCH  31  32
BRANCH  31  35
HETATM   35  O1  UNL     1      -1.610 -13.394  18.006  1.00  0.00    -0.345 OA
ATOM     36  H1  UNL     1      -0.927 -13.079  18.586  1.00  0.00     0.219 HD
ENDBRANCH  31  35
ENDBRANCH  28  31
ENDBRANCH   1  18
TORSDOF 8
ENDMDL
MODEL 5
REMARK VINA RESULT: -6.762578326      1.828      2.374
REMARK  8 active torsions:
REMARK  status: ('A' for Active; 'I' for Inactive)
REMARK    1  A    between atoms: N1_2  and  C2_4 
REMARK    2  A    between atoms: C2_4  and  O1_5 
REMARK    3  A    between atoms: C2_4  and  C3_7 
REMARK    4  A    between atoms: C10_16  and  C11_17 
REMARK    5  A    between atoms: C14_20  and  C15_21 
REMARK    6  A    between atoms: C15_21  and  N2_22 
REMARK    7  A    between atoms: C16_24  and  O3_25 
REMARK    8  A    between atoms: C16_24  and  N3_27 
ROOT
HETATM    1  C11 UNL     1      -3.029  -5.031  22.018  1.00  0.00    -0.033 A 
HETATM    2  C12 UNL     1      -2.033  -4.474  22.769  1.00  0.00     0.012 A 
HETATM    3  C13 UNL     1      -2.321  -3.654  23.864  1.00  0.00     0.012 A 
HETATM    4  C14 UNL     1      -3.602  -3.392  24.207  1.00  0.00    -0.007 A 
HETATM    5  C19 UNL     1      -4.654  -3.946  23.461  1.00  0.00     0.076 A 
HETATM    6  O4  UNL     1      -5.865  -3.701  23.781  1.00  0.00    -0.355 OA
HETATM    7  C20 UNL     1      -7.089  -3.491  24.054  1.00  0.00     0.210 C 
HETATM    8  C21 UNL     1      -4.333  -4.762  22.371  1.00  0.00     0.048 A 
ENDROOT
BRANCH   4   9
HETATM    9  C15 UNL     1      -3.953  -2.538  25.348  1.00  0.00     0.164 C 
BRANCH   9  10
HETATM   10  N2  UNL     1      -4.397  -3.231  26.515  1.00  0.00    -0.352 N 
HETATM   11  C16 UNL     1      -3.612  -3.448  27.542  1.00  0.00     0.214 C 
ATOM     12  H2  UNL     1      -5.359  -3.568  26.551  1.00  0.00     0.163 HD
BRANCH  11  13
HETATM   13  O3  UNL     1      -4.099  -4.126  28.649  1.00  0.00    -0.333 OA
ATOM     14  H3  UNL     1      -4.303  -5.052  28.582  1.00  0.00     0.220 HD
ENDBRANCH  11  13
BRANCH  11  15
HETATM   15  N3  UNL     1      -2.269  -3.012  27.567  1.00  0.00    -0.356 N 
HETATM   16  C17 UNL     1      -1.939  -1.641  27.854  1.00  0.00     0.152 C 
HETATM   17  C18 UNL     1      -1.215  -3.953  27.298  1.00  0.00     0.152 C 
ENDBRANCH  11  15
ENDBRANCH   9  10
ENDBRANCH   4   9
BRANCH   1  18
HETATM   18  C10 UNL     1      -2.739  -5.867  20.877  1.00  0.00     0.024 C 
HETATM   19  C9  UNL     1      -2.568  -7.170  20.854  1.00  0.00     0.011 C 
HETATM   20  C8  UNL     1      -2.282  -7.818  19.547  1.00  0.00     0.193 C 
HETATM   21  C22 UNL     1      -2.610  -8.042  22.047  1.00  0.00     0.165 C 
HETATM   22  C5  UNL     1      -2.667  -9.234  19.329  1.00  0.00     0.056 A 
HETATM   23  O2  UNL     1      -1.728  -7.119  18.706  1.00  0.00    -0.287 OA
HETATM   24  C4  UNL     1      -3.268  -9.814  20.402  1.00  0.00     0.087 A 
HETATM   25  C6  UNL     1      -2.533  -9.993  18.201  1.00  0.00    -0.024 A 
HETATM   26  S1  UNL     1      -3.641 -11.372  19.870  1.00  0.00    -0.067 SA
HETATM   27  N4  UNL     1      -3.472  -9.162  21.677  1.00  0.00    -0.374 N 
HETATM   28  C3  UNL     1      -3.011 -11.268  18.240  1.00  0.00     0.064 A 
HETATM   29  C23 UNL     1      -4.526  -9.660  22.509  1.00  0.00     0.150 C 
HETATM   30  C7  UNL     1      -1.861  -9.490  16.920  1.00  0.00     0.050 C 
BRANCH  28  31
HETATM   31  C2  UNL     1      -3.060 -12.365  17.275  1.00  0.00     0.153 C 
BRANCH  31  32
HETATM   32  N1  UNL     1      -4.116 -12.703  16.434  1.00  0.00    -0.374 N 
HETATM   33  C1  UNL     1      -4.438 -11.711  15.347  1.00  0.00     0.148 C 
ATOM     34  H1  UNL     1      -4.640 -13.570  16.546  1.00  0.00     0.161 HD
ENDBRANCH  31  32
BRANCH  31  35
HETATM   35  O1  UNL     1      -1.968 -13.084  17.231  1.00  0.00    -0.345 OA
ATOM     36  H1  UNL     1      -1.909 -13.784  16.591  1.00  0.00     0.219 HD
ENDBRANCH  31  35
ENDBRANCH  28  31
ENDBRANCH   1  18
TORSDOF 8
ENDMDL
