MODEL 1
REMARK VINA RESULT: -7.560404686      0.000      0.000
REMARK  9 active torsions:
REMARK  status: ('A' for Active; 'I' for Inactive)
REMARK    1  A    between atoms: C2_2  and  O2_4 
REMARK    2  A    between atoms: O2_4  and  C3_5 
REMARK    3  A    between atoms: N1_8  and  C6_9 
REMARK    4  A    between atoms: C6_9  and  C7_10 
REMARK    5  A    between atoms: C7_10  and  C8_11 
REMARK    6  A    between atoms: C12_15  and  O3_16 
REMARK    7  A    between atoms: O3_16  and  C13_17 
REMARK    8  A    between atoms: C13_17  and  C14_19 
REMARK    9  A    between atoms: C14_19  and  N2_20 
ROOT
HETATM    1  C8  UNL     1      -0.378  -5.965  18.763  1.00  0.00    -0.008 C 
HETATM    2  C9  UNL     1      -0.887  -6.893  17.691  1.00  0.00     0.010 C 
HETATM    3  C10 UNL     1      -2.006  -7.677  18.348  1.00  0.00    -0.003 C 
HETATM    4  C11 UNL     1      -2.540  -8.637  17.304  1.00  0.00     0.038 C 
HETATM    5  C12 UNL     1      -2.305 -10.020  17.832  1.00  0.00     0.133 C 
HETATM    6  C15 UNL     1      -1.232  -9.816  18.854  1.00  0.00     0.042 C 
HETATM    7  C16 UNL     1      -1.562  -8.468  19.525  1.00  0.00    -0.034 C 
HETATM    8  C17 UNL     1      -2.810  -8.744  20.358  1.00  0.00     0.016 C 
HETATM    9  C18 UNL     1      -0.417  -7.986  20.284  1.00  0.00     0.003 C 
HETATM   10  C19 UNL     1      -0.673  -7.608  21.740  1.00  0.00    -0.009 C 
HETATM   11  C20 UNL     1      -1.450  -6.351  21.887  1.00  0.00     0.005 C 
HETATM   12  C21 UNL     1      -0.478  -5.204  21.568  1.00  0.00     0.005 C 
HETATM   13  C22 UNL     1       0.698  -5.965  21.023  1.00  0.00    -0.009 C 
HETATM   14  C23 UNL     1       0.750  -7.097  22.068  1.00  0.00     0.010 C 
HETATM   15  C24 UNL     1       0.319  -6.796  19.796  1.00  0.00    -0.001 C 
ENDROOT
BRANCH   1  16
HETATM   16  C7  UNL     1       0.627  -5.026  18.144  1.00  0.00     0.035 C 
BRANCH  16  17
HETATM   17  C6  UNL     1       1.847  -5.689  17.599  1.00  0.00     0.273 C 
BRANCH  17  18
HETATM   18  N1  UNL     1       1.855  -5.703  16.144  1.00  0.00     0.091 N 
HETATM   19  C5  UNL     1       1.560  -4.400  15.588  1.00  0.00     0.275 C 
HETATM   20  C4  UNL     1       2.271  -4.339  14.238  1.00  0.00     0.064 C 
HETATM   21  C3  UNL     1       3.015  -5.663  14.163  1.00  0.00     0.161 C 
HETATM   22  C25 UNL     1       3.203  -5.943  15.661  1.00  0.00     0.304 C 
BRANCH  21  23
HETATM   23  O2  UNL     1       2.174  -6.700  13.686  1.00  0.00    -0.315 OA
BRANCH  23  24
HETATM   24  C2  UNL     1       2.395  -7.341  12.475  1.00  0.00     0.255 C 
HETATM   25  C1  UNL     1       2.179  -6.587  11.199  1.00  0.00     0.126 C 
HETATM   26  O1  UNL     1       2.770  -8.529  12.518  1.00  0.00    -0.266 OA
ENDBRANCH  23  24
ENDBRANCH  21  23
ENDBRANCH  17  18
ENDBRANCH  16  17
ENDBRANCH   1  16
BRANCH   5  27
HETATM   27  O3  UNL     1      -1.883 -10.937  16.833  1.00  0.00    -0.315 OA
BRANCH  27  28
HETATM   28  C13 UNL     1      -2.589 -11.126  15.657  1.00  0.00     0.284 C 
HETATM   29  O4  UNL     1      -2.031 -10.787  14.582  1.00  0.00    -0.263 OA
BRANCH  28  30
HETATM   30  C14 UNL     1      -3.956 -11.699  15.577  1.00  0.00     0.340 C 
BRANCH  30  31
HETATM   31  N2  UNL     1      -4.067 -12.994  16.175  1.00  0.00    -0.070 N 
ATOM     32  H23 UNL     1      -4.387 -13.681  15.493  1.00  0.00     0.274 HD
ATOM     33  H22 UNL     1      -3.144 -13.377  16.380  1.00  0.00     0.274 HD
ATOM     34  H21 UNL     1      -4.657 -13.008  17.006  1.00  0.00     0.274 HD
ENDBRANCH  30  31
ENDBRANCH  28  30
ENDBRANCH  27  28
ENDBRANCH   5  27
TORSDOF 9
ENDMDL
MODEL 2
REMARK VINA RESULT: -7.282800100      2.092      2.918
REMARK  9 active torsions:
REMARK  status: ('A' for Active; 'I' for Inactive)
REMARK    1  A    between atoms: C2_2  and  O2_4 
REMARK    2  A    between atoms: O2_4  and  C3_5 
REMARK    3  A    between atoms: N1_8  and  C6_9 
REMARK    4  A    between atoms: C6_9  and  C7_10 
REMARK    5  A    between atoms: C7_10  and  C8_11 
REMARK    6  A    between atoms: C12_15  and  O3_16 
REMARK    7  A    between atoms: O3_16  and  C13_17 
REMARK    8  A    between atoms: C13_17  and  C14_19 
REMARK    9  A    between atoms: C14_19  and  N2_20 
ROOT
HETATM    1  C8  UNL     1      -0.453  -6.043  18.687  1.00  0.00    -0.008 C 
HETATM    2  C9  UNL     1      -0.968  -6.978  17.625  1.00  0.00     0.010 C 
HETATM    3  C10 UNL     1      -2.068  -7.774  18.299  1.00  0.00    -0.003 C 
HETATM    4  C11 UNL     1      -2.606  -8.742  17.266  1.00  0.00     0.038 C 
HETATM    5  C12 UNL     1      -2.347 -10.121  17.791  1.00  0.00     0.133 C 
HETATM    6  C15 UNL     1      -1.261  -9.903  18.797  1.00  0.00     0.042 C 
HETATM    7  C16 UNL     1      -1.597  -8.558  19.471  1.00  0.00    -0.034 C 
HETATM    8  C17 UNL     1      -2.828  -8.847  20.323  1.00  0.00     0.016 C 
HETATM    9  C18 UNL     1      -0.446  -8.062  20.211  1.00  0.00     0.003 C 
HETATM   10  C19 UNL     1      -0.683  -7.684  21.671  1.00  0.00    -0.009 C 
HETATM   11  C20 UNL     1      -1.473  -6.436  21.827  1.00  0.00     0.005 C 
HETATM   12  C21 UNL     1      -0.520  -5.278  21.491  1.00  0.00     0.005 C 
HETATM   13  C22 UNL     1       0.657  -6.026  20.930  1.00  0.00    -0.009 C 
HETATM   14  C23 UNL     1       0.739  -7.155  21.976  1.00  0.00     0.010 C 
HETATM   15  C24 UNL     1       0.269  -6.863  19.711  1.00  0.00    -0.001 C 
ENDROOT
BRANCH   1  16
HETATM   16  C7  UNL     1       0.530  -5.093  18.051  1.00  0.00     0.035 C 
BRANCH  16  17
HETATM   17  C6  UNL     1       1.084  -5.550  16.744  1.00  0.00     0.273 C 
BRANCH  17  18
HETATM   18  N1  UNL     1       2.532  -5.422  16.689  1.00  0.00     0.091 N 
HETATM   19  C5  UNL     1       3.076  -5.952  15.456  1.00  0.00     0.275 C 
HETATM   20  C4  UNL     1       4.356  -5.166  15.181  1.00  0.00     0.064 C 
HETATM   21  C3  UNL     1       4.401  -4.145  16.307  1.00  0.00     0.161 C 
HETATM   22  C25 UNL     1       2.900  -4.021  16.609  1.00  0.00     0.304 C 
BRANCH  21  23
HETATM   23  O2  UNL     1       4.979  -4.697  17.479  1.00  0.00    -0.315 OA
BRANCH  23  24
HETATM   24  C2  UNL     1       5.859  -3.986  18.281  1.00  0.00     0.255 C 
HETATM   25  C1  UNL     1       7.075  -3.367  17.662  1.00  0.00     0.126 C 
HETATM   26  O1  UNL     1       5.583  -3.898  19.494  1.00  0.00    -0.266 OA
ENDBRANCH  23  24
ENDBRANCH  21  23
ENDBRANCH  17  18
ENDBRANCH  16  17
ENDBRANCH   1  16
BRANCH   5  27
HETATM   27  O3  UNL     1      -1.929 -11.035  16.787  1.00  0.00    -0.315 OA
BRANCH  27  28
HETATM   28  C13 UNL     1      -2.631 -11.208  15.606  1.00  0.00     0.284 C 
HETATM   29  O4  UNL     1      -2.051 -10.899  14.534  1.00  0.00    -0.263 OA
BRANCH  28  30
HETATM   30  C14 UNL     1      -4.018 -11.730  15.518  1.00  0.00     0.340 C 
BRANCH  30  31
HETATM   31  N2  UNL     1      -4.175 -13.029  16.097  1.00  0.00    -0.070 N 
ATOM     32  H23 UNL     1      -4.520 -13.694  15.405  1.00  0.00     0.274 HD
ATOM     33  H22 UNL     1      -3.266 -13.448  16.296  1.00  0.00     0.274 HD
ATOM     34  H21 UNL     1      -4.766 -13.034  16.928  1.00  0.00     0.274 HD
ENDBRANCH  30  31
ENDBRANCH  28  30
ENDBRANCH  27  28
ENDBRANCH   5  27
TORSDOF 9
ENDMDL
MODEL 3
REMARK VINA RESULT: -7.248708925      1.459      1.823
REMARK  9 active torsions:
REMARK  status: ('A' for Active; 'I' for Inactive)
REMARK    1  A    between atoms: C2_2  and  O2_4 
REMARK    2  A    between atoms: O2_4  and  C3_5 
REMARK    3  A    between atoms: N1_8  and  C6_9 
REMARK    4  A    between atoms: C6_9  and  C7_10 
REMARK    5  A    between atoms: C7_10  and  C8_11 
REMARK    6  A    between atoms: C12_15  and  O3_16 
REMARK    7  A    between atoms: O3_16  and  C13_17 
REMARK    8  A    between atoms: C13_17  and  C14_19 
REMARK    9  A    between atoms: C14_19  and  N2_20 
ROOT
HETATM    1  C8  UNL     1      -1.208  -5.933  19.141  1.00  0.00    -0.008 C 
HETATM    2  C9  UNL     1      -1.572  -6.838  17.993  1.00  0.00     0.010 C 
HETATM    3  C10 UNL     1      -2.529  -7.856  18.581  1.00  0.00    -0.003 C 
HETATM    4  C11 UNL     1      -2.911  -8.800  17.459  1.00  0.00     0.038 C 
HETATM    5  C12 UNL     1      -2.435 -10.162  17.862  1.00  0.00     0.133 C 
HETATM    6  C15 UNL     1      -1.393  -9.867  18.895  1.00  0.00     0.042 C 
HETATM    7  C16 UNL     1      -1.935  -8.658  19.683  1.00  0.00    -0.034 C 
HETATM    8  C17 UNL     1      -3.102  -9.214  20.492  1.00  0.00     0.016 C 
HETATM    9  C18 UNL     1      -0.875  -8.055  20.478  1.00  0.00     0.003 C 
HETATM   10  C19 UNL     1      -1.164  -7.853  21.962  1.00  0.00    -0.009 C 
HETATM   11  C20 UNL     1      -2.141  -6.766  22.222  1.00  0.00     0.005 C 
HETATM   12  C21 UNL     1      -1.384  -5.446  22.002  1.00  0.00     0.005 C 
HETATM   13  C22 UNL     1      -0.106  -5.944  21.388  1.00  0.00    -0.009 C 
HETATM   14  C23 UNL     1       0.157  -7.137  22.329  1.00  0.00     0.010 C 
HETATM   15  C24 UNL     1      -0.360  -6.719  20.094  1.00  0.00    -0.001 C 
ENDROOT
BRANCH   1  16
HETATM   16  C7  UNL     1      -0.389  -4.787  18.604  1.00  0.00     0.035 C 
BRANCH  16  17
HETATM   17  C6  UNL     1      -0.009  -4.911  17.167  1.00  0.00     0.273 C 
BRANCH  17  18
HETATM   18  N1  UNL     1       1.395  -4.600  16.945  1.00  0.00     0.091 N 
HETATM   19  C5  UNL     1       1.821  -3.446  17.709  1.00  0.00     0.275 C 
HETATM   20  C4  UNL     1       3.311  -3.641  17.984  1.00  0.00     0.064 C 
HETATM   21  C3  UNL     1       3.613  -5.004  17.380  1.00  0.00     0.161 C 
HETATM   22  C25 UNL     1       2.226  -5.655  17.495  1.00  0.00     0.304 C 
BRANCH  21  23
HETATM   23  O2  UNL     1       3.871  -4.905  15.990  1.00  0.00    -0.315 OA
BRANCH  23  24
HETATM   24  C2  UNL     1       4.202  -6.007  15.214  1.00  0.00     0.255 C 
HETATM   25  C1  UNL     1       3.350  -6.349  14.030  1.00  0.00     0.126 C 
HETATM   26  O1  UNL     1       5.209  -6.661  15.549  1.00  0.00    -0.266 OA
ENDBRANCH  23  24
ENDBRANCH  21  23
ENDBRANCH  17  18
ENDBRANCH  16  17
ENDBRANCH   1  16
BRANCH   5  27
HETATM   27  O3  UNL     1      -1.880 -10.904  16.784  1.00  0.00    -0.315 OA
BRANCH  27  28
HETATM   28  C13 UNL     1      -2.582 -11.143  15.614  1.00  0.00     0.284 C 
HETATM   29  O4  UNL     1      -2.043 -10.794  14.532  1.00  0.00    -0.263 OA
BRANCH  28  30
HETATM   30  C14 UNL     1      -3.921 -11.780  15.548  1.00  0.00     0.340 C 
BRANCH  30  31
HETATM   31  N2  UNL     1      -3.993 -13.026  16.246  1.00  0.00    -0.070 N 
ATOM     32  H23 UNL     1      -4.773 -13.588  15.903  1.00  0.00     0.274 HD
ATOM     33  H22 UNL     1      -3.218 -13.634  15.981  1.00  0.00     0.274 HD
ATOM     34  H21 UNL     1      -4.042 -12.922  17.259  1.00  0.00     0.274 HD
ENDBRANCH  30  31
ENDBRANCH  28  30
ENDBRANCH  27  28
ENDBRANCH   5  27
TORSDOF 9
ENDMDL
MODEL 4
REMARK VINA RESULT: -7.203270932      3.551      7.977
REMARK  9 active torsions:
REMARK  status: ('A' for Active; 'I' for Inactive)
REMARK    1  A    between atoms: C2_2  and  O2_4 
REMARK    2  A    between atoms: O2_4  and  C3_5 
REMARK    3  A    between atoms: N1_8  and  C6_9 
REMARK    4  A    between atoms: C6_9  and  C7_10 
REMARK    5  A    between atoms: C7_10  and  C8_11 
REMARK    6  A    between atoms: C12_15  and  O3_16 
REMARK    7  A    between atoms: O3_16  and  C13_17 
REMARK    8  A    between atoms: C13_17  and  C14_19 
REMARK    9  A    between atoms: C14_19  and  N2_20 
ROOT
HETATM    1  C8  UNL     1      -3.627 -10.157  19.630  1.00  0.00    -0.008 C 
HETATM    2  C9  UNL     1      -3.247  -8.706  19.774  1.00  0.00     0.010 C 
HETATM    3  C10 UNL     1      -2.895  -8.249  18.372  1.00  0.00    -0.003 C 
HETATM    4  C11 UNL     1      -2.491  -6.793  18.473  1.00  0.00     0.038 C 
HETATM    5  C12 UNL     1      -1.063  -6.710  18.026  1.00  0.00     0.133 C 
HETATM    6  C15 UNL     1      -0.577  -8.116  18.182  1.00  0.00     0.042 C 
HETATM    7  C16 UNL     1      -1.766  -9.006  17.770  1.00  0.00    -0.034 C 
HETATM    8  C17 UNL     1      -1.880  -8.826  16.260  1.00  0.00     0.016 C 
HETATM    9  C18 UNL     1      -1.548 -10.377  18.206  1.00  0.00     0.003 C 
HETATM   10  C19 UNL     1      -1.689 -11.463  17.143  1.00  0.00    -0.009 C 
HETATM   11  C20 UNL     1      -3.097 -11.692  16.728  1.00  0.00     0.005 C 
HETATM   12  C21 UNL     1      -3.761 -12.471  17.875  1.00  0.00     0.005 C 
HETATM   13  C22 UNL     1      -2.704 -12.378  18.939  1.00  0.00    -0.009 C 
HETATM   14  C23 UNL     1      -1.468 -12.682  18.070  1.00  0.00     0.010 C 
HETATM   15  C24 UNL     1      -2.385 -10.926  19.299  1.00  0.00    -0.001 C 
ENDROOT
BRANCH   1  16
HETATM   16  C7  UNL     1      -4.157 -10.646  20.954  1.00  0.00     0.035 C 
BRANCH  16  17
HETATM   17  C6  UNL     1      -4.603  -9.568  21.884  1.00  0.00     0.273 C 
BRANCH  17  18
HETATM   18  N1  UNL     1      -3.486  -8.958  22.590  1.00  0.00     0.091 N 
HETATM   19  C5  UNL     1      -3.755  -7.579  22.937  1.00  0.00     0.275 C 
HETATM   20  C4  UNL     1      -2.946  -7.290  24.200  1.00  0.00     0.064 C 
HETATM   21  C3  UNL     1      -2.302  -8.628  24.528  1.00  0.00     0.161 C 
HETATM   22  C25 UNL     1      -3.329  -9.577  23.893  1.00  0.00     0.304 C 
BRANCH  21  23
HETATM   23  O2  UNL     1      -1.105  -8.817  23.792  1.00  0.00    -0.315 OA
BRANCH  23  24
HETATM   24  C2  UNL     1      -0.244  -7.772  23.489  1.00  0.00     0.255 C 
HETATM   25  C1  UNL     1      -0.034  -7.390  22.057  1.00  0.00     0.126 C 
HETATM   26  O1  UNL     1       0.315  -7.198  24.445  1.00  0.00    -0.266 OA
ENDBRANCH  23  24
ENDBRANCH  21  23
ENDBRANCH  17  18
ENDBRANCH  16  17
ENDBRANCH   1  16
BRANCH   5  27
HETATM   27  O3  UNL     1      -0.282  -5.816  18.806  1.00  0.00    -0.315 OA
BRANCH  27  28
HETATM   28  C13 UNL     1       0.571  -4.887  18.232  1.00  0.00     0.284 C 
HETATM   29  O4  UNL     1       0.051  -3.952  17.571  1.00  0.00    -0.263 OA
BRANCH  28  30
HETATM   30  C14 UNL     1       2.051  -4.919  18.343  1.00  0.00     0.340 C 
BRANCH  30  31
HETATM   31  N2  UNL     1       2.676  -5.766  17.375  1.00  0.00    -0.070 N 
ATOM     32  H23 UNL     1       2.202  -5.697  16.474  1.00  0.00     0.274 HD
ATOM     33  H22 UNL     1       3.591  -5.401  17.113  1.00  0.00     0.274 HD
ATOM     34  H21 UNL     1       2.746  -6.739  17.672  1.00  0.00     0.274 HD
ENDBRANCH  30  31
ENDBRANCH  28  30
ENDBRANCH  27  28
ENDBRANCH   5  27
TORSDOF 9
ENDMDL
MODEL 5
REMARK VINA RESULT: -7.182463414      1.141      1.768
REMARK  9 active torsions:
REMARK  status: ('A' for Active; 'I' for Inactive)
REMARK    1  A    between atoms: C2_2  and  O2_4 
REMARK    2  A    between atoms: O2_4  and  C3_5 
REMARK    3  A    between atoms: N1_8  and  C6_9 
REMARK    4  A    between atoms: C6_9  and  C7_10 
REMARK    5  A    between atoms: C7_10  and  C8_11 
REMARK    6  A    between atoms: C12_15  and  O3_16 
REMARK    7  A    between atoms: O3_16  and  C13_17 
REMARK    8  A    between atoms: C13_17  and  C14_19 
REMARK    9  A    between atoms: C14_19  and  N2_20 
ROOT
HETATM    1  C8  UNL     1      -0.540  -6.104  18.584  1.00  0.00    -0.008 C 
HETATM    2  C9  UNL     1      -1.089  -7.073  17.569  1.00  0.00     0.010 C 
HETATM    3  C10 UNL     1      -2.146  -7.865  18.312  1.00  0.00    -0.003 C 
HETATM    4  C11 UNL     1      -2.717  -8.867  17.329  1.00  0.00     0.038 C 
HETATM    5  C12 UNL     1      -2.415 -10.228  17.877  1.00  0.00     0.133 C 
HETATM    6  C15 UNL     1      -1.289  -9.970  18.827  1.00  0.00     0.042 C 
HETATM    7  C16 UNL     1      -1.613  -8.612  19.481  1.00  0.00    -0.034 C 
HETATM    8  C17 UNL     1      -2.802  -8.895  20.394  1.00  0.00     0.016 C 
HETATM    9  C18 UNL     1      -0.437  -8.083  20.157  1.00  0.00     0.003 C 
HETATM   10  C19 UNL     1      -0.615  -7.670  21.615  1.00  0.00    -0.009 C 
HETATM   11  C20 UNL     1      -1.415  -6.429  21.775  1.00  0.00     0.005 C 
HETATM   12  C21 UNL     1      -0.493  -5.268  21.368  1.00  0.00     0.005 C 
HETATM   13  C22 UNL     1       0.668  -6.015  20.774  1.00  0.00    -0.009 C 
HETATM   14  C23 UNL     1       0.811  -7.116  21.843  1.00  0.00     0.010 C 
HETATM   15  C24 UNL     1       0.238  -6.889  19.594  1.00  0.00    -0.001 C 
ENDROOT
BRANCH   1  16
HETATM   16  C7  UNL     1       0.401  -5.159  17.881  1.00  0.00     0.035 C 
BRANCH  16  17
HETATM   17  C6  UNL     1       0.130  -4.975  16.426  1.00  0.00     0.273 C 
BRANCH  17  18
HETATM   18  N1  UNL     1       1.195  -5.522  15.599  1.00  0.00     0.091 N 
HETATM   19  C5  UNL     1       0.695  -6.026  14.337  1.00  0.00     0.275 C 
HETATM   20  C4  UNL     1       1.840  -5.885  13.336  1.00  0.00     0.064 C 
HETATM   21  C3  UNL     1       2.939  -5.207  14.139  1.00  0.00     0.161 C 
HETATM   22  C25 UNL     1       2.085  -4.457  15.172  1.00  0.00     0.304 C 
BRANCH  21  23
HETATM   23  O2  UNL     1       3.690  -6.152  14.883  1.00  0.00    -0.315 OA
BRANCH  23  24
HETATM   24  C2  UNL     1       5.027  -5.957  15.201  1.00  0.00     0.255 C 
HETATM   25  C1  UNL     1       5.380  -5.265  16.481  1.00  0.00     0.126 C 
HETATM   26  O1  UNL     1       5.874  -6.378  14.389  1.00  0.00    -0.266 OA
ENDBRANCH  23  24
ENDBRANCH  21  23
ENDBRANCH  17  18
ENDBRANCH  16  17
ENDBRANCH   1  16
BRANCH   5  27
HETATM   27  O3  UNL     1      -2.029 -11.162  16.879  1.00  0.00    -0.315 OA
BRANCH  27  28
HETATM   28  C13 UNL     1      -2.673 -11.244  15.655  1.00  0.00     0.284 C 
HETATM   29  O4  UNL     1      -2.036 -10.872  14.637  1.00  0.00    -0.263 OA
BRANCH  28  30
HETATM   30  C14 UNL     1      -4.059 -11.740  15.463  1.00  0.00     0.340 C 
BRANCH  30  31
HETATM   31  N2  UNL     1      -4.277 -13.047  16.003  1.00  0.00    -0.070 N 
ATOM     32  H23 UNL     1      -3.408 -13.581  16.019  1.00  0.00     0.274 HD
ATOM     33  H22 UNL     1      -4.463 -12.997  17.005  1.00  0.00     0.274 HD
ATOM     34  H21 UNL     1      -5.011 -13.567  15.524  1.00  0.00     0.274 HD
ENDBRANCH  30  31
ENDBRANCH  28  30
ENDBRANCH  27  28
ENDBRANCH   5  27
TORSDOF 9
ENDMDL
