MODEL 1
REMARK VINA RESULT: -9.165935884      0.000      0.000
REMARK  11 active torsions:
REMARK  status: ('A' for Active; 'I' for Inactive)
REMARK    1  A    between atoms: C2_2  and  C3_3 
REMARK    2  A    between atoms: C3_3  and  N1_4 
REMARK    3  A    between atoms: C3_3  and  C14_20 
REMARK    4  A    between atoms: C3_3  and  C17_24 
REMARK    5  A    between atoms: N1_4  and  S1_6 
REMARK    6  A    between atoms: S1_6  and  C4_9 
REMARK    7  A    between atoms: C6_11  and  C7_12 
REMARK    8  A    between atoms: C17_24  and  O3_25 
REMARK    9  A    between atoms: C17_24  and  C18_27 
REMARK   10  A    between atoms: C18_27  and  N3_28 
REMARK   11  A    between atoms: N3_28  and  C19_31 
ROOT
HETATM    1  C14 UNL     1      15.104  -1.932  51.578  1.00  0.00     0.120 C 
HETATM    2  C15 UNL     1      14.463  -3.236  51.149  1.00  0.00     0.028 C 
HETATM    3  C16 UNL     1      15.809  -2.202  52.834  1.00  0.00     0.066 C 
HETATM    4  N2  UNL     1      16.364  -2.466  53.809  1.00  0.00    -0.197 NA
ENDROOT
BRANCH   1   5
HETATM    5  C3  UNL     1      14.107  -0.833  51.591  1.00  0.00     0.083 C 
BRANCH   5   6
HETATM    6  C2  UNL     1      14.027  -0.134  50.276  1.00  0.00     0.031 C 
HETATM    7  C1  UNL     1      15.291   0.580  49.852  1.00  0.00     0.007 C 
ENDBRANCH   5   6
BRANCH   5   8
HETATM    8  N1  UNL     1      14.289  -0.052  52.731  1.00  0.00    -0.301 N 
ATOM      9  H1  UNL     1      15.003  -0.445  53.344  1.00  0.00     0.173 HD
BRANCH   8  10
HETATM   10  S1  UNL     1      13.674   1.298  53.336  1.00  0.00     0.261 S 
HETATM   11  O1  UNL     1      12.500   1.922  52.602  1.00  0.00    -0.200 OA
HETATM   12  O2  UNL     1      13.214   1.182  54.820  1.00  0.00    -0.200 OA
BRANCH  10  13
HETATM   13  C4  UNL     1      14.840   2.600  53.411  1.00  0.00     0.101 A 
HETATM   14  C5  UNL     1      14.285   3.899  53.386  1.00  0.00     0.035 A 
HETATM   15  C6  UNL     1      15.058   5.002  53.497  1.00  0.00    -0.049 A 
HETATM   16  C11 UNL     1      16.429   4.853  53.641  1.00  0.00     0.010 A 
HETATM   17  C12 UNL     1      17.006   3.600  53.667  1.00  0.00     0.026 A 
HETATM   18  C13 UNL     1      16.181   2.485  53.546  1.00  0.00     0.057 A 
HETATM   19 CL1  UNL     1      16.958   0.932  53.440  1.00  0.00    -0.083 Cl
BRANCH  15  20
HETATM   20  C7  UNL     1      14.417   6.350  53.416  1.00  0.00    -0.024 C 
HETATM   21  C8  UNL     1      13.551   6.597  54.615  1.00  0.00     0.019 C 
HETATM   22  C9  UNL     1      13.633   6.571  52.161  1.00  0.00     0.019 C 
HETATM   23  C10 UNL     1      15.575   7.368  53.444  1.00  0.00     0.019 C 
ENDBRANCH  15  20
ENDBRANCH  10  13
ENDBRANCH   8  10
ENDBRANCH   5   8
BRANCH   5  24
HETATM   24  C17 UNL     1      12.743  -1.502  51.888  1.00  0.00     0.173 C 
BRANCH  24  25
HETATM   25  O3  UNL     1      11.759  -0.875  51.171  1.00  0.00    -0.391 OA
ATOM     26  H3  UNL     1      11.097  -0.538  51.765  1.00  0.00     0.210 HD
ENDBRANCH  24  25
BRANCH  24  27
HETATM   27  C18 UNL     1      12.379  -1.869  53.235  1.00  0.00     0.266 C 
BRANCH  27  28
HETATM   28  N3  UNL     1      11.388  -2.993  53.068  1.00  0.00    -0.068 N 
ATOM     29  H32 UNL     1      10.430  -2.681  53.221  1.00  0.00     0.277 HD
ATOM     30  H31 UNL     1      11.300  -3.282  52.094  1.00  0.00     0.277 HD
BRANCH  28  31
HETATM   31  C19 UNL     1      11.739  -4.105  53.931  1.00  0.00     0.190 C 
HETATM   32  C20 UNL     1      11.984  -5.293  53.029  1.00  0.00     0.059 C 
HETATM   33  C21 UNL     1      13.266  -6.031  53.340  1.00  0.00     0.169 C 
HETATM   34  O4  UNL     1      13.449  -6.112  54.738  1.00  0.00    -0.391 OA
HETATM   35  C22 UNL     1      13.842  -4.851  55.131  1.00  0.00     0.169 C 
HETATM   36  C23 UNL     1      13.059  -3.718  54.570  1.00  0.00     0.059 C 
ENDBRANCH  28  31
ENDBRANCH  27  28
ENDBRANCH  24  27
ENDBRANCH   5  24
ENDBRANCH   1   5
TORSDOF 11
ENDMDL
MODEL 2
REMARK VINA RESULT: -9.092685849      2.528      3.840
REMARK  11 active torsions:
REMARK  status: ('A' for Active; 'I' for Inactive)
REMARK    1  A    between atoms: C2_2  and  C3_3 
REMARK    2  A    between atoms: C3_3  and  N1_4 
REMARK    3  A    between atoms: C3_3  and  C14_20 
REMARK    4  A    between atoms: C3_3  and  C17_24 
REMARK    5  A    between atoms: N1_4  and  S1_6 
REMARK    6  A    between atoms: S1_6  and  C4_9 
REMARK    7  A    between atoms: C6_11  and  C7_12 
REMARK    8  A    between atoms: C17_24  and  O3_25 
REMARK    9  A    between atoms: C17_24  and  C18_27 
REMARK   10  A    between atoms: C18_27  and  N3_28 
REMARK   11  A    between atoms: N3_28  and  C19_31 
ROOT
HETATM    1  C14 UNL     1      14.290  -2.691  51.949  1.00  0.00     0.120 C 
HETATM    2  C15 UNL     1      15.635  -2.663  52.647  1.00  0.00     0.028 C 
HETATM    3  C16 UNL     1      14.318  -3.830  51.027  1.00  0.00     0.066 C 
HETATM    4  N2  UNL     1      14.379  -4.747  50.331  1.00  0.00    -0.197 NA
ENDROOT
BRANCH   1   5
HETATM    5  C3  UNL     1      13.970  -1.364  51.366  1.00  0.00     0.083 C 
BRANCH   5   6
HETATM    6  C2  UNL     1      14.559  -1.194  50.007  1.00  0.00     0.031 C 
HETATM    7  C1  UNL     1      15.444   0.021  49.838  1.00  0.00     0.007 C 
ENDBRANCH   5   6
BRANCH   5   8
HETATM    8  N1  UNL     1      14.218  -0.369  52.310  1.00  0.00    -0.301 N 
ATOM      9  H1  UNL     1      15.030  -0.592  52.885  1.00  0.00     0.173 HD
BRANCH   8  10
HETATM   10  S1  UNL     1      13.565   1.033  52.733  1.00  0.00     0.261 S 
HETATM   11  O1  UNL     1      12.646   1.706  51.729  1.00  0.00    -0.200 OA
HETATM   12  O2  UNL     1      12.756   0.985  54.062  1.00  0.00    -0.200 OA
BRANCH  10  13
HETATM   13  C4  UNL     1      14.762   2.263  53.070  1.00  0.00     0.101 A 
HETATM   14  C5  UNL     1      14.266   3.586  53.095  1.00  0.00     0.035 A 
HETATM   15  C6  UNL     1      15.061   4.635  53.402  1.00  0.00    -0.049 A 
HETATM   16  C11 UNL     1      16.396   4.405  53.702  1.00  0.00     0.010 A 
HETATM   17  C12 UNL     1      16.914   3.127  53.685  1.00  0.00     0.026 A 
HETATM   18  C13 UNL     1      16.069   2.070  53.361  1.00  0.00     0.057 A 
HETATM   19 CL1  UNL     1      16.792   0.494  53.211  1.00  0.00    -0.083 Cl
BRANCH  15  20
HETATM   20  C7  UNL     1      14.489   6.015  53.365  1.00  0.00    -0.024 C 
HETATM   21  C8  UNL     1      15.580   7.042  53.419  1.00  0.00     0.019 C 
HETATM   22  C9  UNL     1      13.480   6.279  54.437  1.00  0.00     0.019 C 
HETATM   23  C10 UNL     1      13.782   6.140  51.999  1.00  0.00     0.019 C 
ENDBRANCH  15  20
ENDBRANCH  10  13
ENDBRANCH   8  10
ENDBRANCH   5   8
BRANCH   5  24
HETATM   24  C17 UNL     1      12.428  -1.310  51.257  1.00  0.00     0.173 C 
BRANCH  24  25
HETATM   25  O3  UNL     1      11.871  -2.106  52.222  1.00  0.00    -0.391 OA
ATOM     26  H3  UNL     1      11.088  -2.521  51.879  1.00  0.00     0.210 HD
ENDBRANCH  24  25
BRANCH  24  27
HETATM   27  C18 UNL     1      11.777  -1.361  49.971  1.00  0.00     0.266 C 
BRANCH  27  28
HETATM   28  N3  UNL     1      11.245  -2.769  49.869  1.00  0.00    -0.068 N 
ATOM     29  H32 UNL     1      11.958  -3.461  50.093  1.00  0.00     0.277 HD
ATOM     30  H31 UNL     1      10.587  -2.982  50.619  1.00  0.00     0.277 HD
BRANCH  28  31
HETATM   31  C19 UNL     1      10.664  -2.994  48.561  1.00  0.00     0.190 C 
HETATM   32  C20 UNL     1       9.163  -2.972  48.742  1.00  0.00     0.059 C 
HETATM   33  C21 UNL     1       8.447  -2.102  47.736  1.00  0.00     0.169 C 
HETATM   34  O4  UNL     1       9.036  -2.253  46.461  1.00  0.00    -0.391 OA
HETATM   35  C22 UNL     1      10.224  -1.557  46.520  1.00  0.00     0.169 C 
HETATM   36  C23 UNL     1      11.055  -1.786  47.732  1.00  0.00     0.059 C 
ENDBRANCH  28  31
ENDBRANCH  27  28
ENDBRANCH  24  27
ENDBRANCH   5  24
ENDBRANCH   1   5
TORSDOF 11
ENDMDL
MODEL 3
REMARK VINA RESULT: -8.728823090      2.608      7.639
REMARK  11 active torsions:
REMARK  status: ('A' for Active; 'I' for Inactive)
REMARK    1  A    between atoms: C2_2  and  C3_3 
REMARK    2  A    between atoms: C3_3  and  N1_4 
REMARK    3  A    between atoms: C3_3  and  C14_20 
REMARK    4  A    between atoms: C3_3  and  C17_24 
REMARK    5  A    between atoms: N1_4  and  S1_6 
REMARK    6  A    between atoms: S1_6  and  C4_9 
REMARK    7  A    between atoms: C6_11  and  C7_12 
REMARK    8  A    between atoms: C17_24  and  O3_25 
REMARK    9  A    between atoms: C17_24  and  C18_27 
REMARK   10  A    between atoms: C18_27  and  N3_28 
REMARK   11  A    between atoms: N3_28  and  C19_31 
ROOT
HETATM    1  C14 UNL     1      15.842  -0.961  54.446  1.00  0.00     0.120 C 
HETATM    2  C15 UNL     1      16.835  -1.121  53.312  1.00  0.00     0.028 C 
HETATM    3  C16 UNL     1      15.957  -2.162  55.279  1.00  0.00     0.066 C 
HETATM    4  N2  UNL     1      16.096  -3.114  55.913  1.00  0.00    -0.197 NA
ENDROOT
BRANCH   1   5
HETATM    5  C3  UNL     1      14.492  -0.634  53.924  1.00  0.00     0.083 C 
BRANCH   5   6
HETATM    6  C2  UNL     1      13.475  -1.645  54.333  1.00  0.00     0.031 C 
HETATM    7  C1  UNL     1      13.235  -2.755  53.334  1.00  0.00     0.007 C 
ENDBRANCH   5   6
BRANCH   5   8
HETATM    8  N1  UNL     1      14.581  -0.314  52.570  1.00  0.00    -0.301 N 
ATOM      9  H1  UNL     1      15.540  -0.387  52.231  1.00  0.00     0.173 HD
BRANCH   8  10
HETATM   10  S1  UNL     1      13.578   0.138  51.405  1.00  0.00     0.261 S 
HETATM   11  O1  UNL     1      12.090   0.093  51.707  1.00  0.00    -0.200 OA
HETATM   12  O2  UNL     1      13.841   1.572  50.857  1.00  0.00    -0.200 OA
BRANCH  10  13
HETATM   13  C4  UNL     1      13.726  -0.842  49.964  1.00  0.00     0.101 A 
HETATM   14  C5  UNL     1      12.723  -1.825  49.807  1.00  0.00     0.035 A 
HETATM   15  C6  UNL     1      12.673  -2.617  48.713  1.00  0.00    -0.049 A 
HETATM   16  C11 UNL     1      13.629  -2.458  47.720  1.00  0.00     0.010 A 
HETATM   17  C12 UNL     1      14.624  -1.509  47.841  1.00  0.00     0.026 A 
HETATM   18  C13 UNL     1      14.648  -0.714  48.983  1.00  0.00     0.057 A 
HETATM   19 CL1  UNL     1      15.997   0.370  49.164  1.00  0.00    -0.083 Cl
BRANCH  15  20
HETATM   20  C7  UNL     1      11.617  -3.671  48.626  1.00  0.00    -0.024 C 
HETATM   21  C8  UNL     1      12.199  -4.965  48.142  1.00  0.00     0.019 C 
HETATM   22  C9  UNL     1      10.446  -3.284  47.780  1.00  0.00     0.019 C 
HETATM   23  C10 UNL     1      11.116  -3.882  50.070  1.00  0.00     0.019 C 
ENDBRANCH  15  20
ENDBRANCH  10  13
ENDBRANCH   8  10
ENDBRANCH   5   8
BRANCH   5  24
HETATM   24  C17 UNL     1      14.118   0.734  54.541  1.00  0.00     0.173 C 
BRANCH  24  25
HETATM   25  O3  UNL     1      12.758   0.896  54.509  1.00  0.00    -0.391 OA
ATOM     26  H3  UNL     1      12.505   1.303  53.688  1.00  0.00     0.210 HD
ENDBRANCH  24  25
BRANCH  24  27
HETATM   27  C18 UNL     1      14.882   1.917  54.231  1.00  0.00     0.266 C 
BRANCH  27  28
HETATM   28  N3  UNL     1      13.859   2.919  53.758  1.00  0.00    -0.068 N 
ATOM     29  H32 UNL     1      13.189   2.502  53.113  1.00  0.00     0.277 HD
ATOM     30  H31 UNL     1      13.210   3.180  54.501  1.00  0.00     0.277 HD
BRANCH  28  31
HETATM   31  C19 UNL     1      14.516   4.076  53.184  1.00  0.00     0.190 C 
HETATM   32  C20 UNL     1      13.889   5.294  53.825  1.00  0.00     0.059 C 
HETATM   33  C21 UNL     1      14.902   6.297  54.328  1.00  0.00     0.169 C 
HETATM   34  O4  UNL     1      15.967   6.411  53.408  1.00  0.00    -0.391 OA
HETATM   35  C22 UNL     1      16.718   5.268  53.573  1.00  0.00     0.169 C 
HETATM   36  C23 UNL     1      15.958   3.991  53.644  1.00  0.00     0.059 C 
ENDBRANCH  28  31
ENDBRANCH  27  28
ENDBRANCH  24  27
ENDBRANCH   5  24
ENDBRANCH   1   5
TORSDOF 11
ENDMDL
MODEL 4
REMARK VINA RESULT: -8.696839013      2.111      2.802
REMARK  11 active torsions:
REMARK  status: ('A' for Active; 'I' for Inactive)
REMARK    1  A    between atoms: C2_2  and  C3_3 
REMARK    2  A    between atoms: C3_3  and  N1_4 
REMARK    3  A    between atoms: C3_3  and  C14_20 
REMARK    4  A    between atoms: C3_3  and  C17_24 
REMARK    5  A    between atoms: N1_4  and  S1_6 
REMARK    6  A    between atoms: S1_6  and  C4_9 
REMARK    7  A    between atoms: C6_11  and  C7_12 
REMARK    8  A    between atoms: C17_24  and  O3_25 
REMARK    9  A    between atoms: C17_24  and  C18_27 
REMARK   10  A    between atoms: C18_27  and  N3_28 
REMARK   11  A    between atoms: N3_28  and  C19_31 
ROOT
HETATM    1  C14 UNL     1      14.495  -2.450  52.288  1.00  0.00     0.120 C 
HETATM    2  C15 UNL     1      15.786  -2.296  53.067  1.00  0.00     0.028 C 
HETATM    3  C16 UNL     1      14.623  -3.681  51.501  1.00  0.00     0.066 C 
HETATM    4  N2  UNL     1      14.761  -4.664  50.916  1.00  0.00    -0.197 NA
ENDROOT
BRANCH   1   5
HETATM    5  C3  UNL     1      14.177  -1.207  51.543  1.00  0.00     0.083 C 
BRANCH   5   6
HETATM    6  C2  UNL     1      14.743  -1.222  50.163  1.00  0.00     0.031 C 
HETATM    7  C1  UNL     1      15.572  -0.012  49.797  1.00  0.00     0.007 C 
ENDBRANCH   5   6
BRANCH   5   8
HETATM    8  N1  UNL     1      14.449  -0.100  52.345  1.00  0.00    -0.301 N 
ATOM      9  H1  UNL     1      15.335  -0.206  52.840  1.00  0.00     0.173 HD
BRANCH   8  10
HETATM   10  S1  UNL     1      13.741   1.294  52.697  1.00  0.00     0.261 S 
HETATM   11  O1  UNL     1      12.853   1.915  51.632  1.00  0.00    -0.200 OA
HETATM   12  O2  UNL     1      12.871   1.260  53.988  1.00  0.00    -0.200 OA
BRANCH  10  13
HETATM   13  C4  UNL     1      14.888   2.565  53.055  1.00  0.00     0.101 A 
HETATM   14  C5  UNL     1      14.343   3.868  53.083  1.00  0.00     0.035 A 
HETATM   15  C6  UNL     1      15.095   4.944  53.405  1.00  0.00    -0.049 A 
HETATM   16  C11 UNL     1      16.435   4.761  53.718  1.00  0.00     0.010 A 
HETATM   17  C12 UNL     1      17.000   3.503  53.699  1.00  0.00     0.026 A 
HETATM   18  C13 UNL     1      16.198   2.418  53.359  1.00  0.00     0.057 A 
HETATM   19 CL1  UNL     1      16.980   0.871  53.207  1.00  0.00    -0.083 Cl
BRANCH  15  20
HETATM   20  C7  UNL     1      14.473   6.302  53.371  1.00  0.00    -0.024 C 
HETATM   21  C8  UNL     1      13.584   6.507  54.561  1.00  0.00     0.019 C 
HETATM   22  C9  UNL     1      13.722   6.590  52.111  1.00  0.00     0.019 C 
HETATM   23  C10 UNL     1      15.644   7.302  53.471  1.00  0.00     0.019 C 
ENDBRANCH  15  20
ENDBRANCH  10  13
ENDBRANCH   8  10
ENDBRANCH   5   8
BRANCH   5  24
HETATM   24  C17 UNL     1      12.633  -1.151  51.452  1.00  0.00     0.173 C 
BRANCH  24  25
HETATM   25  O3  UNL     1      12.089  -1.541  52.647  1.00  0.00    -0.391 OA
ATOM     26  H3  UNL     1      11.539  -2.305  52.513  1.00  0.00     0.210 HD
ENDBRANCH  24  25
BRANCH  24  27
HETATM   27  C18 UNL     1      11.944  -1.633  50.281  1.00  0.00     0.266 C 
BRANCH  27  28
HETATM   28  N3  UNL     1      11.371  -2.964  50.696  1.00  0.00    -0.068 N 
ATOM     29  H32 UNL     1      12.014  -3.485  51.292  1.00  0.00     0.277 HD
ATOM     30  H31 UNL     1      10.603  -2.858  51.359  1.00  0.00     0.277 HD
BRANCH  28  31
HETATM   31  C19 UNL     1      10.976  -3.728  49.529  1.00  0.00     0.190 C 
HETATM   32  C20 UNL     1      12.200  -3.842  48.650  1.00  0.00     0.059 C 
HETATM   33  C21 UNL     1      12.464  -5.249  48.164  1.00  0.00     0.169 C 
HETATM   34  O4  UNL     1      11.246  -5.878  47.822  1.00  0.00    -0.391 OA
HETATM   35  C22 UNL     1      10.645  -6.189  49.022  1.00  0.00     0.169 C 
HETATM   36  C23 UNL     1      10.639  -5.112  50.049  1.00  0.00     0.059 C 
ENDBRANCH  28  31
ENDBRANCH  27  28
ENDBRANCH  24  27
ENDBRANCH   5  24
ENDBRANCH   1   5
TORSDOF 11
ENDMDL
MODEL 5
REMARK VINA RESULT: -8.541203302      1.847      3.102
REMARK  11 active torsions:
REMARK  status: ('A' for Active; 'I' for Inactive)
REMARK    1  A    between atoms: C2_2  and  C3_3 
REMARK    2  A    between atoms: C3_3  and  N1_4 
REMARK    3  A    between atoms: C3_3  and  C14_20 
REMARK    4  A    between atoms: C3_3  and  C17_24 
REMARK    5  A    between atoms: N1_4  and  S1_6 
REMARK    6  A    between atoms: S1_6  and  C4_9 
REMARK    7  A    between atoms: C6_11  and  C7_12 
REMARK    8  A    between atoms: C17_24  and  O3_25 
REMARK    9  A    between atoms: C17_24  and  C18_27 
REMARK   10  A    between atoms: C18_27  and  N3_28 
REMARK   11  A    between atoms: N3_28  and  C19_31 
ROOT
HETATM    1  C14 UNL     1      14.196  -2.109  54.532  1.00  0.00     0.120 C 
HETATM    2  C15 UNL     1      15.515  -1.846  55.231  1.00  0.00     0.028 C 
HETATM    3  C16 UNL     1      14.018  -3.564  54.502  1.00  0.00     0.066 C 
HETATM    4  N2  UNL     1      13.913  -4.711  54.519  1.00  0.00    -0.197 NA
ENDROOT
BRANCH   1   5
HETATM    5  C3  UNL     1      14.137  -1.399  53.231  1.00  0.00     0.083 C 
BRANCH   5   6
HETATM    6  C2  UNL     1      14.942  -2.087  52.182  1.00  0.00     0.031 C 
HETATM    7  C1  UNL     1      15.533  -1.178  51.127  1.00  0.00     0.007 C 
ENDBRANCH   5   6
BRANCH   5   8
HETATM    8  N1  UNL     1      14.360  -0.038  53.433  1.00  0.00    -0.301 N 
ATOM      9  H1  UNL     1      14.954   0.128  54.244  1.00  0.00     0.173 HD
BRANCH   8  10
HETATM   10  S1  UNL     1      13.930   1.336  52.729  1.00  0.00     0.261 S 
HETATM   11  O1  UNL     1      13.846   1.348  51.212  1.00  0.00    -0.200 OA
HETATM   12  O2  UNL     1      12.566   1.905  53.218  1.00  0.00    -0.200 OA
BRANCH  10  13
HETATM   13  C4  UNL     1      15.029   2.651  53.080  1.00  0.00     0.101 A 
HETATM   14  C5  UNL     1      14.441   3.936  53.077  1.00  0.00     0.035 A 
HETATM   15  C6  UNL     1      15.152   5.042  53.390  1.00  0.00    -0.049 A 
HETATM   16  C11 UNL     1      16.492   4.909  53.725  1.00  0.00     0.010 A 
HETATM   17  C12 UNL     1      17.099   3.670  53.737  1.00  0.00     0.026 A 
HETATM   18  C13 UNL     1      16.338   2.553  53.405  1.00  0.00     0.057 A 
HETATM   19 CL1  UNL     1      17.173   1.030  53.293  1.00  0.00    -0.083 Cl
BRANCH  15  20
HETATM   20  C7  UNL     1      14.486   6.378  53.322  1.00  0.00    -0.024 C 
HETATM   21  C8  UNL     1      13.698   6.512  52.054  1.00  0.00     0.019 C 
HETATM   22  C9  UNL     1      15.428   7.530  53.467  1.00  0.00     0.019 C 
HETATM   23  C10 UNL     1      13.498   6.414  54.506  1.00  0.00     0.019 C 
ENDBRANCH  15  20
ENDBRANCH  10  13
ENDBRANCH   8  10
ENDBRANCH   5   8
BRANCH   5  24
HETATM   24  C17 UNL     1      12.648  -1.409  52.810  1.00  0.00     0.173 C 
BRANCH  24  25
HETATM   25  O3  UNL     1      11.865  -1.071  53.882  1.00  0.00    -0.391 OA
ATOM     26  H3  UNL     1      11.383  -1.835  54.177  1.00  0.00     0.210 HD
ENDBRANCH  24  25
BRANCH  24  27
HETATM   27  C18 UNL     1      12.123  -2.464  51.979  1.00  0.00     0.266 C 
BRANCH  27  28
HETATM   28  N3  UNL     1      11.695  -1.771  50.709  1.00  0.00    -0.068 N 
ATOM     29  H32 UNL     1      10.730  -1.446  50.761  1.00  0.00     0.277 HD
ATOM     30  H31 UNL     1      12.153  -0.867  50.595  1.00  0.00     0.277 HD
BRANCH  28  31
HETATM   31  C19 UNL     1      11.915  -2.635  49.566  1.00  0.00     0.190 C 
HETATM   32  C20 UNL     1      12.883  -1.913  48.657  1.00  0.00     0.059 C 
HETATM   33  C21 UNL     1      14.029  -2.781  48.187  1.00  0.00     0.169 C 
HETATM   34  O4  UNL     1      13.560  -4.079  47.888  1.00  0.00    -0.391 OA
HETATM   35  C22 UNL     1      13.339  -4.680  49.108  1.00  0.00     0.169 C 
HETATM   36  C23 UNL     1      12.612  -3.864  50.117  1.00  0.00     0.059 C 
ENDBRANCH  28  31
ENDBRANCH  27  28
ENDBRANCH  24  27
ENDBRANCH   5  24
ENDBRANCH   1   5
TORSDOF 11
ENDMDL
