MODEL 1
REMARK VINA RESULT: -8.960621749      0.000      0.000
REMARK  10 active torsions:
REMARK  status: ('A' for Active; 'I' for Inactive)
REMARK    1  A    between atoms: C2_2  and  C4_4 
REMARK    2  A    between atoms: C4_4  and  O1_5 
REMARK    3  A    between atoms: O1_5  and  C5_6 
REMARK    4  A    between atoms: C10_12  and  C11_13 
REMARK       I    between atoms: C11_13  and  N1_15 
REMARK    5  A    between atoms: N1_15  and  C12_17 
REMARK    6  A    between atoms: C12_17  and  C13_18 
REMARK    7  A    between atoms: C12_17  and  C20_33 
REMARK       I    between atoms: C13_18  and  N2_20 
REMARK    8  A    between atoms: N2_20  and  C14_22 
REMARK    9  A    between atoms: C14_22  and  C16_24 
REMARK   10  A    between atoms: C16_24  and  C17_26 
ROOT
HETATM    1  C12 UNL     1      14.562  -0.298  50.067  1.00  0.00     0.180 C 
ENDROOT
BRANCH   1   2
HETATM    2  N1  UNL     1      13.953  -1.563  50.324  1.00  0.00    -0.343 N 
HETATM    3  C11 UNL     1      12.636  -1.925  50.560  1.00  0.00     0.255 C 
HETATM    4  O2  UNL     1      11.738  -1.014  50.589  1.00  0.00    -0.268 OA
ATOM      5  H1  UNL     1      14.608  -2.345  50.335  1.00  0.00     0.163 HD
BRANCH   3   6
HETATM    6  C10 UNL     1      12.164  -3.282  50.780  1.00  0.00     0.067 A 
HETATM    7  C5  UNL     1      11.294  -3.984  49.975  1.00  0.00     0.084 A 
HETATM    8  C6  UNL     1      10.950  -5.283  50.325  1.00  0.00     0.039 A 
HETATM    9  C7  UNL     1      11.426  -5.925  51.441  1.00  0.00     0.026 A 
HETATM   10  C8  UNL     1      12.294  -5.242  52.255  1.00  0.00     0.035 A 
HETATM   11 CL1  UNL     1      12.896  -6.069  53.680  1.00  0.00    -0.084 Cl
HETATM   12  C9  UNL     1      12.638  -3.970  51.922  1.00  0.00     0.043 A 
BRANCH   7  13
HETATM   13  O1  UNL     1      10.753  -3.474  48.862  1.00  0.00    -0.350 OA
BRANCH  13  14
HETATM   14  C4  UNL     1       9.550  -2.933  48.502  1.00  0.00     0.179 C 
BRANCH  14  15
HETATM   15  C2  UNL     1       9.543  -1.787  47.554  1.00  0.00     0.002 C 
HETATM   16  C1  UNL     1       8.751  -2.092  46.290  1.00  0.00     0.011 C 
HETATM   17  C3  UNL     1      10.989  -1.585  47.096  1.00  0.00     0.011 C 
ENDBRANCH  14  15
ENDBRANCH  13  14
ENDBRANCH   7  13
ENDBRANCH   3   6
ENDBRANCH   1   2
BRANCH   1  18
HETATM   18  C13 UNL     1      15.280   0.384  51.123  1.00  0.00     0.241 C 
HETATM   19  O3  UNL     1      16.503   0.561  51.152  1.00  0.00    -0.271 OA
HETATM   20  N2  UNL     1      14.577   0.926  52.279  1.00  0.00    -0.348 N 
ATOM     21  H2  UNL     1      13.565   0.817  52.339  1.00  0.00     0.163 HD
BRANCH  20  22
HETATM   22  C14 UNL     1      15.274   1.614  53.347  1.00  0.00     0.157 C 
HETATM   23  C15 UNL     1      15.201   0.751  54.610  1.00  0.00     0.041 C 
BRANCH  22  24
HETATM   24  C16 UNL     1      14.649   2.930  53.580  1.00  0.00     0.198 C 
HETATM   25  O4  UNL     1      13.384   2.978  53.730  1.00  0.00    -0.288 OA
BRANCH  24  26
HETATM   26  C17 UNL     1      15.450   4.187  53.643  1.00  0.00     0.090 A 
HETATM   27  C18 UNL     1      16.818   4.122  53.652  1.00  0.00     0.088 A 
HETATM   28  S1  UNL     1      17.252   5.773  53.688  1.00  0.00    -0.039 SA
HETATM   29  C19 UNL     1      15.685   6.439  53.691  1.00  0.00     0.288 A 
HETATM   30  O5  UNL     1      15.306   7.667  53.713  1.00  0.00    -0.260 OA
HETATM   31  N3  UNL     1      14.897   5.366  53.663  1.00  0.00    -0.314 N 
ATOM     32  H3  UNL     1      13.883   5.466  53.657  1.00  0.00     0.170 HD
ENDBRANCH  24  26
ENDBRANCH  22  24
ENDBRANCH  20  22
ENDBRANCH   1  18
BRANCH   1  33
HETATM   33  C20 UNL     1      15.249  -0.386  48.735  1.00  0.00     0.009 C 
HETATM   34  C21 UNL     1      14.719  -1.411  47.795  1.00  0.00     0.012 C 
HETATM   35  C22 UNL     1      15.314   0.941  48.003  1.00  0.00     0.012 C 
ENDBRANCH   1  33
TORSDOF 10
ENDMDL
MODEL 2
REMARK VINA RESULT: -8.817636736      3.897      8.616
REMARK  10 active torsions:
REMARK  status: ('A' for Active; 'I' for Inactive)
REMARK    1  A    between atoms: C2_2  and  C4_4 
REMARK    2  A    between atoms: C4_4  and  O1_5 
REMARK    3  A    between atoms: O1_5  and  C5_6 
REMARK    4  A    between atoms: C10_12  and  C11_13 
REMARK       I    between atoms: C11_13  and  N1_15 
REMARK    5  A    between atoms: N1_15  and  C12_17 
REMARK    6  A    between atoms: C12_17  and  C13_18 
REMARK    7  A    between atoms: C12_17  and  C20_33 
REMARK       I    between atoms: C13_18  and  N2_20 
REMARK    8  A    between atoms: N2_20  and  C14_22 
REMARK    9  A    between atoms: C14_22  and  C16_24 
REMARK   10  A    between atoms: C16_24  and  C17_26 
ROOT
HETATM    1  C12 UNL     1      14.373  -0.242  50.502  1.00  0.00     0.180 C 
ENDROOT
BRANCH   1   2
HETATM    2  N1  UNL     1      14.730   0.964  51.176  1.00  0.00    -0.343 N 
HETATM    3  C11 UNL     1      13.964   1.950  51.777  1.00  0.00     0.255 C 
HETATM    4  O2  UNL     1      12.689   1.845  51.752  1.00  0.00    -0.268 OA
ATOM      5  H1  UNL     1      15.735   1.131  51.224  1.00  0.00     0.163 HD
BRANCH   3   6
HETATM    6  C10 UNL     1      14.486   3.123  52.459  1.00  0.00     0.067 A 
HETATM    7  C5  UNL     1      15.494   3.140  53.397  1.00  0.00     0.084 A 
HETATM    8  C6  UNL     1      15.882   4.355  53.948  1.00  0.00     0.039 A 
HETATM    9  C7  UNL     1      15.318   5.561  53.612  1.00  0.00     0.026 A 
HETATM   10  C8  UNL     1      14.312   5.563  52.678  1.00  0.00     0.035 A 
HETATM   11 CL1  UNL     1      13.596   7.108  52.257  1.00  0.00    -0.084 Cl
HETATM   12  C9  UNL     1      13.924   4.380  52.133  1.00  0.00     0.043 A 
BRANCH   7  13
HETATM   13  O1  UNL     1      16.123   2.036  53.817  1.00  0.00    -0.350 OA
BRANCH  13  14
HETATM   14  C4  UNL     1      16.191   1.312  54.975  1.00  0.00     0.179 C 
BRANCH  14  15
HETATM   15  C2  UNL     1      15.709  -0.095  54.961  1.00  0.00     0.002 C 
HETATM   16  C1  UNL     1      16.313  -0.897  53.817  1.00  0.00     0.011 C 
HETATM   17  C3  UNL     1      14.206  -0.043  54.681  1.00  0.00     0.011 C 
ENDBRANCH  14  15
ENDBRANCH  13  14
ENDBRANCH   7  13
ENDBRANCH   3   6
ENDBRANCH   1   2
BRANCH   1  18
HETATM   18  C13 UNL     1      13.291  -1.059  51.008  1.00  0.00     0.241 C 
HETATM   19  O3  UNL     1      12.092  -0.882  50.764  1.00  0.00    -0.271 OA
HETATM   20  N2  UNL     1      13.553  -2.191  51.888  1.00  0.00    -0.348 N 
ATOM     21  H2  UNL     1      14.516  -2.404  52.146  1.00  0.00     0.163 HD
BRANCH  20  22
HETATM   22  C14 UNL     1      12.486  -3.023  52.406  1.00  0.00     0.157 C 
HETATM   23  C15 UNL     1      12.790  -3.346  53.872  1.00  0.00     0.041 C 
BRANCH  22  24
HETATM   24  C16 UNL     1      12.392  -4.262  51.610  1.00  0.00     0.198 C 
HETATM   25  O4  UNL     1      12.923  -5.322  52.080  1.00  0.00    -0.288 OA
BRANCH  24  26
HETATM   26  C17 UNL     1      11.701  -4.304  50.289  1.00  0.00     0.090 A 
HETATM   27  C18 UNL     1      12.020  -5.283  49.385  1.00  0.00     0.088 A 
HETATM   28  S1  UNL     1      10.960  -4.932  48.093  1.00  0.00    -0.039 SA
HETATM   29  C19 UNL     1      10.185  -3.577  48.771  1.00  0.00     0.288 A 
HETATM   30  O5  UNL     1       9.257  -2.827  48.294  1.00  0.00    -0.260 OA
HETATM   31  N3  UNL     1      10.772  -3.453  49.960  1.00  0.00    -0.314 N 
ATOM     32  H3  UNL     1      10.500  -2.706  50.599  1.00  0.00     0.170 HD
ENDBRANCH  24  26
ENDBRANCH  22  24
ENDBRANCH  20  22
ENDBRANCH   1  18
BRANCH   1  33
HETATM   33  C20 UNL     1      14.365   0.046  49.028  1.00  0.00     0.009 C 
HETATM   34  C21 UNL     1      15.461   0.921  48.529  1.00  0.00     0.012 C 
HETATM   35  C22 UNL     1      14.330  -1.204  48.170  1.00  0.00     0.012 C 
ENDBRANCH   1  33
TORSDOF 10
ENDMDL
MODEL 3
REMARK VINA RESULT: -8.792121133      1.474      1.778
REMARK  10 active torsions:
REMARK  status: ('A' for Active; 'I' for Inactive)
REMARK    1  A    between atoms: C2_2  and  C4_4 
REMARK    2  A    between atoms: C4_4  and  O1_5 
REMARK    3  A    between atoms: O1_5  and  C5_6 
REMARK    4  A    between atoms: C10_12  and  C11_13 
REMARK       I    between atoms: C11_13  and  N1_15 
REMARK    5  A    between atoms: N1_15  and  C12_17 
REMARK    6  A    between atoms: C12_17  and  C13_18 
REMARK    7  A    between atoms: C12_17  and  C20_33 
REMARK       I    between atoms: C13_18  and  N2_20 
REMARK    8  A    between atoms: N2_20  and  C14_22 
REMARK    9  A    between atoms: C14_22  and  C16_24 
REMARK   10  A    between atoms: C16_24  and  C17_26 
ROOT
HETATM    1  C12 UNL     1      14.874  -0.316  50.083  1.00  0.00     0.180 C 
ENDROOT
BRANCH   1   2
HETATM    2  N1  UNL     1      14.037  -1.468  50.178  1.00  0.00    -0.343 N 
HETATM    3  C11 UNL     1      12.715  -1.623  50.563  1.00  0.00     0.255 C 
HETATM    4  O2  UNL     1      12.053  -0.593  50.936  1.00  0.00    -0.268 OA
ATOM      5  H1  UNL     1      14.498  -2.339  49.913  1.00  0.00     0.163 HD
BRANCH   3   6
HETATM    6  C10 UNL     1      11.985  -2.880  50.579  1.00  0.00     0.067 A 
HETATM    7  C5  UNL     1      11.344  -3.465  49.509  1.00  0.00     0.084 A 
HETATM    8  C6  UNL     1      10.697  -4.680  49.693  1.00  0.00     0.039 A 
HETATM    9  C7  UNL     1      10.653  -5.349  50.892  1.00  0.00     0.026 A 
HETATM   10  C8  UNL     1      11.286  -4.781  51.969  1.00  0.00     0.035 A 
HETATM   11 CL1  UNL     1      11.223  -5.640  53.496  1.00  0.00    -0.084 Cl
HETATM   12  C9  UNL     1      11.922  -3.591  51.800  1.00  0.00     0.043 A 
BRANCH   7  13
HETATM   13  O1  UNL     1      11.305  -2.917  48.289  1.00  0.00    -0.350 OA
BRANCH  13  14
HETATM   14  C4  UNL     1      10.500  -2.037  47.622  1.00  0.00     0.179 C 
BRANCH  14  15
HETATM   15  C2  UNL     1       9.180  -2.515  47.130  1.00  0.00     0.002 C 
HETATM   16  C1  UNL     1       8.822  -1.920  45.775  1.00  0.00     0.011 C 
HETATM   17  C3  UNL     1       8.128  -1.983  48.105  1.00  0.00     0.011 C 
ENDBRANCH  14  15
ENDBRANCH  13  14
ENDBRANCH   7  13
ENDBRANCH   3   6
ENDBRANCH   1   2
BRANCH   1  18
HETATM   18  C13 UNL     1      15.805  -0.012  51.148  1.00  0.00     0.241 C 
HETATM   19  O3  UNL     1      16.863   0.614  51.011  1.00  0.00    -0.271 OA
HETATM   20  N2  UNL     1      15.552  -0.450  52.515  1.00  0.00    -0.348 N 
ATOM     21  H2  UNL     1      14.704  -0.979  52.715  1.00  0.00     0.163 HD
BRANCH  20  22
HETATM   22  C14 UNL     1      16.469  -0.156  53.597  1.00  0.00     0.157 C 
HETATM   23  C15 UNL     1      16.730  -1.449  54.377  1.00  0.00     0.041 C 
BRANCH  22  24
HETATM   24  C16 UNL     1      15.884   0.873  54.478  1.00  0.00     0.198 C 
HETATM   25  O4  UNL     1      15.524   0.527  55.652  1.00  0.00    -0.288 OA
BRANCH  24  26
HETATM   26  C17 UNL     1      15.707   2.286  54.036  1.00  0.00     0.090 A 
HETATM   27  C18 UNL     1      14.454   2.754  53.741  1.00  0.00     0.088 A 
HETATM   28  S1  UNL     1      14.768   4.383  53.339  1.00  0.00    -0.039 SA
HETATM   29  C19 UNL     1      16.456   4.371  53.566  1.00  0.00     0.288 A 
HETATM   30  O5  UNL     1      17.319   5.313  53.425  1.00  0.00    -0.260 OA
HETATM   31  N3  UNL     1      16.704   3.118  53.942  1.00  0.00    -0.314 N 
ATOM     32  H3  UNL     1      17.655   2.817  54.152  1.00  0.00     0.170 HD
ENDBRANCH  24  26
ENDBRANCH  22  24
ENDBRANCH  20  22
ENDBRANCH   1  18
BRANCH   1  33
HETATM   33  C20 UNL     1      15.411  -0.257  48.682  1.00  0.00     0.009 C 
HETATM   34  C21 UNL     1      14.849  -1.251  47.727  1.00  0.00     0.012 C 
HETATM   35  C22 UNL     1      15.303   1.118  48.053  1.00  0.00     0.012 C 
ENDBRANCH   1  33
TORSDOF 10
ENDMDL
MODEL 4
REMARK VINA RESULT: -8.705619098      1.418      1.823
REMARK  10 active torsions:
REMARK  status: ('A' for Active; 'I' for Inactive)
REMARK    1  A    between atoms: C2_2  and  C4_4 
REMARK    2  A    between atoms: C4_4  and  O1_5 
REMARK    3  A    between atoms: O1_5  and  C5_6 
REMARK    4  A    between atoms: C10_12  and  C11_13 
REMARK       I    between atoms: C11_13  and  N1_15 
REMARK    5  A    between atoms: N1_15  and  C12_17 
REMARK    6  A    between atoms: C12_17  and  C13_18 
REMARK    7  A    between atoms: C12_17  and  C20_33 
REMARK       I    between atoms: C13_18  and  N2_20 
REMARK    8  A    between atoms: N2_20  and  C14_22 
REMARK    9  A    between atoms: C14_22  and  C16_24 
REMARK   10  A    between atoms: C16_24  and  C17_26 
ROOT
HETATM    1  C12 UNL     1      14.933  -0.560  50.261  1.00  0.00     0.180 C 
ENDROOT
BRANCH   1   2
HETATM    2  N1  UNL     1      14.745  -1.960  50.463  1.00  0.00    -0.343 N 
HETATM    3  C11 UNL     1      14.019  -2.670  51.406  1.00  0.00     0.255 C 
HETATM    4  O2  UNL     1      13.383  -2.027  52.311  1.00  0.00    -0.268 OA
ATOM      5  H1  UNL     1      15.237  -2.547  49.789  1.00  0.00     0.163 HD
BRANCH   3   6
HETATM    6  C10 UNL     1      13.902  -4.118  51.463  1.00  0.00     0.067 A 
HETATM    7  C5  UNL     1      13.832  -4.974  50.386  1.00  0.00     0.084 A 
HETATM    8  C6  UNL     1      13.732  -6.340  50.615  1.00  0.00     0.039 A 
HETATM    9  C7  UNL     1      13.697  -6.904  51.867  1.00  0.00     0.026 A 
HETATM   10  C8  UNL     1      13.765  -6.067  52.952  1.00  0.00     0.035 A 
HETATM   11 CL1  UNL     1      13.718  -6.795  54.546  1.00  0.00    -0.084 Cl
HETATM   12  C9  UNL     1      13.864  -4.728  52.738  1.00  0.00     0.043 A 
BRANCH   7  13
HETATM   13  O1  UNL     1      13.850  -4.555  49.115  1.00  0.00    -0.350 OA
BRANCH  13  14
HETATM   14  C4  UNL     1      12.923  -4.222  48.167  1.00  0.00     0.179 C 
BRANCH  14  15
HETATM   15  C2  UNL     1      11.481  -4.346  48.509  1.00  0.00     0.002 C 
HETATM   16  C1  UNL     1      10.895  -5.676  48.055  1.00  0.00     0.011 C 
HETATM   17  C3  UNL     1      10.743  -3.274  47.704  1.00  0.00     0.011 C 
ENDBRANCH  14  15
ENDBRANCH  13  14
ENDBRANCH   7  13
ENDBRANCH   3   6
ENDBRANCH   1   2
BRANCH   1  18
HETATM   18  C13 UNL     1      15.601   0.231  51.272  1.00  0.00     0.241 C 
HETATM   19  O3  UNL     1      16.789   0.570  51.241  1.00  0.00    -0.271 OA
HETATM   20  N2  UNL     1      14.886   0.696  52.455  1.00  0.00    -0.348 N 
ATOM     21  H2  UNL     1      13.901   0.455  52.564  1.00  0.00     0.163 HD
BRANCH  20  22
HETATM   22  C14 UNL     1      15.532   1.491  53.479  1.00  0.00     0.157 C 
HETATM   23  C15 UNL     1      15.561   0.679  54.778  1.00  0.00     0.041 C 
BRANCH  22  24
HETATM   24  C16 UNL     1      14.791   2.752  53.671  1.00  0.00     0.198 C 
HETATM   25  O4  UNL     1      13.525   2.690  53.819  1.00  0.00    -0.288 OA
BRANCH  24  26
HETATM   26  C17 UNL     1      15.474   4.077  53.696  1.00  0.00     0.090 A 
HETATM   27  C18 UNL     1      16.842   4.137  53.688  1.00  0.00     0.088 A 
HETATM   28  S1  UNL     1      17.125   5.820  53.682  1.00  0.00    -0.039 SA
HETATM   29  C19 UNL     1      15.504   6.342  53.691  1.00  0.00     0.288 A 
HETATM   30  O5  UNL     1      15.015   7.530  53.692  1.00  0.00    -0.260 OA
HETATM   31  N3  UNL     1      14.817   5.202  53.697  1.00  0.00    -0.314 N 
ATOM     32  H3  UNL     1      13.797   5.209  53.703  1.00  0.00     0.170 HD
ENDBRANCH  24  26
ENDBRANCH  22  24
ENDBRANCH  20  22
ENDBRANCH   1  18
BRANCH   1  33
HETATM   33  C20 UNL     1      15.388  -0.362  48.843  1.00  0.00     0.009 C 
HETATM   34  C21 UNL     1      14.731  -1.223  47.823  1.00  0.00     0.012 C 
HETATM   35  C22 UNL     1      15.298   1.078  48.378  1.00  0.00     0.012 C 
ENDBRANCH   1  33
TORSDOF 10
ENDMDL
MODEL 5
REMARK VINA RESULT: -8.696953467      4.018      8.924
REMARK  10 active torsions:
REMARK  status: ('A' for Active; 'I' for Inactive)
REMARK    1  A    between atoms: C2_2  and  C4_4 
REMARK    2  A    between atoms: C4_4  and  O1_5 
REMARK    3  A    between atoms: O1_5  and  C5_6 
REMARK    4  A    between atoms: C10_12  and  C11_13 
REMARK       I    between atoms: C11_13  and  N1_15 
REMARK    5  A    between atoms: N1_15  and  C12_17 
REMARK    6  A    between atoms: C12_17  and  C13_18 
REMARK    7  A    between atoms: C12_17  and  C20_33 
REMARK       I    between atoms: C13_18  and  N2_20 
REMARK    8  A    between atoms: N2_20  and  C14_22 
REMARK    9  A    between atoms: C14_22  and  C16_24 
REMARK   10  A    between atoms: C16_24  and  C17_26 
ROOT
HETATM    1  C12 UNL     1      12.528  -0.603  51.767  1.00  0.00     0.180 C 
ENDROOT
BRANCH   1   2
HETATM    2  N1  UNL     1      13.488   0.360  52.200  1.00  0.00    -0.343 N 
HETATM    3  C11 UNL     1      13.378   1.712  52.486  1.00  0.00     0.255 C 
HETATM    4  O2  UNL     1      12.243   2.285  52.343  1.00  0.00    -0.268 OA
ATOM      5  H1  UNL     1      14.428  -0.016  52.322  1.00  0.00     0.163 HD
BRANCH   3   6
HETATM    6  C10 UNL     1      14.460   2.564  52.951  1.00  0.00     0.067 A 
HETATM    7  C5  UNL     1      15.683   2.144  53.426  1.00  0.00     0.084 A 
HETATM    8  C6  UNL     1      16.615   3.094  53.825  1.00  0.00     0.039 A 
HETATM    9  C7  UNL     1      16.393   4.449  53.776  1.00  0.00     0.026 A 
HETATM   10  C8  UNL     1      15.180   4.885  53.305  1.00  0.00     0.035 A 
HETATM   11 CL1  UNL     1      14.905   6.617  53.248  1.00  0.00    -0.084 Cl
HETATM   12  C9  UNL     1      14.261   3.964  52.913  1.00  0.00     0.043 A 
BRANCH   7  13
HETATM   13  O1  UNL     1      16.025   0.854  53.531  1.00  0.00    -0.350 OA
BRANCH  13  14
HETATM   14  C4  UNL     1      16.324  -0.014  54.544  1.00  0.00     0.179 C 
BRANCH  14  15
HETATM   15  C2  UNL     1      16.694  -1.411  54.195  1.00  0.00     0.002 C 
HETATM   16  C1  UNL     1      16.101  -1.846  52.862  1.00  0.00     0.011 C 
HETATM   17  C3  UNL     1      16.048  -2.314  55.248  1.00  0.00     0.011 C 
ENDBRANCH  14  15
ENDBRANCH  13  14
ENDBRANCH   7  13
ENDBRANCH   3   6
ENDBRANCH   1   2
BRANCH   1  18
HETATM   18  C13 UNL     1      12.686  -1.251  50.482  1.00  0.00     0.241 C 
HETATM   19  O3  UNL     1      13.769  -1.527  49.953  1.00  0.00    -0.271 OA
HETATM   20  N2  UNL     1      11.526  -1.631  49.686  1.00  0.00    -0.348 N 
ATOM     21  H2  UNL     1      10.593  -1.433  50.046  1.00  0.00     0.163 HD
BRANCH  20  22
HETATM   22  C14 UNL     1      11.659  -2.282  48.398  1.00  0.00     0.157 C 
HETATM   23  C15 UNL     1      10.747  -1.568  47.396  1.00  0.00     0.041 C 
BRANCH  22  24
HETATM   24  C16 UNL     1      11.286  -3.704  48.519  1.00  0.00     0.198 C 
HETATM   25  O4  UNL     1      10.323  -4.137  47.803  1.00  0.00    -0.288 OA
BRANCH  24  26
HETATM   26  C17 UNL     1      11.995  -4.633  49.445  1.00  0.00     0.090 A 
HETATM   27  C18 UNL     1      11.274  -5.479  50.245  1.00  0.00     0.088 A 
HETATM   28  S1  UNL     1      12.506  -6.335  51.060  1.00  0.00    -0.039 SA
HETATM   29  C19 UNL     1      13.850  -5.574  50.344  1.00  0.00     0.288 A 
HETATM   30  O5  UNL     1      15.107  -5.764  50.529  1.00  0.00    -0.260 OA
HETATM   31  N3  UNL     1      13.295  -4.697  49.510  1.00  0.00    -0.314 N 
ATOM     32  H3  UNL     1      13.875  -4.087  48.934  1.00  0.00     0.170 HD
ENDBRANCH  24  26
ENDBRANCH  22  24
ENDBRANCH  20  22
ENDBRANCH   1  18
BRANCH   1  33
HETATM   33  C20 UNL     1      12.219  -1.494  52.936  1.00  0.00     0.009 C 
HETATM   34  C21 UNL     1      12.585  -2.928  52.777  1.00  0.00     0.012 C 
HETATM   35  C22 UNL     1      12.805  -0.997  54.243  1.00  0.00     0.012 C 
ENDBRANCH   1  33
TORSDOF 10
ENDMDL
