MODEL 1
REMARK VINA RESULT: -9.249171542      0.000      0.000
REMARK  12 active torsions:
REMARK  status: ('A' for Active; 'I' for Inactive)
REMARK    1  A    between atoms: C2_2  and  C3_3 
REMARK    2  A    between atoms: C2_2  and  N2_12 
REMARK    3  A    between atoms: C3_3  and  C4_4 
REMARK    4  A    between atoms: C4_4  and  N1_5 
REMARK    5  A    between atoms: C7_8  and  O1_9 
REMARK    6  A    between atoms: N2_12  and  C9_14 
REMARK    7  A    between atoms: C10_17  and  N4_18 
REMARK    8  A    between atoms: C16_26  and  N6_27 
REMARK    9  A    between atoms: N6_27  and  C17_29 
REMARK   10  A    between atoms: C17_29  and  C18_30 
REMARK   11  A    between atoms: C18_30  and  C19_31 
REMARK   12  A    between atoms: C19_31  and  C20_32 
ROOT
HETATM    1  C9  UNL     1      14.306  -0.281  51.043  1.00  0.00     0.707 A 
HETATM    2  N3  UNL     1      14.018  -1.312  51.833  1.00  0.00    -0.021 N 
ATOM      3  H3  UNL     1      14.415  -2.224  51.608  1.00  0.00     0.203 HD
HETATM    4  C10 UNL     1      13.221  -1.205  52.922  1.00  0.00     0.709 A 
HETATM    5  N5  UNL     1      12.701  -0.021  53.215  1.00  0.00    -0.021 N 
ATOM      6  H5  UNL     1      12.097   0.081  54.030  1.00  0.00     0.203 HD
HETATM    7  C16 UNL     1      12.978   1.086  52.411  1.00  0.00     0.707 A 
HETATM    8  N7  UNL     1      13.767   0.936  51.352  1.00  0.00    -0.022 N 
ATOM      9  H7  UNL     1      13.975   1.742  50.761  1.00  0.00     0.203 HD
ENDROOT
BRANCH   1  10
HETATM   10  N2  UNL     1      15.044  -0.434  50.016  1.00  0.00    -0.221 N 
ATOM     11  H2  UNL     1      16.017  -0.716  50.134  1.00  0.00     0.178 HD
BRANCH  10  12
HETATM   12  C2  UNL     1      14.529  -0.218  48.704  1.00  0.00     0.097 C 
HETATM   13  C1  UNL     1      15.335   0.892  48.038  1.00  0.00     0.032 C 
BRANCH  12  14
HETATM   14  C3  UNL     1      14.635  -1.482  47.826  1.00  0.00     0.055 C 
BRANCH  14  15
HETATM   15  C4  UNL     1      13.803  -2.547  48.471  1.00  0.00     0.274 C 
BRANCH  15  16
HETATM   16  N1  UNL     1      12.523  -2.784  47.885  1.00  0.00     0.091 N 
HETATM   17  C5  UNL     1      12.226  -4.203  48.175  1.00  0.00     0.275 C 
HETATM   18  C6  UNL     1      10.737  -4.315  48.099  1.00  0.00     0.064 C 
HETATM   19  C7  UNL     1      10.230  -2.904  48.093  1.00  0.00     0.148 C 
HETATM   20  C8  UNL     1      11.444  -2.147  48.622  1.00  0.00     0.303 C 
BRANCH  19  21
HETATM   21  O1  UNL     1       9.121  -2.747  48.924  1.00  0.00    -0.394 OA
ATOM     22  H1  UNL     1       9.093  -1.882  49.316  1.00  0.00     0.210 HD
ENDBRANCH  19  21
ENDBRANCH  15  16
ENDBRANCH  14  15
ENDBRANCH  12  14
ENDBRANCH  10  12
ENDBRANCH   1  10
BRANCH   4  23
HETATM   23  N4  UNL     1      12.963  -2.373  53.730  1.00  0.00    -0.217 N 
HETATM   24  C11 UNL     1      11.920  -3.293  53.338  1.00  0.00     0.141 C 
HETATM   25  C12 UNL     1      12.189  -4.641  53.939  1.00  0.00     0.020 C 
HETATM   26  C13 UNL     1      13.666  -4.891  53.973  1.00  0.00     0.003 C 
HETATM   27  C14 UNL     1      14.367  -3.962  54.955  1.00  0.00     0.020 C 
HETATM   28  C15 UNL     1      13.769  -2.574  54.901  1.00  0.00     0.141 C 
ENDBRANCH   4  23
BRANCH   7  29
HETATM   29  N6  UNL     1      12.452   2.170  52.729  1.00  0.00    -0.225 N 
ATOM     30  H6  UNL     1      12.293   2.221  53.735  1.00  0.00     0.177 HD
BRANCH  29  31
HETATM   31  C17 UNL     1      12.032   3.304  52.109  1.00  0.00     0.138 C 
BRANCH  31  32
HETATM   32  C18 UNL     1      13.109   4.396  51.993  1.00  0.00     0.020 C 
BRANCH  32  33
HETATM   33  C19 UNL     1      13.067   5.149  53.284  1.00  0.00     0.006 C 
BRANCH  33  34
HETATM   34  C20 UNL     1      14.380   5.107  54.017  1.00  0.00    -0.014 C 
HETATM   35  C21 UNL     1      14.920   6.473  54.154  1.00  0.00     0.004 C 
HETATM   36  C22 UNL     1      16.190   6.671  53.302  1.00  0.00     0.000 C 
HETATM   37  C23 UNL     1      17.179   5.690  53.902  1.00  0.00     0.000 C 
HETATM   38  C24 UNL     1      16.734   4.305  53.521  1.00  0.00     0.000 C 
HETATM   39  C25 UNL     1      15.276   4.083  53.421  1.00  0.00     0.004 C 
ENDBRANCH  33  34
ENDBRANCH  32  33
ENDBRANCH  31  32
ENDBRANCH  29  31
ENDBRANCH   7  29
TORSDOF 12
ENDMDL
MODEL 2
REMARK VINA RESULT: -9.127120421      1.907      4.514
REMARK  12 active torsions:
REMARK  status: ('A' for Active; 'I' for Inactive)
REMARK    1  A    between atoms: C2_2  and  C3_3 
REMARK    2  A    between atoms: C2_2  and  N2_12 
REMARK    3  A    between atoms: C3_3  and  C4_4 
REMARK    4  A    between atoms: C4_4  and  N1_5 
REMARK    5  A    between atoms: C7_8  and  O1_9 
REMARK    6  A    between atoms: N2_12  and  C9_14 
REMARK    7  A    between atoms: C10_17  and  N4_18 
REMARK    8  A    between atoms: C16_26  and  N6_27 
REMARK    9  A    between atoms: N6_27  and  C17_29 
REMARK   10  A    between atoms: C17_29  and  C18_30 
REMARK   11  A    between atoms: C18_30  and  C19_31 
REMARK   12  A    between atoms: C19_31  and  C20_32 
ROOT
HETATM    1  C9  UNL     1      13.476  -0.571  53.763  1.00  0.00     0.707 A 
HETATM    2  N3  UNL     1      14.108  -0.841  52.624  1.00  0.00    -0.021 N 
ATOM      3  H3  UNL     1      14.666  -1.693  52.568  1.00  0.00     0.203 HD
HETATM    4  C10 UNL     1      14.045  -0.037  51.537  1.00  0.00     0.709 A 
HETATM    5  N5  UNL     1      13.322   1.072  51.608  1.00  0.00    -0.021 N 
ATOM      6  H5  UNL     1      13.261   1.692  50.801  1.00  0.00     0.203 HD
HETATM    7  C16 UNL     1      12.643   1.394  52.785  1.00  0.00     0.707 A 
HETATM    8  N7  UNL     1      12.732   0.574  53.828  1.00  0.00    -0.022 N 
ATOM      9  H7  UNL     1      12.237   0.803  54.691  1.00  0.00     0.203 HD
ENDROOT
BRANCH   1  10
HETATM   10  N2  UNL     1      13.582  -1.347  54.767  1.00  0.00    -0.221 N 
ATOM     11  H2  UNL     1      13.209  -1.055  55.670  1.00  0.00     0.178 HD
BRANCH  10  12
HETATM   12  C2  UNL     1      14.215  -2.619  54.646  1.00  0.00     0.097 C 
HETATM   13  C1  UNL     1      15.473  -2.625  55.508  1.00  0.00     0.032 C 
BRANCH  12  14
HETATM   14  C3  UNL     1      13.301  -3.767  55.122  1.00  0.00     0.055 C 
BRANCH  14  15
HETATM   15  C4  UNL     1      12.779  -4.460  53.901  1.00  0.00     0.274 C 
BRANCH  15  16
HETATM   16  N1  UNL     1      13.744  -4.775  52.897  1.00  0.00     0.091 N 
HETATM   17  C5  UNL     1      13.574  -6.221  52.643  1.00  0.00     0.275 C 
HETATM   18  C6  UNL     1      14.121  -6.445  51.270  1.00  0.00     0.064 C 
HETATM   19  C7  UNL     1      14.279  -5.077  50.676  1.00  0.00     0.148 C 
HETATM   20  C8  UNL     1      13.385  -4.248  51.591  1.00  0.00     0.303 C 
BRANCH  19  21
HETATM   21  O1  UNL     1      13.844  -5.033  49.351  1.00  0.00    -0.394 OA
ATOM     22  H1  UNL     1      13.865  -4.150  49.001  1.00  0.00     0.210 HD
ENDBRANCH  19  21
ENDBRANCH  15  16
ENDBRANCH  14  15
ENDBRANCH  12  14
ENDBRANCH  10  12
ENDBRANCH   1  10
BRANCH   4  23
HETATM   23  N4  UNL     1      14.757  -0.408  50.338  1.00  0.00    -0.217 N 
HETATM   24  C11 UNL     1      14.188  -1.396  49.450  1.00  0.00     0.141 C 
HETATM   25  C12 UNL     1      14.758  -1.219  48.073  1.00  0.00     0.020 C 
HETATM   26  C13 UNL     1      14.976   0.240  47.803  1.00  0.00     0.003 C 
HETATM   27  C14 UNL     1      16.084   0.810  48.677  1.00  0.00     0.020 C 
HETATM   28  C15 UNL     1      16.014   0.234  50.074  1.00  0.00     0.141 C 
ENDBRANCH   4  23
BRANCH   7  29
HETATM   29  N6  UNL     1      11.989   2.454  52.798  1.00  0.00    -0.225 N 
ATOM     30  H6  UNL     1      11.441   2.538  53.654  1.00  0.00     0.177 HD
BRANCH  29  31
HETATM   31  C17 UNL     1      11.804   3.530  51.991  1.00  0.00     0.138 C 
BRANCH  31  32
HETATM   32  C18 UNL     1      12.994   4.504  51.953  1.00  0.00     0.020 C 
BRANCH  32  33
HETATM   33  C19 UNL     1      12.972   5.225  53.262  1.00  0.00     0.006 C 
BRANCH  33  34
HETATM   34  C20 UNL     1      14.271   5.098  54.011  1.00  0.00    -0.014 C 
HETATM   35  C21 UNL     1      14.867   6.433  54.208  1.00  0.00     0.004 C 
HETATM   36  C22 UNL     1      16.157   6.608  53.380  1.00  0.00     0.000 C 
HETATM   37  C23 UNL     1      17.094   5.563  53.956  1.00  0.00     0.000 C 
HETATM   38  C24 UNL     1      16.595   4.214  53.516  1.00  0.00     0.000 C 
HETATM   39  C25 UNL     1      15.131   4.059  53.388  1.00  0.00     0.004 C 
ENDBRANCH  33  34
ENDBRANCH  32  33
ENDBRANCH  31  32
ENDBRANCH  29  31
ENDBRANCH   7  29
TORSDOF 12
ENDMDL
MODEL 3
REMARK VINA RESULT: -9.033637298      2.361      5.512
REMARK  12 active torsions:
REMARK  status: ('A' for Active; 'I' for Inactive)
REMARK    1  A    between atoms: C2_2  and  C3_3 
REMARK    2  A    between atoms: C2_2  and  N2_12 
REMARK    3  A    between atoms: C3_3  and  C4_4 
REMARK    4  A    between atoms: C4_4  and  N1_5 
REMARK    5  A    between atoms: C7_8  and  O1_9 
REMARK    6  A    between atoms: N2_12  and  C9_14 
REMARK    7  A    between atoms: C10_17  and  N4_18 
REMARK    8  A    between atoms: C16_26  and  N6_27 
REMARK    9  A    between atoms: N6_27  and  C17_29 
REMARK   10  A    between atoms: C17_29  and  C18_30 
REMARK   11  A    between atoms: C18_30  and  C19_31 
REMARK   12  A    between atoms: C19_31  and  C20_32 
ROOT
HETATM    1  C9  UNL     1      12.194  -2.287  52.992  1.00  0.00     0.707 A 
HETATM    2  N3  UNL     1      12.007  -2.720  51.748  1.00  0.00    -0.021 N 
ATOM      3  H3  UNL     1      11.674  -3.674  51.609  1.00  0.00     0.203 HD
HETATM    4  C10 UNL     1      12.239  -1.951  50.658  1.00  0.00     0.709 A 
HETATM    5  N5  UNL     1      12.674  -0.711  50.835  1.00  0.00    -0.021 N 
ATOM      6  H5  UNL     1      12.856  -0.116  50.028  1.00  0.00     0.203 HD
HETATM    7  C16 UNL     1      12.884  -0.218  52.125  1.00  0.00     0.707 A 
HETATM    8  N7  UNL     1      12.641  -1.007  53.167  1.00  0.00    -0.022 N 
ATOM      9  H7  UNL     1      12.791  -0.652  54.111  1.00  0.00     0.203 HD
ENDROOT
BRANCH   1  10
HETATM   10  N2  UNL     1      11.982  -3.053  53.986  1.00  0.00    -0.221 N 
ATOM     11  H2  UNL     1      11.104  -2.980  54.499  1.00  0.00     0.178 HD
BRANCH  10  12
HETATM   12  C2  UNL     1      12.956  -4.013  54.393  1.00  0.00     0.097 C 
HETATM   13  C1  UNL     1      12.557  -5.379  53.845  1.00  0.00     0.032 C 
BRANCH  12  14
HETATM   14  C3  UNL     1      14.362  -3.671  53.855  1.00  0.00     0.055 C 
BRANCH  14  15
HETATM   15  C4  UNL     1      15.190  -3.221  55.020  1.00  0.00     0.274 C 
BRANCH  15  16
HETATM   16  N1  UNL     1      16.075  -2.129  54.775  1.00  0.00     0.091 N 
HETATM   17  C5  UNL     1      16.080  -1.961  53.306  1.00  0.00     0.275 C 
HETATM   18  C6  UNL     1      16.501  -0.546  53.074  1.00  0.00     0.064 C 
HETATM   19  C7  UNL     1      16.404   0.124  54.413  1.00  0.00     0.148 C 
HETATM   20  C8  UNL     1      15.508  -0.850  55.170  1.00  0.00     0.303 C 
BRANCH  19  21
HETATM   21  O1  UNL     1      15.827   1.391  54.318  1.00  0.00    -0.394 OA
ATOM     22  H1  UNL     1      15.433   1.661  55.139  1.00  0.00     0.210 HD
ENDBRANCH  19  21
ENDBRANCH  15  16
ENDBRANCH  14  15
ENDBRANCH  12  14
ENDBRANCH  10  12
ENDBRANCH   1  10
BRANCH   4  23
HETATM   23  N4  UNL     1      12.005  -2.497  49.342  1.00  0.00    -0.217 N 
HETATM   24  C11 UNL     1      11.639  -3.888  49.204  1.00  0.00     0.141 C 
HETATM   25  C12 UNL     1      10.921  -4.090  47.902  1.00  0.00     0.020 C 
HETATM   26  C13 UNL     1      10.080  -2.887  47.600  1.00  0.00     0.003 C 
HETATM   27  C14 UNL     1      10.939  -1.667  47.299  1.00  0.00     0.020 C 
HETATM   28  C15 UNL     1      12.143  -1.620  48.214  1.00  0.00     0.141 C 
ENDBRANCH   4  23
BRANCH   7  29
HETATM   29  N6  UNL     1      13.305   0.950  52.230  1.00  0.00    -0.225 N 
ATOM     30  H6  UNL     1      13.143   1.316  53.168  1.00  0.00     0.177 HD
BRANCH  29  31
HETATM   31  C17 UNL     1      13.920   1.871  51.444  1.00  0.00     0.138 C 
BRANCH  31  32
HETATM   32  C18 UNL     1      13.618   3.330  51.828  1.00  0.00     0.020 C 
BRANCH  32  33
HETATM   33  C19 UNL     1      13.492   3.343  53.317  1.00  0.00     0.006 C 
BRANCH  33  34
HETATM   34  C20 UNL     1      14.018   4.614  53.927  1.00  0.00    -0.014 C 
HETATM   35  C21 UNL     1      13.101   5.729  53.625  1.00  0.00     0.004 C 
HETATM   36  C22 UNL     1      13.741   6.745  52.656  1.00  0.00     0.000 C 
HETATM   37  C23 UNL     1      14.927   7.282  53.433  1.00  0.00     0.000 C 
HETATM   38  C24 UNL     1      15.959   6.189  53.501  1.00  0.00     0.000 C 
HETATM   39  C25 UNL     1      15.450   4.803  53.582  1.00  0.00     0.004 C 
ENDBRANCH  33  34
ENDBRANCH  32  33
ENDBRANCH  31  32
ENDBRANCH  29  31
ENDBRANCH   7  29
TORSDOF 12
ENDMDL
MODEL 4
REMARK VINA RESULT: -8.990307725      1.592      2.269
REMARK  12 active torsions:
REMARK  status: ('A' for Active; 'I' for Inactive)
REMARK    1  A    between atoms: C2_2  and  C3_3 
REMARK    2  A    between atoms: C2_2  and  N2_12 
REMARK    3  A    between atoms: C3_3  and  C4_4 
REMARK    4  A    between atoms: C4_4  and  N1_5 
REMARK    5  A    between atoms: C7_8  and  O1_9 
REMARK    6  A    between atoms: N2_12  and  C9_14 
REMARK    7  A    between atoms: C10_17  and  N4_18 
REMARK    8  A    between atoms: C16_26  and  N6_27 
REMARK    9  A    between atoms: N6_27  and  C17_29 
REMARK   10  A    between atoms: C17_29  and  C18_30 
REMARK   11  A    between atoms: C18_30  and  C19_31 
REMARK   12  A    between atoms: C19_31  and  C20_32 
ROOT
HETATM    1  C9  UNL     1      15.391  -0.779  51.045  1.00  0.00     0.707 A 
HETATM    2  N3  UNL     1      14.552  -1.570  51.710  1.00  0.00    -0.021 N 
ATOM      3  H3  UNL     1      13.984  -2.232  51.181  1.00  0.00     0.203 HD
HETATM    4  C10 UNL     1      14.418  -1.535  53.056  1.00  0.00     0.709 A 
HETATM    5  N5  UNL     1      15.153  -0.674  53.747  1.00  0.00    -0.021 N 
ATOM      6  H5  UNL     1      15.067  -0.631  54.762  1.00  0.00     0.203 HD
HETATM    7  C16 UNL     1      16.045   0.174  53.087  1.00  0.00     0.707 A 
HETATM    8  N7  UNL     1      16.146   0.105  51.764  1.00  0.00    -0.022 N 
ATOM      9  H7  UNL     1      16.797   0.721  51.277  1.00  0.00     0.203 HD
ENDROOT
BRANCH   1  10
HETATM   10  N2  UNL     1      15.468  -0.833  49.775  1.00  0.00    -0.221 N 
ATOM     11  H2  UNL     1      16.238  -1.339  49.339  1.00  0.00     0.178 HD
BRANCH  10  12
HETATM   12  C2  UNL     1      14.491  -0.194  48.954  1.00  0.00     0.097 C 
HETATM   13  C1  UNL     1      15.195   0.811  48.048  1.00  0.00     0.032 C 
BRANCH  12  14
HETATM   14  C3  UNL     1      13.739  -1.202  48.061  1.00  0.00     0.055 C 
BRANCH  14  15
HETATM   15  C4  UNL     1      12.491  -1.602  48.788  1.00  0.00     0.274 C 
BRANCH  15  16
HETATM   16  N1  UNL     1      11.486  -2.242  48.004  1.00  0.00     0.091 N 
HETATM   17  C5  UNL     1      10.511  -2.766  48.984  1.00  0.00     0.275 C 
HETATM   18  C6  UNL     1       9.231  -2.911  48.225  1.00  0.00     0.064 C 
HETATM   19  C7  UNL     1       9.442  -2.165  46.941  1.00  0.00     0.148 C 
HETATM   20  C8  UNL     1      10.642  -1.294  47.294  1.00  0.00     0.303 C 
BRANCH  19  21
HETATM   21  O1  UNL     1       8.328  -1.396  46.599  1.00  0.00    -0.394 OA
ATOM     22  H1  UNL     1       8.570  -0.634  46.088  1.00  0.00     0.210 HD
ENDBRANCH  19  21
ENDBRANCH  15  16
ENDBRANCH  14  15
ENDBRANCH  12  14
ENDBRANCH  10  12
ENDBRANCH   1  10
BRANCH   4  23
HETATM   23  N4  UNL     1      13.488  -2.432  53.700  1.00  0.00    -0.217 N 
HETATM   24  C11 UNL     1      12.248  -2.766  53.037  1.00  0.00     0.141 C 
HETATM   25  C12 UNL     1      11.733  -4.072  53.567  1.00  0.00     0.020 C 
HETATM   26  C13 UNL     1      12.885  -4.982  53.868  1.00  0.00     0.003 C 
HETATM   27  C14 UNL     1      13.709  -4.470  55.041  1.00  0.00     0.020 C 
HETATM   28  C15 UNL     1      13.843  -2.964  54.985  1.00  0.00     0.141 C 
ENDBRANCH   4  23
BRANCH   7  29
HETATM   29  N6  UNL     1      16.701   0.970  53.786  1.00  0.00    -0.225 N 
ATOM     30  H6  UNL     1      17.690   0.723  53.796  1.00  0.00     0.177 HD
BRANCH  29  31
HETATM   31  C17 UNL     1      16.466   2.076  54.539  1.00  0.00     0.138 C 
BRANCH  31  32
HETATM   32  C18 UNL     1      16.164   3.343  53.722  1.00  0.00     0.020 C 
BRANCH  32  33
HETATM   33  C19 UNL     1      14.674   3.456  53.680  1.00  0.00     0.006 C 
BRANCH  33  34
HETATM   34  C20 UNL     1      14.199   4.871  53.871  1.00  0.00    -0.014 C 
HETATM   35  C21 UNL     1      13.179   5.197  52.857  1.00  0.00     0.004 C 
HETATM   36  C22 UNL     1      13.697   6.240  51.845  1.00  0.00     0.000 C 
HETATM   37  C23 UNL     1      13.952   7.468  52.697  1.00  0.00     0.000 C 
HETATM   38  C24 UNL     1      15.165   7.192  53.542  1.00  0.00     0.000 C 
HETATM   39  C25 UNL     1      15.355   5.796  53.990  1.00  0.00     0.004 C 
ENDBRANCH  33  34
ENDBRANCH  32  33
ENDBRANCH  31  32
ENDBRANCH  29  31
ENDBRANCH   7  29
TORSDOF 12
ENDMDL
MODEL 5
REMARK VINA RESULT: -8.954569529      1.750      2.443
REMARK  12 active torsions:
REMARK  status: ('A' for Active; 'I' for Inactive)
REMARK    1  A    between atoms: C2_2  and  C3_3 
REMARK    2  A    between atoms: C2_2  and  N2_12 
REMARK    3  A    between atoms: C3_3  and  C4_4 
REMARK    4  A    between atoms: C4_4  and  N1_5 
REMARK    5  A    between atoms: C7_8  and  O1_9 
REMARK    6  A    between atoms: N2_12  and  C9_14 
REMARK    7  A    between atoms: C10_17  and  N4_18 
REMARK    8  A    between atoms: C16_26  and  N6_27 
REMARK    9  A    between atoms: N6_27  and  C17_29 
REMARK   10  A    between atoms: C17_29  and  C18_30 
REMARK   11  A    between atoms: C18_30  and  C19_31 
REMARK   12  A    between atoms: C19_31  and  C20_32 
ROOT
HETATM    1  C9  UNL     1      15.359  -0.824  51.095  1.00  0.00     0.707 A 
HETATM    2  N3  UNL     1      14.531  -1.635  51.749  1.00  0.00    -0.021 N 
ATOM      3  H3  UNL     1      13.968  -2.293  51.211  1.00  0.00     0.203 HD
HETATM    4  C10 UNL     1      14.403  -1.626  53.097  1.00  0.00     0.709 A 
HETATM    5  N5  UNL     1      15.132  -0.770  53.799  1.00  0.00    -0.021 N 
ATOM      6  H5  UNL     1      15.050  -0.746  54.815  1.00  0.00     0.203 HD
HETATM    7  C16 UNL     1      16.013   0.099  53.152  1.00  0.00     0.707 A 
HETATM    8  N7  UNL     1      16.108   0.054  51.826  1.00  0.00    -0.022 N 
ATOM      9  H7  UNL     1      16.751   0.686  51.348  1.00  0.00     0.203 HD
ENDROOT
BRANCH   1  10
HETATM   10  N2  UNL     1      15.430  -0.854  49.824  1.00  0.00    -0.221 N 
ATOM     11  H2  UNL     1      16.178  -1.383  49.375  1.00  0.00     0.178 HD
BRANCH  10  12
HETATM   12  C2  UNL     1      14.480  -0.158  49.020  1.00  0.00     0.097 C 
HETATM   13  C1  UNL     1      15.222   0.838  48.135  1.00  0.00     0.032 C 
BRANCH  12  14
HETATM   14  C3  UNL     1      13.686  -1.115  48.106  1.00  0.00     0.055 C 
BRANCH  14  15
HETATM   15  C4  UNL     1      12.428  -1.487  48.830  1.00  0.00     0.274 C 
BRANCH  15  16
HETATM   16  N1  UNL     1      12.264  -2.872  49.131  1.00  0.00     0.091 N 
HETATM   17  C5  UNL     1      11.229  -3.349  48.189  1.00  0.00     0.275 C 
HETATM   18  C6  UNL     1      11.446  -4.824  48.082  1.00  0.00     0.064 C 
HETATM   19  C7  UNL     1      12.786  -5.077  48.707  1.00  0.00     0.148 C 
HETATM   20  C8  UNL     1      13.392  -3.678  48.693  1.00  0.00     0.303 C 
BRANCH  19  21
HETATM   21  O1  UNL     1      13.546  -5.976  47.959  1.00  0.00    -0.394 OA
ATOM     22  H1  UNL     1      13.862  -6.698  48.489  1.00  0.00     0.210 HD
ENDBRANCH  19  21
ENDBRANCH  15  16
ENDBRANCH  14  15
ENDBRANCH  12  14
ENDBRANCH  10  12
ENDBRANCH   1  10
BRANCH   4  23
HETATM   23  N4  UNL     1      13.485  -2.544  53.728  1.00  0.00    -0.217 N 
HETATM   24  C11 UNL     1      12.277  -2.931  53.035  1.00  0.00     0.141 C 
HETATM   25  C12 UNL     1      11.792  -4.245  53.572  1.00  0.00     0.020 C 
HETATM   26  C13 UNL     1      12.964  -5.110  53.923  1.00  0.00     0.003 C 
HETATM   27  C14 UNL     1      13.734  -4.550  55.111  1.00  0.00     0.020 C 
HETATM   28  C15 UNL     1      13.819  -3.042  55.033  1.00  0.00     0.141 C 
ENDBRANCH   4  23
BRANCH   7  29
HETATM   29  N6  UNL     1      16.663   0.889  53.862  1.00  0.00    -0.225 N 
ATOM     30  H6  UNL     1      17.637   0.595  53.942  1.00  0.00     0.177 HD
BRANCH  29  31
HETATM   31  C17 UNL     1      16.438   2.032  54.559  1.00  0.00     0.138 C 
BRANCH  31  32
HETATM   32  C18 UNL     1      16.170   3.265  53.680  1.00  0.00     0.020 C 
BRANCH  32  33
HETATM   33  C19 UNL     1      14.683   3.419  53.636  1.00  0.00     0.006 C 
BRANCH  33  34
HETATM   34  C20 UNL     1      14.245   4.838  53.877  1.00  0.00    -0.014 C 
HETATM   35  C21 UNL     1      13.198   5.209  52.906  1.00  0.00     0.004 C 
HETATM   36  C22 UNL     1      13.703   6.265  51.901  1.00  0.00     0.000 C 
HETATM   37  C23 UNL     1      14.013   7.468  52.773  1.00  0.00     0.000 C 
HETATM   38  C24 UNL     1      15.248   7.146  53.568  1.00  0.00     0.000 C 
HETATM   39  C25 UNL     1      15.423   5.737  53.978  1.00  0.00     0.004 C 
ENDBRANCH  33  34
ENDBRANCH  32  33
ENDBRANCH  31  32
ENDBRANCH  29  31
ENDBRANCH   7  29
TORSDOF 12
ENDMDL
