MODEL 1
REMARK VINA RESULT: -9.336596886      0.000      0.000
REMARK  9 active torsions:
REMARK  status: ('A' for Active; 'I' for Inactive)
REMARK    1  A    between atoms: C2_2  and  C3_3 
REMARK    2  A    between atoms: C3_3  and  C4_4 
REMARK    3  A    between atoms: C4_4  and  N1_5 
REMARK    4  A    between atoms: C6_8  and  C7_9 
REMARK    5  A    between atoms: C7_9  and  C8_10 
REMARK    6  A    between atoms: C13_16  and  S1_17 
REMARK    7  A    between atoms: S1_17  and  N3_20 
REMARK    8  A    between atoms: N3_20  and  C14_22 
REMARK    9  A    between atoms: C14_22  and  C17_25 
ROOT
HETATM    1  C8  UNL     1      13.733   0.248  51.432  1.00  0.00    -0.046 A 
HETATM    2  C9  UNL     1      14.349   0.879  50.378  1.00  0.00     0.016 A 
HETATM    3  C10 UNL     1      14.640   0.204  49.214  1.00  0.00    -0.038 A 
HETATM    4  C11 UNL     1      15.305   0.867  48.067  1.00  0.00     0.050 C 
HETATM    5  C12 UNL     1      14.302  -1.121  49.117  1.00  0.00     0.063 A 
HETATM    6 CL1  UNL     1      14.670  -1.989  47.637  1.00  0.00    -0.082 Cl
HETATM    7  C13 UNL     1      13.671  -1.778  50.187  1.00  0.00     0.108 A 
HETATM    8  C19 UNL     1      13.381  -1.106  51.351  1.00  0.00    -0.030 A 
HETATM    9  C20 UNL     1      12.748  -1.787  52.514  1.00  0.00     0.050 C 
ENDROOT
BRANCH   1  10
HETATM   10  C7  UNL     1      13.402   0.938  52.711  1.00  0.00     0.087 C 
BRANCH  10  11
HETATM   11  C6  UNL     1      14.484   1.847  53.160  1.00  0.00     0.056 A 
HETATM   12  C5  UNL     1      14.437   3.201  52.972  1.00  0.00     0.134 A 
HETATM   13  N1  UNL     1      15.432   4.036  53.385  1.00  0.00    -0.287 N 
HETATM   14  N2  UNL     1      13.335   3.796  52.331  1.00  0.00    -0.082 NA
HETATM   15  C22 UNL     1      16.482   3.467  53.997  1.00  0.00     0.330 A 
HETATM   16  N4  UNL     1      16.570   2.138  54.203  1.00  0.00    -0.275 N 
HETATM   17  O4  UNL     1      17.445   4.166  54.408  1.00  0.00    -0.246 OA
HETATM   18  C21 UNL     1      15.587   1.318  53.793  1.00  0.00     0.259 A 
ATOM     19  H4  UNL     1      17.388   1.752  54.672  1.00  0.00     0.173 HD
HETATM   20  O3  UNL     1      15.691   0.065  53.999  1.00  0.00    -0.267 OA
BRANCH  13  21
HETATM   21  C4  UNL     1      15.365   5.458  53.167  1.00  0.00     0.135 C 
BRANCH  21  22
HETATM   22  C3  UNL     1      14.861   6.260  54.310  1.00  0.00     0.020 C 
BRANCH  22  23
HETATM   23  C2  UNL     1      13.855   7.325  53.963  1.00  0.00    -0.003 C 
HETATM   24  C1  UNL     1      13.691   7.386  52.452  1.00  0.00     0.005 C 
ENDBRANCH  22  23
ENDBRANCH  21  22
ENDBRANCH  13  21
ENDBRANCH  10  11
ENDBRANCH   1  10
BRANCH   7  25
HETATM   25  S1  UNL     1      13.328  -3.482  49.956  1.00  0.00     0.261 S 
HETATM   26  O1  UNL     1      14.069  -3.830  48.656  1.00  0.00    -0.200 OA
HETATM   27  O2  UNL     1      14.105  -4.221  51.012  1.00  0.00    -0.200 OA
BRANCH  25  28
HETATM   28  N3  UNL     1      11.711  -3.808  49.898  1.00  0.00    -0.306 N 
ATOM     29  H3  UNL     1      11.222  -3.864  50.792  1.00  0.00     0.173 HD
BRANCH  28  30
HETATM   30  C14 UNL     1      10.953  -4.013  48.761  1.00  0.00     0.033 C 
HETATM   31  C15 UNL     1      11.061  -5.276  47.988  1.00  0.00     0.038 C 
HETATM   32  C16 UNL     1       9.475  -3.958  49.226  1.00  0.00     0.038 C 
BRANCH  30  33
HETATM   33  C17 UNL     1      11.034  -2.879  47.736  1.00  0.00     0.026 C 
HETATM   34  C18 UNL     1      10.500  -1.588  48.254  1.00  0.00     0.007 C 
ENDBRANCH  30  33
ENDBRANCH  28  30
ENDBRANCH  25  28
ENDBRANCH   7  25
TORSDOF 9
ENDMDL
MODEL 2
REMARK VINA RESULT: -8.995593237      0.770      1.313
REMARK  9 active torsions:
REMARK  status: ('A' for Active; 'I' for Inactive)
REMARK    1  A    between atoms: C2_2  and  C3_3 
REMARK    2  A    between atoms: C3_3  and  C4_4 
REMARK    3  A    between atoms: C4_4  and  N1_5 
REMARK    4  A    between atoms: C6_8  and  C7_9 
REMARK    5  A    between atoms: C7_9  and  C8_10 
REMARK    6  A    between atoms: C13_16  and  S1_17 
REMARK    7  A    between atoms: S1_17  and  N3_20 
REMARK    8  A    between atoms: N3_20  and  C14_22 
REMARK    9  A    between atoms: C14_22  and  C17_25 
ROOT
HETATM    1  C8  UNL     1      14.048  -0.341  51.628  1.00  0.00    -0.046 A 
HETATM    2  C9  UNL     1      14.524   0.448  50.608  1.00  0.00     0.016 A 
HETATM    3  C10 UNL     1      14.681  -0.052  49.335  1.00  0.00    -0.038 A 
HETATM    4  C11 UNL     1      15.195   0.782  48.222  1.00  0.00     0.050 C 
HETATM    5  C12 UNL     1      14.354  -1.361  49.094  1.00  0.00     0.063 A 
HETATM    6 CL1  UNL     1      14.553  -2.006  47.474  1.00  0.00    -0.082 Cl
HETATM    7  C13 UNL     1      13.866  -2.178  50.129  1.00  0.00     0.108 A 
HETATM    8  C19 UNL     1      13.709  -1.681  51.400  1.00  0.00    -0.030 A 
HETATM    9  C20 UNL     1      13.231  -2.534  52.523  1.00  0.00     0.050 C 
ENDROOT
BRANCH   1  10
HETATM   10  C7  UNL     1      13.864   0.157  53.022  1.00  0.00     0.087 C 
BRANCH  10  11
HETATM   11  C6  UNL     1      14.598   1.420  53.272  1.00  0.00     0.056 A 
HETATM   12  C5  UNL     1      14.056   2.651  53.025  1.00  0.00     0.134 A 
HETATM   13  N1  UNL     1      14.731   3.813  53.256  1.00  0.00    -0.287 N 
HETATM   14  N2  UNL     1      12.752   2.768  52.511  1.00  0.00    -0.082 NA
HETATM   15  C22 UNL     1      15.975   3.700  53.747  1.00  0.00     0.330 A 
HETATM   16  N4  UNL     1      16.548   2.508  54.005  1.00  0.00    -0.275 N 
HETATM   17  O4  UNL     1      16.668   4.723  53.988  1.00  0.00    -0.246 OA
HETATM   18  C21 UNL     1      15.879   1.365  53.775  1.00  0.00     0.259 A 
ATOM     19  H4  UNL     1      17.497   2.473  54.378  1.00  0.00     0.173 HD
HETATM   20  O3  UNL     1      16.441   0.250  54.027  1.00  0.00    -0.267 OA
BRANCH  13  21
HETATM   21  C4  UNL     1      14.142   5.098  52.979  1.00  0.00     0.135 C 
BRANCH  21  22
HETATM   22  C3  UNL     1      13.454   5.749  54.121  1.00  0.00     0.020 C 
BRANCH  22  23
HETATM   23  C2  UNL     1      13.709   7.225  54.277  1.00  0.00    -0.003 C 
HETATM   24  C1  UNL     1      14.948   7.606  53.481  1.00  0.00     0.005 C 
ENDBRANCH  22  23
ENDBRANCH  21  22
ENDBRANCH  13  21
ENDBRANCH  10  11
ENDBRANCH   1  10
BRANCH   7  25
HETATM   25  S1  UNL     1      13.522  -3.844  49.703  1.00  0.00     0.261 S 
HETATM   26  O1  UNL     1      14.014  -3.958  48.252  1.00  0.00    -0.200 OA
HETATM   27  O2  UNL     1      14.499  -4.691  50.473  1.00  0.00    -0.200 OA
BRANCH  25  28
HETATM   28  N3  UNL     1      11.931  -4.238  49.891  1.00  0.00    -0.306 N 
ATOM     29  H3  UNL     1      11.654  -4.604  50.802  1.00  0.00     0.173 HD
BRANCH  28  30
HETATM   30  C14 UNL     1      10.937  -4.122  48.939  1.00  0.00     0.033 C 
HETATM   31  C15 UNL     1      10.917  -2.980  47.990  1.00  0.00     0.038 C 
HETATM   32  C16 UNL     1      11.066  -5.380  48.041  1.00  0.00     0.038 C 
BRANCH  30  33
HETATM   33  C17 UNL     1       9.515  -4.239  49.492  1.00  0.00     0.026 C 
HETATM   34  C18 UNL     1       9.374  -5.319  50.509  1.00  0.00     0.007 C 
ENDBRANCH  30  33
ENDBRANCH  28  30
ENDBRANCH  25  28
ENDBRANCH   7  25
TORSDOF 9
ENDMDL
MODEL 3
REMARK VINA RESULT: -8.913052599      0.330      1.065
REMARK  9 active torsions:
REMARK  status: ('A' for Active; 'I' for Inactive)
REMARK    1  A    between atoms: C2_2  and  C3_3 
REMARK    2  A    between atoms: C3_3  and  C4_4 
REMARK    3  A    between atoms: C4_4  and  N1_5 
REMARK    4  A    between atoms: C6_8  and  C7_9 
REMARK    5  A    between atoms: C7_9  and  C8_10 
REMARK    6  A    between atoms: C13_16  and  S1_17 
REMARK    7  A    between atoms: S1_17  and  N3_20 
REMARK    8  A    between atoms: N3_20  and  C14_22 
REMARK    9  A    between atoms: C14_22  and  C17_25 
ROOT
HETATM    1  C8  UNL     1      13.743   0.199  51.433  1.00  0.00    -0.046 A 
HETATM    2  C9  UNL     1      14.344   0.844  50.379  1.00  0.00     0.016 A 
HETATM    3  C10 UNL     1      14.642   0.178  49.212  1.00  0.00    -0.038 A 
HETATM    4  C11 UNL     1      15.293   0.855  48.065  1.00  0.00     0.050 C 
HETATM    5  C12 UNL     1      14.327  -1.153  49.113  1.00  0.00     0.063 A 
HETATM    6 CL1  UNL     1      14.705  -2.011  47.629  1.00  0.00    -0.082 Cl
HETATM    7  C13 UNL     1      13.711  -1.824  50.183  1.00  0.00     0.108 A 
HETATM    8  C19 UNL     1      13.414  -1.160  51.349  1.00  0.00    -0.030 A 
HETATM    9  C20 UNL     1      12.796  -1.856  52.512  1.00  0.00     0.050 C 
ENDROOT
BRANCH   1  10
HETATM   10  C7  UNL     1      13.404   0.879  52.716  1.00  0.00     0.087 C 
BRANCH  10  11
HETATM   11  C6  UNL     1      14.476   1.797  53.169  1.00  0.00     0.056 A 
HETATM   12  C5  UNL     1      14.420   3.151  52.977  1.00  0.00     0.134 A 
HETATM   13  N1  UNL     1      15.406   3.995  53.394  1.00  0.00    -0.287 N 
HETATM   14  N2  UNL     1      13.318   3.736  52.328  1.00  0.00    -0.082 NA
HETATM   15  C22 UNL     1      16.457   3.435  54.014  1.00  0.00     0.330 A 
HETATM   16  N4  UNL     1      16.553   2.107  54.224  1.00  0.00    -0.275 N 
HETATM   17  O4  UNL     1      17.412   4.142  54.430  1.00  0.00    -0.246 OA
HETATM   18  C21 UNL     1      15.579   1.279  53.810  1.00  0.00     0.259 A 
ATOM     19  H4  UNL     1      17.372   1.729  54.700  1.00  0.00     0.173 HD
HETATM   20  O3  UNL     1      15.692   0.027  54.020  1.00  0.00    -0.267 OA
BRANCH  13  21
HETATM   21  C4  UNL     1      15.329   5.416  53.172  1.00  0.00     0.135 C 
BRANCH  21  22
HETATM   22  C3  UNL     1      14.774   6.212  54.295  1.00  0.00     0.020 C 
BRANCH  22  23
HETATM   23  C2  UNL     1      13.903   7.374  53.898  1.00  0.00    -0.003 C 
HETATM   24  C1  UNL     1      13.689   7.348  52.392  1.00  0.00     0.005 C 
ENDBRANCH  22  23
ENDBRANCH  21  22
ENDBRANCH  13  21
ENDBRANCH  10  11
ENDBRANCH   1  10
BRANCH   7  25
HETATM   25  S1  UNL     1      13.396  -3.533  49.947  1.00  0.00     0.261 S 
HETATM   26  O1  UNL     1      13.881  -3.799  48.514  1.00  0.00    -0.200 OA
HETATM   27  O2  UNL     1      14.394  -4.272  50.799  1.00  0.00    -0.200 OA
BRANCH  25  28
HETATM   28  N3  UNL     1      11.814  -3.933  50.191  1.00  0.00    -0.306 N 
ATOM     29  H3  UNL     1      11.556  -4.234  51.130  1.00  0.00     0.173 HD
BRANCH  28  30
HETATM   30  C14 UNL     1      10.803  -3.900  49.249  1.00  0.00     0.033 C 
HETATM   31  C15 UNL     1       9.400  -4.211  49.622  1.00  0.00     0.038 C 
HETATM   32  C16 UNL     1      10.759  -2.439  48.731  1.00  0.00     0.038 C 
BRANCH  30  33
HETATM   33  C17 UNL     1      11.095  -4.706  47.981  1.00  0.00     0.026 C 
HETATM   34  C18 UNL     1      11.162  -6.174  48.227  1.00  0.00     0.007 C 
ENDBRANCH  30  33
ENDBRANCH  28  30
ENDBRANCH  25  28
ENDBRANCH   7  25
TORSDOF 9
ENDMDL
MODEL 4
REMARK VINA RESULT: -8.840846055      1.822      2.700
REMARK  9 active torsions:
REMARK  status: ('A' for Active; 'I' for Inactive)
REMARK    1  A    between atoms: C2_2  and  C3_3 
REMARK    2  A    between atoms: C3_3  and  C4_4 
REMARK    3  A    between atoms: C4_4  and  N1_5 
REMARK    4  A    between atoms: C6_8  and  C7_9 
REMARK    5  A    between atoms: C7_9  and  C8_10 
REMARK    6  A    between atoms: C13_16  and  S1_17 
REMARK    7  A    between atoms: S1_17  and  N3_20 
REMARK    8  A    between atoms: N3_20  and  C14_22 
REMARK    9  A    between atoms: C14_22  and  C17_25 
ROOT
HETATM    1  C8  UNL     1      14.091  -1.013  51.412  1.00  0.00    -0.046 A 
HETATM    2  C9  UNL     1      14.039  -1.218  52.770  1.00  0.00     0.016 A 
HETATM    3  C10 UNL     1      13.884  -2.480  53.296  1.00  0.00    -0.038 A 
HETATM    4  C11 UNL     1      13.823  -2.720  54.758  1.00  0.00     0.050 C 
HETATM    5  C12 UNL     1      13.782  -3.544  52.438  1.00  0.00     0.063 A 
HETATM    6 CL1  UNL     1      13.583  -5.158  53.100  1.00  0.00    -0.082 Cl
HETATM    7  C13 UNL     1      13.835  -3.350  51.047  1.00  0.00     0.108 A 
HETATM    8  C19 UNL     1      13.988  -2.089  50.521  1.00  0.00    -0.030 A 
HETATM    9  C20 UNL     1      14.010  -1.850  49.051  1.00  0.00     0.050 C 
ENDROOT
BRANCH   1  10
HETATM   10  C7  UNL     1      14.256   0.336  50.799  1.00  0.00     0.087 C 
BRANCH  10  11
HETATM   11  C6  UNL     1      14.812   1.326  51.752  1.00  0.00     0.056 A 
HETATM   12  C5  UNL     1      14.053   2.314  52.317  1.00  0.00     0.134 A 
HETATM   13  N1  UNL     1      14.564   3.224  53.194  1.00  0.00    -0.287 N 
HETATM   14  N2  UNL     1      12.686   2.431  52.008  1.00  0.00    -0.082 NA
HETATM   15  C22 UNL     1      15.869   3.111  53.489  1.00  0.00     0.330 A 
HETATM   16  N4  UNL     1      16.653   2.153  52.955  1.00  0.00    -0.275 N 
HETATM   17  O4  UNL     1      16.421   3.911  54.288  1.00  0.00    -0.246 OA
HETATM   18  C21 UNL     1      16.145   1.259  52.090  1.00  0.00     0.259 A 
ATOM     19  H4  UNL     1      17.640   2.108  53.210  1.00  0.00     0.173 HD
HETATM   20  O3  UNL     1      16.905   0.362  51.599  1.00  0.00    -0.267 OA
BRANCH  13  21
HETATM   21  C4  UNL     1      13.747   4.262  53.769  1.00  0.00     0.135 C 
BRANCH  21  22
HETATM   22  C3  UNL     1      13.769   5.564  53.056  1.00  0.00     0.020 C 
BRANCH  22  23
HETATM   23  C2  UNL     1      14.143   6.757  53.896  1.00  0.00    -0.003 C 
HETATM   24  C1  UNL     1      15.507   7.269  53.459  1.00  0.00     0.005 C 
ENDBRANCH  22  23
ENDBRANCH  21  22
ENDBRANCH  13  21
ENDBRANCH  10  11
ENDBRANCH   1  10
BRANCH   7  25
HETATM   25  S1  UNL     1      13.652  -4.785  50.057  1.00  0.00     0.261 S 
HETATM   26  O1  UNL     1      13.964  -4.290  48.636  1.00  0.00    -0.200 OA
HETATM   27  O2  UNL     1      14.818  -5.679  50.382  1.00  0.00    -0.200 OA
BRANCH  25  28
HETATM   28  N3  UNL     1      12.160  -5.476  50.200  1.00  0.00    -0.306 N 
ATOM     29  H3  UNL     1      12.035  -6.145  50.959  1.00  0.00     0.173 HD
BRANCH  28  30
HETATM   30  C14 UNL     1      11.064  -5.239  49.393  1.00  0.00     0.033 C 
HETATM   31  C15 UNL     1      10.993  -5.792  48.017  1.00  0.00     0.038 C 
HETATM   32  C16 UNL     1       9.854  -5.867  50.134  1.00  0.00     0.038 C 
BRANCH  30  33
HETATM   33  C17 UNL     1      10.670  -3.765  49.280  1.00  0.00     0.026 C 
HETATM   34  C18 UNL     1      10.562  -3.298  47.869  1.00  0.00     0.007 C 
ENDBRANCH  30  33
ENDBRANCH  28  30
ENDBRANCH  25  28
ENDBRANCH   7  25
TORSDOF 9
ENDMDL
MODEL 5
REMARK VINA RESULT: -8.800857387      1.257      1.622
REMARK  9 active torsions:
REMARK  status: ('A' for Active; 'I' for Inactive)
REMARK    1  A    between atoms: C2_2  and  C3_3 
REMARK    2  A    between atoms: C3_3  and  C4_4 
REMARK    3  A    between atoms: C4_4  and  N1_5 
REMARK    4  A    between atoms: C6_8  and  C7_9 
REMARK    5  A    between atoms: C7_9  and  C8_10 
REMARK    6  A    between atoms: C13_16  and  S1_17 
REMARK    7  A    between atoms: S1_17  and  N3_20 
REMARK    8  A    between atoms: N3_20  and  C14_22 
REMARK    9  A    between atoms: C14_22  and  C17_25 
ROOT
HETATM    1  C8  UNL     1      14.377  -0.374  51.675  1.00  0.00    -0.046 A 
HETATM    2  C9  UNL     1      14.828   0.462  50.683  1.00  0.00     0.016 A 
HETATM    3  C10 UNL     1      14.869   0.053  49.370  1.00  0.00    -0.038 A 
HETATM    4  C11 UNL     1      15.355   0.940  48.286  1.00  0.00     0.050 C 
HETATM    5  C12 UNL     1      14.447  -1.214  49.060  1.00  0.00     0.063 A 
HETATM    6 CL1  UNL     1      14.497  -1.744  47.387  1.00  0.00    -0.082 Cl
HETATM    7  C13 UNL     1      13.982  -2.079  50.065  1.00  0.00     0.108 A 
HETATM    8  C19 UNL     1      13.943  -1.672  51.377  1.00  0.00    -0.030 A 
HETATM    9  C20 UNL     1      13.490  -2.581  52.467  1.00  0.00     0.050 C 
ENDROOT
BRANCH   1  10
HETATM   10  C7  UNL     1      14.317   0.025  53.111  1.00  0.00     0.087 C 
BRANCH  10  11
HETATM   11  C6  UNL     1      14.847   1.392  53.339  1.00  0.00     0.056 A 
HETATM   12  C5  UNL     1      14.059   2.508  53.278  1.00  0.00     0.134 A 
HETATM   13  N1  UNL     1      14.546   3.765  53.489  1.00  0.00    -0.287 N 
HETATM   14  N2  UNL     1      12.687   2.401  52.990  1.00  0.00    -0.082 NA
HETATM   15  C22 UNL     1      15.855   3.866  53.765  1.00  0.00     0.330 A 
HETATM   16  N4  UNL     1      16.667   2.792  53.835  1.00  0.00    -0.275 N 
HETATM   17  O4  UNL     1      16.386   4.988  53.972  1.00  0.00    -0.246 OA
HETATM   18  C21 UNL     1      16.183   1.556  53.626  1.00  0.00     0.259 A 
ATOM     19  H4  UNL     1      17.657   2.920  54.047  1.00  0.00     0.173 HD
HETATM   20  O3  UNL     1      16.970   0.556  53.697  1.00  0.00    -0.267 OA
BRANCH  13  21
HETATM   21  C4  UNL     1      13.699   4.927  53.410  1.00  0.00     0.135 C 
BRANCH  21  22
HETATM   22  C3  UNL     1      13.730   5.657  52.118  1.00  0.00     0.020 C 
BRANCH  22  23
HETATM   23  C2  UNL     1      13.938   7.145  52.219  1.00  0.00    -0.003 C 
HETATM   24  C1  UNL     1      14.079   7.533  53.682  1.00  0.00     0.005 C 
ENDBRANCH  22  23
ENDBRANCH  21  22
ENDBRANCH  13  21
ENDBRANCH  10  11
ENDBRANCH   1  10
BRANCH   7  25
HETATM   25  S1  UNL     1      13.510  -3.687  49.546  1.00  0.00     0.261 S 
HETATM   26  O1  UNL     1      14.008  -3.762  48.095  1.00  0.00    -0.200 OA
HETATM   27  O2  UNL     1      14.407  -4.651  50.276  1.00  0.00    -0.200 OA
BRANCH  25  28
HETATM   28  N3  UNL     1      11.890  -3.960  49.701  1.00  0.00    -0.306 N 
ATOM     29  H3  UNL     1      11.301  -3.144  49.869  1.00  0.00     0.173 HD
BRANCH  28  30
HETATM   30  C14 UNL     1      11.252  -5.183  49.624  1.00  0.00     0.033 C 
HETATM   31  C15 UNL     1      11.654  -6.311  50.502  1.00  0.00     0.038 C 
HETATM   32  C16 UNL     1       9.770  -4.906  49.990  1.00  0.00     0.038 C 
BRANCH  30  33
HETATM   33  C17 UNL     1      11.155  -5.758  48.210  1.00  0.00     0.026 C 
HETATM   34  C18 UNL     1      11.167  -7.247  48.185  1.00  0.00     0.007 C 
ENDBRANCH  30  33
ENDBRANCH  28  30
ENDBRANCH  25  28
ENDBRANCH   7  25
TORSDOF 9
ENDMDL
