MODEL 1
REMARK VINA RESULT: -8.582223425      0.000      0.000
REMARK  14 active torsions:
REMARK  status: ('A' for Active; 'I' for Inactive)
REMARK    1  A    between atoms: C2_2  and  C3_3 
REMARK    2  A    between atoms: C2_2  and  C15_27 
REMARK    3  A    between atoms: C3_3  and  C4_4 
REMARK    4  A    between atoms: C4_4  and  C5_5 
REMARK    5  A    between atoms: N2_10  and  C8_11 
REMARK    6  A    between atoms: C8_11  and  C9_12 
REMARK    7  A    between atoms: C9_12  and  C10_13 
REMARK    8  A    between atoms: C10_13  and  C11_14 
REMARK    9  A    between atoms: C11_14  and  C12_15 
REMARK   10  A    between atoms: C12_15  and  C13_16 
REMARK   11  A    between atoms: C13_16  and  C14_17 
REMARK   12  A    between atoms: C14_17  and  O1_18 
REMARK   13  A    between atoms: N3_20  and  O2_22 
REMARK   14  A    between atoms: C15_27  and  C16_28 
ROOT
HETATM    1  C5  UNL     1      13.696   0.717  51.642  1.00  0.00     0.145 C 
HETATM    2  N1  UNL     1      12.960  -0.027  52.412  1.00  0.00    -0.378 N 
ATOM      3  H1  UNL     1      12.476   0.370  53.218  1.00  0.00     0.160 HD
HETATM    4  C6  UNL     1      12.847  -1.453  52.088  1.00  0.00     0.141 C 
HETATM    5  C7  UNL     1      12.351  -1.563  50.671  1.00  0.00     0.155 C 
HETATM    6  N2  UNL     1      13.389  -1.305  49.741  1.00  0.00    -0.304 N 
HETATM    7  S1  UNL     1      14.466  -0.105  50.285  1.00  0.00     0.276 S 
HETATM    8  O3  UNL     1      14.790   0.919  49.243  1.00  0.00    -0.199 OA
HETATM    9  O4  UNL     1      15.783  -0.705  50.740  1.00  0.00    -0.199 OA
ENDROOT
BRANCH   1  10
HETATM   10  C4  UNL     1      13.909   2.140  51.827  1.00  0.00     0.044 C 
BRANCH  10  11
HETATM   11  C3  UNL     1      13.922   2.706  53.013  1.00  0.00     0.010 C 
BRANCH  11  12
HETATM   12  C2  UNL     1      15.094   3.424  53.480  1.00  0.00    -0.060 C 
HETATM   13  C1  UNL     1      15.201   4.885  53.239  1.00  0.00     0.048 C 
BRANCH  12  14
HETATM   14  C15 UNL     1      16.024   2.741  54.107  1.00  0.00     0.037 C 
BRANCH  14  15
HETATM   15  C16 UNL     1      16.277   1.314  53.997  1.00  0.00     0.051 A 
HETATM   16  C17 UNL     1      15.754   0.336  54.851  1.00  0.00     0.069 A 
HETATM   17  C18 UNL     1      16.232  -0.866  54.445  1.00  0.00     0.096 A 
HETATM   18 BR1  UNL     1      15.823  -2.545  55.275  1.00  0.00    -0.030 Br
HETATM   19  N4  UNL     1      17.022  -0.652  53.381  1.00  0.00    -0.293 N 
HETATM   20  N5  UNL     1      17.044   0.639  53.122  1.00  0.00    -0.300 N 
ATOM     21  H4  UNL     1      17.523  -1.370  52.858  1.00  0.00     0.187 HD
ATOM     22  H5  UNL     1      17.572   1.069  52.362  1.00  0.00     0.187 HD
ENDBRANCH  14  15
ENDBRANCH  12  14
ENDBRANCH  11  12
ENDBRANCH  10  11
ENDBRANCH   1  10
BRANCH   6  23
HETATM   23  C8  UNL     1      13.980  -2.427  49.098  1.00  0.00     0.135 C 
BRANCH  23  24
HETATM   24  C9  UNL     1      13.310  -3.737  49.462  1.00  0.00     0.021 C 
BRANCH  24  25
HETATM   25  C10 UNL     1      12.914  -4.425  48.158  1.00  0.00     0.002 C 
BRANCH  25  26
HETATM   26  C11 UNL     1      11.513  -4.914  48.259  1.00  0.00     0.000 C 
BRANCH  26  27
HETATM   27  C12 UNL     1      10.457  -3.868  48.326  1.00  0.00     0.008 C 
BRANCH  27  28
HETATM   28  C13 UNL     1      10.553  -2.789  47.286  1.00  0.00     0.086 C 
BRANCH  28  29
HETATM   29  C14 UNL     1       9.552  -1.717  47.491  1.00  0.00     0.135 C 
HETATM   30  N3  UNL     1       8.552  -1.599  46.681  1.00  0.00    -0.251 N 
ATOM     31  H3  UNL     1       7.879  -0.851  46.847  1.00  0.00     0.196 HD
BRANCH  29  32
HETATM   32  O1  UNL     1       9.663  -0.808  48.558  1.00  0.00    -0.348 OA
ATOM     33  H1  UNL     1       8.915  -0.596  49.106  1.00  0.00     0.219 HD
ENDBRANCH  29  32
BRANCH  30  34
HETATM   34  O2  UNL     1       8.351  -2.430  45.608  1.00  0.00    -0.288 OA
ATOM     35  H2  UNL     1       7.530  -2.480  45.135  1.00  0.00     0.244 HD
ENDBRANCH  30  34
ENDBRANCH  28  29
ENDBRANCH  27  28
ENDBRANCH  26  27
ENDBRANCH  25  26
ENDBRANCH  24  25
ENDBRANCH  23  24
ENDBRANCH   6  23
TORSDOF 14
ENDMDL
MODEL 2
REMARK VINA RESULT: -8.171280438      2.556      3.248
REMARK  14 active torsions:
REMARK  status: ('A' for Active; 'I' for Inactive)
REMARK    1  A    between atoms: C2_2  and  C3_3 
REMARK    2  A    between atoms: C2_2  and  C15_27 
REMARK    3  A    between atoms: C3_3  and  C4_4 
REMARK    4  A    between atoms: C4_4  and  C5_5 
REMARK    5  A    between atoms: N2_10  and  C8_11 
REMARK    6  A    between atoms: C8_11  and  C9_12 
REMARK    7  A    between atoms: C9_12  and  C10_13 
REMARK    8  A    between atoms: C10_13  and  C11_14 
REMARK    9  A    between atoms: C11_14  and  C12_15 
REMARK   10  A    between atoms: C12_15  and  C13_16 
REMARK   11  A    between atoms: C13_16  and  C14_17 
REMARK   12  A    between atoms: C14_17  and  O1_18 
REMARK   13  A    between atoms: N3_20  and  O2_22 
REMARK   14  A    between atoms: C15_27  and  C16_28 
ROOT
HETATM    1  C5  UNL     1      13.309  -0.655  53.037  1.00  0.00     0.145 C 
HETATM    2  N1  UNL     1      12.810  -1.592  53.786  1.00  0.00    -0.378 N 
ATOM      3  H1  UNL     1      12.359  -1.370  54.674  1.00  0.00     0.160 HD
HETATM    4  C6  UNL     1      12.917  -2.978  53.316  1.00  0.00     0.141 C 
HETATM    5  C7  UNL     1      12.290  -3.047  51.950  1.00  0.00     0.155 C 
HETATM    6  N2  UNL     1      13.152  -2.513  50.960  1.00  0.00    -0.304 N 
HETATM    7  S1  UNL     1      14.053  -1.186  51.530  1.00  0.00     0.276 S 
HETATM    8  O3  UNL     1      14.068  -0.028  50.583  1.00  0.00    -0.199 OA
HETATM    9  O4  UNL     1      15.499  -1.567  51.787  1.00  0.00    -0.199 OA
ENDROOT
BRANCH   1  10
HETATM   10  C4  UNL     1      13.285   0.760  53.360  1.00  0.00     0.044 C 
BRANCH  10  11
HETATM   11  C3  UNL     1      14.037   1.286  54.300  1.00  0.00     0.010 C 
BRANCH  11  12
HETATM   12  C2  UNL     1      15.484   1.257  54.195  1.00  0.00    -0.060 C 
HETATM   13  C1  UNL     1      16.260   0.304  55.029  1.00  0.00     0.048 C 
BRANCH  12  14
HETATM   14  C15 UNL     1      16.056   2.086  53.352  1.00  0.00     0.037 C 
BRANCH  14  15
HETATM   15  C16 UNL     1      16.321   3.498  53.567  1.00  0.00     0.051 A 
HETATM   16  C17 UNL     1      15.392   4.529  53.382  1.00  0.00     0.069 A 
HETATM   17  C18 UNL     1      16.015   5.702  53.658  1.00  0.00     0.096 A 
HETATM   18 BR1  UNL     1      15.190   7.429  53.561  1.00  0.00    -0.030 Br
HETATM   19  N4  UNL     1      17.281   5.419  54.002  1.00  0.00    -0.293 N 
HETATM   20  N5  UNL     1      17.455   4.115  53.945  1.00  0.00    -0.300 N 
ATOM     21  H4  UNL     1      17.992   6.102  54.264  1.00  0.00     0.187 HD
ATOM     22  H5  UNL     1      18.331   3.637  54.159  1.00  0.00     0.187 HD
ENDBRANCH  14  15
ENDBRANCH  12  14
ENDBRANCH  11  12
ENDBRANCH  10  11
ENDBRANCH   1  10
BRANCH   6  23
HETATM   23  C8  UNL     1      13.857  -3.439  50.141  1.00  0.00     0.135 C 
BRANCH  23  24
HETATM   24  C9  UNL     1      13.500  -3.318  48.673  1.00  0.00     0.021 C 
BRANCH  24  25
HETATM   25  C10 UNL     1      12.709  -4.566  48.292  1.00  0.00     0.002 C 
BRANCH  25  26
HETATM   26  C11 UNL     1      11.283  -4.204  48.070  1.00  0.00     0.000 C 
BRANCH  26  27
HETATM   27  C12 UNL     1      10.984  -2.749  47.971  1.00  0.00     0.008 C 
BRANCH  27  28
HETATM   28  C13 UNL     1       9.840  -2.388  47.069  1.00  0.00     0.086 C 
BRANCH  28  29
HETATM   29  C14 UNL     1       8.567  -2.230  47.808  1.00  0.00     0.135 C 
HETATM   30  N3  UNL     1       7.587  -1.574  47.279  1.00  0.00    -0.251 N 
ATOM     31  H3  UNL     1       6.722  -1.481  47.813  1.00  0.00     0.196 HD
BRANCH  29  32
HETATM   32  O1  UNL     1       8.393  -2.780  49.090  1.00  0.00    -0.348 OA
ATOM     33  H1  UNL     1       7.667  -2.519  49.645  1.00  0.00     0.219 HD
ENDBRANCH  29  32
BRANCH  30  34
HETATM   34  O2  UNL     1       7.652  -0.996  46.037  1.00  0.00    -0.288 OA
ATOM     35  H2  UNL     1       7.484  -0.074  45.882  1.00  0.00     0.244 HD
ENDBRANCH  30  34
ENDBRANCH  28  29
ENDBRANCH  27  28
ENDBRANCH  26  27
ENDBRANCH  25  26
ENDBRANCH  24  25
ENDBRANCH  23  24
ENDBRANCH   6  23
TORSDOF 14
ENDMDL
MODEL 3
REMARK VINA RESULT: -8.085734190      3.115      4.399
REMARK  14 active torsions:
REMARK  status: ('A' for Active; 'I' for Inactive)
REMARK    1  A    between atoms: C2_2  and  C3_3 
REMARK    2  A    between atoms: C2_2  and  C15_27 
REMARK    3  A    between atoms: C3_3  and  C4_4 
REMARK    4  A    between atoms: C4_4  and  C5_5 
REMARK    5  A    between atoms: N2_10  and  C8_11 
REMARK    6  A    between atoms: C8_11  and  C9_12 
REMARK    7  A    between atoms: C9_12  and  C10_13 
REMARK    8  A    between atoms: C10_13  and  C11_14 
REMARK    9  A    between atoms: C11_14  and  C12_15 
REMARK   10  A    between atoms: C12_15  and  C13_16 
REMARK   11  A    between atoms: C13_16  and  C14_17 
REMARK   12  A    between atoms: C14_17  and  O1_18 
REMARK   13  A    between atoms: N3_20  and  O2_22 
REMARK   14  A    between atoms: C15_27  and  C16_28 
ROOT
HETATM    1  C5  UNL     1      16.314   0.755  53.210  1.00  0.00     0.145 C 
HETATM    2  N1  UNL     1      16.829  -0.050  54.089  1.00  0.00    -0.378 N 
ATOM      3  H1  UNL     1      17.454   0.296  54.818  1.00  0.00     0.160 HD
HETATM    4  C6  UNL     1      16.485  -1.474  54.003  1.00  0.00     0.141 C 
HETATM    5  C7  UNL     1      14.984  -1.585  54.045  1.00  0.00     0.155 C 
HETATM    6  N2  UNL     1      14.408  -1.241  52.797  1.00  0.00    -0.304 N 
HETATM    7  S1  UNL     1      15.249   0.015  52.016  1.00  0.00     0.276 S 
HETATM    8  O3  UNL     1      14.353   1.079  51.467  1.00  0.00    -0.199 OA
HETATM    9  O4  UNL     1      16.077  -0.508  50.856  1.00  0.00    -0.199 OA
ENDROOT
BRANCH   1  10
HETATM   10  C4  UNL     1      16.557   2.185  53.160  1.00  0.00     0.044 C 
BRANCH  10  11
HETATM   11  C3  UNL     1      16.051   3.021  54.039  1.00  0.00     0.010 C 
BRANCH  11  12
HETATM   12  C2  UNL     1      15.921   4.433  53.730  1.00  0.00    -0.060 C 
HETATM   13  C1  UNL     1      17.136   5.228  53.416  1.00  0.00     0.048 C 
BRANCH  12  14
HETATM   14  C15 UNL     1      14.717   4.957  53.739  1.00  0.00     0.037 C 
BRANCH  14  15
HETATM   15  C16 UNL     1      13.514   4.379  53.165  1.00  0.00     0.051 A 
HETATM   16  C17 UNL     1      12.432   5.109  52.660  1.00  0.00     0.069 A 
HETATM   17  C18 UNL     1      11.496   4.224  52.235  1.00  0.00     0.096 A 
HETATM   18 BR1  UNL     1       9.812   4.700  51.454  1.00  0.00    -0.030 Br
HETATM   19  N4  UNL     1      11.972   2.990  52.464  1.00  0.00    -0.293 N 
HETATM   20  N5  UNL     1      13.164   3.089  53.014  1.00  0.00    -0.300 N 
ATOM     21  H4  UNL     1      11.488   2.118  52.248  1.00  0.00     0.187 HD
ATOM     22  H5  UNL     1      13.743   2.295  53.288  1.00  0.00     0.187 HD
ENDBRANCH  14  15
ENDBRANCH  12  14
ENDBRANCH  11  12
ENDBRANCH  10  11
ENDBRANCH   1  10
BRANCH   6  23
HETATM   23  C8  UNL     1      13.969  -2.308  51.966  1.00  0.00     0.135 C 
BRANCH  23  24
HETATM   24  C9  UNL     1      12.485  -2.250  51.665  1.00  0.00     0.021 C 
BRANCH  24  25
HETATM   25  C10 UNL     1      12.113  -3.546  50.949  1.00  0.00     0.002 C 
BRANCH  25  26
HETATM   26  C11 UNL     1      11.383  -3.229  49.692  1.00  0.00     0.000 C 
BRANCH  26  27
HETATM   27  C12 UNL     1      11.575  -1.856  49.151  1.00  0.00     0.008 C 
BRANCH  27  28
HETATM   28  C13 UNL     1      12.380  -1.770  47.887  1.00  0.00     0.086 C 
BRANCH  28  29
HETATM   29  C14 UNL     1      13.791  -2.176  48.088  1.00  0.00     0.135 C 
HETATM   30  N3  UNL     1      14.687  -1.288  48.368  1.00  0.00    -0.251 N 
ATOM     31  H3  UNL     1      15.650  -1.597  48.501  1.00  0.00     0.196 HD
BRANCH  29  32
HETATM   32  O1  UNL     1      14.188  -3.520  47.978  1.00  0.00    -0.348 OA
ATOM     33  H1  UNL     1      14.982  -3.764  47.517  1.00  0.00     0.219 HD
ENDBRANCH  29  32
BRANCH  30  34
HETATM   34  O2  UNL     1      14.408   0.049  48.496  1.00  0.00    -0.288 OA
ATOM     35  H2  UNL     1      15.009   0.734  48.231  1.00  0.00     0.244 HD
ENDBRANCH  30  34
ENDBRANCH  28  29
ENDBRANCH  27  28
ENDBRANCH  26  27
ENDBRANCH  25  26
ENDBRANCH  24  25
ENDBRANCH  23  24
ENDBRANCH   6  23
TORSDOF 14
ENDMDL
MODEL 4
REMARK VINA RESULT: -8.062668203      2.448      3.667
REMARK  14 active torsions:
REMARK  status: ('A' for Active; 'I' for Inactive)
REMARK    1  A    between atoms: C2_2  and  C3_3 
REMARK    2  A    between atoms: C2_2  and  C15_27 
REMARK    3  A    between atoms: C3_3  and  C4_4 
REMARK    4  A    between atoms: C4_4  and  C5_5 
REMARK    5  A    between atoms: N2_10  and  C8_11 
REMARK    6  A    between atoms: C8_11  and  C9_12 
REMARK    7  A    between atoms: C9_12  and  C10_13 
REMARK    8  A    between atoms: C10_13  and  C11_14 
REMARK    9  A    between atoms: C11_14  and  C12_15 
REMARK   10  A    between atoms: C12_15  and  C13_16 
REMARK   11  A    between atoms: C13_16  and  C14_17 
REMARK   12  A    between atoms: C14_17  and  O1_18 
REMARK   13  A    between atoms: N3_20  and  O2_22 
REMARK   14  A    between atoms: C15_27  and  C16_28 
ROOT
HETATM    1  C5  UNL     1      16.328   0.826  52.915  1.00  0.00     0.145 C 
HETATM    2  N1  UNL     1      16.782  -0.092  53.714  1.00  0.00    -0.378 N 
ATOM      3  H1  UNL     1      17.390   0.147  54.498  1.00  0.00     0.160 HD
HETATM    4  C6  UNL     1      16.395  -1.484  53.455  1.00  0.00     0.141 C 
HETATM    5  C7  UNL     1      14.891  -1.544  53.434  1.00  0.00     0.155 C 
HETATM    6  N2  UNL     1      14.373  -1.040  52.214  1.00  0.00    -0.304 N 
HETATM    7  S1  UNL     1      15.284   0.264  51.610  1.00  0.00     0.276 S 
HETATM    8  O3  UNL     1      14.445   1.415  51.155  1.00  0.00    -0.199 OA
HETATM    9  O4  UNL     1      16.137  -0.156  50.427  1.00  0.00    -0.199 OA
ENDROOT
BRANCH   1  10
HETATM   10  C4  UNL     1      16.618   2.242  53.036  1.00  0.00     0.044 C 
BRANCH  10  11
HETATM   11  C3  UNL     1      16.070   3.002  53.957  1.00  0.00     0.010 C 
BRANCH  11  12
HETATM   12  C2  UNL     1      15.898   4.427  53.738  1.00  0.00    -0.060 C 
HETATM   13  C1  UNL     1      17.088   5.274  53.469  1.00  0.00     0.048 C 
BRANCH  12  14
HETATM   14  C15 UNL     1      14.680   4.913  53.784  1.00  0.00     0.037 C 
BRANCH  14  15
HETATM   15  C16 UNL     1      13.490   4.336  53.183  1.00  0.00     0.051 A 
HETATM   16  C17 UNL     1      12.423   5.066  52.647  1.00  0.00     0.069 A 
HETATM   17  C18 UNL     1      11.496   4.181  52.205  1.00  0.00     0.096 A 
HETATM   18 BR1  UNL     1       9.833   4.657  51.379  1.00  0.00    -0.030 Br
HETATM   19  N4  UNL     1      11.961   2.947  52.453  1.00  0.00    -0.293 N 
HETATM   20  N5  UNL     1      13.140   3.046  53.031  1.00  0.00    -0.300 N 
ATOM     21  H4  UNL     1      11.481   2.075  52.229  1.00  0.00     0.187 HD
ATOM     22  H5  UNL     1      13.710   2.252  53.324  1.00  0.00     0.187 HD
ENDBRANCH  14  15
ENDBRANCH  12  14
ENDBRANCH  11  12
ENDBRANCH  10  11
ENDBRANCH   1  10
BRANCH   6  23
HETATM   23  C8  UNL     1      13.932  -1.991  51.253  1.00  0.00     0.135 C 
BRANCH  23  24
HETATM   24  C9  UNL     1      12.482  -1.798  50.856  1.00  0.00     0.021 C 
BRANCH  24  25
HETATM   25  C10 UNL     1      11.972  -3.136  50.326  1.00  0.00     0.002 C 
BRANCH  25  26
HETATM   26  C11 UNL     1      12.317  -3.264  48.885  1.00  0.00     0.000 C 
BRANCH  26  27
HETATM   27  C12 UNL     1      11.177  -3.489  47.955  1.00  0.00     0.008 C 
BRANCH  27  28
HETATM   28  C13 UNL     1      10.809  -2.316  47.094  1.00  0.00     0.086 C 
BRANCH  28  29
HETATM   29  C14 UNL     1       9.592  -1.622  47.576  1.00  0.00     0.135 C 
HETATM   30  N3  UNL     1       8.505  -1.658  46.878  1.00  0.00    -0.251 N 
ATOM     31  H3  UNL     1       7.683  -1.170  47.236  1.00  0.00     0.196 HD
BRANCH  29  32
HETATM   32  O1  UNL     1       9.588  -0.914  48.791  1.00  0.00    -0.348 OA
ATOM     33  H1  UNL     1       9.674   0.032  48.811  1.00  0.00     0.219 HD
ENDBRANCH  29  32
BRANCH  30  34
HETATM   34  O2  UNL     1       8.402  -2.318  45.680  1.00  0.00    -0.288 OA
ATOM     35  H2  UNL     1       8.056  -1.916  44.892  1.00  0.00     0.244 HD
ENDBRANCH  30  34
ENDBRANCH  28  29
ENDBRANCH  27  28
ENDBRANCH  26  27
ENDBRANCH  25  26
ENDBRANCH  24  25
ENDBRANCH  23  24
ENDBRANCH   6  23
TORSDOF 14
ENDMDL
MODEL 5
REMARK VINA RESULT: -8.046531400      3.331      4.705
REMARK  14 active torsions:
REMARK  status: ('A' for Active; 'I' for Inactive)
REMARK    1  A    between atoms: C2_2  and  C3_3 
REMARK    2  A    between atoms: C2_2  and  C15_27 
REMARK    3  A    between atoms: C3_3  and  C4_4 
REMARK    4  A    between atoms: C4_4  and  C5_5 
REMARK    5  A    between atoms: N2_10  and  C8_11 
REMARK    6  A    between atoms: C8_11  and  C9_12 
REMARK    7  A    between atoms: C9_12  and  C10_13 
REMARK    8  A    between atoms: C10_13  and  C11_14 
REMARK    9  A    between atoms: C11_14  and  C12_15 
REMARK   10  A    between atoms: C12_15  and  C13_16 
REMARK   11  A    between atoms: C13_16  and  C14_17 
REMARK   12  A    between atoms: C14_17  and  O1_18 
REMARK   13  A    between atoms: N3_20  and  O2_22 
REMARK   14  A    between atoms: C15_27  and  C16_28 
ROOT
HETATM    1  C5  UNL     1      14.966  -0.727  54.621  1.00  0.00     0.145 C 
HETATM    2  N1  UNL     1      15.497  -1.481  55.537  1.00  0.00    -0.378 N 
ATOM      3  H1  UNL     1      15.914  -1.075  56.375  1.00  0.00     0.160 HD
HETATM    4  C6  UNL     1      15.480  -2.933  55.327  1.00  0.00     0.141 C 
HETATM    5  C7  UNL     1      14.049  -3.347  55.111  1.00  0.00     0.155 C 
HETATM    6  N2  UNL     1      13.613  -3.027  53.800  1.00  0.00    -0.304 N 
HETATM    7  S1  UNL     1      14.281  -1.568  53.232  1.00  0.00     0.276 S 
HETATM    8  O3  UNL     1      13.276  -0.666  52.590  1.00  0.00    -0.199 OA
HETATM    9  O4  UNL     1      15.370  -1.820  52.205  1.00  0.00    -0.199 OA
ENDROOT
BRANCH   1  10
HETATM   10  C4  UNL     1      14.905   0.721  54.679  1.00  0.00     0.044 C 
BRANCH  10  11
HETATM   11  C3  UNL     1      15.974   1.471  54.829  1.00  0.00     0.010 C 
BRANCH  11  12
HETATM   12  C2  UNL     1      16.581   2.133  53.689  1.00  0.00    -0.060 C 
HETATM   13  C1  UNL     1      16.425   1.546  52.334  1.00  0.00     0.048 C 
BRANCH  12  14
HETATM   14  C15 UNL     1      17.252   3.241  53.907  1.00  0.00     0.037 C 
BRANCH  14  15
HETATM   15  C16 UNL     1      16.753   4.599  53.776  1.00  0.00     0.051 A 
HETATM   16  C17 UNL     1      15.431   4.945  53.470  1.00  0.00     0.069 A 
HETATM   17  C18 UNL     1      15.360   6.298  53.412  1.00  0.00     0.096 A 
HETATM   18 BR1  UNL     1      13.770   7.296  53.026  1.00  0.00    -0.030 Br
HETATM   19  N4  UNL     1      16.585   6.781  53.672  1.00  0.00    -0.293 N 
HETATM   20  N5  UNL     1      17.403   5.771  53.885  1.00  0.00    -0.300 N 
ATOM     21  H4  UNL     1      16.841   7.768  53.699  1.00  0.00     0.187 HD
ATOM     22  H5  UNL     1      18.395   5.865  54.104  1.00  0.00     0.187 HD
ENDBRANCH  14  15
ENDBRANCH  12  14
ENDBRANCH  11  12
ENDBRANCH  10  11
ENDBRANCH   1  10
BRANCH   6  23
HETATM   23  C8  UNL     1      13.545  -4.090  52.858  1.00  0.00     0.135 C 
BRANCH  23  24
HETATM   24  C9  UNL     1      12.376  -3.959  51.904  1.00  0.00     0.021 C 
BRANCH  24  25
HETATM   25  C10 UNL     1      12.714  -4.766  50.654  1.00  0.00     0.002 C 
BRANCH  25  26
HETATM   26  C11 UNL     1      13.771  -4.064  49.878  1.00  0.00     0.000 C 
BRANCH  26  27
HETATM   27  C12 UNL     1      13.386  -3.600  48.517  1.00  0.00     0.008 C 
BRANCH  27  28
HETATM   28  C13 UNL     1      13.797  -2.196  48.177  1.00  0.00     0.086 C 
BRANCH  28  29
HETATM   29  C14 UNL     1      13.433  -1.229  49.237  1.00  0.00     0.135 C 
HETATM   30  N3  UNL     1      14.336  -0.461  49.753  1.00  0.00    -0.251 N 
ATOM     31  H3  UNL     1      14.055   0.195  50.482  1.00  0.00     0.196 HD
BRANCH  29  32
HETATM   32  O1  UNL     1      12.112  -1.122  49.707  1.00  0.00    -0.348 OA
ATOM     33  H1  UNL     1      11.457  -0.625  49.230  1.00  0.00     0.219 HD
ENDBRANCH  29  32
BRANCH  30  34
HETATM   34  O2  UNL     1      15.652  -0.486  49.370  1.00  0.00    -0.288 OA
ATOM     35  H2  UNL     1      16.166   0.299  49.220  1.00  0.00     0.244 HD
ENDBRANCH  30  34
ENDBRANCH  28  29
ENDBRANCH  27  28
ENDBRANCH  26  27
ENDBRANCH  25  26
ENDBRANCH  24  25
ENDBRANCH  23  24
ENDBRANCH   6  23
TORSDOF 14
ENDMDL
