MODEL 1
REMARK VINA RESULT: -8.482043947      0.000      0.000
REMARK  12 active torsions:
REMARK  status: ('A' for Active; 'I' for Inactive)
REMARK    1  A    between atoms: C2_2  and  C3_3 
REMARK    2  A    between atoms: C3_3  and  C4_4 
REMARK    3  A    between atoms: C4_4  and  N1_5 
REMARK    4  A    between atoms: N1_5  and  C5_6 
REMARK    5  A    between atoms: N1_5  and  C11_18 
REMARK    6  A    between atoms: C5_6  and  C6_7 
REMARK    7  A    between atoms: C6_7  and  C7_8 
REMARK    8  A    between atoms: C7_8  and  C8_9 
REMARK    9  A    between atoms: C8_9  and  C9_10 
REMARK   10  A    between atoms: C9_10  and  C10_11 
REMARK   11  A    between atoms: C10_11  and  O1_12 
REMARK   12  A    between atoms: N2_14  and  O2_16 
ROOT
HETATM    1  C5  UNL     1     -55.377 113.566 -40.544  1.00  0.00     0.273 C 
ENDROOT
BRANCH   1   2
HETATM    2  N1  UNL     1     -56.244 114.712 -40.722  1.00  0.00     0.093 N 
BRANCH   2   3
HETATM    3  C4  UNL     1     -55.737 115.640 -39.687  1.00  0.00     0.276 C 
BRANCH   3   4
HETATM    4  C3  UNL     1     -55.355 116.977 -40.140  1.00  0.00     0.056 C 
BRANCH   4   5
HETATM    5  C2  UNL     1     -56.465 117.917 -39.809  1.00  0.00    -0.035 C 
HETATM    6  C1  UNL     1     -56.330 119.206 -39.911  1.00  0.00     0.007 C 
ENDBRANCH   4   5
ENDBRANCH   3   4
ENDBRANCH   2   3
BRANCH   2   7
HETATM    7  C11 UNL     1     -57.631 114.462 -40.519  1.00  0.00     0.223 C 
HETATM    8  C12 UNL     1     -58.250 114.864 -39.242  1.00  0.00     0.036 C 
HETATM    9  C13 UNL     1     -59.241 113.783 -38.761  1.00  0.00     0.002 C 
HETATM   10  C14 UNL     1     -60.206 113.528 -39.879  1.00  0.00     0.000 C 
HETATM   11  C15 UNL     1     -59.565 113.179 -41.188  1.00  0.00     0.002 C 
HETATM   12  C16 UNL     1     -58.036 113.085 -40.941  1.00  0.00     0.036 C 
ENDBRANCH   2   7
ENDBRANCH   1   2
BRANCH   1  13
HETATM   13  C6  UNL     1     -54.012 113.626 -41.093  1.00  0.00     0.030 C 
BRANCH  13  14
HETATM   14  C7  UNL     1     -53.967 113.933 -42.574  1.00  0.00     0.002 C 
BRANCH  14  15
HETATM   15  C8  UNL     1     -53.151 112.892 -43.310  1.00  0.00     0.008 C 
BRANCH  15  16
HETATM   16  C9  UNL     1     -52.467 113.647 -44.452  1.00  0.00     0.086 C 
BRANCH  16  17
HETATM   17  C10 UNL     1     -51.355 112.832 -44.970  1.00  0.00     0.135 C 
HETATM   18  N2  UNL     1     -51.238 112.664 -46.239  1.00  0.00    -0.251 N 
ATOM     19  H2  UNL     1     -51.913 113.095 -46.872  1.00  0.00     0.196 HD
BRANCH  17  20
HETATM   20  O1  UNL     1     -50.451 112.256 -44.094  1.00  0.00    -0.348 OA
ATOM     21  H1  UNL     1     -49.551 112.561 -44.070  1.00  0.00     0.219 HD
ENDBRANCH  17  20
BRANCH  18  22
HETATM   22  O2  UNL     1     -50.209 111.907 -46.751  1.00  0.00    -0.288 OA
ATOM     23  H2  UNL     1     -50.388 111.193 -47.351  1.00  0.00     0.244 HD
ENDBRANCH  18  22
ENDBRANCH  16  17
ENDBRANCH  15  16
ENDBRANCH  14  15
ENDBRANCH  13  14
ENDBRANCH   1  13
TORSDOF 12
ENDMDL
MODEL 2
REMARK VINA RESULT: -8.292327200      0.938      1.348
REMARK  12 active torsions:
REMARK  status: ('A' for Active; 'I' for Inactive)
REMARK    1  A    between atoms: C2_2  and  C3_3 
REMARK    2  A    between atoms: C3_3  and  C4_4 
REMARK    3  A    between atoms: C4_4  and  N1_5 
REMARK    4  A    between atoms: N1_5  and  C5_6 
REMARK    5  A    between atoms: N1_5  and  C11_18 
REMARK    6  A    between atoms: C5_6  and  C6_7 
REMARK    7  A    between atoms: C6_7  and  C7_8 
REMARK    8  A    between atoms: C7_8  and  C8_9 
REMARK    9  A    between atoms: C8_9  and  C9_10 
REMARK   10  A    between atoms: C9_10  and  C10_11 
REMARK   11  A    between atoms: C10_11  and  O1_12 
REMARK   12  A    between atoms: N2_14  and  O2_16 
ROOT
HETATM    1  C5  UNL     1     -54.662 113.330 -40.491  1.00  0.00     0.273 C 
ENDROOT
BRANCH   1   2
HETATM    2  N1  UNL     1     -55.783 114.244 -40.428  1.00  0.00     0.093 N 
BRANCH   2   3
HETATM    3  C4  UNL     1     -55.240 115.332 -39.585  1.00  0.00     0.276 C 
BRANCH   3   4
HETATM    4  C3  UNL     1     -55.134 116.650 -40.210  1.00  0.00     0.056 C 
BRANCH   4   5
HETATM    5  C2  UNL     1     -56.317 117.459 -39.797  1.00  0.00    -0.035 C 
HETATM    6  C1  UNL     1     -56.374 118.744 -39.989  1.00  0.00     0.007 C 
ENDBRANCH   4   5
ENDBRANCH   3   4
ENDBRANCH   2   3
BRANCH   2   7
HETATM    7  C11 UNL     1     -56.967 113.714 -39.840  1.00  0.00     0.223 C 
HETATM    8  C12 UNL     1     -58.278 114.182 -40.328  1.00  0.00     0.036 C 
HETATM    9  C13 UNL     1     -59.251 114.379 -39.147  1.00  0.00     0.002 C 
HETATM   10  C14 UNL     1     -59.286 113.097 -38.374  1.00  0.00     0.000 C 
HETATM   11  C15 UNL     1     -57.943 112.598 -37.934  1.00  0.00     0.002 C 
HETATM   12  C16 UNL     1     -56.897 113.667 -38.347  1.00  0.00     0.036 C 
ENDBRANCH   2   7
ENDBRANCH   1   2
BRANCH   1  13
HETATM   13  C6  UNL     1     -53.638 113.544 -41.527  1.00  0.00     0.030 C 
BRANCH  13  14
HETATM   14  C7  UNL     1     -54.206 113.970 -42.864  1.00  0.00     0.002 C 
BRANCH  14  15
HETATM   15  C8  UNL     1     -53.167 113.827 -43.954  1.00  0.00     0.008 C 
BRANCH  15  16
HETATM   16  C9  UNL     1     -51.960 113.171 -43.279  1.00  0.00     0.086 C 
BRANCH  16  17
HETATM   17  C10 UNL     1     -51.038 112.676 -44.315  1.00  0.00     0.135 C 
HETATM   18  N2  UNL     1     -51.329 112.862 -45.554  1.00  0.00    -0.251 N 
ATOM     19  H2  UNL     1     -52.190 113.348 -45.805  1.00  0.00     0.196 HD
BRANCH  17  20
HETATM   20  O1  UNL     1     -49.875 112.020 -43.952  1.00  0.00    -0.348 OA
ATOM     21  H1  UNL     1     -49.447 111.434 -44.567  1.00  0.00     0.219 HD
ENDBRANCH  17  20
BRANCH  18  22
HETATM   22  O2  UNL     1     -50.486 112.410 -46.544  1.00  0.00    -0.288 OA
ATOM     23  H2  UNL     1     -50.756 112.433 -47.454  1.00  0.00     0.244 HD
ENDBRANCH  18  22
ENDBRANCH  16  17
ENDBRANCH  15  16
ENDBRANCH  14  15
ENDBRANCH  13  14
ENDBRANCH   1  13
TORSDOF 12
ENDMDL
MODEL 3
REMARK VINA RESULT: -8.205824579      0.946      1.154
REMARK  12 active torsions:
REMARK  status: ('A' for Active; 'I' for Inactive)
REMARK    1  A    between atoms: C2_2  and  C3_3 
REMARK    2  A    between atoms: C3_3  and  C4_4 
REMARK    3  A    between atoms: C4_4  and  N1_5 
REMARK    4  A    between atoms: N1_5  and  C5_6 
REMARK    5  A    between atoms: N1_5  and  C11_18 
REMARK    6  A    between atoms: C5_6  and  C6_7 
REMARK    7  A    between atoms: C6_7  and  C7_8 
REMARK    8  A    between atoms: C7_8  and  C8_9 
REMARK    9  A    between atoms: C8_9  and  C9_10 
REMARK   10  A    between atoms: C9_10  and  C10_11 
REMARK   11  A    between atoms: C10_11  and  O1_12 
REMARK   12  A    between atoms: N2_14  and  O2_16 
ROOT
HETATM    1  C5  UNL     1     -55.309 114.129 -39.747  1.00  0.00     0.273 C 
ENDROOT
BRANCH   1   2
HETATM    2  N1  UNL     1     -56.253 115.062 -40.324  1.00  0.00     0.093 N 
BRANCH   2   3
HETATM    3  C4  UNL     1     -56.035 116.268 -39.495  1.00  0.00     0.276 C 
BRANCH   3   4
HETATM    4  C3  UNL     1     -55.345 117.386 -40.137  1.00  0.00     0.056 C 
BRANCH   4   5
HETATM    5  C2  UNL     1     -56.331 118.488 -40.338  1.00  0.00    -0.035 C 
HETATM    6  C1  UNL     1     -56.372 119.527 -39.557  1.00  0.00     0.007 C 
ENDBRANCH   4   5
ENDBRANCH   3   4
ENDBRANCH   2   3
BRANCH   2   7
HETATM    7  C11 UNL     1     -57.619 114.664 -40.258  1.00  0.00     0.223 C 
HETATM    8  C12 UNL     1     -58.409 115.014 -39.063  1.00  0.00     0.036 C 
HETATM    9  C13 UNL     1     -59.322 113.838 -38.659  1.00  0.00     0.002 C 
HETATM   10  C14 UNL     1     -60.130 113.461 -39.862  1.00  0.00     0.000 C 
HETATM   11  C15 UNL     1     -59.321 113.166 -41.089  1.00  0.00     0.002 C 
HETATM   12  C16 UNL     1     -57.826 113.245 -40.684  1.00  0.00     0.036 C 
ENDBRANCH   2   7
ENDBRANCH   1   2
BRANCH   1  13
HETATM   13  C6  UNL     1     -54.039 113.887 -40.453  1.00  0.00     0.030 C 
BRANCH  13  14
HETATM   14  C7  UNL     1     -54.058 114.323 -41.903  1.00  0.00     0.002 C 
BRANCH  14  15
HETATM   15  C8  UNL     1     -53.689 113.171 -42.811  1.00  0.00     0.008 C 
BRANCH  15  16
HETATM   16  C9  UNL     1     -53.178 113.819 -44.100  1.00  0.00     0.086 C 
BRANCH  16  17
HETATM   17  C10 UNL     1     -51.891 113.207 -44.470  1.00  0.00     0.135 C 
HETATM   18  N2  UNL     1     -51.176 112.650 -43.558  1.00  0.00    -0.251 N 
ATOM     19  H2  UNL     1     -51.505 112.637 -42.593  1.00  0.00     0.196 HD
BRANCH  17  20
HETATM   20  O1  UNL     1     -51.463 113.235 -45.787  1.00  0.00    -0.348 OA
ATOM     21  H1  UNL     1     -51.963 112.785 -46.459  1.00  0.00     0.219 HD
ENDBRANCH  17  20
BRANCH  18  22
HETATM   22  O2  UNL     1     -49.969 112.069 -43.876  1.00  0.00    -0.288 OA
ATOM     23  H2  UNL     1     -49.767 111.841 -44.776  1.00  0.00     0.244 HD
ENDBRANCH  18  22
ENDBRANCH  16  17
ENDBRANCH  15  16
ENDBRANCH  14  15
ENDBRANCH  13  14
ENDBRANCH   1  13
TORSDOF 12
ENDMDL
MODEL 4
REMARK VINA RESULT: -8.200162850      2.776      3.291
REMARK  12 active torsions:
REMARK  status: ('A' for Active; 'I' for Inactive)
REMARK    1  A    between atoms: C2_2  and  C3_3 
REMARK    2  A    between atoms: C3_3  and  C4_4 
REMARK    3  A    between atoms: C4_4  and  N1_5 
REMARK    4  A    between atoms: N1_5  and  C5_6 
REMARK    5  A    between atoms: N1_5  and  C11_18 
REMARK    6  A    between atoms: C5_6  and  C6_7 
REMARK    7  A    between atoms: C6_7  and  C7_8 
REMARK    8  A    between atoms: C7_8  and  C8_9 
REMARK    9  A    between atoms: C8_9  and  C9_10 
REMARK   10  A    between atoms: C9_10  and  C10_11 
REMARK   11  A    between atoms: C10_11  and  O1_12 
REMARK   12  A    between atoms: N2_14  and  O2_16 
ROOT
HETATM    1  C5  UNL     1     -54.820 113.558 -41.278  1.00  0.00     0.273 C 
ENDROOT
BRANCH   1   2
HETATM    2  N1  UNL     1     -55.888 114.411 -40.801  1.00  0.00     0.093 N 
BRANCH   2   3
HETATM    3  C4  UNL     1     -55.174 115.283 -39.842  1.00  0.00     0.276 C 
BRANCH   3   4
HETATM    4  C3  UNL     1     -54.968 116.672 -40.252  1.00  0.00     0.056 C 
BRANCH   4   5
HETATM    5  C2  UNL     1     -56.164 117.462 -39.839  1.00  0.00    -0.035 C 
HETATM    6  C1  UNL     1     -56.314 118.710 -40.172  1.00  0.00     0.007 C 
ENDBRANCH   4   5
ENDBRANCH   3   4
ENDBRANCH   2   3
BRANCH   2   7
HETATM    7  C11 UNL     1     -56.958 113.738 -40.147  1.00  0.00     0.223 C 
HETATM    8  C12 UNL     1     -58.294 113.742 -40.773  1.00  0.00     0.036 C 
HETATM    9  C13 UNL     1     -59.388 113.935 -39.703  1.00  0.00     0.002 C 
HETATM   10  C14 UNL     1     -59.185 112.883 -38.656  1.00  0.00     0.000 C 
HETATM   11  C15 UNL     1     -57.806 112.847 -38.069  1.00  0.00     0.002 C 
HETATM   12  C16 UNL     1     -57.014 114.033 -38.682  1.00  0.00     0.036 C 
ENDBRANCH   2   7
ENDBRANCH   1   2
BRANCH   1  13
HETATM   13  C6  UNL     1     -54.122 113.931 -42.520  1.00  0.00     0.030 C 
BRANCH  13  14
HETATM   14  C7  UNL     1     -52.795 113.227 -42.706  1.00  0.00     0.002 C 
BRANCH  14  15
HETATM   15  C8  UNL     1     -52.186 112.876 -41.366  1.00  0.00     0.008 C 
BRANCH  15  16
HETATM   16  C9  UNL     1     -50.679 113.083 -41.540  1.00  0.00     0.086 C 
BRANCH  16  17
HETATM   17  C10 UNL     1     -50.060 113.248 -40.214  1.00  0.00     0.135 C 
HETATM   18  N2  UNL     1     -49.038 112.531 -39.905  1.00  0.00    -0.251 N 
ATOM     19  H2  UNL     1     -48.669 111.859 -40.578  1.00  0.00     0.196 HD
BRANCH  17  20
HETATM   20  O1  UNL     1     -50.577 114.167 -39.317  1.00  0.00    -0.348 OA
ATOM     21  H1  UNL     1     -50.118 114.349 -38.505  1.00  0.00     0.219 HD
ENDBRANCH  17  20
BRANCH  18  22
HETATM   22  O2  UNL     1     -48.439 112.665 -38.673  1.00  0.00    -0.288 OA
ATOM     23  H2  UNL     1     -47.799 112.028 -38.377  1.00  0.00     0.244 HD
ENDBRANCH  18  22
ENDBRANCH  16  17
ENDBRANCH  15  16
ENDBRANCH  14  15
ENDBRANCH  13  14
ENDBRANCH   1  13
TORSDOF 12
ENDMDL
MODEL 5
REMARK VINA RESULT: -8.081059317      2.787      3.068
REMARK  12 active torsions:
REMARK  status: ('A' for Active; 'I' for Inactive)
REMARK    1  A    between atoms: C2_2  and  C3_3 
REMARK    2  A    between atoms: C3_3  and  C4_4 
REMARK    3  A    between atoms: C4_4  and  N1_5 
REMARK    4  A    between atoms: N1_5  and  C5_6 
REMARK    5  A    between atoms: N1_5  and  C11_18 
REMARK    6  A    between atoms: C5_6  and  C6_7 
REMARK    7  A    between atoms: C6_7  and  C7_8 
REMARK    8  A    between atoms: C7_8  and  C8_9 
REMARK    9  A    between atoms: C8_9  and  C9_10 
REMARK   10  A    between atoms: C9_10  and  C10_11 
REMARK   11  A    between atoms: C10_11  and  O1_12 
REMARK   12  A    between atoms: N2_14  and  O2_16 
ROOT
HETATM    1  C5  UNL     1     -55.333 113.861 -41.274  1.00  0.00     0.273 C 
ENDROOT
BRANCH   1   2
HETATM    2  N1  UNL     1     -56.264 114.917 -40.940  1.00  0.00     0.093 N 
BRANCH   2   3
HETATM    3  C4  UNL     1     -55.553 115.614 -39.844  1.00  0.00     0.276 C 
BRANCH   3   4
HETATM    4  C3  UNL     1     -55.150 116.996 -40.103  1.00  0.00     0.056 C 
BRANCH   4   5
HETATM    5  C2  UNL     1     -56.299 117.886 -39.769  1.00  0.00    -0.035 C 
HETATM    6  C1  UNL     1     -56.332 119.134 -40.131  1.00  0.00     0.007 C 
ENDBRANCH   4   5
ENDBRANCH   3   4
ENDBRANCH   2   3
BRANCH   2   7
HETATM    7  C11 UNL     1     -57.544 114.481 -40.492  1.00  0.00     0.223 C 
HETATM    8  C12 UNL     1     -58.078 115.014 -39.225  1.00  0.00     0.036 C 
HETATM    9  C13 UNL     1     -58.779 113.897 -38.425  1.00  0.00     0.002 C 
HETATM   10  C14 UNL     1     -59.797 113.269 -39.326  1.00  0.00     0.000 C 
HETATM   11  C15 UNL     1     -59.255 112.783 -40.637  1.00  0.00     0.002 C 
HETATM   12  C16 UNL     1     -57.719 113.000 -40.607  1.00  0.00     0.036 C 
ENDBRANCH   2   7
ENDBRANCH   1   2
BRANCH   1  13
HETATM   13  C6  UNL     1     -54.378 114.087 -42.372  1.00  0.00     0.030 C 
BRANCH  13  14
HETATM   14  C7  UNL     1     -53.188 113.151 -42.344  1.00  0.00     0.002 C 
BRANCH  14  15
HETATM   15  C8  UNL     1     -52.467 113.246 -41.018  1.00  0.00     0.008 C 
BRANCH  15  16
HETATM   16  C9  UNL     1     -50.987 113.036 -41.347  1.00  0.00     0.086 C 
BRANCH  16  17
HETATM   17  C10 UNL     1     -50.187 113.254 -40.129  1.00  0.00     0.135 C 
HETATM   18  N2  UNL     1     -49.155 112.517 -39.915  1.00  0.00    -0.251 N 
ATOM     19  H2  UNL     1     -48.902 111.792 -40.588  1.00  0.00     0.196 HD
BRANCH  17  20
HETATM   20  O1  UNL     1     -50.549 114.243 -39.231  1.00  0.00    -0.348 OA
ATOM     21  H1  UNL     1     -50.065 114.348 -38.419  1.00  0.00     0.219 HD
ENDBRANCH  17  20
BRANCH  18  22
HETATM   22  O2  UNL     1     -48.390 112.699 -38.786  1.00  0.00    -0.288 OA
ATOM     23  H2  UNL     1     -48.035 111.951 -38.319  1.00  0.00     0.244 HD
ENDBRANCH  18  22
ENDBRANCH  16  17
ENDBRANCH  15  16
ENDBRANCH  14  15
ENDBRANCH  13  14
ENDBRANCH   1  13
TORSDOF 12
ENDMDL
