MODEL 1
REMARK VINA RESULT: -8.597460570      0.000      0.000
REMARK  12 active torsions:
REMARK  status: ('A' for Active; 'I' for Inactive)
REMARK    1  A    between atoms: C2_2  and  C3_3 
REMARK    2  A    between atoms: C3_3  and  C4_4 
REMARK    3  A    between atoms: C4_4  and  C5_5 
REMARK    4  A    between atoms: C5_5  and  C6_6 
REMARK    5  A    between atoms: C8_9  and  C9_10 
REMARK    6  A    between atoms: C9_10  and  C10_11 
REMARK    7  A    between atoms: C11_12  and  C12_13 
REMARK    8  A    between atoms: C12_13  and  C13_14 
REMARK    9  A    between atoms: C13_14  and  C14_15 
REMARK   10  A    between atoms: C14_15  and  C15_16 
REMARK   11  A    between atoms: C15_16  and  O2_17 
REMARK   12  A    between atoms: N1_19  and  O3_21 
ROOT
HETATM    1  C10 UNL     1     -52.706 113.307 -43.475  1.00  0.00    -0.028 C 
HETATM    2  C11 UNL     1     -51.514 113.134 -43.950  1.00  0.00    -0.031 C 
ENDROOT
BRANCH   1   3
HETATM    3  C9  UNL     1     -53.175 112.834 -42.184  1.00  0.00     0.059 C 
BRANCH   3   4
HETATM    4  C8  UNL     1     -54.575 113.389 -41.853  1.00  0.00     0.125 C 
HETATM    5  O1  UNL     1     -55.087 112.747 -40.761  1.00  0.00    -0.385 OA
HETATM    6  C7  UNL     1     -55.207 113.653 -39.714  1.00  0.00     0.172 C 
HETATM    7  C6  UNL     1     -54.223 114.738 -40.011  1.00  0.00     0.012 C 
HETATM    8  C16 UNL     1     -54.357 114.848 -41.510  1.00  0.00     0.039 C 
BRANCH   7   9
HETATM    9  C5  UNL     1     -54.423 116.003 -39.277  1.00  0.00     0.007 C 
BRANCH   9  10
HETATM   10  C4  UNL     1     -55.760 116.135 -38.616  1.00  0.00     0.004 C 
BRANCH  10  11
HETATM   11  C3  UNL     1     -56.765 116.871 -39.474  1.00  0.00     0.026 C 
BRANCH  11  12
HETATM   12  C2  UNL     1     -56.173 118.027 -40.177  1.00  0.00    -0.037 C 
HETATM   13  C1  UNL     1     -56.350 119.275 -39.801  1.00  0.00     0.007 C 
ENDBRANCH  11  12
ENDBRANCH  10  11
ENDBRANCH   9  10
ENDBRANCH   7   9
ENDBRANCH   3   4
ENDBRANCH   1   3
BRANCH   2  14
HETATM   14  C12 UNL     1     -50.426 112.433 -43.268  1.00  0.00     0.027 C 
BRANCH  14  15
HETATM   15  C13 UNL     1     -49.848 113.312 -42.195  1.00  0.00     0.012 C 
BRANCH  15  16
HETATM   16  C14 UNL     1     -49.246 112.532 -41.094  1.00  0.00     0.086 C 
BRANCH  16  17
HETATM   17  C15 UNL     1     -49.432 113.148 -39.786  1.00  0.00     0.135 C 
HETATM   18  N1  UNL     1     -48.573 112.953 -38.818  1.00  0.00    -0.251 N 
ATOM     19  H1  UNL     1     -48.716 113.390 -37.908  1.00  0.00     0.196 HD
BRANCH  17  20
HETATM   20  O2  UNL     1     -50.497 113.955 -39.492  1.00  0.00    -0.348 OA
ATOM     21  H2  UNL     1     -50.421 114.730 -38.949  1.00  0.00     0.219 HD
ENDBRANCH  17  20
BRANCH  18  22
HETATM   22  O3  UNL     1     -47.485 112.159 -39.038  1.00  0.00    -0.288 OA
ATOM     23  H3  UNL     1     -47.402 111.340 -38.563  1.00  0.00     0.244 HD
ENDBRANCH  18  22
ENDBRANCH  16  17
ENDBRANCH  15  16
ENDBRANCH  14  15
ENDBRANCH   2  14
TORSDOF 12
ENDMDL
MODEL 2
REMARK VINA RESULT: -8.548880168      3.912      7.922
REMARK  12 active torsions:
REMARK  status: ('A' for Active; 'I' for Inactive)
REMARK    1  A    between atoms: C2_2  and  C3_3 
REMARK    2  A    between atoms: C3_3  and  C4_4 
REMARK    3  A    between atoms: C4_4  and  C5_5 
REMARK    4  A    between atoms: C5_5  and  C6_6 
REMARK    5  A    between atoms: C8_9  and  C9_10 
REMARK    6  A    between atoms: C9_10  and  C10_11 
REMARK    7  A    between atoms: C11_12  and  C12_13 
REMARK    8  A    between atoms: C12_13  and  C13_14 
REMARK    9  A    between atoms: C13_14  and  C14_15 
REMARK   10  A    between atoms: C14_15  and  C15_16 
REMARK   11  A    between atoms: C15_16  and  O2_17 
REMARK   12  A    between atoms: N1_19  and  O3_21 
ROOT
HETATM    1  C10 UNL     1     -52.658 113.488 -41.076  1.00  0.00    -0.028 C 
HETATM    2  C11 UNL     1     -53.478 113.608 -42.070  1.00  0.00    -0.031 C 
ENDROOT
BRANCH   1   3
HETATM    3  C9  UNL     1     -51.536 112.567 -41.015  1.00  0.00     0.059 C 
BRANCH   3   4
HETATM    4  C8  UNL     1     -50.188 113.312 -41.095  1.00  0.00     0.125 C 
HETATM    5  O1  UNL     1     -49.803 113.720 -39.849  1.00  0.00    -0.385 OA
HETATM    6  C7  UNL     1     -48.651 113.038 -39.481  1.00  0.00     0.172 C 
HETATM    7  C6  UNL     1     -48.654 111.782 -40.291  1.00  0.00     0.012 C 
HETATM    8  C16 UNL     1     -49.195 112.288 -41.606  1.00  0.00     0.039 C 
BRANCH   7   9
HETATM    9  C5  UNL     1     -47.361 111.076 -40.384  1.00  0.00     0.007 C 
BRANCH   9  10
HETATM   10  C4  UNL     1     -46.617 110.964 -39.089  1.00  0.00     0.004 C 
BRANCH  10  11
HETATM   11  C3  UNL     1     -45.311 110.216 -39.229  1.00  0.00     0.026 C 
BRANCH  11  12
HETATM   12  C2  UNL     1     -44.477 110.293 -38.012  1.00  0.00    -0.037 C 
HETATM   13  C1  UNL     1     -43.481 111.140 -37.866  1.00  0.00     0.007 C 
ENDBRANCH  11  12
ENDBRANCH  10  11
ENDBRANCH   9  10
ENDBRANCH   7   9
ENDBRANCH   3   4
ENDBRANCH   1   3
BRANCH   2  14
HETATM   14  C12 UNL     1     -53.418 112.837 -43.312  1.00  0.00     0.027 C 
BRANCH  14  15
HETATM   15  C13 UNL     1     -52.549 113.548 -44.310  1.00  0.00     0.012 C 
BRANCH  15  16
HETATM   16  C14 UNL     1     -51.299 112.810 -44.591  1.00  0.00     0.086 C 
BRANCH  16  17
HETATM   17  C15 UNL     1     -51.066 112.597 -46.014  1.00  0.00     0.135 C 
HETATM   18  N1  UNL     1     -51.408 111.475 -46.595  1.00  0.00    -0.251 N 
ATOM     19  H1  UNL     1     -51.240 111.340 -47.591  1.00  0.00     0.196 HD
BRANCH  17  20
HETATM   20  O2  UNL     1     -50.484 113.538 -46.819  1.00  0.00    -0.348 OA
ATOM     21  H2  UNL     1     -49.620 113.429 -47.197  1.00  0.00     0.219 HD
ENDBRANCH  17  20
BRANCH  18  22
HETATM   22  O3  UNL     1     -51.994 110.489 -45.855  1.00  0.00    -0.288 OA
ATOM     23  H3  UNL     1     -51.767 109.582 -46.024  1.00  0.00     0.244 HD
ENDBRANCH  18  22
ENDBRANCH  16  17
ENDBRANCH  15  16
ENDBRANCH  14  15
ENDBRANCH   2  14
TORSDOF 12
ENDMDL
MODEL 3
REMARK VINA RESULT: -8.528691746      1.159      1.645
REMARK  12 active torsions:
REMARK  status: ('A' for Active; 'I' for Inactive)
REMARK    1  A    between atoms: C2_2  and  C3_3 
REMARK    2  A    between atoms: C3_3  and  C4_4 
REMARK    3  A    between atoms: C4_4  and  C5_5 
REMARK    4  A    between atoms: C5_5  and  C6_6 
REMARK    5  A    between atoms: C8_9  and  C9_10 
REMARK    6  A    between atoms: C9_10  and  C10_11 
REMARK    7  A    between atoms: C11_12  and  C12_13 
REMARK    8  A    between atoms: C12_13  and  C13_14 
REMARK    9  A    between atoms: C13_14  and  C14_15 
REMARK   10  A    between atoms: C14_15  and  C15_16 
REMARK   11  A    between atoms: C15_16  and  O2_17 
REMARK   12  A    between atoms: N1_19  and  O3_21 
ROOT
HETATM    1  C10 UNL     1     -51.387 112.765 -44.441  1.00  0.00    -0.028 C 
HETATM    2  C11 UNL     1     -50.336 112.504 -43.733  1.00  0.00    -0.031 C 
ENDROOT
BRANCH   1   3
HETATM    3  C9  UNL     1     -52.401 113.753 -44.113  1.00  0.00     0.059 C 
BRANCH   3   4
HETATM    4  C8  UNL     1     -53.638 113.099 -43.464  1.00  0.00     0.125 C 
HETATM    5  O1  UNL     1     -53.249 112.105 -42.611  1.00  0.00    -0.385 OA
HETATM    6  C7  UNL     1     -53.578 112.466 -41.310  1.00  0.00     0.172 C 
HETATM    7  C6  UNL     1     -53.664 113.958 -41.319  1.00  0.00     0.012 C 
HETATM    8  C16 UNL     1     -54.300 114.203 -42.665  1.00  0.00     0.039 C 
BRANCH   7   9
HETATM    9  C5  UNL     1     -54.376 114.566 -40.177  1.00  0.00     0.007 C 
BRANCH   9  10
HETATM   10  C4  UNL     1     -54.752 116.003 -40.372  1.00  0.00     0.004 C 
BRANCH  10  11
HETATM   11  C3  UNL     1     -55.589 116.545 -39.235  1.00  0.00     0.026 C 
BRANCH  11  12
HETATM   12  C2  UNL     1     -56.553 117.573 -39.679  1.00  0.00    -0.037 C 
HETATM   13  C1  UNL     1     -56.201 118.689 -40.279  1.00  0.00     0.007 C 
ENDBRANCH  11  12
ENDBRANCH  10  11
ENDBRANCH   9  10
ENDBRANCH   7   9
ENDBRANCH   3   4
ENDBRANCH   1   3
BRANCH   2  14
HETATM   14  C12 UNL     1     -49.982 113.159 -42.474  1.00  0.00     0.027 C 
BRANCH  14  15
HETATM   15  C13 UNL     1     -49.966 112.148 -41.362  1.00  0.00     0.012 C 
BRANCH  15  16
HETATM   16  C14 UNL     1     -48.606 111.915 -40.833  1.00  0.00     0.086 C 
BRANCH  16  17
HETATM   17  C15 UNL     1     -48.435 112.384 -39.464  1.00  0.00     0.135 C 
HETATM   18  N1  UNL     1     -47.455 111.944 -38.716  1.00  0.00    -0.251 N 
ATOM     19  H1  UNL     1     -47.347 112.282 -37.760  1.00  0.00     0.196 HD
BRANCH  17  20
HETATM   20  O2  UNL     1     -49.272 113.298 -38.884  1.00  0.00    -0.348 OA
ATOM     21  H2  UNL     1     -48.999 114.182 -38.669  1.00  0.00     0.219 HD
ENDBRANCH  17  20
BRANCH  18  22
HETATM   22  O3  UNL     1     -46.580 111.031 -39.227  1.00  0.00    -0.288 OA
ATOM     23  H3  UNL     1     -46.885 110.154 -39.429  1.00  0.00     0.244 HD
ENDBRANCH  18  22
ENDBRANCH  16  17
ENDBRANCH  15  16
ENDBRANCH  14  15
ENDBRANCH   2  14
TORSDOF 12
ENDMDL
MODEL 4
REMARK VINA RESULT: -8.482165351      3.347      6.867
REMARK  12 active torsions:
REMARK  status: ('A' for Active; 'I' for Inactive)
REMARK    1  A    between atoms: C2_2  and  C3_3 
REMARK    2  A    between atoms: C3_3  and  C4_4 
REMARK    3  A    between atoms: C4_4  and  C5_5 
REMARK    4  A    between atoms: C5_5  and  C6_6 
REMARK    5  A    between atoms: C8_9  and  C9_10 
REMARK    6  A    between atoms: C9_10  and  C10_11 
REMARK    7  A    between atoms: C11_12  and  C12_13 
REMARK    8  A    between atoms: C12_13  and  C13_14 
REMARK    9  A    between atoms: C13_14  and  C14_15 
REMARK   10  A    between atoms: C14_15  and  C15_16 
REMARK   11  A    between atoms: C15_16  and  O2_17 
REMARK   12  A    between atoms: N1_19  and  O3_21 
ROOT
HETATM    1  C10 UNL     1     -54.019 114.489 -40.714  1.00  0.00    -0.028 C 
HETATM    2  C11 UNL     1     -54.845 114.327 -39.730  1.00  0.00    -0.031 C 
ENDROOT
BRANCH   1   3
HETATM    3  C9  UNL     1     -54.203 113.981 -42.061  1.00  0.00     0.059 C 
BRANCH   3   4
HETATM    4  C8  UNL     1     -53.415 112.675 -42.286  1.00  0.00     0.125 C 
HETATM    5  O1  UNL     1     -52.919 112.640 -43.559  1.00  0.00    -0.385 OA
HETATM    6  C7  UNL     1     -51.532 112.691 -43.510  1.00  0.00     0.172 C 
HETATM    7  C6  UNL     1     -51.202 113.335 -42.203  1.00  0.00     0.012 C 
HETATM    8  C16 UNL     1     -52.258 112.732 -41.309  1.00  0.00     0.039 C 
BRANCH   7   9
HETATM    9  C5  UNL     1     -49.815 113.154 -41.731  1.00  0.00     0.007 C 
BRANCH   9  10
HETATM   10  C4  UNL     1     -49.480 113.905 -40.479  1.00  0.00     0.004 C 
BRANCH  10  11
HETATM   11  C3  UNL     1     -48.715 113.065 -39.482  1.00  0.00     0.026 C 
BRANCH  11  12
HETATM   12  C2  UNL     1     -48.138 111.848 -40.088  1.00  0.00    -0.037 C 
HETATM   13  C1  UNL     1     -47.183 111.138 -39.526  1.00  0.00     0.007 C 
ENDBRANCH  11  12
ENDBRANCH  10  11
ENDBRANCH   9  10
ENDBRANCH   7   9
ENDBRANCH   3   4
ENDBRANCH   1   3
BRANCH   2  14
HETATM   14  C12 UNL     1     -56.113 113.602 -39.803  1.00  0.00     0.027 C 
BRANCH  14  15
HETATM   15  C13 UNL     1     -56.579 113.252 -38.417  1.00  0.00     0.012 C 
BRANCH  15  16
HETATM   16  C14 UNL     1     -55.455 112.928 -37.513  1.00  0.00     0.086 C 
BRANCH  16  17
HETATM   17  C15 UNL     1     -55.836 112.043 -36.420  1.00  0.00     0.135 C 
HETATM   18  N1  UNL     1     -55.960 112.494 -35.197  1.00  0.00    -0.251 N 
ATOM     19  H1  UNL     1     -56.228 111.863 -34.441  1.00  0.00     0.196 HD
BRANCH  17  20
HETATM   20  O2  UNL     1     -56.082 110.709 -36.597  1.00  0.00    -0.348 OA
ATOM     21  H2  UNL     1     -56.140 110.307 -37.455  1.00  0.00     0.219 HD
ENDBRANCH  17  20
BRANCH  18  22
HETATM   22  O3  UNL     1     -55.730 113.815 -34.943  1.00  0.00    -0.288 OA
ATOM     23  H3  UNL     1     -56.071 114.202 -34.145  1.00  0.00     0.244 HD
ENDBRANCH  18  22
ENDBRANCH  16  17
ENDBRANCH  15  16
ENDBRANCH  14  15
ENDBRANCH   2  14
TORSDOF 12
ENDMDL
MODEL 5
REMARK VINA RESULT: -8.468852076      3.113      6.739
REMARK  12 active torsions:
REMARK  status: ('A' for Active; 'I' for Inactive)
REMARK    1  A    between atoms: C2_2  and  C3_3 
REMARK    2  A    between atoms: C3_3  and  C4_4 
REMARK    3  A    between atoms: C4_4  and  C5_5 
REMARK    4  A    between atoms: C5_5  and  C6_6 
REMARK    5  A    between atoms: C8_9  and  C9_10 
REMARK    6  A    between atoms: C9_10  and  C10_11 
REMARK    7  A    between atoms: C11_12  and  C12_13 
REMARK    8  A    between atoms: C12_13  and  C13_14 
REMARK    9  A    between atoms: C13_14  and  C14_15 
REMARK   10  A    between atoms: C14_15  and  C15_16 
REMARK   11  A    between atoms: C15_16  and  O2_17 
REMARK   12  A    between atoms: N1_19  and  O3_21 
ROOT
HETATM    1  C10 UNL     1     -55.048 113.972 -42.035  1.00  0.00    -0.028 C 
HETATM    2  C11 UNL     1     -55.451 114.592 -40.972  1.00  0.00    -0.031 C 
ENDROOT
BRANCH   1   3
HETATM    3  C9  UNL     1     -53.773 114.177 -42.698  1.00  0.00     0.059 C 
BRANCH   3   4
HETATM    4  C8  UNL     1     -53.048 112.841 -42.957  1.00  0.00     0.125 C 
HETATM    5  O1  UNL     1     -52.254 112.946 -44.064  1.00  0.00    -0.385 OA
HETATM    6  C7  UNL     1     -50.923 112.834 -43.683  1.00  0.00     0.172 C 
HETATM    7  C6  UNL     1     -50.886 113.229 -42.243  1.00  0.00     0.012 C 
HETATM    8  C16 UNL     1     -52.172 112.618 -41.742  1.00  0.00     0.039 C 
BRANCH   7   9
HETATM    9  C5  UNL     1     -49.677 112.824 -41.498  1.00  0.00     0.007 C 
BRANCH   9  10
HETATM   10  C4  UNL     1     -49.497 113.512 -40.180  1.00  0.00     0.004 C 
BRANCH  10  11
HETATM   11  C3  UNL     1     -48.408 112.885 -39.339  1.00  0.00     0.026 C 
BRANCH  11  12
HETATM   12  C2  UNL     1     -47.925 111.605 -39.896  1.00  0.00    -0.037 C 
HETATM   13  C1  UNL     1     -46.872 110.963 -39.436  1.00  0.00     0.007 C 
ENDBRANCH  11  12
ENDBRANCH  10  11
ENDBRANCH   9  10
ENDBRANCH   7   9
ENDBRANCH   3   4
ENDBRANCH   1   3
BRANCH   2  14
HETATM   14  C12 UNL     1     -54.689 115.611 -40.249  1.00  0.00     0.027 C 
BRANCH  14  15
HETATM   15  C13 UNL     1     -54.895 115.444 -38.770  1.00  0.00     0.012 C 
BRANCH  15  16
HETATM   16  C14 UNL     1     -55.100 114.031 -38.388  1.00  0.00     0.086 C 
BRANCH  16  17
HETATM   17  C15 UNL     1     -56.110 113.859 -37.351  1.00  0.00     0.135 C 
HETATM   18  N1  UNL     1     -55.893 113.087 -36.316  1.00  0.00    -0.251 N 
ATOM     19  H1  UNL     1     -56.608 112.976 -35.598  1.00  0.00     0.196 HD
BRANCH  17  20
HETATM   20  O2  UNL     1     -57.328 114.481 -37.392  1.00  0.00    -0.348 OA
ATOM     21  H2  UNL     1     -58.108 114.063 -37.737  1.00  0.00     0.219 HD
ENDBRANCH  17  20
BRANCH  18  22
HETATM   22  O3  UNL     1     -54.700 112.433 -36.207  1.00  0.00    -0.288 OA
ATOM     23  H3  UNL     1     -54.016 112.799 -35.658  1.00  0.00     0.244 HD
ENDBRANCH  18  22
ENDBRANCH  16  17
ENDBRANCH  15  16
ENDBRANCH  14  15
ENDBRANCH   2  14
TORSDOF 12
ENDMDL
