MODEL 1
REMARK VINA RESULT: -8.215112193      0.000      0.000
REMARK  10 active torsions:
REMARK  status: ('A' for Active; 'I' for Inactive)
REMARK    1  A    between atoms: C1_4  and  C2_5 
REMARK    2  A    between atoms: C2_5  and  C3_6 
REMARK    3  A    between atoms: C3_6  and  C4_7 
REMARK    4  A    between atoms: C4_7  and  C5_8 
REMARK    5  A    between atoms: C5_8  and  C6_9 
REMARK    6  A    between atoms: C6_9  and  C7_10 
REMARK    7  A    between atoms: C7_10  and  C8_11 
REMARK    8  A    between atoms: C8_11  and  C9_12 
REMARK    9  A    between atoms: C9_12  and  C10_13 
REMARK   10  A    between atoms: C10_13  and  N2_14 
ROOT
HETATM    1  C8  UNL     1     -53.241 113.880 -43.832  1.00  0.00     0.002 C 
ENDROOT
BRANCH   1   2
HETATM    2  C7  UNL     1     -52.223 112.947 -43.264  1.00  0.00     0.000 C 
BRANCH   2   3
HETATM    3  C6  UNL     1     -50.914 112.907 -44.021  1.00  0.00     0.000 C 
BRANCH   3   4
HETATM    4  C5  UNL     1     -49.850 112.535 -42.999  1.00  0.00     0.000 C 
BRANCH   4   5
HETATM    5  C4  UNL     1     -50.314 112.762 -41.601  1.00  0.00     0.000 C 
BRANCH   5   6
HETATM    6  C3  UNL     1     -49.501 113.800 -40.879  1.00  0.00     0.005 C 
BRANCH   6   7
HETATM    7  C2  UNL     1     -49.049 113.148 -39.576  1.00  0.00     0.044 C 
BRANCH   7   8
HETATM    8  C1  UNL     1     -48.018 112.118 -39.806  1.00  0.00     0.052 C 
HETATM    9  N1  UNL     1     -47.983 110.981 -39.208  1.00  0.00    -0.411 N 
ATOM     10  H12 UNL     1     -48.724 110.795 -38.532  1.00  0.00     0.155 HD
ATOM     11  H11 UNL     1     -47.270 110.269 -39.366  1.00  0.00     0.155 HD
ENDBRANCH   7   8
ENDBRANCH   6   7
ENDBRANCH   5   6
ENDBRANCH   4   5
ENDBRANCH   3   4
ENDBRANCH   2   3
ENDBRANCH   1   2
BRANCH   1  12
HETATM   12  C9  UNL     1     -54.354 114.004 -42.803  1.00  0.00     0.021 C 
BRANCH  12  13
HETATM   13  C10 UNL     1     -53.972 113.524 -41.441  1.00  0.00     0.139 C 
BRANCH  13  14
HETATM   14  N2  UNL     1     -55.057 113.703 -40.552  1.00  0.00    -0.319 N 
HETATM   15  N3  UNL     1     -56.208 114.263 -41.018  1.00  0.00    -0.138 NA
HETATM   16  C11 UNL     1     -56.639 115.416 -40.207  1.00  0.00     0.106 C 
HETATM   17  C12 UNL     1     -55.401 116.305 -40.074  1.00  0.00     0.026 C 
HETATM   18  C16 UNL     1     -57.025 114.910 -38.811  1.00  0.00     0.103 C 
HETATM   19  C13 UNL     1     -54.347 115.625 -39.242  1.00  0.00     0.036 C 
HETATM   20  C14 UNL     1     -54.676 114.115 -39.242  1.00  0.00     0.168 C 
HETATM   21  C15 UNL     1     -55.909 114.025 -38.401  1.00  0.00     0.152 C 
HETATM   22  O1  UNL     1     -55.938 113.269 -37.465  1.00  0.00    -0.296 OA
ENDBRANCH  13  14
ENDBRANCH  12  13
ENDBRANCH   1  12
TORSDOF 10
ENDMDL
MODEL 2
REMARK VINA RESULT: -8.193356310      1.199      1.359
REMARK  10 active torsions:
REMARK  status: ('A' for Active; 'I' for Inactive)
REMARK    1  A    between atoms: C1_4  and  C2_5 
REMARK    2  A    between atoms: C2_5  and  C3_6 
REMARK    3  A    between atoms: C3_6  and  C4_7 
REMARK    4  A    between atoms: C4_7  and  C5_8 
REMARK    5  A    between atoms: C5_8  and  C6_9 
REMARK    6  A    between atoms: C6_9  and  C7_10 
REMARK    7  A    between atoms: C7_10  and  C8_11 
REMARK    8  A    between atoms: C8_11  and  C9_12 
REMARK    9  A    between atoms: C9_12  and  C10_13 
REMARK   10  A    between atoms: C10_13  and  N2_14 
ROOT
HETATM    1  C8  UNL     1     -54.013 114.017 -43.170  1.00  0.00     0.002 C 
ENDROOT
BRANCH   1   2
HETATM    2  C7  UNL     1     -52.995 112.931 -43.062  1.00  0.00     0.000 C 
BRANCH   2   3
HETATM    3  C6  UNL     1     -51.890 112.998 -44.092  1.00  0.00     0.000 C 
BRANCH   3   4
HETATM    4  C5  UNL     1     -50.585 112.925 -43.314  1.00  0.00     0.000 C 
BRANCH   4   5
HETATM    5  C4  UNL     1     -50.812 112.922 -41.841  1.00  0.00     0.000 C 
BRANCH   5   6
HETATM    6  C3  UNL     1     -49.579 113.286 -41.061  1.00  0.00     0.005 C 
BRANCH   6   7
HETATM    7  C2  UNL     1     -48.724 112.023 -41.014  1.00  0.00     0.044 C 
BRANCH   7   8
HETATM    8  C1  UNL     1     -47.986 111.907 -39.742  1.00  0.00     0.052 C 
HETATM    9  N1  UNL     1     -48.284 112.551 -38.670  1.00  0.00    -0.411 N 
ATOM     10  H12 UNL     1     -49.087 113.179 -38.720  1.00  0.00     0.155 HD
ATOM     11  H11 UNL     1     -47.774 112.471 -37.790  1.00  0.00     0.155 HD
ENDBRANCH   7   8
ENDBRANCH   6   7
ENDBRANCH   5   6
ENDBRANCH   4   5
ENDBRANCH   3   4
ENDBRANCH   2   3
ENDBRANCH   1   2
BRANCH   1  12
HETATM   12  C9  UNL     1     -54.348 114.457 -41.754  1.00  0.00     0.021 C 
BRANCH  12  13
HETATM   13  C10 UNL     1     -54.890 113.360 -40.894  1.00  0.00     0.139 C 
BRANCH  13  14
HETATM   14  N2  UNL     1     -56.135 113.752 -40.353  1.00  0.00    -0.319 N 
HETATM   15  N3  UNL     1     -56.680 114.941 -40.737  1.00  0.00    -0.138 NA
HETATM   16  C11 UNL     1     -57.031 115.794 -39.589  1.00  0.00     0.106 C 
HETATM   17  C12 UNL     1     -55.783 115.820 -38.703  1.00  0.00     0.026 C 
HETATM   18  C16 UNL     1     -58.165 115.115 -38.808  1.00  0.00     0.103 C 
HETATM   19  C13 UNL     1     -55.529 114.461 -38.107  1.00  0.00     0.036 C 
HETATM   20  C14 UNL     1     -56.296 113.437 -38.973  1.00  0.00     0.168 C 
HETATM   21  C15 UNL     1     -57.730 113.707 -38.646  1.00  0.00     0.152 C 
HETATM   22  O1  UNL     1     -58.440 112.806 -38.281  1.00  0.00    -0.296 OA
ENDBRANCH  13  14
ENDBRANCH  12  13
ENDBRANCH   1  12
TORSDOF 10
ENDMDL
MODEL 3
REMARK VINA RESULT: -8.140596878      1.607      2.202
REMARK  10 active torsions:
REMARK  status: ('A' for Active; 'I' for Inactive)
REMARK    1  A    between atoms: C1_4  and  C2_5 
REMARK    2  A    between atoms: C2_5  and  C3_6 
REMARK    3  A    between atoms: C3_6  and  C4_7 
REMARK    4  A    between atoms: C4_7  and  C5_8 
REMARK    5  A    between atoms: C5_8  and  C6_9 
REMARK    6  A    between atoms: C6_9  and  C7_10 
REMARK    7  A    between atoms: C7_10  and  C8_11 
REMARK    8  A    between atoms: C8_11  and  C9_12 
REMARK    9  A    between atoms: C9_12  and  C10_13 
REMARK   10  A    between atoms: C10_13  and  N2_14 
ROOT
HETATM    1  C8  UNL     1     -53.981 114.006 -43.207  1.00  0.00     0.002 C 
ENDROOT
BRANCH   1   2
HETATM    2  C7  UNL     1     -52.976 112.903 -43.157  1.00  0.00     0.000 C 
BRANCH   2   3
HETATM    3  C6  UNL     1     -51.850 113.031 -44.159  1.00  0.00     0.000 C 
BRANCH   3   4
HETATM    4  C5  UNL     1     -50.561 112.913 -43.359  1.00  0.00     0.000 C 
BRANCH   4   5
HETATM    5  C4  UNL     1     -50.813 112.918 -41.890  1.00  0.00     0.000 C 
BRANCH   5   6
HETATM    6  C3  UNL     1     -49.592 113.282 -41.092  1.00  0.00     0.005 C 
BRANCH   6   7
HETATM    7  C2  UNL     1     -48.745 112.014 -41.020  1.00  0.00     0.044 C 
BRANCH   7   8
HETATM    8  C1  UNL     1     -47.994 111.928 -39.753  1.00  0.00     0.052 C 
HETATM    9  N1  UNL     1     -48.304 112.567 -38.682  1.00  0.00    -0.411 N 
ATOM     10  H12 UNL     1     -49.126 113.169 -38.728  1.00  0.00     0.155 HD
ATOM     11  H11 UNL     1     -47.785 112.508 -37.805  1.00  0.00     0.155 HD
ENDBRANCH   7   8
ENDBRANCH   6   7
ENDBRANCH   5   6
ENDBRANCH   4   5
ENDBRANCH   3   4
ENDBRANCH   2   3
ENDBRANCH   1   2
BRANCH   1  12
HETATM   12  C9  UNL     1     -54.235 114.442 -41.773  1.00  0.00     0.021 C 
BRANCH  12  13
HETATM   13  C10 UNL     1     -54.889 113.395 -40.931  1.00  0.00     0.139 C 
BRANCH  13  14
HETATM   14  N2  UNL     1     -55.771 114.008 -40.011  1.00  0.00    -0.319 N 
HETATM   15  N3  UNL     1     -56.212 113.292 -38.939  1.00  0.00    -0.138 NA
HETATM   16  C11 UNL     1     -57.681 113.291 -38.832  1.00  0.00     0.106 C 
HETATM   17  C12 UNL     1     -58.191 112.905 -40.222  1.00  0.00     0.026 C 
HETATM   18  C16 UNL     1     -58.147 114.721 -38.525  1.00  0.00     0.103 C 
HETATM   19  C13 UNL     1     -57.881 113.989 -41.220  1.00  0.00     0.036 C 
HETATM   20  C14 UNL     1     -56.749 114.850 -40.614  1.00  0.00     0.168 C 
HETATM   21  C15 UNL     1     -57.423 115.577 -39.495  1.00  0.00     0.152 C 
HETATM   22  O1  UNL     1     -57.351 116.777 -39.434  1.00  0.00    -0.296 OA
ENDBRANCH  13  14
ENDBRANCH  12  13
ENDBRANCH   1  12
TORSDOF 10
ENDMDL
MODEL 4
REMARK VINA RESULT: -8.103672531      0.917      1.034
REMARK  10 active torsions:
REMARK  status: ('A' for Active; 'I' for Inactive)
REMARK    1  A    between atoms: C1_4  and  C2_5 
REMARK    2  A    between atoms: C2_5  and  C3_6 
REMARK    3  A    between atoms: C3_6  and  C4_7 
REMARK    4  A    between atoms: C4_7  and  C5_8 
REMARK    5  A    between atoms: C5_8  and  C6_9 
REMARK    6  A    between atoms: C6_9  and  C7_10 
REMARK    7  A    between atoms: C7_10  and  C8_11 
REMARK    8  A    between atoms: C8_11  and  C9_12 
REMARK    9  A    between atoms: C9_12  and  C10_13 
REMARK   10  A    between atoms: C10_13  and  N2_14 
ROOT
HETATM    1  C8  UNL     1     -54.071 114.031 -43.485  1.00  0.00     0.002 C 
ENDROOT
BRANCH   1   2
HETATM    2  C7  UNL     1     -52.732 113.645 -44.022  1.00  0.00     0.000 C 
BRANCH   2   3
HETATM    3  C6  UNL     1     -51.987 112.628 -43.187  1.00  0.00     0.000 C 
BRANCH   3   4
HETATM    4  C5  UNL     1     -50.509 112.946 -43.357  1.00  0.00     0.000 C 
BRANCH   4   5
HETATM    5  C4  UNL     1     -49.754 112.798 -42.081  1.00  0.00     0.000 C 
BRANCH   5   6
HETATM    6  C3  UNL     1     -50.513 113.322 -40.893  1.00  0.00     0.005 C 
BRANCH   6   7
HETATM    7  C2  UNL     1     -49.465 113.630 -39.828  1.00  0.00     0.044 C 
BRANCH   7   8
HETATM    8  C1  UNL     1     -48.409 112.601 -39.784  1.00  0.00     0.052 C 
HETATM    9  N1  UNL     1     -47.806 112.226 -38.712  1.00  0.00    -0.411 N 
ATOM     10  H12 UNL     1     -48.087 112.681 -37.844  1.00  0.00     0.155 HD
ATOM     11  H11 UNL     1     -47.075 111.515 -38.681  1.00  0.00     0.155 HD
ENDBRANCH   7   8
ENDBRANCH   6   7
ENDBRANCH   5   6
ENDBRANCH   4   5
ENDBRANCH   3   4
ENDBRANCH   2   3
ENDBRANCH   1   2
BRANCH   1  12
HETATM   12  C9  UNL     1     -54.067 113.702 -42.001  1.00  0.00     0.021 C 
BRANCH  12  13
HETATM   13  C10 UNL     1     -54.389 114.869 -41.124  1.00  0.00     0.139 C 
BRANCH  13  14
HETATM   14  N2  UNL     1     -55.436 114.523 -40.239  1.00  0.00    -0.319 N 
HETATM   15  N3  UNL     1     -56.726 114.630 -40.666  1.00  0.00    -0.138 NA
HETATM   16  C11 UNL     1     -57.553 115.438 -39.754  1.00  0.00     0.106 C 
HETATM   17  C12 UNL     1     -56.759 116.724 -39.515  1.00  0.00     0.026 C 
HETATM   18  C16 UNL     1     -57.677 114.690 -38.419  1.00  0.00     0.103 C 
HETATM   19  C13 UNL     1     -55.503 116.435 -38.737  1.00  0.00     0.036 C 
HETATM   20  C14 UNL     1     -55.215 114.924 -38.890  1.00  0.00     0.168 C 
HETATM   21  C15 UNL     1     -56.294 114.279 -38.080  1.00  0.00     0.152 C 
HETATM   22  O1  UNL     1     -56.003 113.485 -37.223  1.00  0.00    -0.296 OA
ENDBRANCH  13  14
ENDBRANCH  12  13
ENDBRANCH   1  12
TORSDOF 10
ENDMDL
MODEL 5
REMARK VINA RESULT: -7.905598838      1.742      2.393
REMARK  10 active torsions:
REMARK  status: ('A' for Active; 'I' for Inactive)
REMARK    1  A    between atoms: C1_4  and  C2_5 
REMARK    2  A    between atoms: C2_5  and  C3_6 
REMARK    3  A    between atoms: C3_6  and  C4_7 
REMARK    4  A    between atoms: C4_7  and  C5_8 
REMARK    5  A    between atoms: C5_8  and  C6_9 
REMARK    6  A    between atoms: C6_9  and  C7_10 
REMARK    7  A    between atoms: C7_10  and  C8_11 
REMARK    8  A    between atoms: C8_11  and  C9_12 
REMARK    9  A    between atoms: C9_12  and  C10_13 
REMARK   10  A    between atoms: C10_13  and  N2_14 
ROOT
HETATM    1  C8  UNL     1     -54.375 114.676 -41.773  1.00  0.00     0.002 C 
ENDROOT
BRANCH   1   2
HETATM    2  C7  UNL     1     -53.848 114.032 -43.012  1.00  0.00     0.000 C 
BRANCH   2   3
HETATM    3  C6  UNL     1     -52.970 112.824 -42.771  1.00  0.00     0.000 C 
BRANCH   3   4
HETATM    4  C5  UNL     1     -51.661 113.107 -43.493  1.00  0.00     0.000 C 
BRANCH   4   5
HETATM    5  C4  UNL     1     -50.482 112.948 -42.596  1.00  0.00     0.000 C 
BRANCH   5   6
HETATM    6  C3  UNL     1     -50.856 112.940 -41.140  1.00  0.00     0.005 C 
BRANCH   6   7
HETATM    7  C2  UNL     1     -49.711 113.634 -40.408  1.00  0.00     0.044 C 
BRANCH   7   8
HETATM    8  C1  UNL     1     -48.704 112.670 -39.926  1.00  0.00     0.052 C 
HETATM    9  N1  UNL     1     -48.291 112.599 -38.711  1.00  0.00    -0.411 N 
ATOM     10  H12 UNL     1     -48.697 113.261 -38.049  1.00  0.00     0.155 HD
ATOM     11  H11 UNL     1     -47.595 111.933 -38.377  1.00  0.00     0.155 HD
ENDBRANCH   7   8
ENDBRANCH   6   7
ENDBRANCH   5   6
ENDBRANCH   4   5
ENDBRANCH   3   4
ENDBRANCH   2   3
ENDBRANCH   1   2
BRANCH   1  12
HETATM   12  C9  UNL     1     -55.655 113.944 -41.400  1.00  0.00     0.021 C 
BRANCH  12  13
HETATM   13  C10 UNL     1     -55.650 113.391 -40.011  1.00  0.00     0.139 C 
BRANCH  13  14
HETATM   14  N2  UNL     1     -56.969 113.055 -39.629  1.00  0.00    -0.319 N 
HETATM   15  N3  UNL     1     -58.001 113.381 -40.457  1.00  0.00    -0.138 NA
HETATM   16  C11 UNL     1     -59.053 114.147 -39.766  1.00  0.00     0.106 C 
HETATM   17  C12 UNL     1     -58.322 115.276 -39.036  1.00  0.00     0.026 C 
HETATM   18  C16 UNL     1     -59.707 113.237 -38.717  1.00  0.00     0.103 C 
HETATM   19  C13 UNL     1     -57.462 114.724 -37.931  1.00  0.00     0.036 C 
HETATM   20  C14 UNL     1     -57.236 113.227 -38.240  1.00  0.00     0.168 C 
HETATM   21  C15 UNL     1     -58.576 112.612 -37.992  1.00  0.00     0.152 C 
HETATM   22  O1  UNL     1     -58.672 111.673 -37.244  1.00  0.00    -0.296 OA
ENDBRANCH  13  14
ENDBRANCH  12  13
ENDBRANCH   1  12
TORSDOF 10
ENDMDL
