MODEL 1
REMARK VINA RESULT: -8.365406351      0.000      0.000
REMARK  12 active torsions:
REMARK  status: ('A' for Active; 'I' for Inactive)
REMARK    1  A    between atoms: C2_3  and  C3_4 
REMARK    2  A    between atoms: C3_4  and  C4_5 
REMARK    3  A    between atoms: C4_5  and  C5_6 
REMARK    4  A    between atoms: C5_6  and  C6_7 
REMARK    5  A    between atoms: C6_7  and  C7_8 
REMARK    6  A    between atoms: C7_8  and  C8_9 
REMARK    7  A    between atoms: C8_9  and  C9_10 
REMARK    8  A    between atoms: C9_10  and  C10_11 
REMARK    9  A    between atoms: C10_11  and  C11_12 
REMARK   10  A    between atoms: C13_14  and  C14_15 
REMARK   11  A    between atoms: C14_15  and  O1_16 
REMARK   12  A    between atoms: C17_20  and  O2_21 
ROOT
HETATM    1  N1  UNL     1     -47.694 112.208 -38.978  1.00  0.00    -0.197 NA
HETATM    2  C1  UNL     1     -48.494 112.869 -39.503  1.00  0.00     0.059 C 
HETATM    3  C2  UNL     1     -49.507 113.723 -40.148  1.00  0.00     0.124 C 
ENDROOT
BRANCH   3   4
HETATM    4  C3  UNL     1     -50.357 112.836 -41.001  1.00  0.00     0.014 C 
BRANCH   4   5
HETATM    5  C4  UNL     1     -49.617 112.465 -42.255  1.00  0.00     0.001 C 
BRANCH   5   6
HETATM    6  C5  UNL     1     -50.410 112.810 -43.465  1.00  0.00     0.000 C 
BRANCH   6   7
HETATM    7  C6  UNL     1     -51.870 112.861 -43.143  1.00  0.00     0.000 C 
BRANCH   7   8
HETATM    8  C7  UNL     1     -52.678 113.598 -44.186  1.00  0.00     0.000 C 
BRANCH   8   9
HETATM    9  C8  UNL     1     -53.992 113.993 -43.605  1.00  0.00     0.000 C 
BRANCH   9  10
HETATM   10  C9  UNL     1     -54.061 113.758 -42.100  1.00  0.00     0.000 C 
BRANCH  10  11
HETATM   11  C10 UNL     1     -54.370 114.985 -41.315  1.00  0.00     0.005 C 
BRANCH  11  12
HETATM   12  C11 UNL     1     -54.934 114.618 -39.963  1.00  0.00    -0.007 C 
HETATM   13  C12 UNL     1     -56.431 114.271 -40.098  1.00  0.00     0.019 C 
HETATM   14  C13 UNL     1     -56.989 115.242 -39.120  1.00  0.00     0.008 C 
HETATM   15  C15 UNL     1     -56.277 116.529 -39.506  1.00  0.00     0.021 C 
HETATM   16  C17 UNL     1     -55.991 115.198 -37.956  1.00  0.00     0.133 C 
HETATM   17  C16 UNL     1     -55.037 115.764 -39.019  1.00  0.00     0.020 C 
BRANCH  14  18
HETATM   18  C14 UNL     1     -58.397 115.285 -38.812  1.00  0.00     0.176 C 
BRANCH  18  19
HETATM   19  O1  UNL     1     -58.679 114.528 -37.692  1.00  0.00    -0.400 OA
ATOM     20  H1  UNL     1     -58.624 113.600 -37.888  1.00  0.00     0.209 HD
ENDBRANCH  18  19
ENDBRANCH  14  18
BRANCH  16  21
HETATM   21  O2  UNL     1     -55.581 113.930 -37.603  1.00  0.00    -0.394 OA
ATOM     22  H2  UNL     1     -56.289 113.322 -37.425  1.00  0.00     0.210 HD
ENDBRANCH  16  21
ENDBRANCH  11  12
ENDBRANCH  10  11
ENDBRANCH   9  10
ENDBRANCH   8   9
ENDBRANCH   7   8
ENDBRANCH   6   7
ENDBRANCH   5   6
ENDBRANCH   4   5
ENDBRANCH   3   4
TORSDOF 12
ENDMDL
MODEL 2
REMARK VINA RESULT: -8.288258064      1.965      2.984
REMARK  12 active torsions:
REMARK  status: ('A' for Active; 'I' for Inactive)
REMARK    1  A    between atoms: C2_3  and  C3_4 
REMARK    2  A    between atoms: C3_4  and  C4_5 
REMARK    3  A    between atoms: C4_5  and  C5_6 
REMARK    4  A    between atoms: C5_6  and  C6_7 
REMARK    5  A    between atoms: C6_7  and  C7_8 
REMARK    6  A    between atoms: C7_8  and  C8_9 
REMARK    7  A    between atoms: C8_9  and  C9_10 
REMARK    8  A    between atoms: C9_10  and  C10_11 
REMARK    9  A    between atoms: C10_11  and  C11_12 
REMARK   10  A    between atoms: C13_14  and  C14_15 
REMARK   11  A    between atoms: C14_15  and  O1_16 
REMARK   12  A    between atoms: C17_20  and  O2_21 
ROOT
HETATM    1  N1  UNL     1     -44.677 109.865 -37.158  1.00  0.00    -0.197 NA
HETATM    2  C1  UNL     1     -45.244 110.201 -38.116  1.00  0.00     0.059 C 
HETATM    3  C2  UNL     1     -45.941 110.634 -39.341  1.00  0.00     0.124 C 
ENDROOT
BRANCH   3   4
HETATM    4  C3  UNL     1     -47.333 111.017 -38.947  1.00  0.00     0.014 C 
BRANCH   4   5
HETATM    5  C4  UNL     1     -47.978 111.812 -40.047  1.00  0.00     0.001 C 
BRANCH   5   6
HETATM    6  C5  UNL     1     -48.718 112.979 -39.497  1.00  0.00     0.000 C 
BRANCH   6   7
HETATM    7  C6  UNL     1     -49.552 113.624 -40.558  1.00  0.00     0.000 C 
BRANCH   7   8
HETATM    8  C7  UNL     1     -49.629 112.804 -41.826  1.00  0.00     0.000 C 
BRANCH   8   9
HETATM    9  C8  UNL     1     -50.992 112.932 -42.414  1.00  0.00     0.000 C 
BRANCH   9  10
HETATM   10  C9  UNL     1     -52.089 112.939 -41.355  1.00  0.00     0.000 C 
BRANCH  10  11
HETATM   11  C10 UNL     1     -53.360 113.566 -41.812  1.00  0.00     0.005 C 
BRANCH  11  12
HETATM   12  C11 UNL     1     -54.422 113.442 -40.746  1.00  0.00    -0.007 C 
HETATM   13  C12 UNL     1     -55.682 114.226 -41.169  1.00  0.00     0.019 C 
HETATM   14  C13 UNL     1     -55.809 115.124 -39.990  1.00  0.00     0.008 C 
HETATM   15  C15 UNL     1     -54.386 115.635 -39.823  1.00  0.00     0.021 C 
HETATM   16  C17 UNL     1     -55.478 114.211 -38.802  1.00  0.00     0.133 C 
HETATM   17  C16 UNL     1     -54.102 114.164 -39.484  1.00  0.00     0.020 C 
BRANCH  14  18
HETATM   18  C14 UNL     1     -56.907 116.049 -39.855  1.00  0.00     0.176 C 
BRANCH  18  19
HETATM   19  O1  UNL     1     -57.914 115.508 -39.080  1.00  0.00    -0.400 OA
ATOM     20  H1  UNL     1     -58.299 114.751 -39.506  1.00  0.00     0.209 HD
ENDBRANCH  18  19
ENDBRANCH  14  18
BRANCH  16  21
HETATM   21  O2  UNL     1     -56.059 112.963 -38.861  1.00  0.00    -0.394 OA
ATOM     22  H2  UNL     1     -55.619 112.299 -38.343  1.00  0.00     0.210 HD
ENDBRANCH  16  21
ENDBRANCH  11  12
ENDBRANCH  10  11
ENDBRANCH   9  10
ENDBRANCH   8   9
ENDBRANCH   7   8
ENDBRANCH   6   7
ENDBRANCH   5   6
ENDBRANCH   4   5
ENDBRANCH   3   4
TORSDOF 12
ENDMDL
MODEL 3
REMARK VINA RESULT: -8.285648950      1.539      2.264
REMARK  12 active torsions:
REMARK  status: ('A' for Active; 'I' for Inactive)
REMARK    1  A    between atoms: C2_3  and  C3_4 
REMARK    2  A    between atoms: C3_4  and  C4_5 
REMARK    3  A    between atoms: C4_5  and  C5_6 
REMARK    4  A    between atoms: C5_6  and  C6_7 
REMARK    5  A    between atoms: C6_7  and  C7_8 
REMARK    6  A    between atoms: C7_8  and  C8_9 
REMARK    7  A    between atoms: C8_9  and  C9_10 
REMARK    8  A    between atoms: C9_10  and  C10_11 
REMARK    9  A    between atoms: C10_11  and  C11_12 
REMARK   10  A    between atoms: C13_14  and  C14_15 
REMARK   11  A    between atoms: C14_15  and  O1_16 
REMARK   12  A    between atoms: C17_20  and  O2_21 
ROOT
HETATM    1  N1  UNL     1     -46.488 111.102 -38.639  1.00  0.00    -0.197 NA
HETATM    2  C1  UNL     1     -47.319 111.403 -39.395  1.00  0.00     0.059 C 
HETATM    3  C2  UNL     1     -48.361 111.772 -40.371  1.00  0.00     0.124 C 
ENDROOT
BRANCH   3   4
HETATM    4  C3  UNL     1     -49.003 113.031 -39.879  1.00  0.00     0.014 C 
BRANCH   4   5
HETATM    5  C4  UNL     1     -49.743 113.703 -41.001  1.00  0.00     0.001 C 
BRANCH   5   6
HETATM    6  C5  UNL     1     -50.437 112.703 -41.856  1.00  0.00     0.000 C 
BRANCH   6   7
HETATM    7  C6  UNL     1     -49.938 112.775 -43.264  1.00  0.00     0.000 C 
BRANCH   7   8
HETATM    8  C7  UNL     1     -51.053 112.859 -44.281  1.00  0.00     0.000 C 
BRANCH   8   9
HETATM    9  C8  UNL     1     -52.366 112.746 -43.585  1.00  0.00     0.000 C 
BRANCH   9  10
HETATM   10  C9  UNL     1     -53.320 113.879 -43.950  1.00  0.00     0.000 C 
BRANCH  10  11
HETATM   11  C10 UNL     1     -54.457 114.033 -43.000  1.00  0.00     0.005 C 
BRANCH  11  12
HETATM   12  C11 UNL     1     -53.951 114.113 -41.580  1.00  0.00    -0.007 C 
HETATM   13  C12 UNL     1     -54.619 113.017 -40.724  1.00  0.00     0.019 C 
HETATM   14  C13 UNL     1     -55.209 113.873 -39.661  1.00  0.00     0.008 C 
HETATM   15  C15 UNL     1     -55.871 114.978 -40.470  1.00  0.00     0.021 C 
HETATM   16  C17 UNL     1     -54.116 114.915 -39.385  1.00  0.00     0.133 C 
HETATM   17  C16 UNL     1     -54.418 115.316 -40.838  1.00  0.00     0.020 C 
BRANCH  14  18
HETATM   18  C14 UNL     1     -55.914 113.310 -38.536  1.00  0.00     0.176 C 
BRANCH  18  19
HETATM   19  O1  UNL     1     -55.065 113.133 -37.461  1.00  0.00    -0.400 OA
ATOM     20  H1  UNL     1     -55.303 113.708 -36.744  1.00  0.00     0.209 HD
ENDBRANCH  18  19
ENDBRANCH  14  18
BRANCH  16  21
HETATM   21  O2  UNL     1     -52.841 114.398 -39.311  1.00  0.00    -0.394 OA
ATOM     22  H2  UNL     1     -52.637 113.971 -38.487  1.00  0.00     0.210 HD
ENDBRANCH  16  21
ENDBRANCH  11  12
ENDBRANCH  10  11
ENDBRANCH   9  10
ENDBRANCH   8   9
ENDBRANCH   7   8
ENDBRANCH   6   7
ENDBRANCH   5   6
ENDBRANCH   4   5
ENDBRANCH   3   4
TORSDOF 12
ENDMDL
MODEL 4
REMARK VINA RESULT: -8.138495154      0.757      1.051
REMARK  12 active torsions:
REMARK  status: ('A' for Active; 'I' for Inactive)
REMARK    1  A    between atoms: C2_3  and  C3_4 
REMARK    2  A    between atoms: C3_4  and  C4_5 
REMARK    3  A    between atoms: C4_5  and  C5_6 
REMARK    4  A    between atoms: C5_6  and  C6_7 
REMARK    5  A    between atoms: C6_7  and  C7_8 
REMARK    6  A    between atoms: C7_8  and  C8_9 
REMARK    7  A    between atoms: C8_9  and  C9_10 
REMARK    8  A    between atoms: C9_10  and  C10_11 
REMARK    9  A    between atoms: C10_11  and  C11_12 
REMARK   10  A    between atoms: C13_14  and  C14_15 
REMARK   11  A    between atoms: C14_15  and  O1_16 
REMARK   12  A    between atoms: C17_20  and  O2_21 
ROOT
HETATM    1  N1  UNL     1     -46.667 111.020 -38.859  1.00  0.00    -0.197 NA
HETATM    2  C1  UNL     1     -47.553 111.387 -39.516  1.00  0.00     0.059 C 
HETATM    3  C2  UNL     1     -48.669 111.839 -40.368  1.00  0.00     0.124 C 
ENDROOT
BRANCH   3   4
HETATM    4  C3  UNL     1     -49.076 113.195 -39.883  1.00  0.00     0.014 C 
BRANCH   4   5
HETATM    5  C4  UNL     1     -50.353 113.618 -40.553  1.00  0.00     0.001 C 
BRANCH   5   6
HETATM    6  C5  UNL     1     -50.490 112.983 -41.891  1.00  0.00     0.000 C 
BRANCH   6   7
HETATM    7  C6  UNL     1     -51.931 112.783 -42.236  1.00  0.00     0.000 C 
BRANCH   7   8
HETATM    8  C7  UNL     1     -52.270 113.238 -43.637  1.00  0.00     0.000 C 
BRANCH   8   9
HETATM    9  C8  UNL     1     -53.545 114.007 -43.612  1.00  0.00     0.000 C 
BRANCH   9  10
HETATM   10  C9  UNL     1     -54.324 113.808 -42.316  1.00  0.00     0.000 C 
BRANCH  10  11
HETATM   11  C10 UNL     1     -54.351 115.012 -41.441  1.00  0.00     0.005 C 
BRANCH  11  12
HETATM   12  C11 UNL     1     -54.884 114.657 -40.073  1.00  0.00    -0.007 C 
HETATM   13  C12 UNL     1     -56.387 114.322 -40.168  1.00  0.00     0.019 C 
HETATM   14  C13 UNL     1     -56.912 115.304 -39.183  1.00  0.00     0.008 C 
HETATM   15  C15 UNL     1     -56.199 116.582 -39.595  1.00  0.00     0.021 C 
HETATM   16  C17 UNL     1     -55.886 115.258 -38.043  1.00  0.00     0.133 C 
HETATM   17  C16 UNL     1     -54.954 115.810 -39.133  1.00  0.00     0.020 C 
BRANCH  14  18
HETATM   18  C14 UNL     1     -58.312 115.360 -38.839  1.00  0.00     0.176 C 
BRANCH  18  19
HETATM   19  O1  UNL     1     -58.570 114.618 -37.704  1.00  0.00    -0.400 OA
ATOM     20  H1  UNL     1     -57.976 113.880 -37.639  1.00  0.00     0.209 HD
ENDBRANCH  18  19
ENDBRANCH  14  18
BRANCH  16  21
HETATM   21  O2  UNL     1     -55.477 113.990 -37.693  1.00  0.00    -0.394 OA
ATOM     22  H2  UNL     1     -56.106 113.503 -37.173  1.00  0.00     0.210 HD
ENDBRANCH  16  21
ENDBRANCH  11  12
ENDBRANCH  10  11
ENDBRANCH   9  10
ENDBRANCH   8   9
ENDBRANCH   7   8
ENDBRANCH   6   7
ENDBRANCH   5   6
ENDBRANCH   4   5
ENDBRANCH   3   4
TORSDOF 12
ENDMDL
MODEL 5
REMARK VINA RESULT: -8.096754053      2.222      3.483
REMARK  12 active torsions:
REMARK  status: ('A' for Active; 'I' for Inactive)
REMARK    1  A    between atoms: C2_3  and  C3_4 
REMARK    2  A    between atoms: C3_4  and  C4_5 
REMARK    3  A    between atoms: C4_5  and  C5_6 
REMARK    4  A    between atoms: C5_6  and  C6_7 
REMARK    5  A    between atoms: C6_7  and  C7_8 
REMARK    6  A    between atoms: C7_8  and  C8_9 
REMARK    7  A    between atoms: C8_9  and  C9_10 
REMARK    8  A    between atoms: C9_10  and  C10_11 
REMARK    9  A    between atoms: C10_11  and  C11_12 
REMARK   10  A    between atoms: C13_14  and  C14_15 
REMARK   11  A    between atoms: C14_15  and  O1_16 
REMARK   12  A    between atoms: C17_20  and  O2_21 
ROOT
HETATM    1  N1  UNL     1     -44.669 109.612 -37.374  1.00  0.00    -0.197 NA
HETATM    2  C1  UNL     1     -45.262 110.062 -38.267  1.00  0.00     0.059 C 
HETATM    3  C2  UNL     1     -45.992 110.632 -39.414  1.00  0.00     0.124 C 
ENDROOT
BRANCH   3   4
HETATM    4  C3  UNL     1     -47.125 111.438 -38.862  1.00  0.00     0.014 C 
BRANCH   4   5
HETATM    5  C4  UNL     1     -48.055 111.845 -39.970  1.00  0.00     0.001 C 
BRANCH   5   6
HETATM    6  C5  UNL     1     -48.771 113.104 -39.630  1.00  0.00     0.000 C 
BRANCH   6   7
HETATM    7  C6  UNL     1     -49.561 113.595 -40.802  1.00  0.00     0.000 C 
BRANCH   7   8
HETATM    8  C7  UNL     1     -50.286 112.485 -41.529  1.00  0.00     0.000 C 
BRANCH   8   9
HETATM    9  C8  UNL     1     -50.787 112.996 -42.836  1.00  0.00     0.000 C 
BRANCH   9  10
HETATM   10  C9  UNL     1     -52.301 113.178 -42.852  1.00  0.00     0.000 C 
BRANCH  10  11
HETATM   11  C10 UNL     1     -52.988 112.594 -41.666  1.00  0.00     0.005 C 
BRANCH  11  12
HETATM   12  C11 UNL     1     -54.340 113.238 -41.471  1.00  0.00    -0.007 C 
HETATM   13  C12 UNL     1     -54.258 114.741 -41.806  1.00  0.00     0.019 C 
HETATM   14  C13 UNL     1     -54.753 115.299 -40.519  1.00  0.00     0.008 C 
HETATM   15  C15 UNL     1     -53.947 114.511 -39.498  1.00  0.00     0.021 C 
HETATM   16  C17 UNL     1     -55.904 114.360 -40.137  1.00  0.00     0.133 C 
HETATM   17  C16 UNL     1     -54.765 113.332 -40.047  1.00  0.00     0.020 C 
BRANCH  14  18
HETATM   18  C14 UNL     1     -54.934 116.716 -40.326  1.00  0.00     0.176 C 
BRANCH  18  19
HETATM   19  O1  UNL     1     -56.276 117.032 -40.232  1.00  0.00    -0.400 OA
ATOM     20  H1  UNL     1     -56.814 116.257 -40.344  1.00  0.00     0.209 HD
ENDBRANCH  18  19
ENDBRANCH  14  18
BRANCH  16  21
HETATM   21  O2  UNL     1     -56.740 114.025 -41.180  1.00  0.00    -0.394 OA
ATOM     22  H2  UNL     1     -56.716 113.108 -41.425  1.00  0.00     0.210 HD
ENDBRANCH  16  21
ENDBRANCH  11  12
ENDBRANCH  10  11
ENDBRANCH   9  10
ENDBRANCH   8   9
ENDBRANCH   7   8
ENDBRANCH   6   7
ENDBRANCH   5   6
ENDBRANCH   4   5
ENDBRANCH   3   4
TORSDOF 12
ENDMDL
