MODEL 1
REMARK VINA RESULT: -8.758239228      0.000      0.000
REMARK  11 active torsions:
REMARK  status: ('A' for Active; 'I' for Inactive)
REMARK    1  A    between atoms: C3_3  and  C4_4 
REMARK    2  A    between atoms: C4_4  and  C5_5 
REMARK    3  A    between atoms: C5_5  and  C6_6 
REMARK    4  A    between atoms: C6_6  and  C7_7 
REMARK    5  A    between atoms: C7_7  and  C8_8 
REMARK    6  A    between atoms: C8_8  and  C9_9 
REMARK    7  A    between atoms: C9_9  and  C10_10 
REMARK    8  A    between atoms: C10_10  and  C11_11 
REMARK    9  A    between atoms: C11_11  and  C12_12 
REMARK   10  A    between atoms: C16_18  and  C17_19 
REMARK   11  A    between atoms: N2_20  and  O1_22 
ROOT
HETATM    1  C1  UNL     1     -47.500 111.759 -39.213  1.00  0.00     0.012 C 
HETATM    2  C2  UNL     1     -48.379 112.533 -39.521  1.00  0.00    -0.117 C 
HETATM    3  C3  UNL     1     -49.457 113.451 -39.886  1.00  0.00     0.093 C 
ENDROOT
BRANCH   3   4
HETATM    4  C4  UNL     1     -49.498 113.540 -41.408  1.00  0.00     0.012 C 
BRANCH   4   5
HETATM    5  C5  UNL     1     -50.713 112.830 -41.960  1.00  0.00     0.001 C 
BRANCH   5   6
HETATM    6  C6  UNL     1     -50.519 112.691 -43.457  1.00  0.00     0.000 C 
BRANCH   6   7
HETATM    7  C7  UNL     1     -51.716 113.153 -44.221  1.00  0.00     0.000 C 
BRANCH   7   8
HETATM    8  C8  UNL     1     -53.008 112.790 -43.544  1.00  0.00     0.000 C 
BRANCH   8   9
HETATM    9  C9  UNL     1     -53.907 113.973 -43.394  1.00  0.00     0.000 C 
BRANCH   9  10
HETATM   10  C10 UNL     1     -54.088 114.431 -41.962  1.00  0.00     0.000 C 
BRANCH  10  11
HETATM   11  C11 UNL     1     -54.485 113.270 -41.126  1.00  0.00     0.007 C 
BRANCH  11  12
HETATM   12  C12 UNL     1     -55.631 113.533 -40.170  1.00  0.00     0.014 C 
HETATM   13  C13 UNL     1     -56.646 114.413 -40.786  1.00  0.00     0.012 C 
HETATM   14  C14 UNL     1     -57.147 115.524 -39.896  1.00  0.00     0.044 C 
HETATM   15  C15 UNL     1     -55.954 116.182 -39.293  1.00  0.00     0.056 C 
HETATM   16  N1  UNL     1     -55.240 115.294 -38.473  1.00  0.00    -0.393 N 
HETATM   17  C16 UNL     1     -55.157 113.940 -38.814  1.00  0.00     0.125 C 
ATOM     18  H1  UNL     1     -54.782 115.636 -37.628  1.00  0.00     0.159 HD
BRANCH  17  19
HETATM   19  C17 UNL     1     -55.805 113.134 -37.736  1.00  0.00     0.112 C 
HETATM   20  N2  UNL     1     -56.941 112.546 -37.931  1.00  0.00    -0.282 N 
ATOM     21  H2  UNL     1     -57.385 112.648 -38.844  1.00  0.00     0.192 HD
BRANCH  20  22
HETATM   22  O1  UNL     1     -57.576 111.803 -36.995  1.00  0.00    -0.290 OA
ATOM     23  H1  UNL     1     -57.190 111.561 -36.161  1.00  0.00     0.244 HD
ENDBRANCH  20  22
ENDBRANCH  17  19
ENDBRANCH  11  12
ENDBRANCH  10  11
ENDBRANCH   9  10
ENDBRANCH   8   9
ENDBRANCH   7   8
ENDBRANCH   6   7
ENDBRANCH   5   6
ENDBRANCH   4   5
ENDBRANCH   3   4
TORSDOF 11
ENDMDL
MODEL 2
REMARK VINA RESULT: -8.636477890      1.735      3.454
REMARK  11 active torsions:
REMARK  status: ('A' for Active; 'I' for Inactive)
REMARK    1  A    between atoms: C3_3  and  C4_4 
REMARK    2  A    between atoms: C4_4  and  C5_5 
REMARK    3  A    between atoms: C5_5  and  C6_6 
REMARK    4  A    between atoms: C6_6  and  C7_7 
REMARK    5  A    between atoms: C7_7  and  C8_8 
REMARK    6  A    between atoms: C8_8  and  C9_9 
REMARK    7  A    between atoms: C9_9  and  C10_10 
REMARK    8  A    between atoms: C10_10  and  C11_11 
REMARK    9  A    between atoms: C11_11  and  C12_12 
REMARK   10  A    between atoms: C16_18  and  C17_19 
REMARK   11  A    between atoms: N2_20  and  O1_22 
ROOT
HETATM    1  C1  UNL     1     -49.495 113.666 -40.001  1.00  0.00     0.012 C 
HETATM    2  C2  UNL     1     -50.154 113.344 -40.964  1.00  0.00    -0.117 C 
HETATM    3  C3  UNL     1     -50.947 112.979 -42.138  1.00  0.00     0.093 C 
ENDROOT
BRANCH   3   4
HETATM    4  C4  UNL     1     -52.391 112.792 -41.684  1.00  0.00     0.012 C 
BRANCH   4   5
HETATM    5  C5  UNL     1     -53.333 113.632 -42.516  1.00  0.00     0.001 C 
BRANCH   5   6
HETATM    6  C6  UNL     1     -54.303 114.306 -41.565  1.00  0.00     0.000 C 
BRANCH   6   7
HETATM    7  C7  UNL     1     -53.784 114.331 -40.164  1.00  0.00     0.000 C 
BRANCH   7   8
HETATM    8  C8  UNL     1     -54.092 115.622 -39.458  1.00  0.00     0.000 C 
BRANCH   8   9
HETATM    9  C9  UNL     1     -55.154 116.399 -40.162  1.00  0.00     0.000 C 
BRANCH   9  10
HETATM   10  C10 UNL     1     -56.213 116.969 -39.242  1.00  0.00     0.000 C 
BRANCH  10  11
HETATM   11  C11 UNL     1     -57.484 116.229 -39.445  1.00  0.00     0.007 C 
BRANCH  11  12
HETATM   12  C12 UNL     1     -57.355 114.719 -39.415  1.00  0.00     0.014 C 
HETATM   13  C13 UNL     1     -58.213 114.091 -40.443  1.00  0.00     0.012 C 
HETATM   14  C14 UNL     1     -59.001 112.895 -39.966  1.00  0.00     0.044 C 
HETATM   15  C15 UNL     1     -59.649 113.275 -38.679  1.00  0.00     0.056 C 
HETATM   16  N1  UNL     1     -58.694 113.554 -37.689  1.00  0.00    -0.393 N 
HETATM   17  C16 UNL     1     -57.485 114.165 -38.034  1.00  0.00     0.125 C 
ATOM     18  H1  UNL     1     -58.883 113.310 -36.716  1.00  0.00     0.159 HD
BRANCH  17  19
HETATM   19  C17 UNL     1     -56.365 113.234 -37.704  1.00  0.00     0.112 C 
HETATM   20  N2  UNL     1     -55.823 113.229 -36.529  1.00  0.00    -0.282 N 
ATOM     21  H2  UNL     1     -56.182 113.881 -35.831  1.00  0.00     0.192 HD
BRANCH  20  22
HETATM   22  O1  UNL     1     -54.807 112.411 -36.172  1.00  0.00    -0.290 OA
ATOM     23  H1  UNL     1     -53.991 112.715 -35.790  1.00  0.00     0.244 HD
ENDBRANCH  20  22
ENDBRANCH  17  19
ENDBRANCH  11  12
ENDBRANCH  10  11
ENDBRANCH   9  10
ENDBRANCH   8   9
ENDBRANCH   7   8
ENDBRANCH   6   7
ENDBRANCH   5   6
ENDBRANCH   4   5
ENDBRANCH   3   4
TORSDOF 11
ENDMDL
MODEL 3
REMARK VINA RESULT: -8.629964701      1.489      1.976
REMARK  11 active torsions:
REMARK  status: ('A' for Active; 'I' for Inactive)
REMARK    1  A    between atoms: C3_3  and  C4_4 
REMARK    2  A    between atoms: C4_4  and  C5_5 
REMARK    3  A    between atoms: C5_5  and  C6_6 
REMARK    4  A    between atoms: C6_6  and  C7_7 
REMARK    5  A    between atoms: C7_7  and  C8_8 
REMARK    6  A    between atoms: C8_8  and  C9_9 
REMARK    7  A    between atoms: C9_9  and  C10_10 
REMARK    8  A    between atoms: C10_10  and  C11_11 
REMARK    9  A    between atoms: C11_11  and  C12_12 
REMARK   10  A    between atoms: C16_18  and  C17_19 
REMARK   11  A    between atoms: N2_20  and  O1_22 
ROOT
HETATM    1  C1  UNL     1     -47.599 111.678 -39.417  1.00  0.00     0.012 C 
HETATM    2  C2  UNL     1     -48.412 112.544 -39.654  1.00  0.00    -0.117 C 
HETATM    3  C3  UNL     1     -49.404 113.586 -39.916  1.00  0.00     0.093 C 
ENDROOT
BRANCH   3   4
HETATM    4  C4  UNL     1     -50.345 113.070 -41.000  1.00  0.00     0.012 C 
BRANCH   4   5
HETATM    5  C5  UNL     1     -49.574 112.645 -42.229  1.00  0.00     0.001 C 
BRANCH   5   6
HETATM    6  C6  UNL     1     -50.459 112.902 -43.433  1.00  0.00     0.000 C 
BRANCH   6   7
HETATM    7  C7  UNL     1     -51.910 112.797 -43.093  1.00  0.00     0.000 C 
BRANCH   7   8
HETATM    8  C8  UNL     1     -52.777 113.620 -44.003  1.00  0.00     0.000 C 
BRANCH   8   9
HETATM    9  C9  UNL     1     -54.071 113.986 -43.354  1.00  0.00     0.000 C 
BRANCH   9  10
HETATM   10  C10 UNL     1     -54.146 113.625 -41.885  1.00  0.00     0.000 C 
BRANCH  10  11
HETATM   11  C11 UNL     1     -54.336 114.863 -41.089  1.00  0.00     0.007 C 
BRANCH  11  12
HETATM   12  C12 UNL     1     -55.589 114.888 -40.237  1.00  0.00     0.014 C 
HETATM   13  C13 UNL     1     -55.397 115.719 -39.029  1.00  0.00     0.012 C 
HETATM   14  C14 UNL     1     -55.909 115.106 -37.749  1.00  0.00     0.044 C 
HETATM   15  C15 UNL     1     -55.408 113.704 -37.696  1.00  0.00     0.056 C 
HETATM   16  N1  UNL     1     -55.925 112.935 -38.751  1.00  0.00    -0.393 N 
HETATM   17  C16 UNL     1     -56.144 113.521 -40.002  1.00  0.00     0.125 C 
ATOM     18  H1  UNL     1     -56.143 111.949 -38.605  1.00  0.00     0.159 HD
BRANCH  17  19
HETATM   19  C17 UNL     1     -57.602 113.454 -40.315  1.00  0.00     0.112 C 
HETATM   20  N2  UNL     1     -58.177 112.328 -40.593  1.00  0.00    -0.282 N 
ATOM     21  H2  UNL     1     -57.604 111.483 -40.592  1.00  0.00     0.192 HD
BRANCH  20  22
HETATM   22  O1  UNL     1     -59.492 112.205 -40.885  1.00  0.00    -0.290 OA
ATOM     23  H1  UNL     1     -60.134 112.887 -40.730  1.00  0.00     0.244 HD
ENDBRANCH  20  22
ENDBRANCH  17  19
ENDBRANCH  11  12
ENDBRANCH  10  11
ENDBRANCH   9  10
ENDBRANCH   8   9
ENDBRANCH   7   8
ENDBRANCH   6   7
ENDBRANCH   5   6
ENDBRANCH   4   5
ENDBRANCH   3   4
TORSDOF 11
ENDMDL
MODEL 4
REMARK VINA RESULT: -8.610392215      1.380      1.975
REMARK  11 active torsions:
REMARK  status: ('A' for Active; 'I' for Inactive)
REMARK    1  A    between atoms: C3_3  and  C4_4 
REMARK    2  A    between atoms: C4_4  and  C5_5 
REMARK    3  A    between atoms: C5_5  and  C6_6 
REMARK    4  A    between atoms: C6_6  and  C7_7 
REMARK    5  A    between atoms: C7_7  and  C8_8 
REMARK    6  A    between atoms: C8_8  and  C9_9 
REMARK    7  A    between atoms: C9_9  and  C10_10 
REMARK    8  A    between atoms: C10_10  and  C11_11 
REMARK    9  A    between atoms: C11_11  and  C12_12 
REMARK   10  A    between atoms: C16_18  and  C17_19 
REMARK   11  A    between atoms: N2_20  and  O1_22 
ROOT
HETATM    1  C1  UNL     1     -46.446 111.312 -38.594  1.00  0.00     0.012 C 
HETATM    2  C2  UNL     1     -47.350 111.474 -39.383  1.00  0.00    -0.117 C 
HETATM    3  C3  UNL     1     -48.425 111.674 -40.354  1.00  0.00     0.093 C 
ENDROOT
BRANCH   3   4
HETATM    4  C4  UNL     1     -49.151 112.963 -39.985  1.00  0.00     0.012 C 
BRANCH   4   5
HETATM    5  C5  UNL     1     -49.847 113.557 -41.189  1.00  0.00     0.001 C 
BRANCH   5   6
HETATM    6  C6  UNL     1     -49.464 112.721 -42.395  1.00  0.00     0.000 C 
BRANCH   6   7
HETATM    7  C7  UNL     1     -50.491 112.798 -43.476  1.00  0.00     0.000 C 
BRANCH   7   8
HETATM    8  C8  UNL     1     -51.889 112.919 -42.937  1.00  0.00     0.000 C 
BRANCH   8   9
HETATM    9  C9  UNL     1     -52.803 113.585 -43.912  1.00  0.00     0.000 C 
BRANCH   9  10
HETATM   10  C10 UNL     1     -54.130 114.010 -43.321  1.00  0.00     0.000 C 
BRANCH  10  11
HETATM   11  C11 UNL     1     -54.008 114.068 -41.842  1.00  0.00     0.007 C 
BRANCH  11  12
HETATM   12  C12 UNL     1     -55.284 114.432 -41.111  1.00  0.00     0.014 C 
HETATM   13  C13 UNL     1     -55.096 115.642 -40.282  1.00  0.00     0.012 C 
HETATM   14  C14 UNL     1     -55.669 115.551 -38.888  1.00  0.00     0.044 C 
HETATM   15  C15 UNL     1     -55.222 114.254 -38.308  1.00  0.00     0.056 C 
HETATM   16  N1  UNL     1     -55.737 113.166 -39.031  1.00  0.00    -0.393 N 
HETATM   17  C16 UNL     1     -55.896 113.259 -40.417  1.00  0.00     0.125 C 
ATOM     18  H1  UNL     1     -55.995 112.307 -38.545  1.00  0.00     0.159 HD
BRANCH  17  19
HETATM   19  C17 UNL     1     -57.346 113.117 -40.745  1.00  0.00     0.112 C 
HETATM   20  N2  UNL     1     -58.149 112.469 -39.964  1.00  0.00    -0.282 N 
ATOM     21  H2  UNL     1     -57.763 112.056 -39.114  1.00  0.00     0.192 HD
BRANCH  20  22
HETATM   22  O1  UNL     1     -59.470 112.307 -40.207  1.00  0.00    -0.290 OA
ATOM     23  H1  UNL     1     -59.823 111.638 -40.781  1.00  0.00     0.244 HD
ENDBRANCH  20  22
ENDBRANCH  17  19
ENDBRANCH  11  12
ENDBRANCH  10  11
ENDBRANCH   9  10
ENDBRANCH   8   9
ENDBRANCH   7   8
ENDBRANCH   6   7
ENDBRANCH   5   6
ENDBRANCH   4   5
ENDBRANCH   3   4
TORSDOF 11
ENDMDL
MODEL 5
REMARK VINA RESULT: -8.523188445      1.101      1.358
REMARK  11 active torsions:
REMARK  status: ('A' for Active; 'I' for Inactive)
REMARK    1  A    between atoms: C3_3  and  C4_4 
REMARK    2  A    between atoms: C4_4  and  C5_5 
REMARK    3  A    between atoms: C5_5  and  C6_6 
REMARK    4  A    between atoms: C6_6  and  C7_7 
REMARK    5  A    between atoms: C7_7  and  C8_8 
REMARK    6  A    between atoms: C8_8  and  C9_9 
REMARK    7  A    between atoms: C9_9  and  C10_10 
REMARK    8  A    between atoms: C10_10  and  C11_11 
REMARK    9  A    between atoms: C11_11  and  C12_12 
REMARK   10  A    between atoms: C16_18  and  C17_19 
REMARK   11  A    between atoms: N2_20  and  O1_22 
ROOT
HETATM    1  C1  UNL     1     -46.495 111.070 -38.758  1.00  0.00     0.012 C 
HETATM    2  C2  UNL     1     -47.408 111.382 -39.491  1.00  0.00    -0.117 C 
HETATM    3  C3  UNL     1     -48.492 111.765 -40.394  1.00  0.00     0.093 C 
ENDROOT
BRANCH   3   4
HETATM    4  C4  UNL     1     -49.092 113.067 -39.876  1.00  0.00     0.012 C 
BRANCH   4   5
HETATM    5  C5  UNL     1     -50.046 113.664 -40.885  1.00  0.00     0.001 C 
BRANCH   5   6
HETATM    6  C6  UNL     1     -49.781 112.990 -42.217  1.00  0.00     0.000 C 
BRANCH   6   7
HETATM    7  C7  UNL     1     -50.991 112.990 -43.093  1.00  0.00     0.000 C 
BRANCH   7   8
HETATM    8  C8  UNL     1     -52.272 112.919 -42.308  1.00  0.00     0.000 C 
BRANCH   8   9
HETATM    9  C9  UNL     1     -53.401 113.575 -43.032  1.00  0.00     0.000 C 
BRANCH   9  10
HETATM   10  C10 UNL     1     -54.371 114.304 -42.127  1.00  0.00     0.000 C 
BRANCH  10  11
HETATM   11  C11 UNL     1     -54.069 113.963 -40.714  1.00  0.00     0.007 C 
BRANCH  11  12
HETATM   12  C12 UNL     1     -55.272 113.569 -39.881  1.00  0.00     0.014 C 
HETATM   13  C13 UNL     1     -56.526 113.726 -40.649  1.00  0.00     0.012 C 
HETATM   14  C14 UNL     1     -57.651 114.393 -39.895  1.00  0.00     0.044 C 
HETATM   15  C15 UNL     1     -57.091 115.613 -39.250  1.00  0.00     0.056 C 
HETATM   16  N1  UNL     1     -56.106 115.286 -38.304  1.00  0.00    -0.393 N 
HETATM   17  C16 UNL     1     -55.257 114.198 -38.527  1.00  0.00     0.125 C 
ATOM     18  H1  UNL     1     -56.010 115.843 -37.455  1.00  0.00     0.159 HD
BRANCH  17  19
HETATM   19  C17 UNL     1     -55.474 113.191 -37.446  1.00  0.00     0.112 C 
HETATM   20  N2  UNL     1     -55.828 113.552 -36.255  1.00  0.00    -0.282 N 
ATOM     21  H2  UNL     1     -55.955 114.548 -36.073  1.00  0.00     0.192 HD
BRANCH  20  22
HETATM   22  O1  UNL     1     -56.039 112.687 -35.236  1.00  0.00    -0.290 OA
ATOM     23  H1  UNL     1     -56.837 112.183 -35.127  1.00  0.00     0.244 HD
ENDBRANCH  20  22
ENDBRANCH  17  19
ENDBRANCH  11  12
ENDBRANCH  10  11
ENDBRANCH   9  10
ENDBRANCH   8   9
ENDBRANCH   7   8
ENDBRANCH   6   7
ENDBRANCH   5   6
ENDBRANCH   4   5
ENDBRANCH   3   4
TORSDOF 11
ENDMDL
