MODEL 1
REMARK VINA RESULT: -9.006546580      0.000      0.000
REMARK  10 active torsions:
REMARK  status: ('A' for Active; 'I' for Inactive)
REMARK    1  A    between atoms: C2_2  and  C12_20 
REMARK    2  A    between atoms: N1_3  and  N2_5 
REMARK       I    between atoms: N2_5  and  C3_7 
REMARK    3  A    between atoms: C3_7  and  C4_9 
REMARK    4  A    between atoms: C4_9  and  C5_10 
REMARK    5  A    between atoms: C5_10  and  C6_11 
REMARK    6  A    between atoms: C6_11  and  C7_12 
REMARK    7  A    between atoms: C7_12  and  C8_13 
REMARK    8  A    between atoms: C8_13  and  C9_14 
REMARK    9  A    between atoms: C9_14  and  C10_15 
REMARK   10  A    between atoms: C10_15  and  C11_16 
ROOT
HETATM    1  N2  UNL     1     -43.854 111.683 -37.664  1.00  0.00    -0.270 N 
ATOM      2  H2  UNL     1     -43.986 112.055 -38.605  1.00  0.00     0.190 HD
HETATM    3  C3  UNL     1     -44.340 110.377 -37.366  1.00  0.00     0.235 C 
HETATM    4  O1  UNL     1     -44.206 109.871 -36.234  1.00  0.00    -0.272 OA
ENDROOT
BRANCH   3   5
HETATM    5  C4  UNL     1     -45.016 109.614 -38.433  1.00  0.00     0.104 C 
BRANCH   5   6
HETATM    6  C5  UNL     1     -45.692 110.589 -39.366  1.00  0.00     0.009 C 
BRANCH   6   7
HETATM    7  C6  UNL     1     -47.133 110.763 -38.951  1.00  0.00     0.000 C 
BRANCH   7   8
HETATM    8  C7  UNL     1     -47.655 112.098 -39.362  1.00  0.00     0.000 C 
BRANCH   8   9
HETATM    9  C8  UNL     1     -48.711 111.970 -40.419  1.00  0.00     0.000 C 
BRANCH   9  10
HETATM   10  C9  UNL     1     -49.523 113.229 -40.531  1.00  0.00     0.005 C 
BRANCH  10  11
HETATM   11  C10 UNL     1     -50.437 113.196 -41.748  1.00  0.00     0.044 C 
BRANCH  11  12
HETATM   12  C11 UNL     1     -51.819 112.920 -41.298  1.00  0.00     0.052 C 
HETATM   13  N3  UNL     1     -52.644 112.387 -42.095  1.00  0.00    -0.411 N 
ATOM     14  H32 UNL     1     -52.342 112.154 -43.041  1.00  0.00     0.155 HD
ATOM     15  H31 UNL     1     -53.598 112.197 -41.785  1.00  0.00     0.155 HD
ENDBRANCH  11  12
ENDBRANCH  10  11
ENDBRANCH   9  10
ENDBRANCH   8   9
ENDBRANCH   7   8
ENDBRANCH   6   7
ENDBRANCH   5   6
ENDBRANCH   3   5
BRANCH   1  16
HETATM   16  N1  UNL     1     -43.204 112.470 -36.716  1.00  0.00    -0.306 N 
HETATM   17  C2  UNL     1     -42.117 113.063 -37.042  1.00  0.00     0.004 C 
HETATM   18  C1  UNL     1     -41.586 112.894 -38.414  1.00  0.00     0.065 C 
ATOM     19  H1  UNL     1     -43.589 112.572 -35.777  1.00  0.00     0.186 HD
BRANCH  17  20
HETATM   20  C12 UNL     1     -41.390 113.918 -36.050  1.00  0.00     0.032 C 
HETATM   21  C13 UNL     1     -42.092 115.239 -35.839  1.00  0.00     0.010 C 
HETATM   22  C14 UNL     1     -41.990 115.461 -34.343  1.00  0.00     0.001 C 
HETATM   23  C15 UNL     1     -42.043 114.083 -33.756  1.00  0.00     0.001 C 
HETATM   24  C16 UNL     1     -41.232 113.257 -34.723  1.00  0.00     0.010 C 
ENDBRANCH  17  20
ENDBRANCH   1  16
TORSDOF 10
ENDMDL
MODEL 2
REMARK VINA RESULT: -8.965671833      3.308     10.120
REMARK  10 active torsions:
REMARK  status: ('A' for Active; 'I' for Inactive)
REMARK    1  A    between atoms: C2_2  and  C12_20 
REMARK    2  A    between atoms: N1_3  and  N2_5 
REMARK       I    between atoms: N2_5  and  C3_7 
REMARK    3  A    between atoms: C3_7  and  C4_9 
REMARK    4  A    between atoms: C4_9  and  C5_10 
REMARK    5  A    between atoms: C5_10  and  C6_11 
REMARK    6  A    between atoms: C6_11  and  C7_12 
REMARK    7  A    between atoms: C7_12  and  C8_13 
REMARK    8  A    between atoms: C8_13  and  C9_14 
REMARK    9  A    between atoms: C9_14  and  C10_15 
REMARK   10  A    between atoms: C10_15  and  C11_16 
ROOT
HETATM    1  N2  UNL     1     -51.816 113.234 -40.698  1.00  0.00    -0.270 N 
ATOM      2  H2  UNL     1     -51.868 112.564 -41.466  1.00  0.00     0.190 HD
HETATM    3  C3  UNL     1     -50.537 113.592 -40.183  1.00  0.00     0.235 C 
HETATM    4  O1  UNL     1     -50.412 114.405 -39.246  1.00  0.00    -0.272 OA
ENDROOT
BRANCH   3   5
HETATM    5  C4  UNL     1     -49.337 112.979 -40.784  1.00  0.00     0.104 C 
BRANCH   5   6
HETATM    6  C5  UNL     1     -48.355 112.662 -39.683  1.00  0.00     0.009 C 
BRANCH   6   7
HETATM    7  C6  UNL     1     -47.629 111.380 -40.013  1.00  0.00     0.000 C 
BRANCH   7   8
HETATM    8  C7  UNL     1     -46.722 110.972 -38.901  1.00  0.00     0.000 C 
BRANCH   8   9
HETATM    9  C8  UNL     1     -45.498 110.279 -39.421  1.00  0.00     0.000 C 
BRANCH   9  10
HETATM   10  C9  UNL     1     -44.563 109.916 -38.302  1.00  0.00     0.005 C 
BRANCH  10  11
HETATM   11  C10 UNL     1     -43.676 111.090 -37.915  1.00  0.00     0.044 C 
BRANCH  11  12
HETATM   12  C11 UNL     1     -44.006 111.500 -36.532  1.00  0.00     0.052 C 
HETATM   13  N3  UNL     1     -44.748 112.506 -36.335  1.00  0.00    -0.411 N 
ATOM     14  H32 UNL     1     -45.108 113.023 -37.137  1.00  0.00     0.155 HD
ATOM     15  H31 UNL     1     -44.975 112.789 -35.381  1.00  0.00     0.155 HD
ENDBRANCH  11  12
ENDBRANCH  10  11
ENDBRANCH   9  10
ENDBRANCH   8   9
ENDBRANCH   7   8
ENDBRANCH   6   7
ENDBRANCH   5   6
ENDBRANCH   3   5
BRANCH   1  16
HETATM   16  N1  UNL     1     -52.999 113.765 -40.189  1.00  0.00    -0.306 N 
HETATM   17  C2  UNL     1     -53.942 114.070 -41.000  1.00  0.00     0.004 C 
HETATM   18  C1  UNL     1     -53.746 113.848 -42.451  1.00  0.00     0.065 C 
ATOM     19  H1  UNL     1     -53.112 113.910 -39.185  1.00  0.00     0.186 HD
BRANCH  17  20
HETATM   20  C12 UNL     1     -55.228 114.644 -40.490  1.00  0.00     0.032 C 
HETATM   21  C13 UNL     1     -55.723 113.899 -39.273  1.00  0.00     0.010 C 
HETATM   22  C14 UNL     1     -56.230 115.000 -38.364  1.00  0.00     0.001 C 
HETATM   23  C15 UNL     1     -55.330 116.164 -38.649  1.00  0.00     0.001 C 
HETATM   24  C16 UNL     1     -55.118 116.089 -40.140  1.00  0.00     0.010 C 
ENDBRANCH  17  20
ENDBRANCH   1  16
TORSDOF 10
ENDMDL
MODEL 3
REMARK VINA RESULT: -8.875179149      3.452     10.300
REMARK  10 active torsions:
REMARK  status: ('A' for Active; 'I' for Inactive)
REMARK    1  A    between atoms: C2_2  and  C12_20 
REMARK    2  A    between atoms: N1_3  and  N2_5 
REMARK       I    between atoms: N2_5  and  C3_7 
REMARK    3  A    between atoms: C3_7  and  C4_9 
REMARK    4  A    between atoms: C4_9  and  C5_10 
REMARK    5  A    between atoms: C5_10  and  C6_11 
REMARK    6  A    between atoms: C6_11  and  C7_12 
REMARK    7  A    between atoms: C7_12  and  C8_13 
REMARK    8  A    between atoms: C8_13  and  C9_14 
REMARK    9  A    between atoms: C9_14  and  C10_15 
REMARK   10  A    between atoms: C10_15  and  C11_16 
ROOT
HETATM    1  N2  UNL     1     -51.835 113.341 -40.547  1.00  0.00    -0.270 N 
ATOM      2  H2  UNL     1     -52.110 112.740 -41.324  1.00  0.00     0.190 HD
HETATM    3  C3  UNL     1     -50.448 113.554 -40.299  1.00  0.00     0.235 C 
HETATM    4  O1  UNL     1     -50.054 114.279 -39.364  1.00  0.00    -0.272 OA
ENDROOT
BRANCH   3   5
HETATM    5  C4  UNL     1     -49.464 112.896 -41.178  1.00  0.00     0.104 C 
BRANCH   5   6
HETATM    6  C5  UNL     1     -48.946 111.661 -40.481  1.00  0.00     0.009 C 
BRANCH   6   7
HETATM    7  C6  UNL     1     -47.705 112.013 -39.697  1.00  0.00     0.000 C 
BRANCH   7   8
HETATM    8  C7  UNL     1     -47.132 110.809 -39.027  1.00  0.00     0.000 C 
BRANCH   8   9
HETATM    9  C8  UNL     1     -45.758 110.500 -39.544  1.00  0.00     0.000 C 
BRANCH   9  10
HETATM   10  C9  UNL     1     -44.909 109.862 -38.481  1.00  0.00     0.005 C 
BRANCH  10  11
HETATM   11  C10 UNL     1     -43.833 110.816 -37.981  1.00  0.00     0.044 C 
BRANCH  11  12
HETATM   12  C11 UNL     1     -44.248 111.354 -36.667  1.00  0.00     0.052 C 
HETATM   13  N3  UNL     1     -44.803 112.489 -36.600  1.00  0.00    -0.411 N 
ATOM     14  H32 UNL     1     -44.956 113.019 -37.458  1.00  0.00     0.155 HD
ATOM     15  H31 UNL     1     -45.089 112.861 -35.694  1.00  0.00     0.155 HD
ENDBRANCH  11  12
ENDBRANCH  10  11
ENDBRANCH   9  10
ENDBRANCH   8   9
ENDBRANCH   7   8
ENDBRANCH   6   7
ENDBRANCH   5   6
ENDBRANCH   3   5
BRANCH   1  16
HETATM   16  N1  UNL     1     -52.830 113.925 -39.765  1.00  0.00    -0.306 N 
HETATM   17  C2  UNL     1     -53.881 114.382 -40.337  1.00  0.00     0.004 C 
HETATM   18  C1  UNL     1     -54.005 114.276 -41.809  1.00  0.00     0.065 C 
ATOM     19  H1  UNL     1     -52.723 113.987 -38.753  1.00  0.00     0.186 HD
BRANCH  17  20
HETATM   20  C12 UNL     1     -54.971 115.016 -39.531  1.00  0.00     0.032 C 
HETATM   21  C13 UNL     1     -55.232 116.437 -39.971  1.00  0.00     0.010 C 
HETATM   22  C14 UNL     1     -56.742 116.549 -39.938  1.00  0.00     0.001 C 
HETATM   23  C15 UNL     1     -57.227 115.180 -40.304  1.00  0.00     0.001 C 
HETATM   24  C16 UNL     1     -56.257 114.262 -39.604  1.00  0.00     0.010 C 
ENDBRANCH  17  20
ENDBRANCH   1  16
TORSDOF 10
ENDMDL
MODEL 4
REMARK VINA RESULT: -8.637717560      3.773     10.635
REMARK  10 active torsions:
REMARK  status: ('A' for Active; 'I' for Inactive)
REMARK    1  A    between atoms: C2_2  and  C12_20 
REMARK    2  A    between atoms: N1_3  and  N2_5 
REMARK       I    between atoms: N2_5  and  C3_7 
REMARK    3  A    between atoms: C3_7  and  C4_9 
REMARK    4  A    between atoms: C4_9  and  C5_10 
REMARK    5  A    between atoms: C5_10  and  C6_11 
REMARK    6  A    between atoms: C6_11  and  C7_12 
REMARK    7  A    between atoms: C7_12  and  C8_13 
REMARK    8  A    between atoms: C8_13  and  C9_14 
REMARK    9  A    between atoms: C9_14  and  C10_15 
REMARK   10  A    between atoms: C10_15  and  C11_16 
ROOT
HETATM    1  N2  UNL     1     -52.136 113.748 -40.296  1.00  0.00    -0.270 N 
ATOM      2  H2  UNL     1     -51.920 114.663 -39.899  1.00  0.00     0.190 HD
HETATM    3  C3  UNL     1     -51.087 112.993 -40.897  1.00  0.00     0.235 C 
HETATM    4  O1  UNL     1     -51.292 111.870 -41.398  1.00  0.00    -0.272 OA
ENDROOT
BRANCH   3   5
HETATM    5  C4  UNL     1     -49.729 113.567 -40.920  1.00  0.00     0.104 C 
BRANCH   5   6
HETATM    6  C5  UNL     1     -48.978 113.076 -39.705  1.00  0.00     0.009 C 
BRANCH   6   7
HETATM    7  C6  UNL     1     -48.093 111.918 -40.097  1.00  0.00     0.000 C 
BRANCH   7   8
HETATM    8  C7  UNL     1     -47.218 111.500 -38.964  1.00  0.00     0.000 C 
BRANCH   8   9
HETATM    9  C8  UNL     1     -46.077 110.650 -39.440  1.00  0.00     0.000 C 
BRANCH   9  10
HETATM   10  C9  UNL     1     -45.330 110.049 -38.283  1.00  0.00     0.005 C 
BRANCH  10  11
HETATM   11  C10 UNL     1     -44.062 110.833 -37.973  1.00  0.00     0.044 C 
BRANCH  11  12
HETATM   12  C11 UNL     1     -44.178 111.404 -36.613  1.00  0.00     0.052 C 
HETATM   13  N3  UNL     1     -44.743 112.524 -36.449  1.00  0.00    -0.411 N 
ATOM     14  H32 UNL     1     -45.113 113.018 -37.260  1.00  0.00     0.155 HD
ATOM     15  H31 UNL     1     -44.823 112.919 -35.511  1.00  0.00     0.155 HD
ENDBRANCH  11  12
ENDBRANCH  10  11
ENDBRANCH   9  10
ENDBRANCH   8   9
ENDBRANCH   7   8
ENDBRANCH   6   7
ENDBRANCH   5   6
ENDBRANCH   3   5
BRANCH   1  16
HETATM   16  N1  UNL     1     -53.447 113.281 -40.233  1.00  0.00    -0.306 N 
HETATM   17  C2  UNL     1     -54.369 114.073 -39.829  1.00  0.00     0.004 C 
HETATM   18  C1  UNL     1     -54.013 115.459 -39.445  1.00  0.00     0.065 C 
ATOM     19  H1  UNL     1     -53.669 112.323 -40.503  1.00  0.00     0.186 HD
BRANCH  17  20
HETATM   20  C12 UNL     1     -55.790 113.608 -39.747  1.00  0.00     0.032 C 
HETATM   21  C13 UNL     1     -56.306 113.649 -38.328  1.00  0.00     0.010 C 
HETATM   22  C14 UNL     1     -57.717 114.181 -38.478  1.00  0.00     0.001 C 
HETATM   23  C15 UNL     1     -57.643 115.115 -39.646  1.00  0.00     0.001 C 
HETATM   24  C16 UNL     1     -56.712 114.412 -40.602  1.00  0.00     0.010 C 
ENDBRANCH  17  20
ENDBRANCH   1  16
TORSDOF 10
ENDMDL
MODEL 5
REMARK VINA RESULT: -8.565231972      2.517      4.461
REMARK  10 active torsions:
REMARK  status: ('A' for Active; 'I' for Inactive)
REMARK    1  A    between atoms: C2_2  and  C12_20 
REMARK    2  A    between atoms: N1_3  and  N2_5 
REMARK       I    between atoms: N2_5  and  C3_7 
REMARK    3  A    between atoms: C3_7  and  C4_9 
REMARK    4  A    between atoms: C4_9  and  C5_10 
REMARK    5  A    between atoms: C5_10  and  C6_11 
REMARK    6  A    between atoms: C6_11  and  C7_12 
REMARK    7  A    between atoms: C7_12  and  C8_13 
REMARK    8  A    between atoms: C8_13  and  C9_14 
REMARK    9  A    between atoms: C9_14  and  C10_15 
REMARK   10  A    between atoms: C10_15  and  C11_16 
ROOT
HETATM    1  N2  UNL     1     -47.165 111.504 -39.300  1.00  0.00    -0.270 N 
ATOM      2  H2  UNL     1     -46.955 110.717 -39.914  1.00  0.00     0.190 HD
HETATM    3  C3  UNL     1     -48.316 112.299 -39.570  1.00  0.00     0.235 C 
HETATM    4  O1  UNL     1     -48.622 113.273 -38.854  1.00  0.00    -0.272 OA
ENDROOT
BRANCH   3   5
HETATM    5  C4  UNL     1     -49.159 111.950 -40.729  1.00  0.00     0.104 C 
BRANCH   5   6
HETATM    6  C5  UNL     1     -49.653 113.226 -41.367  1.00  0.00     0.009 C 
BRANCH   6   7
HETATM    7  C6  UNL     1     -50.435 112.892 -42.614  1.00  0.00     0.000 C 
BRANCH   7   8
HETATM    8  C7  UNL     1     -51.904 112.966 -42.365  1.00  0.00     0.000 C 
BRANCH   8   9
HETATM    9  C8  UNL     1     -52.655 113.288 -43.623  1.00  0.00     0.000 C 
BRANCH   9  10
HETATM   10  C9  UNL     1     -53.980 113.928 -43.316  1.00  0.00     0.005 C 
BRANCH  10  11
HETATM   11  C10 UNL     1     -54.093 114.291 -41.842  1.00  0.00     0.044 C 
BRANCH  11  12
HETATM   12  C11 UNL     1     -55.437 113.904 -41.359  1.00  0.00     0.052 C 
HETATM   13  N3  UNL     1     -55.559 112.939 -40.549  1.00  0.00    -0.411 N 
ATOM     14  H32 UNL     1     -54.725 112.440 -40.241  1.00  0.00     0.155 HD
ATOM     15  H31 UNL     1     -56.486 112.671 -40.216  1.00  0.00     0.155 HD
ENDBRANCH  11  12
ENDBRANCH  10  11
ENDBRANCH   9  10
ENDBRANCH   8   9
ENDBRANCH   7   8
ENDBRANCH   6   7
ENDBRANCH   5   6
ENDBRANCH   3   5
BRANCH   1  16
HETATM   16  N1  UNL     1     -46.315 111.764 -38.227  1.00  0.00    -0.306 N 
HETATM   17  C2  UNL     1     -45.248 111.068 -38.098  1.00  0.00     0.004 C 
HETATM   18  C1  UNL     1     -44.952 110.010 -39.091  1.00  0.00     0.065 C 
ATOM     19  H1  UNL     1     -46.540 112.497 -37.555  1.00  0.00     0.186 HD
BRANCH  17  20
HETATM   20  C12 UNL     1     -44.310 111.317 -36.958  1.00  0.00     0.032 C 
HETATM   21  C13 UNL     1     -42.946 111.745 -37.446  1.00  0.00     0.010 C 
HETATM   22  C14 UNL     1     -42.551 112.844 -36.481  1.00  0.00     0.001 C 
HETATM   23  C15 UNL     1     -43.845 113.507 -36.118  1.00  0.00     0.001 C 
HETATM   24  C16 UNL     1     -44.813 112.356 -36.012  1.00  0.00     0.010 C 
ENDBRANCH  17  20
ENDBRANCH   1  16
TORSDOF 10
ENDMDL
