MODEL 1
REMARK VINA RESULT: -9.110142382      0.000      0.000
REMARK  11 active torsions:
REMARK  status: ('A' for Active; 'I' for Inactive)
REMARK    1  A    between atoms: C1_2  and  C2_4 
REMARK    2  A    between atoms: C2_4  and  C3_5 
REMARK    3  A    between atoms: C3_5  and  C4_6 
REMARK    4  A    between atoms: C4_6  and  C5_7 
REMARK    5  A    between atoms: C5_7  and  C6_8 
REMARK    6  A    between atoms: C6_8  and  C7_9 
REMARK    7  A    between atoms: C7_9  and  C8_10 
REMARK    8  A    between atoms: C9_11  and  C10_12 
REMARK    9  A    between atoms: C10_12  and  C11_13 
REMARK   10  A    between atoms: C11_13  and  C12_14 
REMARK   11  A    between atoms: C17_19  and  O3_20 
ROOT
HETATM    1  C8  UNL     1     -48.446 112.805 -39.370  1.00  0.00    -0.031 C 
HETATM    2  C9  UNL     1     -49.291 113.551 -40.001  1.00  0.00    -0.031 C 
ENDROOT
BRANCH   2   3
HETATM    3  C10 UNL     1     -49.683 113.346 -41.414  1.00  0.00     0.027 C 
BRANCH   3   4
HETATM    4  C11 UNL     1     -50.963 112.551 -41.529  1.00  0.00     0.011 C 
BRANCH   4   5
HETATM    5  C12 UNL     1     -52.174 113.364 -41.775  1.00  0.00     0.015 C 
HETATM    6  C13 UNL     1     -53.138 113.437 -40.629  1.00  0.00     0.007 C 
HETATM    7  C14 UNL     1     -54.108 114.583 -40.961  1.00  0.00     0.001 C 
HETATM    8  C15 UNL     1     -54.899 114.104 -42.160  1.00  0.00     0.002 C 
HETATM    9  C16 UNL     1     -54.045 113.845 -43.368  1.00  0.00     0.032 C 
HETATM   10  C17 UNL     1     -52.845 112.978 -43.058  1.00  0.00     0.122 C 
BRANCH  10  11
HETATM   11  O3  UNL     1     -51.925 113.178 -44.094  1.00  0.00    -0.395 OA
ATOM     12  H3  UNL     1     -51.527 114.031 -43.963  1.00  0.00     0.210 HD
ENDBRANCH  10  11
ENDBRANCH   4   5
ENDBRANCH   3   4
ENDBRANCH   2   3
BRANCH   1  13
HETATM   13  C7  UNL     1     -47.737 111.660 -39.893  1.00  0.00     0.027 C 
BRANCH  13  14
HETATM   14  C6  UNL     1     -46.780 111.036 -38.885  1.00  0.00     0.004 C 
BRANCH  14  15
HETATM   15  C5  UNL     1     -45.651 110.316 -39.591  1.00  0.00     0.000 C 
BRANCH  15  16
HETATM   16  C4  UNL     1     -44.688 109.849 -38.491  1.00  0.00     0.001 C 
BRANCH  16  17
HETATM   17  C3  UNL     1     -43.746 110.947 -38.098  1.00  0.00     0.010 C 
BRANCH  17  18
HETATM   18  C2  UNL     1     -43.756 111.075 -36.592  1.00  0.00     0.113 C 
BRANCH  18  19
HETATM   19  C1  UNL     1     -44.144 112.397 -36.099  1.00  0.00     0.172 C 
HETATM   20  O1  UNL     1     -45.259 112.559 -35.528  1.00  0.00    -0.648 OA
HETATM   21  O2  UNL     1     -43.344 113.532 -36.217  1.00  0.00    -0.648 OA
ENDBRANCH  18  19
ENDBRANCH  17  18
ENDBRANCH  16  17
ENDBRANCH  15  16
ENDBRANCH  14  15
ENDBRANCH  13  14
ENDBRANCH   1  13
TORSDOF 11
ENDMDL
MODEL 2
REMARK VINA RESULT: -9.004031687      2.252      3.504
REMARK  11 active torsions:
REMARK  status: ('A' for Active; 'I' for Inactive)
REMARK    1  A    between atoms: C1_2  and  C2_4 
REMARK    2  A    between atoms: C2_4  and  C3_5 
REMARK    3  A    between atoms: C3_5  and  C4_6 
REMARK    4  A    between atoms: C4_6  and  C5_7 
REMARK    5  A    between atoms: C5_7  and  C6_8 
REMARK    6  A    between atoms: C6_8  and  C7_9 
REMARK    7  A    between atoms: C7_9  and  C8_10 
REMARK    8  A    between atoms: C9_11  and  C10_12 
REMARK    9  A    between atoms: C10_12  and  C11_13 
REMARK   10  A    between atoms: C11_13  and  C12_14 
REMARK   11  A    between atoms: C17_19  and  O3_20 
ROOT
HETATM    1  C8  UNL     1     -50.286 112.925 -41.418  1.00  0.00    -0.031 C 
HETATM    2  C9  UNL     1     -51.574 112.840 -41.443  1.00  0.00    -0.031 C 
ENDROOT
BRANCH   2   3
HETATM    3  C10 UNL     1     -52.473 113.600 -40.545  1.00  0.00     0.027 C 
BRANCH   3   4
HETATM    4  C11 UNL     1     -53.915 113.504 -40.984  1.00  0.00     0.011 C 
BRANCH   4   5
HETATM    5  C12 UNL     1     -54.822 114.480 -40.342  1.00  0.00     0.015 C 
HETATM    6  C13 UNL     1     -54.419 115.917 -40.483  1.00  0.00     0.007 C 
HETATM    7  C14 UNL     1     -55.647 116.746 -40.071  1.00  0.00     0.001 C 
HETATM    8  C15 UNL     1     -55.823 116.492 -38.589  1.00  0.00     0.002 C 
HETATM    9  C16 UNL     1     -56.097 115.051 -38.264  1.00  0.00     0.032 C 
HETATM   10  C17 UNL     1     -55.113 114.109 -38.919  1.00  0.00     0.122 C 
BRANCH  10  11
HETATM   11  O3  UNL     1     -55.710 112.843 -38.925  1.00  0.00    -0.395 OA
ATOM     12  H3  UNL     1     -55.694 112.513 -38.035  1.00  0.00     0.210 HD
ENDBRANCH  10  11
ENDBRANCH   4   5
ENDBRANCH   3   4
ENDBRANCH   2   3
BRANCH   1  13
HETATM   13  C7  UNL     1     -49.487 113.749 -40.542  1.00  0.00     0.027 C 
BRANCH  13  14
HETATM   14  C6  UNL     1     -48.697 112.944 -39.516  1.00  0.00     0.004 C 
BRANCH  14  15
HETATM   15  C5  UNL     1     -48.030 111.752 -40.168  1.00  0.00     0.000 C 
BRANCH  15  16
HETATM   16  C4  UNL     1     -47.144 111.115 -39.089  1.00  0.00     0.001 C 
BRANCH  16  17
HETATM   17  C3  UNL     1     -45.871 110.586 -39.681  1.00  0.00     0.010 C 
BRANCH  17  18
HETATM   18  C2  UNL     1     -45.230 109.649 -38.684  1.00  0.00     0.113 C 
BRANCH  18  19
HETATM   19  C1  UNL     1     -44.421 110.314 -37.661  1.00  0.00     0.172 C 
HETATM   20  O1  UNL     1     -44.575 110.021 -36.442  1.00  0.00    -0.648 OA
HETATM   21  O2  UNL     1     -43.458 111.280 -37.944  1.00  0.00    -0.648 OA
ENDBRANCH  18  19
ENDBRANCH  17  18
ENDBRANCH  16  17
ENDBRANCH  15  16
ENDBRANCH  14  15
ENDBRANCH  13  14
ENDBRANCH   1  13
TORSDOF 11
ENDMDL
MODEL 3
REMARK VINA RESULT: -8.939292985      1.087      1.627
REMARK  11 active torsions:
REMARK  status: ('A' for Active; 'I' for Inactive)
REMARK    1  A    between atoms: C1_2  and  C2_4 
REMARK    2  A    between atoms: C2_4  and  C3_5 
REMARK    3  A    between atoms: C3_5  and  C4_6 
REMARK    4  A    between atoms: C4_6  and  C5_7 
REMARK    5  A    between atoms: C5_7  and  C6_8 
REMARK    6  A    between atoms: C6_8  and  C7_9 
REMARK    7  A    between atoms: C7_9  and  C8_10 
REMARK    8  A    between atoms: C9_11  and  C10_12 
REMARK    9  A    between atoms: C10_12  and  C11_13 
REMARK   10  A    between atoms: C11_13  and  C12_14 
REMARK   11  A    between atoms: C17_19  and  O3_20 
ROOT
HETATM    1  C8  UNL     1     -48.213 112.777 -39.296  1.00  0.00    -0.031 C 
HETATM    2  C9  UNL     1     -49.118 113.530 -39.825  1.00  0.00    -0.031 C 
ENDROOT
BRANCH   2   3
HETATM    3  C10 UNL     1     -49.769 113.254 -41.126  1.00  0.00     0.027 C 
BRANCH   3   4
HETATM    4  C11 UNL     1     -51.093 112.547 -40.951  1.00  0.00     0.011 C 
BRANCH   4   5
HETATM    5  C12 UNL     1     -52.070 112.787 -42.034  1.00  0.00     0.015 C 
HETATM    6  C13 UNL     1     -51.475 113.129 -43.367  1.00  0.00     0.007 C 
HETATM    7  C14 UNL     1     -52.614 112.986 -44.391  1.00  0.00     0.001 C 
HETATM    8  C15 UNL     1     -53.593 114.092 -44.059  1.00  0.00     0.002 C 
HETATM    9  C16 UNL     1     -54.180 113.970 -42.682  1.00  0.00     0.032 C 
HETATM   10  C17 UNL     1     -53.127 113.764 -41.617  1.00  0.00     0.122 C 
BRANCH  10  11
HETATM   11  O3  UNL     1     -53.782 113.228 -40.502  1.00  0.00    -0.395 OA
ATOM     12  H3  UNL     1     -53.669 113.837 -39.782  1.00  0.00     0.210 HD
ENDBRANCH  10  11
ENDBRANCH   4   5
ENDBRANCH   3   4
ENDBRANCH   2   3
BRANCH   1  13
HETATM   13  C7  UNL     1     -47.669 111.556 -39.844  1.00  0.00     0.027 C 
BRANCH  13  14
HETATM   14  C6  UNL     1     -46.756 110.817 -38.872  1.00  0.00     0.004 C 
BRANCH  14  15
HETATM   15  C5  UNL     1     -45.520 110.306 -39.580  1.00  0.00     0.000 C 
BRANCH  15  16
HETATM   16  C4  UNL     1     -44.554 109.850 -38.478  1.00  0.00     0.001 C 
BRANCH  16  17
HETATM   17  C3  UNL     1     -43.656 110.973 -38.051  1.00  0.00     0.010 C 
BRANCH  17  18
HETATM   18  C2  UNL     1     -43.749 111.120 -36.551  1.00  0.00     0.113 C 
BRANCH  18  19
HETATM   19  C1  UNL     1     -44.158 112.450 -36.096  1.00  0.00     0.172 C 
HETATM   20  O1  UNL     1     -45.277 112.610 -35.531  1.00  0.00    -0.648 OA
HETATM   21  O2  UNL     1     -43.376 113.593 -36.246  1.00  0.00    -0.648 OA
ENDBRANCH  18  19
ENDBRANCH  17  18
ENDBRANCH  16  17
ENDBRANCH  15  16
ENDBRANCH  14  15
ENDBRANCH  13  14
ENDBRANCH   1  13
TORSDOF 11
ENDMDL
MODEL 4
REMARK VINA RESULT: -8.928918000      3.252      5.714
REMARK  11 active torsions:
REMARK  status: ('A' for Active; 'I' for Inactive)
REMARK    1  A    between atoms: C1_2  and  C2_4 
REMARK    2  A    between atoms: C2_4  and  C3_5 
REMARK    3  A    between atoms: C3_5  and  C4_6 
REMARK    4  A    between atoms: C4_6  and  C5_7 
REMARK    5  A    between atoms: C5_7  and  C6_8 
REMARK    6  A    between atoms: C6_8  and  C7_9 
REMARK    7  A    between atoms: C7_9  and  C8_10 
REMARK    8  A    between atoms: C9_11  and  C10_12 
REMARK    9  A    between atoms: C10_12  and  C11_13 
REMARK   10  A    between atoms: C11_13  and  C12_14 
REMARK   11  A    between atoms: C17_19  and  O3_20 
ROOT
HETATM    1  C8  UNL     1     -53.810 113.981 -43.190  1.00  0.00    -0.031 C 
HETATM    2  C9  UNL     1     -54.015 114.354 -41.970  1.00  0.00    -0.031 C 
ENDROOT
BRANCH   2   3
HETATM    3  C10 UNL     1     -53.451 113.665 -40.787  1.00  0.00     0.027 C 
BRANCH   3   4
HETATM    4  C11 UNL     1     -54.155 114.072 -39.514  1.00  0.00     0.011 C 
BRANCH   4   5
HETATM    5  C12 UNL     1     -55.398 114.847 -39.716  1.00  0.00     0.015 C 
HETATM    6  C13 UNL     1     -55.367 116.253 -39.195  1.00  0.00     0.007 C 
HETATM    7  C14 UNL     1     -56.583 116.962 -39.812  1.00  0.00     0.001 C 
HETATM    8  C15 UNL     1     -57.793 116.299 -39.190  1.00  0.00     0.002 C 
HETATM    9  C16 UNL     1     -57.893 114.834 -39.506  1.00  0.00     0.032 C 
HETATM   10  C17 UNL     1     -56.602 114.092 -39.242  1.00  0.00     0.122 C 
BRANCH  10  11
HETATM   11  O3  UNL     1     -56.667 112.899 -39.970  1.00  0.00    -0.395 OA
ATOM     12  H3  UNL     1     -57.584 112.670 -40.067  1.00  0.00     0.210 HD
ENDBRANCH  10  11
ENDBRANCH   4   5
ENDBRANCH   3   4
ENDBRANCH   2   3
BRANCH   1  13
HETATM   13  C7  UNL     1     -53.019 112.857 -43.633  1.00  0.00     0.027 C 
BRANCH  13  14
HETATM   14  C6  UNL     1     -51.721 113.271 -44.317  1.00  0.00     0.004 C 
BRANCH  14  15
HETATM   15  C5  UNL     1     -50.549 112.490 -43.762  1.00  0.00     0.000 C 
BRANCH  15  16
HETATM   16  C4  UNL     1     -50.200 113.141 -42.416  1.00  0.00     0.001 C 
BRANCH  16  17
HETATM   17  C3  UNL     1     -50.102 112.111 -41.330  1.00  0.00     0.010 C 
BRANCH  17  18
HETATM   18  C2  UNL     1     -48.658 112.001 -40.899  1.00  0.00     0.113 C 
BRANCH  18  19
HETATM   19  C1  UNL     1     -48.377 112.552 -39.573  1.00  0.00     0.172 C 
HETATM   20  O1  UNL     1     -49.146 113.420 -39.071  1.00  0.00    -0.648 OA
HETATM   21  O2  UNL     1     -47.284 112.176 -38.795  1.00  0.00    -0.648 OA
ENDBRANCH  18  19
ENDBRANCH  17  18
ENDBRANCH  16  17
ENDBRANCH  15  16
ENDBRANCH  14  15
ENDBRANCH  13  14
ENDBRANCH   1  13
TORSDOF 11
ENDMDL
MODEL 5
REMARK VINA RESULT: -8.834907954      2.241      3.982
REMARK  11 active torsions:
REMARK  status: ('A' for Active; 'I' for Inactive)
REMARK    1  A    between atoms: C1_2  and  C2_4 
REMARK    2  A    between atoms: C2_4  and  C3_5 
REMARK    3  A    between atoms: C3_5  and  C4_6 
REMARK    4  A    between atoms: C4_6  and  C5_7 
REMARK    5  A    between atoms: C5_7  and  C6_8 
REMARK    6  A    between atoms: C6_8  and  C7_9 
REMARK    7  A    between atoms: C7_9  and  C8_10 
REMARK    8  A    between atoms: C9_11  and  C10_12 
REMARK    9  A    between atoms: C10_12  and  C11_13 
REMARK   10  A    between atoms: C11_13  and  C12_14 
REMARK   11  A    between atoms: C17_19  and  O3_20 
ROOT
HETATM    1  C8  UNL     1     -50.927 112.920 -42.672  1.00  0.00    -0.031 C 
HETATM    2  C9  UNL     1     -52.169 113.258 -42.781  1.00  0.00    -0.031 C 
ENDROOT
BRANCH   2   3
HETATM    3  C10 UNL     1     -53.134 113.242 -41.658  1.00  0.00     0.027 C 
BRANCH   3   4
HETATM    4  C11 UNL     1     -54.455 113.864 -42.046  1.00  0.00     0.011 C 
BRANCH   4   5
HETATM    5  C12 UNL     1     -55.139 114.592 -40.955  1.00  0.00     0.015 C 
HETATM    6  C13 UNL     1     -54.449 115.838 -40.487  1.00  0.00     0.007 C 
HETATM    7  C14 UNL     1     -55.478 116.599 -39.635  1.00  0.00     0.001 C 
HETATM    8  C15 UNL     1     -55.696 115.741 -38.408  1.00  0.00     0.002 C 
HETATM    9  C16 UNL     1     -56.260 114.385 -38.726  1.00  0.00     0.032 C 
HETATM   10  C17 UNL     1     -55.494 113.679 -39.821  1.00  0.00     0.122 C 
BRANCH  10  11
HETATM   11  O3  UNL     1     -56.339 112.684 -40.328  1.00  0.00    -0.395 OA
ATOM     12  H3  UNL     1     -57.205 112.834 -39.969  1.00  0.00     0.210 HD
ENDBRANCH  10  11
ENDBRANCH   4   5
ENDBRANCH   3   4
ENDBRANCH   2   3
BRANCH   1  13
HETATM   13  C7  UNL     1     -50.250 112.474 -41.477  1.00  0.00     0.027 C 
BRANCH  13  14
HETATM   14  C6  UNL     1     -49.540 113.600 -40.735  1.00  0.00     0.004 C 
BRANCH  14  15
HETATM   15  C5  UNL     1     -48.727 113.054 -39.581  1.00  0.00     0.000 C 
BRANCH  15  16
HETATM   16  C4  UNL     1     -48.011 111.806 -40.116  1.00  0.00     0.001 C 
BRANCH  16  17
HETATM   17  C3  UNL     1     -47.346 111.049 -39.004  1.00  0.00     0.010 C 
BRANCH  17  18
HETATM   18  C2  UNL     1     -45.979 110.610 -39.472  1.00  0.00     0.113 C 
BRANCH  18  19
HETATM   19  C1  UNL     1     -45.057 110.245 -38.394  1.00  0.00     0.172 C 
HETATM   20  O1  UNL     1     -43.854 110.625 -38.433  1.00  0.00    -0.648 OA
HETATM   21  O2  UNL     1     -45.425 109.481 -37.289  1.00  0.00    -0.648 OA
ENDBRANCH  18  19
ENDBRANCH  17  18
ENDBRANCH  16  17
ENDBRANCH  15  16
ENDBRANCH  14  15
ENDBRANCH  13  14
ENDBRANCH   1  13
TORSDOF 11
ENDMDL
