MODEL 1
REMARK VINA RESULT: -8.144757884      0.000      0.000
REMARK  6 active torsions:
REMARK  status: ('A' for Active; 'I' for Inactive)
REMARK    1  A    between atoms: N1_1  and  C1_4 
REMARK    2  A    between atoms: N2_13  and  C8_14 
REMARK    3  A    between atoms: C8_14  and  C9_15 
REMARK    4  A    between atoms: C9_15  and  C10_16 
REMARK    5  A    between atoms: C13_19  and  C14_20 
REMARK    6  A    between atoms: C14_20  and  C15_21 
ROOT
HETATM    1  C10 UNL     1      13.470  -6.975  -2.064  1.00  0.00    -0.013 C 
HETATM    2  C11 UNL     1      12.458  -7.830  -2.770  1.00  0.00     0.005 C 
HETATM    3  C12 UNL     1      11.044  -7.437  -2.530  1.00  0.00     0.005 C 
HETATM    4  C13 UNL     1      10.909  -6.385  -1.420  1.00  0.00    -0.014 C 
HETATM    5  C20 UNL     1      11.722  -6.925  -0.263  1.00  0.00     0.005 C 
HETATM    6  C21 UNL     1      13.184  -6.799  -0.598  1.00  0.00     0.005 C 
ENDROOT
BRANCH   1   7
HETATM    7  C9  UNL     1      14.839  -7.573  -2.198  1.00  0.00     0.025 C 
BRANCH   7   8
HETATM    8  C8  UNL     1      15.163  -7.985  -3.604  1.00  0.00     0.132 C 
BRANCH   8   9
HETATM    9  N2  UNL     1      15.769  -6.810  -4.300  1.00  0.00    -0.326 N 
HETATM   10  C1  UNL     1      17.031  -6.495  -3.999  1.00  0.00     0.145 A 
HETATM   11  S1  UNL     1      17.346  -5.140  -4.977  1.00  0.00    -0.052 SA
HETATM   12  C2  UNL     1      15.816  -5.030  -5.748  1.00  0.00     0.035 A 
HETATM   13  C3  UNL     1      15.254  -4.170  -6.707  1.00  0.00     0.024 A 
HETATM   14  C7  UNL     1      15.142  -6.078  -5.184  1.00  0.00     0.056 A 
HETATM   15  C4  UNL     1      13.958  -4.343  -7.141  1.00  0.00     0.044 A 
HETATM   16  C5  UNL     1      13.279  -5.391  -6.579  1.00  0.00     0.118 A 
HETATM   17  F1  UNL     1      11.998  -5.584  -6.991  1.00  0.00    -0.206 F 
HETATM   18  C6  UNL     1      13.816  -6.224  -5.653  1.00  0.00     0.073 A 
BRANCH  10  19
HETATM   19  N1  UNL     1      17.848  -7.066  -3.165  1.00  0.00    -0.379 N 
ATOM     20  H12 UNL     1      18.377  -6.657  -2.394  1.00  0.00     0.158 HD
ATOM     21  H11 UNL     1      18.108  -8.052  -3.136  1.00  0.00     0.158 HD
ENDBRANCH  10  19
ENDBRANCH   8   9
ENDBRANCH   7   8
ENDBRANCH   1   7
BRANCH   4  22
HETATM   22  C14 UNL     1       9.457  -6.297  -1.092  1.00  0.00     0.011 C 
BRANCH  22  23
HETATM   23  C15 UNL     1       8.902  -4.921  -0.964  1.00  0.00     0.011 C 
HETATM   24  C16 UNL     1       7.489  -4.841  -0.522  1.00  0.00     0.008 C 
HETATM   25  C17 UNL     1       7.310  -4.714   0.967  1.00  0.00     0.028 C 
HETATM   26  C18 UNL     1       8.298  -3.753   1.585  1.00  0.00     0.232 C 
HETATM   27  N3  UNL     1       9.633  -4.298   1.296  1.00  0.00    -0.075 N 
HETATM   28  C19 UNL     1       9.852  -4.108  -0.113  1.00  0.00     0.237 C 
ATOM     29  H32 UNL     1      10.369  -3.897   1.877  1.00  0.00     0.277 HD
ATOM     30  H31 UNL     1       9.750  -5.266   1.597  1.00  0.00     0.277 HD
ENDBRANCH  22  23
ENDBRANCH   4  22
TORSDOF 6
ENDMDL
MODEL 2
REMARK VINA RESULT: -7.957215481      1.243      1.429
REMARK  6 active torsions:
REMARK  status: ('A' for Active; 'I' for Inactive)
REMARK    1  A    between atoms: N1_1  and  C1_4 
REMARK    2  A    between atoms: N2_13  and  C8_14 
REMARK    3  A    between atoms: C8_14  and  C9_15 
REMARK    4  A    between atoms: C9_15  and  C10_16 
REMARK    5  A    between atoms: C13_19  and  C14_20 
REMARK    6  A    between atoms: C14_20  and  C15_21 
ROOT
HETATM    1  C10 UNL     1      13.324  -7.480  -2.698  1.00  0.00    -0.013 C 
HETATM    2  C11 UNL     1      12.001  -8.179  -2.578  1.00  0.00     0.005 C 
HETATM    3  C12 UNL     1      11.017  -7.489  -1.702  1.00  0.00     0.005 C 
HETATM    4  C13 UNL     1      11.643  -6.329  -0.916  1.00  0.00    -0.014 C 
HETATM    5  C20 UNL     1      12.896  -6.906  -0.292  1.00  0.00     0.005 C 
HETATM    6  C21 UNL     1      13.926  -7.110  -1.371  1.00  0.00     0.005 C 
ENDROOT
BRANCH   1   7
HETATM    7  C9  UNL     1      14.307  -8.350  -3.423  1.00  0.00     0.025 C 
BRANCH   7   8
HETATM    8  C8  UNL     1      14.081  -8.379  -4.907  1.00  0.00     0.132 C 
BRANCH   8   9
HETATM    9  N2  UNL     1      15.112  -7.508  -5.546  1.00  0.00    -0.326 N 
HETATM   10  C1  UNL     1      16.380  -7.929  -5.523  1.00  0.00     0.145 A 
HETATM   11  S1  UNL     1      17.223  -6.694  -6.332  1.00  0.00    -0.052 SA
HETATM   12  C2  UNL     1      15.891  -5.667  -6.675  1.00  0.00     0.035 A 
HETATM   13  C3  UNL     1      15.739  -4.429  -7.323  1.00  0.00     0.024 A 
HETATM   14  C7  UNL     1      14.850  -6.365  -6.125  1.00  0.00     0.056 A 
HETATM   15  C4  UNL     1      14.501  -3.839  -7.444  1.00  0.00     0.044 A 
HETATM   16  C5  UNL     1      13.456  -4.534  -6.895  1.00  0.00     0.118 A 
HETATM   17  F1  UNL     1      12.223  -3.973  -7.001  1.00  0.00    -0.206 F 
HETATM   18  C6  UNL     1      13.595  -5.729  -6.268  1.00  0.00     0.073 A 
BRANCH  10  19
HETATM   19  N1  UNL     1      16.880  -9.014  -5.013  1.00  0.00    -0.379 N 
ATOM     20  H12 UNL     1      17.140  -9.216  -4.047  1.00  0.00     0.158 HD
ATOM     21  H11 UNL     1      17.106  -9.878  -5.506  1.00  0.00     0.158 HD
ENDBRANCH  10  19
ENDBRANCH   8   9
ENDBRANCH   7   8
ENDBRANCH   1   7
BRANCH   4  22
HETATM   22  C14 UNL     1      10.642  -5.920   0.110  1.00  0.00     0.011 C 
BRANCH  22  23
HETATM   23  C15 UNL     1       9.918  -4.647  -0.160  1.00  0.00     0.011 C 
HETATM   24  C16 UNL     1       8.805  -4.741  -1.135  1.00  0.00     0.008 C 
HETATM   25  C17 UNL     1       7.459  -5.011  -0.518  1.00  0.00     0.028 C 
HETATM   26  C18 UNL     1       7.230  -4.203   0.738  1.00  0.00     0.232 C 
HETATM   27  N3  UNL     1       8.290  -4.601   1.678  1.00  0.00    -0.075 N 
HETATM   28  C19 UNL     1       9.514  -4.045   1.167  1.00  0.00     0.237 C 
ATOM     29  H32 UNL     1       8.096  -4.334   2.643  1.00  0.00     0.277 HD
ATOM     30  H31 UNL     1       8.336  -5.608   1.833  1.00  0.00     0.277 HD
ENDBRANCH  22  23
ENDBRANCH   4  22
TORSDOF 6
ENDMDL
MODEL 3
REMARK VINA RESULT: -7.927246960      2.149      2.439
REMARK  6 active torsions:
REMARK  status: ('A' for Active; 'I' for Inactive)
REMARK    1  A    between atoms: N1_1  and  C1_4 
REMARK    2  A    between atoms: N2_13  and  C8_14 
REMARK    3  A    between atoms: C8_14  and  C9_15 
REMARK    4  A    between atoms: C9_15  and  C10_16 
REMARK    5  A    between atoms: C13_19  and  C14_20 
REMARK    6  A    between atoms: C14_20  and  C15_21 
ROOT
HETATM    1  C10 UNL     1      13.064  -7.405  -2.732  1.00  0.00    -0.013 C 
HETATM    2  C11 UNL     1      11.689  -7.986  -2.568  1.00  0.00     0.005 C 
HETATM    3  C12 UNL     1      10.819  -7.248  -1.614  1.00  0.00     0.005 C 
HETATM    4  C13 UNL     1      11.590  -6.185  -0.819  1.00  0.00    -0.014 C 
HETATM    5  C20 UNL     1      12.813  -6.900  -0.286  1.00  0.00     0.005 C 
HETATM    6  C21 UNL     1      13.764  -7.149  -1.426  1.00  0.00     0.005 C 
ENDROOT
BRANCH   1   7
HETATM    7  C9  UNL     1      13.924  -8.329  -3.542  1.00  0.00     0.025 C 
BRANCH   7   8
HETATM    8  C8  UNL     1      13.170  -9.014  -4.645  1.00  0.00     0.132 C 
BRANCH   8   9
HETATM    9  N2  UNL     1      13.878  -8.733  -5.930  1.00  0.00    -0.326 N 
HETATM   10  C1  UNL     1      14.693  -9.676  -6.408  1.00  0.00     0.145 A 
HETATM   11  S1  UNL     1      15.289  -8.995  -7.847  1.00  0.00    -0.052 SA
HETATM   12  C2  UNL     1      14.452  -7.498  -7.778  1.00  0.00     0.035 A 
HETATM   13  C3  UNL     1      14.395  -6.359  -8.599  1.00  0.00     0.024 A 
HETATM   14  C7  UNL     1      13.745  -7.625  -6.613  1.00  0.00     0.056 A 
HETATM   15  C4  UNL     1      13.604  -5.283  -8.266  1.00  0.00     0.044 A 
HETATM   16  C5  UNL     1      12.895  -5.406  -7.100  1.00  0.00     0.118 A 
HETATM   17  F1  UNL     1      12.105  -4.357  -6.748  1.00  0.00    -0.206 F 
HETATM   18  C6  UNL     1      12.945  -6.502  -6.303  1.00  0.00     0.073 A 
BRANCH  10  19
HETATM   19  N1  UNL     1      14.984 -10.843  -5.915  1.00  0.00    -0.379 N 
ATOM     20  H12 UNL     1      15.485 -11.622  -6.344  1.00  0.00     0.158 HD
ATOM     21  H11 UNL     1      14.754 -11.192  -4.984  1.00  0.00     0.158 HD
ENDBRANCH  10  19
ENDBRANCH   8   9
ENDBRANCH   7   8
ENDBRANCH   1   7
BRANCH   4  22
HETATM   22  C14 UNL     1      10.684  -5.732   0.276  1.00  0.00     0.011 C 
BRANCH  22  23
HETATM   23  C15 UNL     1       9.885  -4.507  -0.007  1.00  0.00     0.011 C 
HETATM   24  C16 UNL     1       8.867  -4.643  -1.077  1.00  0.00     0.008 C 
HETATM   25  C17 UNL     1       7.501  -5.041  -0.588  1.00  0.00     0.028 C 
HETATM   26  C18 UNL     1       7.107  -4.308   0.674  1.00  0.00     0.232 C 
HETATM   27  N3  UNL     1       8.113  -4.665   1.685  1.00  0.00    -0.075 N 
HETATM   28  C19 UNL     1       9.327  -3.996   1.302  1.00  0.00     0.237 C 
ATOM     29  H32 UNL     1       7.820  -4.457   2.640  1.00  0.00     0.277 HD
ATOM     30  H31 UNL     1       8.227  -5.672   1.806  1.00  0.00     0.277 HD
ENDBRANCH  22  23
ENDBRANCH   4  22
TORSDOF 6
ENDMDL
MODEL 4
REMARK VINA RESULT: -7.865923337      2.177      2.859
REMARK  6 active torsions:
REMARK  status: ('A' for Active; 'I' for Inactive)
REMARK    1  A    between atoms: N1_1  and  C1_4 
REMARK    2  A    between atoms: N2_13  and  C8_14 
REMARK    3  A    between atoms: C8_14  and  C9_15 
REMARK    4  A    between atoms: C9_15  and  C10_16 
REMARK    5  A    between atoms: C13_19  and  C14_20 
REMARK    6  A    between atoms: C14_20  and  C15_21 
ROOT
HETATM    1  C10 UNL     1      13.069  -7.316  -2.701  1.00  0.00    -0.013 C 
HETATM    2  C11 UNL     1      11.735  -7.986  -2.539  1.00  0.00     0.005 C 
HETATM    3  C12 UNL     1      10.807  -7.292  -1.608  1.00  0.00     0.005 C 
HETATM    4  C13 UNL     1      11.495  -6.165  -0.825  1.00  0.00    -0.014 C 
HETATM    5  C20 UNL     1      12.757  -6.786  -0.267  1.00  0.00     0.005 C 
HETATM    6  C21 UNL     1      13.736  -6.990  -1.392  1.00  0.00     0.005 C 
ENDROOT
BRANCH   1   7
HETATM    7  C9  UNL     1      13.999  -8.193  -3.485  1.00  0.00     0.025 C 
BRANCH   7   8
HETATM    8  C8  UNL     1      13.510  -8.468  -4.877  1.00  0.00     0.132 C 
BRANCH   8   9
HETATM    9  N2  UNL     1      13.444  -7.167  -5.607  1.00  0.00    -0.326 N 
HETATM   10  C1  UNL     1      12.264  -6.800  -6.115  1.00  0.00     0.145 A 
HETATM   11  S1  UNL     1      12.595  -5.302  -6.847  1.00  0.00    -0.052 SA
HETATM   12  C2  UNL     1      14.265  -5.202  -6.465  1.00  0.00     0.035 A 
HETATM   13  C3  UNL     1      15.281  -4.263  -6.713  1.00  0.00     0.024 A 
HETATM   14  C7  UNL     1      14.465  -6.368  -5.776  1.00  0.00     0.056 A 
HETATM   15  C4  UNL     1      16.565  -4.472  -6.263  1.00  0.00     0.044 A 
HETATM   16  C5  UNL     1      16.770  -5.638  -5.573  1.00  0.00     0.118 A 
HETATM   17  F1  UNL     1      18.030  -5.868  -5.118  1.00  0.00    -0.206 F 
HETATM   18  C6  UNL     1      15.795  -6.548  -5.331  1.00  0.00     0.073 A 
BRANCH  10  19
HETATM   19  N1  UNL     1      11.121  -7.418  -6.077  1.00  0.00    -0.379 N 
ATOM     20  H12 UNL     1      10.178  -7.033  -6.010  1.00  0.00     0.158 HD
ATOM     21  H11 UNL     1      10.965  -8.426  -6.108  1.00  0.00     0.158 HD
ENDBRANCH  10  19
ENDBRANCH   8   9
ENDBRANCH   7   8
ENDBRANCH   1   7
BRANCH   4  22
HETATM   22  C14 UNL     1      10.548  -5.755   0.252  1.00  0.00     0.011 C 
BRANCH  22  23
HETATM   23  C15 UNL     1       9.750  -4.527  -0.017  1.00  0.00     0.011 C 
HETATM   24  C16 UNL     1       8.690  -4.668  -1.045  1.00  0.00     0.008 C 
HETATM   25  C17 UNL     1       7.340  -5.046  -0.497  1.00  0.00     0.028 C 
HETATM   26  C18 UNL     1       7.002  -4.292   0.768  1.00  0.00     0.232 C 
HETATM   27  N3  UNL     1       8.044  -4.645   1.745  1.00  0.00    -0.075 N 
HETATM   28  C19 UNL     1       9.248  -3.992   1.305  1.00  0.00     0.237 C 
ATOM     29  H32 UNL     1       7.791  -4.420   2.707  1.00  0.00     0.277 HD
ATOM     30  H31 UNL     1       8.154  -5.650   1.876  1.00  0.00     0.277 HD
ENDBRANCH  22  23
ENDBRANCH   4  22
TORSDOF 6
ENDMDL
MODEL 5
REMARK VINA RESULT: -7.809376413      2.620      3.539
REMARK  6 active torsions:
REMARK  status: ('A' for Active; 'I' for Inactive)
REMARK    1  A    between atoms: N1_1  and  C1_4 
REMARK    2  A    between atoms: N2_13  and  C8_14 
REMARK    3  A    between atoms: C8_14  and  C9_15 
REMARK    4  A    between atoms: C9_15  and  C10_16 
REMARK    5  A    between atoms: C13_19  and  C14_20 
REMARK    6  A    between atoms: C14_20  and  C15_21 
ROOT
HETATM    1  C10 UNL     1      10.889  -6.590  -0.339  1.00  0.00    -0.013 C 
HETATM    2  C11 UNL     1      11.494  -5.473   0.462  1.00  0.00     0.005 C 
HETATM    3  C12 UNL     1      10.515  -4.467   0.954  1.00  0.00     0.005 C 
HETATM    4  C13 UNL     1       9.122  -4.655   0.338  1.00  0.00    -0.014 C 
HETATM    5  C20 UNL     1       9.362  -4.772  -1.152  1.00  0.00     0.005 C 
HETATM    6  C21 UNL     1       9.984  -6.111  -1.440  1.00  0.00     0.005 C 
ENDROOT
BRANCH   1   7
HETATM    7  C9  UNL     1      11.967  -7.426  -0.960  1.00  0.00     0.025 C 
BRANCH   7   8
HETATM    8  C8  UNL     1      13.005  -6.609  -1.674  1.00  0.00     0.132 C 
BRANCH   8   9
HETATM    9  N2  UNL     1      13.632  -7.472  -2.719  1.00  0.00    -0.326 N 
HETATM   10  C1  UNL     1      14.900  -7.849  -2.531  1.00  0.00     0.145 A 
HETATM   11  S1  UNL     1      15.239  -8.798  -3.901  1.00  0.00    -0.052 SA
HETATM   12  C2  UNL     1      13.711  -8.671  -4.674  1.00  0.00     0.035 A 
HETATM   13  C3  UNL     1      13.164  -9.173  -5.867  1.00  0.00     0.024 A 
HETATM   14  C7  UNL     1      13.018  -7.881  -3.798  1.00  0.00     0.056 A 
HETATM   15  C4  UNL     1      11.866  -8.888  -6.227  1.00  0.00     0.044 A 
HETATM   16  C5  UNL     1      11.168  -8.097  -5.353  1.00  0.00     0.118 A 
HETATM   17  F1  UNL     1       9.883  -7.802  -5.684  1.00  0.00    -0.206 F 
HETATM   18  C6  UNL     1      11.690  -7.610  -4.200  1.00  0.00     0.073 A 
BRANCH  10  19
HETATM   19  N1  UNL     1      15.707  -7.573  -1.551  1.00  0.00    -0.379 N 
ATOM     20  H12 UNL     1      15.557  -7.658  -0.545  1.00  0.00     0.158 HD
ATOM     21  H11 UNL     1      16.659  -7.213  -1.620  1.00  0.00     0.158 HD
ENDBRANCH  10  19
ENDBRANCH   8   9
ENDBRANCH   7   8
ENDBRANCH   1   7
BRANCH   4  22
HETATM   22  C14 UNL     1       8.335  -3.437   0.687  1.00  0.00     0.011 C 
BRANCH  22  23
HETATM   23  C15 UNL     1       6.897  -3.662   1.000  1.00  0.00     0.011 C 
HETATM   24  C16 UNL     1       6.106  -4.319  -0.068  1.00  0.00     0.008 C 
HETATM   25  C17 UNL     1       6.041  -5.819   0.041  1.00  0.00     0.028 C 
HETATM   26  C18 UNL     1       5.828  -6.282   1.463  1.00  0.00     0.232 C 
HETATM   27  N3  UNL     1       6.980  -5.785   2.231  1.00  0.00    -0.075 N 
HETATM   28  C19 UNL     1       6.809  -4.360   2.338  1.00  0.00     0.237 C 
ATOM     29  H32 UNL     1       7.096  -6.247   3.133  1.00  0.00     0.277 HD
ATOM     30  H31 UNL     1       7.880  -6.056   1.834  1.00  0.00     0.277 HD
ENDBRANCH  22  23
ENDBRANCH   4  22
TORSDOF 6
ENDMDL
