MODEL 1
REMARK VINA RESULT: -6.601860010      0.000      0.000
REMARK  5 active torsions:
REMARK  status: ('A' for Active; 'I' for Inactive)
REMARK    1  A    between atoms: N1_2  and  C2_4 
REMARK    2  A    between atoms: C2_4  and  N2_6 
REMARK       I    between atoms: N2_6  and  C3_8 
REMARK       I    between atoms: C3_8  and  N4_22 
REMARK    3  A    between atoms: N3_9  and  C4_11 
REMARK    4  A    between atoms: C4_11  and  C5_12 
REMARK    5  A    between atoms: C4_11  and  C11_18 
ROOT
HETATM    1  N2  UNL     1      -2.380   3.361  83.906  1.00  0.00    -0.166 N 
ATOM      2  H2  UNL     1      -3.297   3.095  83.550  1.00  0.00     0.186 HD
HETATM    3  C3  UNL     1      -1.267   2.506  83.668  1.00  0.00     0.689 C 
HETATM    4  N3  UNL     1      -0.878   2.356  82.525  1.00  0.00    -0.218 N 
ATOM      5  H3  UNL     1      -1.463   2.912  81.902  1.00  0.00     0.178 HD
HETATM    6  N4  UNL     1      -0.708   1.901  84.813  1.00  0.00    -0.126 N 
ATOM      7  H4  UNL     1       0.259   2.081  85.083  1.00  0.00     0.197 HD
HETATM    8  C14 UNL     1      -1.535   1.033  85.579  1.00  0.00     0.196 C 
HETATM    9  N5  UNL     1      -2.228   0.320  86.191  1.00  0.00    -0.171 NA
ENDROOT
BRANCH   1  10
HETATM   10  C2  UNL     1      -2.246   4.566  84.623  1.00  0.00     0.186 C 
HETATM   11  S1  UNL     1      -1.064   5.657  84.306  1.00  0.00    -0.040 SA
BRANCH  10  12
HETATM   12  N1  UNL     1      -3.155   4.898  85.678  1.00  0.00    -0.371 N 
HETATM   13  C1  UNL     1      -3.685   3.892  86.550  1.00  0.00     0.148 C 
ATOM     14  H1  UNL     1      -3.431   5.871  85.812  1.00  0.00     0.161 HD
ENDBRANCH  10  12
ENDBRANCH   1  10
BRANCH   4  15
HETATM   15  C4  UNL     1       0.099   1.682  81.757  1.00  0.00     0.126 C 
BRANCH  15  16
HETATM   16  C5  UNL     1       0.890   2.559  80.864  1.00  0.00     0.011 C 
HETATM   17  C6  UNL     1       0.177   3.876  80.706  1.00  0.00     0.007 C 
HETATM   18  C7  UNL     1       0.989   5.091  81.052  1.00  0.00     0.000 C 
HETATM   19  C8  UNL     1       2.292   5.145  80.290  1.00  0.00     0.000 C 
HETATM   20  C9  UNL     1       2.856   3.751  80.096  1.00  0.00     0.000 C 
HETATM   21  C10 UNL     1       2.289   2.826  81.198  1.00  0.00     0.007 C 
ENDBRANCH  15  16
BRANCH  15  22
HETATM   22  C11 UNL     1      -0.490   0.430  81.206  1.00  0.00     0.051 C 
HETATM   23  C12 UNL     1       0.186  -0.123  79.984  1.00  0.00     0.034 C 
HETATM   24  C13 UNL     1      -0.898  -0.606  82.193  1.00  0.00     0.034 C 
HETATM   25 CL1  UNL     1      -2.086   1.032  80.535  1.00  0.00    -0.118 Cl
ENDBRANCH  15  22
ENDBRANCH   4  15
TORSDOF 5
ENDMDL
MODEL 2
REMARK VINA RESULT: -6.424478840      2.077      2.615
REMARK  5 active torsions:
REMARK  status: ('A' for Active; 'I' for Inactive)
REMARK    1  A    between atoms: N1_2  and  C2_4 
REMARK    2  A    between atoms: C2_4  and  N2_6 
REMARK       I    between atoms: N2_6  and  C3_8 
REMARK       I    between atoms: C3_8  and  N4_22 
REMARK    3  A    between atoms: N3_9  and  C4_11 
REMARK    4  A    between atoms: C4_11  and  C5_12 
REMARK    5  A    between atoms: C4_11  and  C11_18 
ROOT
HETATM    1  N2  UNL     1      -2.807   3.293  84.423  1.00  0.00    -0.166 N 
ATOM      2  H2  UNL     1      -3.512   2.895  83.805  1.00  0.00     0.186 HD
HETATM    3  C3  UNL     1      -1.429   3.089  84.127  1.00  0.00     0.689 C 
HETATM    4  N3  UNL     1      -0.965   3.596  83.124  1.00  0.00    -0.218 N 
ATOM      5  H3  UNL     1      -1.702   4.113  82.644  1.00  0.00     0.178 HD
HETATM    6  N4  UNL     1      -0.718   2.299  85.054  1.00  0.00    -0.126 N 
ATOM      7  H4  UNL     1       0.073   2.681  85.573  1.00  0.00     0.197 HD
HETATM    8  C14 UNL     1      -1.138   0.953  85.243  1.00  0.00     0.196 C 
HETATM    9  N5  UNL     1      -1.496  -0.150  85.381  1.00  0.00    -0.171 NA
ENDROOT
BRANCH   1  10
HETATM   10  C2  UNL     1      -3.219   4.032  85.549  1.00  0.00     0.186 C 
HETATM   11  S1  UNL     1      -3.217   5.671  85.581  1.00  0.00    -0.040 SA
BRANCH  10  12
HETATM   12  N1  UNL     1      -3.670   3.371  86.737  1.00  0.00    -0.371 N 
HETATM   13  C1  UNL     1      -4.148   2.021  86.703  1.00  0.00     0.148 C 
ATOM     14  H1  UNL     1      -3.651   3.873  87.625  1.00  0.00     0.161 HD
ENDBRANCH  10  12
ENDBRANCH   1  10
BRANCH   4  15
HETATM   15  C4  UNL     1       0.236   3.720  82.388  1.00  0.00     0.126 C 
BRANCH  15  16
HETATM   16  C5  UNL     1       0.752   5.104  82.284  1.00  0.00     0.011 C 
HETATM   17  C6  UNL     1      -0.351   6.070  82.627  1.00  0.00     0.007 C 
HETATM   18  C7  UNL     1      -0.034   7.045  83.724  1.00  0.00     0.000 C 
HETATM   19  C8  UNL     1       1.231   7.823  83.451  1.00  0.00     0.000 C 
HETATM   20  C9  UNL     1       2.251   6.955  82.740  1.00  0.00     0.000 C 
HETATM   21  C10 UNL     1       1.943   5.471  83.050  1.00  0.00     0.007 C 
ENDBRANCH  15  16
BRANCH  15  22
HETATM   22  C11 UNL     1       0.144   2.887  81.157  1.00  0.00     0.051 C 
HETATM   23  C12 UNL     1       1.072   1.708  81.099  1.00  0.00     0.034 C 
HETATM   24  C13 UNL     1      -1.223   2.609  80.640  1.00  0.00     0.034 C 
HETATM   25 CL1  UNL     1       0.857   4.010  79.894  1.00  0.00    -0.118 Cl
ENDBRANCH  15  22
ENDBRANCH   4  15
TORSDOF 5
ENDMDL
MODEL 3
REMARK VINA RESULT: -6.259986532      1.004      1.340
REMARK  5 active torsions:
REMARK  status: ('A' for Active; 'I' for Inactive)
REMARK    1  A    between atoms: N1_2  and  C2_4 
REMARK    2  A    between atoms: C2_4  and  N2_6 
REMARK       I    between atoms: N2_6  and  C3_8 
REMARK       I    between atoms: C3_8  and  N4_22 
REMARK    3  A    between atoms: N3_9  and  C4_11 
REMARK    4  A    between atoms: C4_11  and  C5_12 
REMARK    5  A    between atoms: C4_11  and  C11_18 
ROOT
HETATM    1  N2  UNL     1      -2.197   3.518  83.872  1.00  0.00    -0.166 N 
ATOM      2  H2  UNL     1      -3.129   3.319  83.510  1.00  0.00     0.186 HD
HETATM    3  C3  UNL     1      -1.148   2.585  83.640  1.00  0.00     0.689 C 
HETATM    4  N3  UNL     1      -0.764   2.406  82.500  1.00  0.00    -0.218 N 
ATOM      5  H3  UNL     1      -1.303   3.003  81.873  1.00  0.00     0.178 HD
HETATM    6  N4  UNL     1      -0.641   1.942  84.789  1.00  0.00    -0.126 N 
ATOM      7  H4  UNL     1       0.335   2.051  85.065  1.00  0.00     0.197 HD
HETATM    8  C14 UNL     1      -1.533   1.136  85.550  1.00  0.00     0.196 C 
HETATM    9  N5  UNL     1      -2.279   0.475  86.158  1.00  0.00    -0.171 NA
ENDROOT
BRANCH   1  10
HETATM   10  C2  UNL     1      -1.981   4.710  84.589  1.00  0.00     0.186 C 
HETATM   11  S1  UNL     1      -3.182   5.496  85.382  1.00  0.00    -0.040 SA
BRANCH  10  12
HETATM   12  N1  UNL     1      -0.677   5.300  84.661  1.00  0.00    -0.371 N 
HETATM   13  C1  UNL     1      -0.399   6.568  84.056  1.00  0.00     0.148 C 
ATOM     14  H1  UNL     1       0.068   4.806  85.153  1.00  0.00     0.161 HD
ENDBRANCH  10  12
ENDBRANCH   1  10
BRANCH   4  15
HETATM   15  C4  UNL     1       0.166   1.662  81.738  1.00  0.00     0.126 C 
BRANCH  15  16
HETATM   16  C5  UNL     1       1.014   2.479  80.839  1.00  0.00     0.011 C 
HETATM   17  C6  UNL     1       0.308   3.772  80.532  1.00  0.00     0.007 C 
HETATM   18  C7  UNL     1       1.088   5.018  80.842  1.00  0.00     0.000 C 
HETATM   19  C8  UNL     1       2.441   5.028  80.172  1.00  0.00     0.000 C 
HETATM   20  C9  UNL     1       3.024   3.630  80.122  1.00  0.00     0.000 C 
HETATM   21  C10 UNL     1       2.384   2.784  81.249  1.00  0.00     0.007 C 
ENDBRANCH  15  16
BRANCH  15  22
HETATM   22  C11 UNL     1      -0.504   0.449  81.196  1.00  0.00     0.051 C 
HETATM   23  C12 UNL     1       0.095  -0.121  79.943  1.00  0.00     0.034 C 
HETATM   24  C13 UNL     1      -0.926  -0.579  82.186  1.00  0.00     0.034 C 
HETATM   25 CL1  UNL     1      -2.093   1.138  80.593  1.00  0.00    -0.118 Cl
ENDBRANCH  15  22
ENDBRANCH   4  15
TORSDOF 5
ENDMDL
MODEL 4
REMARK VINA RESULT: -6.122537304      3.262      6.523
REMARK  5 active torsions:
REMARK  status: ('A' for Active; 'I' for Inactive)
REMARK    1  A    between atoms: N1_2  and  C2_4 
REMARK    2  A    between atoms: C2_4  and  N2_6 
REMARK       I    between atoms: N2_6  and  C3_8 
REMARK       I    between atoms: C3_8  and  N4_22 
REMARK    3  A    between atoms: N3_9  and  C4_11 
REMARK    4  A    between atoms: C4_11  and  C5_12 
REMARK    5  A    between atoms: C4_11  and  C11_18 
ROOT
HETATM    1  N2  UNL     1       1.072   4.230  81.006  1.00  0.00    -0.166 N 
ATOM      2  H2  UNL     1       0.550   4.757  80.307  1.00  0.00     0.186 HD
HETATM    3  C3  UNL     1       0.974   4.606  82.375  1.00  0.00     0.689 C 
HETATM    4  N3  UNL     1      -0.093   4.475  82.944  1.00  0.00    -0.218 N 
ATOM      5  H3  UNL     1      -0.772   4.090  82.287  1.00  0.00     0.178 HD
HETATM    6  N4  UNL     1       2.159   5.106  82.955  1.00  0.00    -0.126 N 
ATOM      7  H4  UNL     1       2.599   4.632  83.743  1.00  0.00     0.197 HD
HETATM    8  C14 UNL     1       2.720   6.293  82.406  1.00  0.00     0.196 C 
HETATM    9  N5  UNL     1       3.162   7.270  81.944  1.00  0.00    -0.171 NA
ENDROOT
BRANCH   1  10
HETATM   10  C2  UNL     1       1.871   3.148  80.592  1.00  0.00     0.186 C 
HETATM   11  S1  UNL     1       1.451   1.585  80.856  1.00  0.00    -0.040 SA
BRANCH  10  12
HETATM   12  N1  UNL     1       3.110   3.368  79.907  1.00  0.00    -0.371 N 
HETATM   13  C1  UNL     1       3.343   4.565  79.154  1.00  0.00     0.148 C 
ATOM     14  H1  UNL     1       3.841   2.658  79.955  1.00  0.00     0.161 HD
ENDBRANCH  10  12
ENDBRANCH   1  10
BRANCH   4  15
HETATM   15  C4  UNL     1      -0.724   4.669  84.195  1.00  0.00     0.126 C 
BRANCH  15  16
HETATM   16  C5  UNL     1      -1.297   3.440  84.790  1.00  0.00     0.011 C 
HETATM   17  C6  UNL     1      -1.704   2.500  83.687  1.00  0.00     0.007 C 
HETATM   18  C7  UNL     1      -1.110   1.122  83.765  1.00  0.00     0.000 C 
HETATM   19  C8  UNL     1      -1.375   0.460  85.095  1.00  0.00     0.000 C 
HETATM   20  C9  UNL     1      -1.349   1.480  86.217  1.00  0.00     0.000 C 
HETATM   21  C10 UNL     1      -0.502   2.694  85.765  1.00  0.00     0.007 C 
ENDBRANCH  15  16
BRANCH  15  22
HETATM   22  C11 UNL     1      -1.557   5.902  84.137  1.00  0.00     0.051 C 
HETATM   23  C12 UNL     1      -1.919   6.377  82.760  1.00  0.00     0.034 C 
HETATM   24  C13 UNL     1      -2.666   6.004  85.124  1.00  0.00     0.034 C 
HETATM   25 CL1  UNL     1      -0.369   7.181  84.696  1.00  0.00    -0.118 Cl
ENDBRANCH  15  22
ENDBRANCH   4  15
TORSDOF 5
ENDMDL
MODEL 5
REMARK VINA RESULT: -6.105393459      2.895      6.658
REMARK  5 active torsions:
REMARK  status: ('A' for Active; 'I' for Inactive)
REMARK    1  A    between atoms: N1_2  and  C2_4 
REMARK    2  A    between atoms: C2_4  and  N2_6 
REMARK       I    between atoms: N2_6  and  C3_8 
REMARK       I    between atoms: C3_8  and  N4_22 
REMARK    3  A    between atoms: N3_9  and  C4_11 
REMARK    4  A    between atoms: C4_11  and  C5_12 
REMARK    5  A    between atoms: C4_11  and  C11_18 
ROOT
HETATM    1  N2  UNL     1       0.087   3.469  81.405  1.00  0.00    -0.166 N 
ATOM      2  H2  UNL     1      -0.356   4.029  80.677  1.00  0.00     0.186 HD
HETATM    3  C3  UNL     1       0.008   3.904  82.758  1.00  0.00     0.689 C 
HETATM    4  N3  UNL     1      -1.077   3.921  83.306  1.00  0.00    -0.218 N 
ATOM      5  H3  UNL     1      -1.784   3.594  82.647  1.00  0.00     0.178 HD
HETATM    6  N4  UNL     1       1.233   4.282  83.348  1.00  0.00    -0.126 N 
ATOM      7  H4  UNL     1       1.599   3.788  84.162  1.00  0.00     0.197 HD
HETATM    8  C14 UNL     1       1.941   5.373  82.772  1.00  0.00     0.196 C 
HETATM    9  N5  UNL     1       2.505   6.274  82.288  1.00  0.00    -0.171 NA
ENDROOT
BRANCH   1  10
HETATM   10  C2  UNL     1       0.760   2.286  81.046  1.00  0.00     0.186 C 
HETATM   11  S1  UNL     1       0.106   0.797  81.256  1.00  0.00    -0.040 SA
BRANCH  10  12
HETATM   12  N1  UNL     1       2.071   2.332  80.470  1.00  0.00    -0.371 N 
HETATM   13  C1  UNL     1       2.510   3.461  79.705  1.00  0.00     0.148 C 
ATOM     14  H1  UNL     1       2.705   1.544  80.607  1.00  0.00     0.161 HD
ENDBRANCH  10  12
ENDBRANCH   1  10
BRANCH   4  15
HETATM   15  C4  UNL     1      -1.704   4.233  84.534  1.00  0.00     0.126 C 
BRANCH  15  16
HETATM   16  C5  UNL     1      -2.551   3.149  85.083  1.00  0.00     0.011 C 
HETATM   17  C6  UNL     1      -1.735   1.889  85.189  1.00  0.00     0.007 C 
HETATM   18  C7  UNL     1      -1.698   1.259  86.552  1.00  0.00     0.000 C 
HETATM   19  C8  UNL     1      -3.081   0.994  87.097  1.00  0.00     0.000 C 
HETATM   20  C9  UNL     1      -4.043   2.086  86.672  1.00  0.00     0.000 C 
HETATM   21  C10 UNL     1      -3.234   3.367  86.358  1.00  0.00     0.007 C 
ENDBRANCH  15  16
BRANCH  15  22
HETATM   22  C11 UNL     1      -2.252   5.616  84.467  1.00  0.00     0.051 C 
HETATM   23  C12 UNL     1      -2.568   6.123  83.090  1.00  0.00     0.034 C 
HETATM   24  C13 UNL     1      -3.262   5.984  85.495  1.00  0.00     0.034 C 
HETATM   25 CL1  UNL     1      -0.788   6.618  84.929  1.00  0.00    -0.118 Cl
ENDBRANCH  15  22
ENDBRANCH   4  15
TORSDOF 5
ENDMDL
