MODEL 1
REMARK VINA RESULT: -7.570070828      0.000      0.000
REMARK  3 active torsions:
REMARK  status: ('A' for Active; 'I' for Inactive)
REMARK    1  A    between atoms: C6_7  and  C7_8 
REMARK       I    between atoms: C7_8  and  N1_10 
REMARK    2  A    between atoms: N1_10  and  C8_12 
REMARK    3  A    between atoms: C8_12  and  C9_13 
ROOT
HETATM    1  C8  UNL     1      -1.067   7.015  82.877  1.00  0.00     0.068 C 
ENDROOT
BRANCH   1   2
HETATM    2  N1  UNL     1      -1.542   7.373  81.611  1.00  0.00    -0.339 N 
HETATM    3  C7  UNL     1      -2.833   7.550  81.155  1.00  0.00     0.243 C 
HETATM    4  O1  UNL     1      -3.850   7.391  81.835  1.00  0.00    -0.271 OA
ATOM      5  H1  UNL     1      -0.817   7.530  80.911  1.00  0.00     0.167 HD
BRANCH   3   6
HETATM    6  C6  UNL     1      -3.075   7.969  79.723  1.00  0.00     0.172 C 
HETATM    7  C5  UNL     1      -2.470   6.965  78.772  1.00  0.00     0.071 C 
HETATM    8  C4  UNL     1      -2.685   7.479  77.364  1.00  0.00     0.174 C 
HETATM    9  C3  UNL     1      -4.162   7.577  77.140  1.00  0.00     0.061 C 
HETATM   10  F1  UNL     1      -2.164   6.602  76.435  1.00  0.00    -0.249 F 
HETATM   11  C2  UNL     1      -4.834   8.479  78.152  1.00  0.00     0.076 C 
HETATM   12  C1  UNL     1      -6.341   8.447  78.011  1.00  0.00     0.032 C 
HETATM   13  N3  UNL     1      -4.439   8.246  79.483  1.00  0.00    -0.405 N 
ATOM     14  H3  UNL     1      -5.115   8.276  80.247  1.00  0.00     0.154 HD
ENDBRANCH   3   6
ENDBRANCH   1   2
BRANCH   1  15
HETATM   15  C9  UNL     1      -1.411   5.750  83.538  1.00  0.00     0.024 C 
HETATM   16  C10 UNL     1      -2.416   5.777  84.605  1.00  0.00     0.010 C 
HETATM   17  C11 UNL     1      -2.938   4.360  84.910  1.00  0.00     0.010 C 
HETATM   18  C12 UNL     1      -1.823   3.360  84.929  1.00  0.00    -0.037 C 
HETATM   19  C13 UNL     1      -2.009   2.327  83.843  1.00  0.00     0.037 C 
HETATM   20  C16 UNL     1      -1.987   2.575  86.246  1.00  0.00     0.037 C 
HETATM   21  C17 UNL     1      -0.445   3.935  84.976  1.00  0.00     0.010 C 
HETATM   22  C14 UNL     1      -1.105   1.136  84.026  1.00  0.00     0.233 C 
HETATM   23  N2  UNL     1      -1.300   0.460  85.284  1.00  0.00    -0.075 N 
HETATM   24  C15 UNL     1      -1.012   1.443  86.335  1.00  0.00     0.233 C 
ATOM     25  H22 UNL     1      -2.221   0.031  85.374  1.00  0.00     0.277 HD
ATOM     26  H21 UNL     1      -0.753  -0.396  85.372  1.00  0.00     0.277 HD
HETATM   27  C18 UNL     1      -0.149   5.045  84.026  1.00  0.00     0.010 C 
ENDBRANCH   1  15
TORSDOF 3
ENDMDL
MODEL 2
REMARK VINA RESULT: -7.489155290      3.050      7.658
REMARK  3 active torsions:
REMARK  status: ('A' for Active; 'I' for Inactive)
REMARK    1  A    between atoms: C6_7  and  C7_8 
REMARK       I    between atoms: C7_8  and  N1_10 
REMARK    2  A    between atoms: N1_10  and  C8_12 
REMARK    3  A    between atoms: C8_12  and  C9_13 
ROOT
HETATM    1  C8  UNL     1      -1.415   6.385  82.956  1.00  0.00     0.068 C 
ENDROOT
BRANCH   1   2
HETATM    2  N1  UNL     1      -0.907   5.099  82.746  1.00  0.00    -0.339 N 
HETATM    3  C7  UNL     1      -1.465   3.863  83.002  1.00  0.00     0.243 C 
HETATM    4  O1  UNL     1      -2.575   3.680  83.510  1.00  0.00    -0.271 OA
ATOM      5  H1  UNL     1       0.027   5.069  82.337  1.00  0.00     0.167 HD
BRANCH   3   6
HETATM    6  C6  UNL     1      -0.702   2.605  82.653  1.00  0.00     0.172 C 
HETATM    7  C5  UNL     1      -1.622   1.593  82.015  1.00  0.00     0.071 C 
HETATM    8  C4  UNL     1      -0.815   0.338  81.757  1.00  0.00     0.174 C 
HETATM    9  C3  UNL     1       0.290   0.698  80.814  1.00  0.00     0.061 C 
HETATM   10  F1  UNL     1      -1.593  -0.634  81.161  1.00  0.00    -0.249 F 
HETATM   11  C2  UNL     1       1.169   1.802  81.359  1.00  0.00     0.076 C 
HETATM   12  C1  UNL     1       2.184   2.261  80.334  1.00  0.00     0.032 C 
HETATM   13  N3  UNL     1       0.458   2.890  81.900  1.00  0.00    -0.405 N 
ATOM     14  H3  UNL     1       0.770   3.850  81.753  1.00  0.00     0.154 HD
ENDBRANCH   3   6
ENDBRANCH   1   2
BRANCH   1  15
HETATM   15  C9  UNL     1      -2.248   7.093  81.976  1.00  0.00     0.024 C 
HETATM   16  C10 UNL     1      -3.696   7.139  82.203  1.00  0.00     0.010 C 
HETATM   17  C11 UNL     1      -4.358   8.223  81.332  1.00  0.00     0.010 C 
HETATM   18  C12 UNL     1      -3.797   8.225  79.943  1.00  0.00    -0.037 C 
HETATM   19  C13 UNL     1      -3.112   9.538  79.642  1.00  0.00     0.037 C 
HETATM   20  C16 UNL     1      -5.016   8.198  78.999  1.00  0.00     0.037 C 
HETATM   21  C17 UNL     1      -2.981   7.029  79.578  1.00  0.00     0.010 C 
HETATM   22  C14 UNL     1      -2.821   9.709  78.175  1.00  0.00     0.233 C 
HETATM   23  N2  UNL     1      -4.002   9.655  77.350  1.00  0.00    -0.075 N 
HETATM   24  C15 UNL     1      -4.602   8.334  77.566  1.00  0.00     0.233 C 
ATOM     25  H22 UNL     1      -4.649  10.425  77.520  1.00  0.00     0.277 HD
ATOM     26  H21 UNL     1      -3.818   9.858  76.367  1.00  0.00     0.277 HD
HETATM   27  C18 UNL     1      -1.955   6.591  80.567  1.00  0.00     0.010 C 
ENDBRANCH   1  15
TORSDOF 3
ENDMDL
MODEL 3
REMARK VINA RESULT: -7.339454393      4.801      8.304
REMARK  3 active torsions:
REMARK  status: ('A' for Active; 'I' for Inactive)
REMARK    1  A    between atoms: C6_7  and  C7_8 
REMARK       I    between atoms: C7_8  and  N1_10 
REMARK    2  A    between atoms: N1_10  and  C8_12 
REMARK    3  A    between atoms: C8_12  and  C9_13 
ROOT
HETATM    1  C8  UNL     1       0.564   2.009  81.347  1.00  0.00     0.068 C 
ENDROOT
BRANCH   1   2
HETATM    2  N1  UNL     1      -0.069   2.465  82.508  1.00  0.00    -0.339 N 
HETATM    3  C7  UNL     1      -0.946   1.825  83.361  1.00  0.00     0.243 C 
HETATM    4  O1  UNL     1      -1.356   0.671  83.217  1.00  0.00    -0.271 OA
ATOM      5  H1  UNL     1       0.153   3.427  82.767  1.00  0.00     0.167 HD
BRANCH   3   6
HETATM    6  C6  UNL     1      -1.475   2.548  84.579  1.00  0.00     0.172 C 
HETATM    7  C5  UNL     1      -2.240   3.782  84.166  1.00  0.00     0.071 C 
HETATM    8  C4  UNL     1      -2.678   4.494  85.429  1.00  0.00     0.174 C 
HETATM    9  C3  UNL     1      -3.572   3.561  86.185  1.00  0.00     0.061 C 
HETATM   10  F1  UNL     1      -3.396   5.633  85.128  1.00  0.00    -0.249 F 
HETATM   11  C2  UNL     1      -2.887   2.254  86.513  1.00  0.00     0.076 C 
HETATM   12  C1  UNL     1      -3.847   1.265  87.138  1.00  0.00     0.032 C 
HETATM   13  N3  UNL     1      -2.192   1.680  85.431  1.00  0.00    -0.405 N 
ATOM     14  H3  UNL     1      -2.206   0.673  85.269  1.00  0.00     0.154 HD
ENDBRANCH   3   6
ENDBRANCH   1   2
BRANCH   1  15
HETATM   15  C9  UNL     1       1.426   2.855  80.514  1.00  0.00     0.024 C 
HETATM   16  C10 UNL     1       2.733   3.252  81.048  1.00  0.00     0.010 C 
HETATM   17  C11 UNL     1       3.650   3.784  79.931  1.00  0.00     0.010 C 
HETATM   18  C12 UNL     1       2.901   4.676  78.989  1.00  0.00    -0.037 C 
HETATM   19  C13 UNL     1       2.883   4.092  77.595  1.00  0.00     0.037 C 
HETATM   20  C16 UNL     1       3.748   5.958  78.863  1.00  0.00     0.037 C 
HETATM   21  C17 UNL     1       1.558   5.128  79.463  1.00  0.00     0.010 C 
HETATM   22  C14 UNL     1       2.431   5.090  76.562  1.00  0.00     0.233 C 
HETATM   23  N2  UNL     1       3.257   6.271  76.511  1.00  0.00    -0.075 N 
HETATM   24  C15 UNL     1       3.182   6.891  77.838  1.00  0.00     0.233 C 
ATOM     25  H22 UNL     1       4.212   6.082  76.207  1.00  0.00     0.277 HD
ATOM     26  H21 UNL     1       3.006   6.906  75.754  1.00  0.00     0.277 HD
HETATM   27  C18 UNL     1       0.662   4.084  80.033  1.00  0.00     0.010 C 
ENDBRANCH   1  15
TORSDOF 3
ENDMDL
MODEL 4
REMARK VINA RESULT: -7.318479538      1.646      1.922
REMARK  3 active torsions:
REMARK  status: ('A' for Active; 'I' for Inactive)
REMARK    1  A    between atoms: C6_7  and  C7_8 
REMARK       I    between atoms: C7_8  and  N1_10 
REMARK    2  A    between atoms: N1_10  and  C8_12 
REMARK    3  A    between atoms: C8_12  and  C9_13 
ROOT
HETATM    1  C8  UNL     1      -1.123   7.145  82.323  1.00  0.00     0.068 C 
ENDROOT
BRANCH   1   2
HETATM    2  N1  UNL     1      -1.819   7.602  81.199  1.00  0.00    -0.339 N 
HETATM    3  C7  UNL     1      -2.361   6.906  80.138  1.00  0.00     0.243 C 
HETATM    4  O1  UNL     1      -2.299   5.683  79.988  1.00  0.00    -0.271 OA
ATOM      5  H1  UNL     1      -1.947   8.613  81.158  1.00  0.00     0.167 HD
BRANCH   3   6
HETATM    6  C6  UNL     1      -3.097   7.651  79.047  1.00  0.00     0.172 C 
HETATM    7  C5  UNL     1      -4.588   7.502  79.224  1.00  0.00     0.071 C 
HETATM    8  C4  UNL     1      -5.260   8.208  78.064  1.00  0.00     0.174 C 
HETATM    9  C3  UNL     1      -4.874   9.652  78.130  1.00  0.00     0.061 C 
HETATM   10  F1  UNL     1      -6.634   8.122  78.165  1.00  0.00    -0.249 F 
HETATM   11  C2  UNL     1      -3.375   9.846  78.083  1.00  0.00     0.076 C 
HETATM   12  C1  UNL     1      -2.993  11.293  78.306  1.00  0.00     0.032 C 
HETATM   13  N3  UNL     1      -2.656   8.989  78.939  1.00  0.00    -0.405 N 
ATOM     14  H3  UNL     1      -1.846   9.322  79.461  1.00  0.00     0.154 HD
ENDBRANCH   3   6
ENDBRANCH   1   2
BRANCH   1  15
HETATM   15  C9  UNL     1      -1.473   5.916  83.045  1.00  0.00     0.024 C 
HETATM   16  C10 UNL     1      -2.529   5.986  84.061  1.00  0.00     0.010 C 
HETATM   17  C11 UNL     1      -3.038   4.580  84.427  1.00  0.00     0.010 C 
HETATM   18  C12 UNL     1      -1.907   3.607  84.561  1.00  0.00    -0.037 C 
HETATM   19  C13 UNL     1      -2.022   2.505  83.533  1.00  0.00     0.037 C 
HETATM   20  C16 UNL     1      -2.119   2.900  85.914  1.00  0.00     0.037 C 
HETATM   21  C17 UNL     1      -0.544   4.213  84.635  1.00  0.00     0.010 C 
HETATM   22  C14 UNL     1      -1.106   1.347  83.830  1.00  0.00     0.233 C 
HETATM   23  N2  UNL     1      -1.348   0.745  85.118  1.00  0.00    -0.075 N 
HETATM   24  C15 UNL     1      -1.128   1.796  86.118  1.00  0.00     0.233 C 
ATOM     25  H22 UNL     1      -2.264   0.303  85.191  1.00  0.00     0.277 HD
ATOM     26  H21 UNL     1      -0.789  -0.092  85.283  1.00  0.00     0.277 HD
HETATM   27  C18 UNL     1      -0.224   5.269  83.633  1.00  0.00     0.010 C 
ENDBRANCH   1  15
TORSDOF 3
ENDMDL
MODEL 5
REMARK VINA RESULT: -7.306395368      2.828      8.262
REMARK  3 active torsions:
REMARK  status: ('A' for Active; 'I' for Inactive)
REMARK    1  A    between atoms: C6_7  and  C7_8 
REMARK       I    between atoms: C7_8  and  N1_10 
REMARK    2  A    between atoms: N1_10  and  C8_12 
REMARK    3  A    between atoms: C8_12  and  C9_13 
ROOT
HETATM    1  C8  UNL     1      -1.307   6.481  82.610  1.00  0.00     0.068 C 
ENDROOT
BRANCH   1   2
HETATM    2  N1  UNL     1      -1.647   5.286  83.252  1.00  0.00    -0.339 N 
HETATM    3  C7  UNL     1      -2.305   5.066  84.445  1.00  0.00     0.243 C 
HETATM    4  O1  UNL     1      -2.713   5.952  85.201  1.00  0.00    -0.271 OA
ATOM      5  H1  UNL     1      -1.363   4.439  82.759  1.00  0.00     0.167 HD
BRANCH   3   6
HETATM    6  C6  UNL     1      -2.572   3.652  84.909  1.00  0.00     0.172 C 
HETATM    7  C5  UNL     1      -1.370   2.778  84.647  1.00  0.00     0.071 C 
HETATM    8  C4  UNL     1      -1.728   1.367  85.067  1.00  0.00     0.174 C 
HETATM    9  C3  UNL     1      -2.036   1.397  86.531  1.00  0.00     0.061 C 
HETATM   10  F1  UNL     1      -0.667   0.509  84.865  1.00  0.00    -0.249 F 
HETATM   11  C2  UNL     1      -3.156   2.358  86.860  1.00  0.00     0.076 C 
HETATM   12  C1  UNL     1      -3.352   2.493  88.355  1.00  0.00     0.032 C 
HETATM   13  N3  UNL     1      -3.034   3.618  86.243  1.00  0.00    -0.405 N 
ATOM     14  H3  UNL     1      -3.271   4.475  86.742  1.00  0.00     0.154 HD
ENDBRANCH   3   6
ENDBRANCH   1   2
BRANCH   1  15
HETATM   15  C9  UNL     1      -2.191   7.166  81.660  1.00  0.00     0.024 C 
HETATM   16  C10 UNL     1      -3.608   7.308  82.009  1.00  0.00     0.010 C 
HETATM   17  C11 UNL     1      -4.293   8.365  81.124  1.00  0.00     0.010 C 
HETATM   18  C12 UNL     1      -3.863   8.242  79.695  1.00  0.00    -0.037 C 
HETATM   19  C13 UNL     1      -3.145   9.491  79.240  1.00  0.00     0.037 C 
HETATM   20  C16 UNL     1      -5.163   8.218  78.866  1.00  0.00     0.037 C 
HETATM   21  C17 UNL     1      -3.143   6.981  79.347  1.00  0.00     0.010 C 
HETATM   22  C14 UNL     1      -2.983   9.547  77.744  1.00  0.00     0.233 C 
HETATM   23  N2  UNL     1      -4.236   9.502  77.033  1.00  0.00    -0.075 N 
HETATM   24  C15 UNL     1      -4.878   8.234  77.397  1.00  0.00     0.233 C 
ATOM     25  H22 UNL     1      -4.826  10.317  77.203  1.00  0.00     0.277 HD
ATOM     26  H21 UNL     1      -4.133   9.628  76.026  1.00  0.00     0.277 HD
HETATM   27  C18 UNL     1      -2.053   6.554  80.269  1.00  0.00     0.010 C 
ENDBRANCH   1  15
TORSDOF 3
ENDMDL
