MODEL 1
REMARK VINA RESULT: -7.499826821      0.000      0.000
REMARK  5 active torsions:
REMARK  status: ('A' for Active; 'I' for Inactive)
REMARK    1  A    between atoms: C4_6  and  N2_7 
REMARK    2  A    between atoms: N2_7  and  C5_9 
REMARK    3  A    between atoms: C5_9  and  C6_10 
REMARK    4  A    between atoms: C11_16  and  N3_17 
REMARK    5  A    between atoms: N3_17  and  C12_19 
ROOT
HETATM    1  C12 UNL     1      -0.952   1.361  82.594  1.00  0.00     0.071 A 
HETATM    2  C13 UNL     1      -0.887  -0.015  82.688  1.00  0.00     0.118 A 
HETATM    3  N4  UNL     1      -1.271  -0.523  81.519  1.00  0.00    -0.371 N 
ATOM      4  H4  UNL     1      -1.322  -1.518  81.302  1.00  0.00     0.164 HD
HETATM    5  C14 UNL     1      -1.582   0.471  80.667  1.00  0.00     0.112 A 
HETATM    6  C15 UNL     1      -1.392   1.657  81.313  1.00  0.00     0.088 A 
HETATM    7  C16 UNL     1      -1.602   2.979  80.781  1.00  0.00     0.103 C 
HETATM    8  N5  UNL     1      -1.778   4.053  80.361  1.00  0.00    -0.191 NA
ENDROOT
BRANCH   1   9
HETATM    9  N3  UNL     1      -0.627   2.278  83.616  1.00  0.00    -0.337 N 
ATOM     10  H3  UNL     1       0.319   2.652  83.691  1.00  0.00     0.167 HD
BRANCH   9  11
HETATM   11  C11 UNL     1      -1.550   2.641  84.463  1.00  0.00     0.150 A 
HETATM   12  C4  UNL     1      -1.925   3.987  84.436  1.00  0.00     0.146 A 
HETATM   13  N1  UNL     1      -2.868   4.374  85.297  1.00  0.00    -0.348 N 
HETATM   14  C3  UNL     1      -3.457   3.510  86.178  1.00  0.00     0.114 A 
ATOM     15  H1  UNL     1      -3.161   5.352  85.298  1.00  0.00     0.167 HD
HETATM   16  C2  UNL     1      -3.070   2.186  86.186  1.00  0.00     0.022 A 
HETATM   17  C1  UNL     1      -3.726   1.266  87.153  1.00  0.00     0.069 C 
HETATM   18  N6  UNL     1      -2.118   1.778  85.321  1.00  0.00    -0.342 N 
ATOM     19  H6  UNL     1      -1.825   0.801  85.320  1.00  0.00     0.167 HD
BRANCH  12  20
HETATM   20  N2  UNL     1      -1.375   4.802  83.611  1.00  0.00    -0.373 N 
ATOM     21  H2  UNL     1      -1.317   4.508  82.636  1.00  0.00     0.161 HD
BRANCH  20  22
HETATM   22  C5  UNL     1      -0.831   6.093  83.938  1.00  0.00     0.126 C 
BRANCH  22  23
HETATM   23  C6  UNL     1       0.513   6.355  83.304  1.00  0.00     0.007 C 
HETATM   24  C7  UNL     1       0.670   5.884  81.891  1.00  0.00     0.031 C 
HETATM   25  C8  UNL     1       1.972   5.229  82.288  1.00  0.00     0.034 C 
HETATM   26  C9  UNL     1       3.190   6.103  82.144  1.00  0.00     0.032 C 
HETATM   27 CL1  UNL     1       2.135   3.602  81.604  1.00  0.00    -0.120 Cl
HETATM   28  C10 UNL     1       1.473   5.232  83.719  1.00  0.00     0.031 C 
ENDBRANCH  22  23
ENDBRANCH  20  22
ENDBRANCH  12  20
ENDBRANCH   9  11
ENDBRANCH   1   9
TORSDOF 5
ENDMDL
MODEL 2
REMARK VINA RESULT: -7.383232377      1.493      1.663
REMARK  5 active torsions:
REMARK  status: ('A' for Active; 'I' for Inactive)
REMARK    1  A    between atoms: C4_6  and  N2_7 
REMARK    2  A    between atoms: N2_7  and  C5_9 
REMARK    3  A    between atoms: C5_9  and  C6_10 
REMARK    4  A    between atoms: C11_16  and  N3_17 
REMARK    5  A    between atoms: N3_17  and  C12_19 
ROOT
HETATM    1  C12 UNL     1      -0.941   1.291  82.472  1.00  0.00     0.071 A 
HETATM    2  C13 UNL     1      -0.909  -0.087  82.533  1.00  0.00     0.118 A 
HETATM    3  N4  UNL     1      -1.270  -0.559  81.342  1.00  0.00    -0.371 N 
ATOM      4  H4  UNL     1      -1.335  -1.547  81.098  1.00  0.00     0.164 HD
HETATM    5  C14 UNL     1      -1.535   0.463  80.506  1.00  0.00     0.112 A 
HETATM    6  C15 UNL     1      -1.338   1.627  81.187  1.00  0.00     0.088 A 
HETATM    7  C16 UNL     1      -1.505   2.967  80.682  1.00  0.00     0.103 C 
HETATM    8  N5  UNL     1      -1.645   4.054  80.285  1.00  0.00    -0.191 NA
ENDROOT
BRANCH   1   9
HETATM    9  N3  UNL     1      -0.627   2.175  83.525  1.00  0.00    -0.337 N 
ATOM     10  H3  UNL     1       0.274   2.653  83.545  1.00  0.00     0.167 HD
BRANCH   9  11
HETATM   11  C11 UNL     1      -1.502   2.375  84.473  1.00  0.00     0.150 A 
HETATM   12  C4  UNL     1      -2.202   3.584  84.427  1.00  0.00     0.146 A 
HETATM   13  N1  UNL     1      -3.101   3.802  85.390  1.00  0.00    -0.348 N 
HETATM   14  C3  UNL     1      -3.343   2.899  86.388  1.00  0.00     0.114 A 
ATOM     15  H1  UNL     1      -3.627   4.676  85.381  1.00  0.00     0.167 HD
HETATM   16  C2  UNL     1      -2.638   1.714  86.410  1.00  0.00     0.022 A 
HETATM   17  C1  UNL     1      -2.919   0.747  87.506  1.00  0.00     0.069 C 
HETATM   18  N6  UNL     1      -1.726   1.476  85.445  1.00  0.00    -0.342 N 
ATOM     19  H6  UNL     1      -1.200   0.602  85.453  1.00  0.00     0.167 HD
BRANCH  12  20
HETATM   20  N2  UNL     1      -1.979   4.434  83.494  1.00  0.00    -0.373 N 
ATOM     21  H2  UNL     1      -2.099   4.112  82.534  1.00  0.00     0.161 HD
BRANCH  20  22
HETATM   22  C5  UNL     1      -1.572   5.802  83.679  1.00  0.00     0.126 C 
BRANCH  22  23
HETATM   23  C6  UNL     1      -0.175   6.084  83.183  1.00  0.00     0.007 C 
HETATM   24  C7  UNL     1       0.901   6.073  84.225  1.00  0.00     0.031 C 
HETATM   25  C8  UNL     1       1.392   7.395  83.685  1.00  0.00     0.034 C 
HETATM   26  C9  UNL     1       2.428   7.290  82.598  1.00  0.00     0.032 C 
HETATM   27 CL1  UNL     1       1.783   8.540  84.981  1.00  0.00    -0.120 Cl
HETATM   28  C10 UNL     1       0.012   7.604  83.095  1.00  0.00     0.031 C 
ENDBRANCH  22  23
ENDBRANCH  20  22
ENDBRANCH  12  20
ENDBRANCH   9  11
ENDBRANCH   1   9
TORSDOF 5
ENDMDL
MODEL 3
REMARK VINA RESULT: -7.237208506      2.250      5.750
REMARK  5 active torsions:
REMARK  status: ('A' for Active; 'I' for Inactive)
REMARK    1  A    between atoms: C4_6  and  N2_7 
REMARK    2  A    between atoms: N2_7  and  C5_9 
REMARK    3  A    between atoms: C5_9  and  C6_10 
REMARK    4  A    between atoms: C11_16  and  N3_17 
REMARK    5  A    between atoms: N3_17  and  C12_19 
ROOT
HETATM    1  C12 UNL     1      -0.762   4.370  84.747  1.00  0.00     0.071 A 
HETATM    2  C13 UNL     1      -1.676   5.297  84.290  1.00  0.00     0.118 A 
HETATM    3  N4  UNL     1      -2.896   4.813  84.510  1.00  0.00    -0.371 N 
ATOM      4  H4  UNL     1      -3.766   5.288  84.271  1.00  0.00     0.164 HD
HETATM    5  C14 UNL     1      -2.810   3.604  85.095  1.00  0.00     0.112 A 
HETATM    6  C15 UNL     1      -1.490   3.304  85.254  1.00  0.00     0.088 A 
HETATM    7  C16 UNL     1      -0.935   2.108  85.837  1.00  0.00     0.103 C 
HETATM    8  N5  UNL     1      -0.478   1.141  86.300  1.00  0.00    -0.191 NA
ENDROOT
BRANCH   1   9
HETATM    9  N3  UNL     1       0.642   4.496  84.701  1.00  0.00    -0.337 N 
ATOM     10  H3  UNL     1       1.232   3.907  85.290  1.00  0.00     0.167 HD
BRANCH   9  11
HETATM   11  C11 UNL     1       1.177   5.375  83.898  1.00  0.00     0.150 A 
HETATM   12  C4  UNL     1       1.738   4.878  82.718  1.00  0.00     0.146 A 
HETATM   13  N1  UNL     1       2.290   5.765  81.887  1.00  0.00    -0.348 N 
HETATM   14  C3  UNL     1       2.317   7.106  82.156  1.00  0.00     0.114 A 
ATOM     15  H1  UNL     1       2.706   5.430  81.018  1.00  0.00     0.167 HD
HETATM   16  C2  UNL     1       1.757   7.570  83.328  1.00  0.00     0.022 A 
HETATM   17  C1  UNL     1       1.800   9.033  83.597  1.00  0.00     0.069 C 
HETATM   18  N6  UNL     1       1.195   6.688  84.179  1.00  0.00    -0.342 N 
ATOM     19  H6  UNL     1       0.778   7.023  85.048  1.00  0.00     0.167 HD
BRANCH  12  20
HETATM   20  N2  UNL     1       1.715   3.622  82.462  1.00  0.00    -0.373 N 
ATOM     21  H2  UNL     1       1.557   2.990  83.247  1.00  0.00     0.161 HD
BRANCH  20  22
HETATM   22  C5  UNL     1       1.891   3.023  81.166  1.00  0.00     0.126 C 
BRANCH  22  23
HETATM   23  C6  UNL     1       0.664   2.298  80.669  1.00  0.00     0.007 C 
HETATM   24  C7  UNL     1      -0.535   2.357  81.564  1.00  0.00     0.031 C 
HETATM   25  C8  UNL     1      -0.675   0.860  81.422  1.00  0.00     0.034 C 
HETATM   26  C9  UNL     1      -1.540   0.410  80.275  1.00  0.00     0.032 C 
HETATM   27 CL1  UNL     1      -1.023   0.074  82.972  1.00  0.00    -0.120 Cl
HETATM   28  C10 UNL     1       0.792   0.815  81.041  1.00  0.00     0.031 C 
ENDBRANCH  22  23
ENDBRANCH  20  22
ENDBRANCH  12  20
ENDBRANCH   9  11
ENDBRANCH   1   9
TORSDOF 5
ENDMDL
MODEL 4
REMARK VINA RESULT: -7.232042633      2.297      5.233
REMARK  5 active torsions:
REMARK  status: ('A' for Active; 'I' for Inactive)
REMARK    1  A    between atoms: C4_6  and  N2_7 
REMARK    2  A    between atoms: N2_7  and  C5_9 
REMARK    3  A    between atoms: C5_9  and  C6_10 
REMARK    4  A    between atoms: C11_16  and  N3_17 
REMARK    5  A    between atoms: N3_17  and  C12_19 
ROOT
HETATM    1  C12 UNL     1      -1.250   1.528  81.870  1.00  0.00     0.071 A 
HETATM    2  C13 UNL     1      -1.072   1.269  80.527  1.00  0.00     0.118 A 
HETATM    3  N4  UNL     1      -0.864  -0.038  80.386  1.00  0.00    -0.371 N 
ATOM      4  H4  UNL     1      -0.701  -0.512  79.498  1.00  0.00     0.164 HD
HETATM    5  C14 UNL     1      -0.902  -0.640  81.589  1.00  0.00     0.112 A 
HETATM    6  C15 UNL     1      -1.141   0.315  82.532  1.00  0.00     0.088 A 
HETATM    7  C16 UNL     1      -1.262   0.120  83.955  1.00  0.00     0.103 C 
HETATM    8  N5  UNL     1      -1.353  -0.028  85.108  1.00  0.00    -0.191 NA
ENDROOT
BRANCH   1   9
HETATM    9  N3  UNL     1      -1.497   2.792  82.445  1.00  0.00    -0.337 N 
ATOM     10  H3  UNL     1      -2.428   3.030  82.789  1.00  0.00     0.167 HD
BRANCH   9  11
HETATM   11  C11 UNL     1      -0.521   3.655  82.533  1.00  0.00     0.150 A 
HETATM   12  C4  UNL     1      -0.807   4.852  83.195  1.00  0.00     0.146 A 
HETATM   13  N1  UNL     1       0.182   5.744  83.293  1.00  0.00    -0.348 N 
HETATM   14  C3  UNL     1       1.427   5.519  82.775  1.00  0.00     0.114 A 
ATOM     15  H1  UNL     1       0.001   6.626  83.772  1.00  0.00     0.167 HD
HETATM   16  C2  UNL     1       1.684   4.330  82.126  1.00  0.00     0.022 A 
HETATM   17  C1  UNL     1       3.047   4.109  81.571  1.00  0.00     0.069 C 
HETATM   18  N6  UNL     1       0.696   3.417  82.018  1.00  0.00    -0.342 N 
ATOM     19  H6  UNL     1       0.877   2.535  81.540  1.00  0.00     0.167 HD
BRANCH  12  20
HETATM   20  N2  UNL     1      -1.974   5.067  83.682  1.00  0.00    -0.373 N 
ATOM     21  H2  UNL     1      -2.723   5.268  83.021  1.00  0.00     0.161 HD
BRANCH  20  22
HETATM   22  C5  UNL     1      -2.320   5.051  85.078  1.00  0.00     0.126 C 
BRANCH  22  23
HETATM   23  C6  UNL     1      -3.160   3.861  85.474  1.00  0.00     0.007 C 
HETATM   24  C7  UNL     1      -3.942   4.008  86.743  1.00  0.00     0.031 C 
HETATM   25  C8  UNL     1      -3.410   2.666  87.187  1.00  0.00     0.034 C 
HETATM   26  C9  UNL     1      -4.257   1.486  86.789  1.00  0.00     0.032 C 
HETATM   27 CL1  UNL     1      -2.901   2.680  88.885  1.00  0.00    -0.120 Cl
HETATM   28  C10 UNL     1      -2.264   2.859  86.214  1.00  0.00     0.031 C 
ENDBRANCH  22  23
ENDBRANCH  20  22
ENDBRANCH  12  20
ENDBRANCH   9  11
ENDBRANCH   1   9
TORSDOF 5
ENDMDL
MODEL 5
REMARK VINA RESULT: -7.229467573      2.480      5.459
REMARK  5 active torsions:
REMARK  status: ('A' for Active; 'I' for Inactive)
REMARK    1  A    between atoms: C4_6  and  N2_7 
REMARK    2  A    between atoms: N2_7  and  C5_9 
REMARK    3  A    between atoms: C5_9  and  C6_10 
REMARK    4  A    between atoms: C11_16  and  N3_17 
REMARK    5  A    between atoms: N3_17  and  C12_19 
ROOT
HETATM    1  C12 UNL     1      -0.180   1.536  81.306  1.00  0.00     0.071 A 
HETATM    2  C13 UNL     1      -1.224   2.370  80.962  1.00  0.00     0.118 A 
HETATM    3  N4  UNL     1      -2.226   1.611  80.523  1.00  0.00    -0.371 N 
ATOM      4  H4  UNL     1      -3.127   1.961  80.200  1.00  0.00     0.164 HD
HETATM    5  C14 UNL     1      -1.872   0.313  80.570  1.00  0.00     0.112 A 
HETATM    6  C15 UNL     1      -0.600   0.239  81.055  1.00  0.00     0.088 A 
HETATM    7  C16 UNL     1       0.179  -0.954  81.272  1.00  0.00     0.103 C 
HETATM    8  N5  UNL     1       0.818  -1.913  81.444  1.00  0.00    -0.191 NA
ENDROOT
BRANCH   1   9
HETATM    9  N3  UNL     1       1.071   1.942  81.816  1.00  0.00    -0.337 N 
ATOM     10  H3  UNL     1       1.526   1.404  82.554  1.00  0.00     0.167 HD
BRANCH   9  11
HETATM   11  C11 UNL     1       1.640   3.013  81.334  1.00  0.00     0.150 A 
HETATM   12  C4  UNL     1       1.598   4.155  82.138  1.00  0.00     0.146 A 
HETATM   13  N1  UNL     1       2.176   5.259  81.658  1.00  0.00    -0.348 N 
HETATM   14  C3  UNL     1       2.788   5.295  80.436  1.00  0.00     0.114 A 
ATOM     15  H1  UNL     1       2.160   6.107  82.224  1.00  0.00     0.167 HD
HETATM   16  C2  UNL     1       2.816   4.154  79.661  1.00  0.00     0.022 A 
HETATM   17  C1  UNL     1       3.488   4.219  78.335  1.00  0.00     0.069 C 
HETATM   18  N6  UNL     1       2.237   3.030  80.131  1.00  0.00    -0.342 N 
ATOM     19  H6  UNL     1       2.252   2.182  79.564  1.00  0.00     0.167 HD
BRANCH  12  20
HETATM   20  N2  UNL     1       1.025   4.126  83.285  1.00  0.00    -0.373 N 
ATOM     21  H2  UNL     1       1.376   3.450  83.962  1.00  0.00     0.161 HD
BRANCH  20  22
HETATM   22  C5  UNL     1      -0.070   4.962  83.702  1.00  0.00     0.126 C 
BRANCH  22  23
HETATM   23  C6  UNL     1      -0.926   4.336  84.775  1.00  0.00     0.007 C 
HETATM   24  C7  UNL     1      -0.340   3.142  85.464  1.00  0.00     0.031 C 
HETATM   25  C8  UNL     1      -1.641   2.411  85.235  1.00  0.00     0.034 C 
HETATM   26  C9  UNL     1      -2.655   2.562  86.338  1.00  0.00     0.032 C 
HETATM   27 CL1  UNL     1      -1.382   0.747  84.683  1.00  0.00    -0.120 Cl
HETATM   28  C10 UNL     1      -1.924   3.382  84.106  1.00  0.00     0.031 C 
ENDBRANCH  22  23
ENDBRANCH  20  22
ENDBRANCH  12  20
ENDBRANCH   9  11
ENDBRANCH   1   9
TORSDOF 5
ENDMDL
