MODEL 1
REMARK VINA RESULT: -6.658914876      0.000      0.000
REMARK  5 active torsions:
REMARK  status: ('A' for Active; 'I' for Inactive)
REMARK    1  A    between atoms: N1_2  and  C2_3 
REMARK    2  A    between atoms: N1_2  and  C7_8 
REMARK    3  A    between atoms: C10_11  and  N2_12 
REMARK    4  A    between atoms: N2_12  and  C11_14 
REMARK    5  A    between atoms: C14_20  and  N4_21 
ROOT
HETATM    1  N2  UNL     1      -1.450   3.251  82.293  1.00  0.00    -0.371 N 
ATOM      2  H2  UNL     1      -1.881   2.670  81.575  1.00  0.00     0.161 HD
ENDROOT
BRANCH   1   3
HETATM    3  C10 UNL     1      -0.607   4.294  81.796  1.00  0.00     0.083 C 
HETATM    4  C9  UNL     1      -1.363   5.513  81.356  1.00  0.00     0.027 C 
HETATM    5  C8  UNL     1      -1.499   6.606  82.335  1.00  0.00     0.027 C 
HETATM    6  C7  UNL     1      -0.350   6.851  83.258  1.00  0.00     0.079 C 
HETATM    7  C16 UNL     1       0.324   5.598  83.746  1.00  0.00     0.027 C 
HETATM    8  C15 UNL     1       0.531   4.546  82.736  1.00  0.00     0.027 C 
BRANCH   6   9
HETATM    9  N1  UNL     1       0.559   7.872  82.850  1.00  0.00    -0.408 N 
HETATM   10  C1  UNL     1       0.285   8.588  81.679  1.00  0.00     0.144 C 
BRANCH   9  11
HETATM   11  C2  UNL     1       1.423   8.399  83.820  1.00  0.00     0.079 C 
HETATM   12  C3  UNL     1       2.112   9.684  83.473  1.00  0.00     0.025 C 
HETATM   13  C4  UNL     1       2.732  10.087  84.797  1.00  0.00     0.002 C 
HETATM   14  C5  UNL     1       1.985   9.359  85.878  1.00  0.00     0.002 C 
HETATM   15  C6  UNL     1       0.795   8.712  85.155  1.00  0.00     0.025 C 
ENDBRANCH   9  11
ENDBRANCH   6   9
ENDBRANCH   1   3
BRANCH   1  16
HETATM   16  C11 UNL     1      -1.743   2.936  83.477  1.00  0.00     0.120 A 
HETATM   17  C12 UNL     1      -2.557   3.674  84.313  1.00  0.00     0.091 A 
HETATM   18  C13 UNL     1      -2.806   3.226  85.589  1.00  0.00     0.122 A 
HETATM   19 CL1  UNL     1      -3.839   4.180  86.629  1.00  0.00    -0.064 Cl
HETATM   20  N3  UNL     1      -2.255   2.063  86.023  1.00  0.00    -0.181 N 
HETATM   21  C14 UNL     1      -1.459   1.356  85.179  1.00  0.00     0.678 A 
ATOM     22  H3  UNL     1      -2.436   1.726  86.968  1.00  0.00     0.185 HD
HETATM   23  N5  UNL     1      -1.193   1.763  83.928  1.00  0.00    -0.177 N 
ATOM     24  H5  UNL     1      -0.590   1.208  83.322  1.00  0.00     0.185 HD
BRANCH  21  25
HETATM   25  N4  UNL     1      -0.968   0.251  85.667  1.00  0.00    -0.234 N 
ATOM     26  H42 UNL     1      -1.566  -0.496  86.021  1.00  0.00     0.174 HD
ATOM     27  H41 UNL     1       0.050   0.187  85.669  1.00  0.00     0.174 HD
ENDBRANCH  21  25
ENDBRANCH   1  16
TORSDOF 5
ENDMDL
MODEL 2
REMARK VINA RESULT: -6.601238338      2.272      4.188
REMARK  5 active torsions:
REMARK  status: ('A' for Active; 'I' for Inactive)
REMARK    1  A    between atoms: N1_2  and  C2_3 
REMARK    2  A    between atoms: N1_2  and  C7_8 
REMARK    3  A    between atoms: C10_11  and  N2_12 
REMARK    4  A    between atoms: N2_12  and  C11_14 
REMARK    5  A    between atoms: C14_20  and  N4_21 
ROOT
HETATM    1  N2  UNL     1      -0.218   4.421  84.935  1.00  0.00    -0.371 N 
ATOM      2  H2  UNL     1       0.764   4.491  85.201  1.00  0.00     0.161 HD
ENDROOT
BRANCH   1   3
HETATM    3  C10 UNL     1      -0.823   5.653  84.535  1.00  0.00     0.083 C 
HETATM    4  C9  UNL     1       0.171   6.706  84.143  1.00  0.00     0.027 C 
HETATM    5  C8  UNL     1       0.483   6.831  82.709  1.00  0.00     0.027 C 
HETATM    6  C7  UNL     1      -0.626   6.591  81.739  1.00  0.00     0.079 C 
HETATM    7  C16 UNL     1      -1.549   5.468  82.126  1.00  0.00     0.027 C 
HETATM    8  C15 UNL     1      -1.923   5.405  83.548  1.00  0.00     0.027 C 
BRANCH   6   9
HETATM    9  N1  UNL     1      -1.304   7.760  81.279  1.00  0.00    -0.408 N 
HETATM   10  C1  UNL     1      -0.568   8.937  81.097  1.00  0.00     0.144 C 
BRANCH   9  11
HETATM   11  C2  UNL     1      -2.538   7.586  80.636  1.00  0.00     0.079 C 
HETATM   12  C3  UNL     1      -3.495   8.737  80.706  1.00  0.00     0.025 C 
HETATM   13  C4  UNL     1      -4.570   8.324  79.720  1.00  0.00     0.002 C 
HETATM   14  C5  UNL     1      -3.965   7.298  78.805  1.00  0.00     0.002 C 
HETATM   15  C6  UNL     1      -2.470   7.304  79.157  1.00  0.00     0.025 C 
ENDBRANCH   9  11
ENDBRANCH   6   9
ENDBRANCH   1   3
BRANCH   1  16
HETATM   16  C11 UNL     1      -0.705   3.262  85.011  1.00  0.00     0.120 A 
HETATM   17  C12 UNL     1      -1.347   2.746  86.118  1.00  0.00     0.091 A 
HETATM   18  C13 UNL     1      -1.839   1.462  86.083  1.00  0.00     0.122 A 
HETATM   19 CL1  UNL     1      -2.648   0.831  87.500  1.00  0.00    -0.064 Cl
HETATM   20  N3  UNL     1      -1.693   0.707  84.963  1.00  0.00    -0.181 N 
HETATM   21  C14 UNL     1      -1.059   1.240  83.888  1.00  0.00     0.678 A 
ATOM     22  H3  UNL     1      -2.056  -0.246  84.931  1.00  0.00     0.185 HD
HETATM   23  N5  UNL     1      -0.565   2.488  83.887  1.00  0.00    -0.177 N 
ATOM     24  H5  UNL     1      -0.093   2.856  83.061  1.00  0.00     0.185 HD
BRANCH  21  25
HETATM   25  N4  UNL     1      -0.959   0.455  82.851  1.00  0.00    -0.234 N 
ATOM     26  H42 UNL     1      -1.775   0.014  82.427  1.00  0.00     0.174 HD
ATOM     27  H41 UNL     1      -0.013   0.316  82.496  1.00  0.00     0.174 HD
ENDBRANCH  21  25
ENDBRANCH   1  16
TORSDOF 5
ENDMDL
MODEL 3
REMARK VINA RESULT: -6.587374975      3.048      6.449
REMARK  5 active torsions:
REMARK  status: ('A' for Active; 'I' for Inactive)
REMARK    1  A    between atoms: N1_2  and  C2_3 
REMARK    2  A    between atoms: N1_2  and  C7_8 
REMARK    3  A    between atoms: C10_11  and  N2_12 
REMARK    4  A    between atoms: N2_12  and  C11_14 
REMARK    5  A    between atoms: C14_20  and  N4_21 
ROOT
HETATM    1  N2  UNL     1       0.746   6.719  81.960  1.00  0.00    -0.371 N 
ATOM      2  H2  UNL     1       0.803   7.540  81.356  1.00  0.00     0.161 HD
ENDROOT
BRANCH   1   3
HETATM    3  C10 UNL     1      -0.324   6.744  82.909  1.00  0.00     0.083 C 
HETATM    4  C9  UNL     1      -1.572   6.073  82.417  1.00  0.00     0.027 C 
HETATM    5  C8  UNL     1      -1.769   4.664  82.798  1.00  0.00     0.027 C 
HETATM    6  C7  UNL     1      -1.295   4.243  84.150  1.00  0.00     0.079 C 
HETATM    7  C16 UNL     1       0.007   4.872  84.568  1.00  0.00     0.027 C 
HETATM    8  C15 UNL     1       0.157   6.303  84.257  1.00  0.00     0.027 C 
BRANCH   6   9
HETATM    9  N1  UNL     1      -2.287   4.239  85.176  1.00  0.00    -0.408 N 
HETATM   10  C1  UNL     1      -3.079   5.380  85.350  1.00  0.00     0.144 C 
BRANCH   9  11
HETATM   11  C2  UNL     1      -2.713   2.996  85.664  1.00  0.00     0.079 C 
HETATM   12  C3  UNL     1      -1.678   2.160  86.355  1.00  0.00     0.025 C 
HETATM   13  C4  UNL     1      -2.512   1.051  86.965  1.00  0.00     0.002 C 
HETATM   14  C5  UNL     1      -3.926   1.550  87.046  1.00  0.00     0.002 C 
HETATM   15  C6  UNL     1      -3.830   3.037  86.675  1.00  0.00     0.025 C 
ENDBRANCH   9  11
ENDBRANCH   6   9
ENDBRANCH   1   3
BRANCH   1  16
HETATM   16  C11 UNL     1       1.630   5.847  81.752  1.00  0.00     0.120 A 
HETATM   17  C12 UNL     1       1.382   4.554  81.338  1.00  0.00     0.091 A 
HETATM   18  C13 UNL     1       2.433   3.689  81.142  1.00  0.00     0.122 A 
HETATM   19 CL1  UNL     1       2.092   2.055  80.619  1.00  0.00    -0.064 Cl
HETATM   20  N3  UNL     1       3.708   4.106  81.355  1.00  0.00    -0.181 N 
HETATM   21  C14 UNL     1       3.923   5.383  81.761  1.00  0.00     0.678 A 
ATOM     22  H3  UNL     1       4.491   3.468  81.212  1.00  0.00     0.185 HD
HETATM   23  N5  UNL     1       2.923   6.255  81.963  1.00  0.00    -0.177 N 
ATOM     24  H5  UNL     1       3.122   7.207  82.269  1.00  0.00     0.185 HD
BRANCH  21  25
HETATM   25  N4  UNL     1       5.173   5.710  81.942  1.00  0.00    -0.234 N 
ATOM     26  H42 UNL     1       5.838   5.078  82.389  1.00  0.00     0.174 HD
ATOM     27  H41 UNL     1       5.437   6.637  81.607  1.00  0.00     0.174 HD
ENDBRANCH  21  25
ENDBRANCH   1  16
TORSDOF 5
ENDMDL
MODEL 4
REMARK VINA RESULT: -6.557539448      4.927      7.797
REMARK  5 active torsions:
REMARK  status: ('A' for Active; 'I' for Inactive)
REMARK    1  A    between atoms: N1_2  and  C2_3 
REMARK    2  A    between atoms: N1_2  and  C7_8 
REMARK    3  A    between atoms: C10_11  and  N2_12 
REMARK    4  A    between atoms: N2_12  and  C11_14 
REMARK    5  A    between atoms: C14_20  and  N4_21 
ROOT
HETATM    1  N2  UNL     1       3.062   3.779  80.383  1.00  0.00    -0.371 N 
ATOM      2  H2  UNL     1       2.460   3.925  79.573  1.00  0.00     0.161 HD
ENDROOT
BRANCH   1   3
HETATM    3  C10 UNL     1       2.438   3.116  81.486  1.00  0.00     0.083 C 
HETATM    4  C9  UNL     1       1.477   3.987  82.240  1.00  0.00     0.027 C 
HETATM    5  C8  UNL     1       0.055   3.893  81.867  1.00  0.00     0.027 C 
HETATM    6  C7  UNL     1      -0.464   2.554  81.460  1.00  0.00     0.079 C 
HETATM    7  C16 UNL     1       0.498   1.749  80.630  1.00  0.00     0.027 C 
HETATM    8  C15 UNL     1       1.904   1.781  81.064  1.00  0.00     0.027 C 
BRANCH   6   9
HETATM    9  N1  UNL     1      -1.102   1.802  82.491  1.00  0.00    -0.408 N 
HETATM   10  C1  UNL     1      -1.190   0.412  82.355  1.00  0.00     0.144 C 
BRANCH   9  11
HETATM   11  C2  UNL     1      -1.223   2.402  83.753  1.00  0.00     0.079 C 
HETATM   12  C3  UNL     1      -2.474   3.192  83.998  1.00  0.00     0.025 C 
HETATM   13  C4  UNL     1      -2.399   3.462  85.489  1.00  0.00     0.002 C 
HETATM   14  C5  UNL     1      -1.467   2.443  86.079  1.00  0.00     0.002 C 
HETATM   15  C6  UNL     1      -1.192   1.461  84.930  1.00  0.00     0.025 C 
ENDBRANCH   9  11
ENDBRANCH   6   9
ENDBRANCH   1   3
BRANCH   1  16
HETATM   16  C11 UNL     1       4.237   4.212  80.253  1.00  0.00     0.120 A 
HETATM   17  C12 UNL     1       4.916   4.308  79.056  1.00  0.00     0.091 A 
HETATM   18  C13 UNL     1       6.201   4.799  79.039  1.00  0.00     0.122 A 
HETATM   19 CL1  UNL     1       7.041   4.909  77.508  1.00  0.00    -0.064 Cl
HETATM   20  N3  UNL     1       6.797   5.189  80.195  1.00  0.00    -0.181 N 
HETATM   21  C14 UNL     1       6.105   5.086  81.359  1.00  0.00     0.678 A 
ATOM     22  H3  UNL     1       7.749   5.554  80.189  1.00  0.00     0.185 HD
HETATM   23  N5  UNL     1       4.851   4.610  81.414  1.00  0.00    -0.177 N 
ATOM     24  H5  UNL     1       4.362   4.545  82.306  1.00  0.00     0.185 HD
BRANCH  21  25
HETATM   25  N4  UNL     1       6.743   5.481  82.426  1.00  0.00    -0.234 N 
ATOM     26  H42 UNL     1       7.731   5.277  82.572  1.00  0.00     0.174 HD
ATOM     27  H41 UNL     1       6.185   6.006  83.100  1.00  0.00     0.174 HD
ENDBRANCH  21  25
ENDBRANCH   1  16
TORSDOF 5
ENDMDL
MODEL 5
REMARK VINA RESULT: -6.552483513      4.088      7.291
REMARK  5 active torsions:
REMARK  status: ('A' for Active; 'I' for Inactive)
REMARK    1  A    between atoms: N1_2  and  C2_3 
REMARK    2  A    between atoms: N1_2  and  C7_8 
REMARK    3  A    between atoms: C10_11  and  N2_12 
REMARK    4  A    between atoms: N2_12  and  C11_14 
REMARK    5  A    between atoms: C14_20  and  N4_21 
ROOT
HETATM    1  N2  UNL     1       2.313   3.996  82.245  1.00  0.00    -0.371 N 
ATOM      2  H2  UNL     1       2.745   3.450  82.991  1.00  0.00     0.161 HD
ENDROOT
BRANCH   1   3
HETATM    3  C10 UNL     1       0.972   4.417  82.507  1.00  0.00     0.083 C 
HETATM    4  C9  UNL     1      -0.058   3.391  82.135  1.00  0.00     0.027 C 
HETATM    5  C8  UNL     1      -0.531   2.499  83.208  1.00  0.00     0.027 C 
HETATM    6  C7  UNL     1      -0.652   3.075  84.580  1.00  0.00     0.079 C 
HETATM    7  C16 UNL     1       0.451   4.031  84.945  1.00  0.00     0.027 C 
HETATM    8  C15 UNL     1       0.855   4.976  83.891  1.00  0.00     0.027 C 
BRANCH   6   9
HETATM    9  N1  UNL     1      -1.954   3.533  84.942  1.00  0.00    -0.408 N 
HETATM   10  C1  UNL     1      -2.504   4.615  84.244  1.00  0.00     0.144 C 
BRANCH   9  11
HETATM   11  C2  UNL     1      -2.780   2.651  85.653  1.00  0.00     0.079 C 
HETATM   12  C3  UNL     1      -2.095   1.527  86.369  1.00  0.00     0.025 C 
HETATM   13  C4  UNL     1      -3.214   0.954  87.217  1.00  0.00     0.002 C 
HETATM   14  C5  UNL     1      -4.265   2.019  87.346  1.00  0.00     0.002 C 
HETATM   15  C6  UNL     1      -3.617   3.273  86.741  1.00  0.00     0.025 C 
ENDBRANCH   9  11
ENDBRANCH   6   9
ENDBRANCH   1   3
BRANCH   1  16
HETATM   16  C11 UNL     1       3.047   4.192  81.241  1.00  0.00     0.120 A 
HETATM   17  C12 UNL     1       2.661   3.999  79.930  1.00  0.00     0.091 A 
HETATM   18  C13 UNL     1       3.553   4.247  78.914  1.00  0.00     0.122 A 
HETATM   19 CL1  UNL     1       3.040   3.993  77.261  1.00  0.00    -0.064 Cl
HETATM   20  N3  UNL     1       4.808   4.681  79.200  1.00  0.00    -0.181 N 
HETATM   21  C14 UNL     1       5.161   4.864  80.498  1.00  0.00     0.678 A 
ATOM     22  H3  UNL     1       5.474   4.867  78.450  1.00  0.00     0.185 HD
HETATM   23  N5  UNL     1       4.318   4.631  81.515  1.00  0.00    -0.177 N 
ATOM     24  H5  UNL     1       4.617   4.778  82.479  1.00  0.00     0.185 HD
BRANCH  21  25
HETATM   25  N4  UNL     1       6.381   5.284  80.692  1.00  0.00    -0.234 N 
ATOM     26  H42 UNL     1       6.609   6.277  80.745  1.00  0.00     0.174 HD
ATOM     27  H41 UNL     1       7.086   4.553  80.787  1.00  0.00     0.174 HD
ENDBRANCH  21  25
ENDBRANCH   1  16
TORSDOF 5
ENDMDL
