MODEL 1
REMARK VINA RESULT: -7.640502487      0.000      0.000
REMARK  5 active torsions:
REMARK  status: ('A' for Active; 'I' for Inactive)
REMARK    1  A    between atoms: C6_6  and  C7_7 
REMARK    2  A    between atoms: C7_7  and  N1_8 
REMARK    3  A    between atoms: N1_8  and  C8_10 
REMARK    4  A    between atoms: C10_12  and  N2_13 
REMARK    5  A    between atoms: C16_21  and  N4_22 
ROOT
HETATM    1  C1  UNL     1      -4.291   7.896  81.703  1.00  0.00     0.012 C 
HETATM    2  C2  UNL     1      -3.149   7.729  81.316  1.00  0.00    -0.113 C 
HETATM    3  C3  UNL     1      -1.764   7.513  80.857  1.00  0.00     0.064 C 
HETATM    4  C4  UNL     1      -0.782   7.566  81.982  1.00  0.00     0.017 C 
HETATM    5  C5  UNL     1      -0.000   6.277  82.160  1.00  0.00     0.007 C 
HETATM    6  C6  UNL     1       0.561   5.773  80.877  1.00  0.00     0.003 C 
HETATM    7  C17 UNL     1      -0.379   5.776  79.718  1.00  0.00     0.007 C 
HETATM    8  C18 UNL     1      -1.764   6.230  80.083  1.00  0.00     0.017 C 
ENDROOT
BRANCH   6   9
HETATM    9  C7  UNL     1       1.014   4.319  81.085  1.00  0.00     0.126 C 
BRANCH   9  10
HETATM   10  N1  UNL     1       0.040   3.363  80.733  1.00  0.00    -0.375 N 
ATOM     11  H1  UNL     1      -0.390   3.455  79.813  1.00  0.00     0.161 HD
BRANCH  10  12
HETATM   12  C8  UNL     1      -0.348   2.396  81.459  1.00  0.00     0.120 A 
HETATM   13  C9  UNL     1      -0.749   2.768  82.756  1.00  0.00     0.097 A 
HETATM   14  C10 UNL     1      -1.187   1.789  83.612  1.00  0.00     0.122 A 
HETATM   15  N3  UNL     1      -1.215   0.524  83.180  1.00  0.00    -0.177 N 
HETATM   16  C16 UNL     1      -0.827   0.183  81.932  1.00  0.00     0.679 A 
ATOM     17  H3  UNL     1      -1.541  -0.207  83.813  1.00  0.00     0.185 HD
HETATM   18  N5  UNL     1      -0.391   1.119  81.062  1.00  0.00    -0.177 N 
ATOM     19  H5  UNL     1      -0.100   0.857  80.120  1.00  0.00     0.185 HD
BRANCH  14  20
HETATM   20  N2  UNL     1      -1.588   2.115  84.933  1.00  0.00    -0.367 N 
HETATM   21  C11 UNL     1      -1.553   1.171  86.021  1.00  0.00     0.124 C 
HETATM   22  C12 UNL     1      -2.727   1.190  86.930  1.00  0.00     0.020 C 
HETATM   23  C13 UNL     1      -3.291   2.555  87.181  1.00  0.00     0.003 C 
HETATM   24  C14 UNL     1      -3.309   3.425  85.961  1.00  0.00     0.020 C 
HETATM   25  C15 UNL     1      -2.036   3.459  85.194  1.00  0.00     0.124 C 
ENDBRANCH  14  20
BRANCH  16  26
HETATM   26  N4  UNL     1      -0.865  -1.056  81.534  1.00  0.00    -0.234 N 
ATOM     27  H42 UNL     1      -1.581  -1.324  80.860  1.00  0.00     0.174 HD
ATOM     28  H41 UNL     1      -0.197  -1.740  81.889  1.00  0.00     0.174 HD
ENDBRANCH  16  26
ENDBRANCH  10  12
ENDBRANCH   9  10
ENDBRANCH   6   9
TORSDOF 5
ENDMDL
MODEL 2
REMARK VINA RESULT: -7.509312074      1.413      2.081
REMARK  5 active torsions:
REMARK  status: ('A' for Active; 'I' for Inactive)
REMARK    1  A    between atoms: C6_6  and  C7_7 
REMARK    2  A    between atoms: C7_7  and  N1_8 
REMARK    3  A    between atoms: N1_8  and  C8_10 
REMARK    4  A    between atoms: C10_12  and  N2_13 
REMARK    5  A    between atoms: C16_21  and  N4_22 
ROOT
HETATM    1  C1  UNL     1      -5.612   7.985  78.274  1.00  0.00     0.012 C 
HETATM    2  C2  UNL     1      -4.707   8.269  79.037  1.00  0.00    -0.113 C 
HETATM    3  C3  UNL     1      -3.610   8.596  79.966  1.00  0.00     0.064 C 
HETATM    4  C4  UNL     1      -3.909   8.173  81.367  1.00  0.00     0.017 C 
HETATM    5  C5  UNL     1      -2.912   7.170  81.918  1.00  0.00     0.007 C 
HETATM    6  C6  UNL     1      -1.502   7.589  81.691  1.00  0.00     0.003 C 
HETATM    7  C17 UNL     1      -1.192   8.085  80.318  1.00  0.00     0.007 C 
HETATM    8  C18 UNL     1      -2.363   8.002  79.382  1.00  0.00     0.017 C 
ENDROOT
BRANCH   6   9
HETATM    9  C7  UNL     1      -0.591   6.379  81.951  1.00  0.00     0.126 C 
BRANCH   9  10
HETATM   10  N1  UNL     1      -1.084   5.170  81.420  1.00  0.00    -0.375 N 
ATOM     11  H1  UNL     1      -1.589   5.223  80.535  1.00  0.00     0.161 HD
BRANCH  10  12
HETATM   12  C8  UNL     1      -0.955   4.021  81.945  1.00  0.00     0.120 A 
HETATM   13  C9  UNL     1      -1.452   3.924  83.259  1.00  0.00     0.097 A 
HETATM   14  C10 UNL     1      -1.358   2.718  83.906  1.00  0.00     0.122 A 
HETATM   15  N3  UNL     1      -0.801   1.687  83.265  1.00  0.00    -0.177 N 
HETATM   16  C16 UNL     1      -0.329   1.796  82.004  1.00  0.00     0.679 A 
ATOM     17  H3  UNL     1      -0.729   0.788  83.743  1.00  0.00     0.185 HD
HETATM   18  N5  UNL     1      -0.404   2.965  81.335  1.00  0.00    -0.177 N 
ATOM     19  H5  UNL     1      -0.048   3.043  80.382  1.00  0.00     0.185 HD
BRANCH  14  20
HETATM   20  N2  UNL     1      -1.833   2.577  85.236  1.00  0.00    -0.367 N 
HETATM   21  C11 UNL     1      -1.391   1.530  86.122  1.00  0.00     0.124 C 
HETATM   22  C12 UNL     1      -2.450   0.884  86.937  1.00  0.00     0.020 C 
HETATM   23  C13 UNL     1      -3.522   1.818  87.408  1.00  0.00     0.003 C 
HETATM   24  C14 UNL     1      -3.921   2.833  86.380  1.00  0.00     0.020 C 
HETATM   25  C15 UNL     1      -2.790   3.538  85.720  1.00  0.00     0.124 C 
ENDBRANCH  14  20
BRANCH  16  26
HETATM   26  N4  UNL     1       0.210   0.776  81.400  1.00  0.00    -0.234 N 
ATOM     27  H42 UNL     1      -0.261  -0.127  81.467  1.00  0.00     0.174 HD
ATOM     28  H41 UNL     1       1.078   0.876  80.875  1.00  0.00     0.174 HD
ENDBRANCH  16  26
ENDBRANCH  10  12
ENDBRANCH   9  10
ENDBRANCH   6   9
TORSDOF 5
ENDMDL
MODEL 3
REMARK VINA RESULT: -7.426729099      1.560      2.366
REMARK  5 active torsions:
REMARK  status: ('A' for Active; 'I' for Inactive)
REMARK    1  A    between atoms: C6_6  and  C7_7 
REMARK    2  A    between atoms: C7_7  and  N1_8 
REMARK    3  A    between atoms: N1_8  and  C8_10 
REMARK    4  A    between atoms: C10_12  and  N2_13 
REMARK    5  A    between atoms: C16_21  and  N4_22 
ROOT
HETATM    1  C1  UNL     1       1.356   9.009  85.521  1.00  0.00     0.012 C 
HETATM    2  C2  UNL     1       1.281   8.603  84.376  1.00  0.00    -0.113 C 
HETATM    3  C3  UNL     1       1.198   8.097  82.993  1.00  0.00     0.064 C 
HETATM    4  C4  UNL     1       2.532   7.687  82.460  1.00  0.00     0.017 C 
HETATM    5  C5  UNL     1       2.600   6.223  82.067  1.00  0.00     0.007 C 
HETATM    6  C6  UNL     1       1.446   5.809  81.222  1.00  0.00     0.003 C 
HETATM    7  C17 UNL     1       0.106   6.266  81.693  1.00  0.00     0.007 C 
HETATM    8  C18 UNL     1       0.162   7.013  82.995  1.00  0.00     0.017 C 
ENDROOT
BRANCH   6   9
HETATM    9  C7  UNL     1       1.408   4.273  81.175  1.00  0.00     0.126 C 
BRANCH   9  10
HETATM   10  N1  UNL     1       0.105   3.738  81.101  1.00  0.00    -0.375 N 
ATOM     11  H1  UNL     1      -0.560   4.218  80.495  1.00  0.00     0.161 HD
BRANCH  10  12
HETATM   12  C8  UNL     1      -0.312   2.713  81.723  1.00  0.00     0.120 A 
HETATM   13  C9  UNL     1      -0.753   2.968  83.035  1.00  0.00     0.097 A 
HETATM   14  C10 UNL     1      -1.224   1.918  83.783  1.00  0.00     0.122 A 
HETATM   15  N3  UNL     1      -1.247   0.699  83.236  1.00  0.00    -0.177 N 
HETATM   16  C16 UNL     1      -0.821   0.471  81.974  1.00  0.00     0.679 A 
ATOM     17  H3  UNL     1      -1.597  -0.084  83.788  1.00  0.00     0.185 HD
HETATM   18  N5  UNL     1      -0.351   1.478  81.208  1.00  0.00    -0.177 N 
ATOM     19  H5  UNL     1      -0.032   1.301  80.256  1.00  0.00     0.185 HD
BRANCH  14  20
HETATM   20  N2  UNL     1      -1.666   2.126  85.115  1.00  0.00    -0.367 N 
HETATM   21  C11 UNL     1      -1.648   1.092  86.119  1.00  0.00     0.124 C 
HETATM   22  C12 UNL     1      -2.847   1.020  86.993  1.00  0.00     0.020 C 
HETATM   23  C13 UNL     1      -3.434   2.353  87.344  1.00  0.00     0.003 C 
HETATM   24  C14 UNL     1      -3.430   3.325  86.203  1.00  0.00     0.020 C 
HETATM   25  C15 UNL     1      -2.138   3.437  85.477  1.00  0.00     0.124 C 
ENDBRANCH  14  20
BRANCH  16  26
HETATM   26  N4  UNL     1      -0.853  -0.727  81.463  1.00  0.00    -0.234 N 
ATOM     27  H42 UNL     1      -1.487  -1.409  81.878  1.00  0.00     0.174 HD
ATOM     28  H41 UNL     1      -0.261  -0.975  80.672  1.00  0.00     0.174 HD
ENDBRANCH  16  26
ENDBRANCH  10  12
ENDBRANCH   9  10
ENDBRANCH   6   9
TORSDOF 5
ENDMDL
MODEL 4
REMARK VINA RESULT: -7.423322545      2.936      4.120
REMARK  5 active torsions:
REMARK  status: ('A' for Active; 'I' for Inactive)
REMARK    1  A    between atoms: C6_6  and  C7_7 
REMARK    2  A    between atoms: C7_7  and  N1_8 
REMARK    3  A    between atoms: N1_8  and  C8_10 
REMARK    4  A    between atoms: C10_12  and  N2_13 
REMARK    5  A    between atoms: C16_21  and  N4_22 
ROOT
HETATM    1  C1  UNL     1       4.200  11.484  85.422  1.00  0.00     0.012 C 
HETATM    2  C2  UNL     1       3.236  10.883  84.985  1.00  0.00    -0.113 C 
HETATM    3  C3  UNL     1       2.077  10.142  84.453  1.00  0.00     0.064 C 
HETATM    4  C4  UNL     1       2.355   9.542  83.114  1.00  0.00     0.017 C 
HETATM    5  C5  UNL     1       2.229   8.029  83.094  1.00  0.00     0.007 C 
HETATM    6  C6  UNL     1       0.968   7.557  83.729  1.00  0.00     0.003 C 
HETATM    7  C17 UNL     1       0.628   8.193  85.035  1.00  0.00     0.007 C 
HETATM    8  C18 UNL     1       1.676   9.158  85.512  1.00  0.00     0.017 C 
ENDROOT
BRANCH   6   9
HETATM    9  C7  UNL     1       1.090   6.046  83.981  1.00  0.00     0.126 C 
BRANCH   9  10
HETATM   10  N1  UNL     1       0.756   5.253  82.864  1.00  0.00    -0.375 N 
ATOM     11  H1  UNL     1       0.904   5.664  81.942  1.00  0.00     0.161 HD
BRANCH  10  12
HETATM   12  C8  UNL     1       0.287   4.074  82.904  1.00  0.00     0.120 A 
HETATM   13  C9  UNL     1      -0.654   3.857  83.928  1.00  0.00     0.097 A 
HETATM   14  C10 UNL     1      -1.216   2.611  84.047  1.00  0.00     0.122 A 
HETATM   15  N3  UNL     1      -0.849   1.656  83.187  1.00  0.00    -0.177 N 
HETATM   16  C16 UNL     1       0.056   1.880  82.209  1.00  0.00     0.679 A 
ATOM     17  H3  UNL     1      -1.265   0.728  83.272  1.00  0.00     0.185 HD
HETATM   18  N5  UNL     1       0.630   3.093  82.061  1.00  0.00    -0.177 N 
ATOM     19  H5  UNL     1       1.311   3.258  81.320  1.00  0.00     0.185 HD
BRANCH  14  20
HETATM   20  N2  UNL     1      -2.159   2.342  85.073  1.00  0.00    -0.367 N 
HETATM   21  C11 UNL     1      -3.261   3.221  85.379  1.00  0.00     0.124 C 
HETATM   22  C12 UNL     1      -3.531   3.437  86.822  1.00  0.00     0.020 C 
HETATM   23  C13 UNL     1      -3.318   2.226  87.678  1.00  0.00     0.003 C 
HETATM   24  C14 UNL     1      -2.118   1.420  87.282  1.00  0.00     0.020 C 
HETATM   25  C15 UNL     1      -2.010   1.126  85.829  1.00  0.00     0.124 C 
ENDBRANCH  14  20
BRANCH  16  26
HETATM   26  N4  UNL     1       0.397   0.933  81.383  1.00  0.00    -0.234 N 
ATOM     27  H42 UNL     1       0.453   1.158  80.390  1.00  0.00     0.174 HD
ATOM     28  H41 UNL     1       0.601  -0.007  81.720  1.00  0.00     0.174 HD
ENDBRANCH  16  26
ENDBRANCH  10  12
ENDBRANCH   9  10
ENDBRANCH   6   9
TORSDOF 5
ENDMDL
MODEL 5
REMARK VINA RESULT: -7.313664667      2.243      3.657
REMARK  5 active torsions:
REMARK  status: ('A' for Active; 'I' for Inactive)
REMARK    1  A    between atoms: C6_6  and  C7_7 
REMARK    2  A    between atoms: C7_7  and  N1_8 
REMARK    3  A    between atoms: N1_8  and  C8_10 
REMARK    4  A    between atoms: C10_12  and  N2_13 
REMARK    5  A    between atoms: C16_21  and  N4_22 
ROOT
HETATM    1  C1  UNL     1      -6.066   9.201  77.625  1.00  0.00     0.012 C 
HETATM    2  C2  UNL     1      -5.405   8.447  78.315  1.00  0.00    -0.113 C 
HETATM    3  C3  UNL     1      -4.591   7.544  79.150  1.00  0.00     0.064 C 
HETATM    4  C4  UNL     1      -3.332   7.122  78.465  1.00  0.00     0.017 C 
HETATM    5  C5  UNL     1      -2.075   7.530  79.211  1.00  0.00     0.007 C 
HETATM    6  C6  UNL     1      -2.135   7.180  80.656  1.00  0.00     0.003 C 
HETATM    7  C17 UNL     1      -3.410   7.525  81.350  1.00  0.00     0.007 C 
HETATM    8  C18 UNL     1      -4.389   8.240  80.462  1.00  0.00     0.017 C 
ENDROOT
BRANCH   6   9
HETATM    9  C7  UNL     1      -1.008   7.931  81.383  1.00  0.00     0.126 C 
BRANCH   9  10
HETATM   10  N1  UNL     1      -0.724   7.426  82.669  1.00  0.00    -0.375 N 
ATOM     11  H1  UNL     1      -0.830   8.069  83.454  1.00  0.00     0.161 HD
BRANCH  10  12
HETATM   12  C8  UNL     1      -0.347   6.244  82.936  1.00  0.00     0.120 A 
HETATM   13  C9  UNL     1      -1.268   5.497  83.694  1.00  0.00     0.097 A 
HETATM   14  C10 UNL     1      -0.947   4.206  84.029  1.00  0.00     0.122 A 
HETATM   15  N3  UNL     1       0.226   3.710  83.621  1.00  0.00    -0.177 N 
HETATM   16  C16 UNL     1       1.099   4.440  82.893  1.00  0.00     0.679 A 
ATOM     17  H3  UNL     1       0.469   2.750  83.868  1.00  0.00     0.185 HD
HETATM   18  N5  UNL     1       0.818   5.712  82.544  1.00  0.00    -0.177 N 
ATOM     19  H5  UNL     1       1.479   6.259  81.994  1.00  0.00     0.185 HD
BRANCH  14  20
HETATM   20  N2  UNL     1      -1.838   3.421  84.804  1.00  0.00    -0.367 N 
HETATM   21  C11 UNL     1      -3.139   3.885  85.218  1.00  0.00     0.124 C 
HETATM   22  C12 UNL     1      -3.523   3.565  86.616  1.00  0.00     0.020 C 
HETATM   23  C13 UNL     1      -3.052   2.226  87.094  1.00  0.00     0.003 C 
HETATM   24  C14 UNL     1      -1.670   1.879  86.629  1.00  0.00     0.020 C 
HETATM   25  C15 UNL     1      -1.423   2.093  85.179  1.00  0.00     0.124 C 
ENDBRANCH  14  20
BRANCH  16  26
HETATM   26  N4  UNL     1       2.235   3.933  82.507  1.00  0.00    -0.234 N 
ATOM     27  H42 UNL     1       2.248   3.374  81.655  1.00  0.00     0.174 HD
ATOM     28  H41 UNL     1       3.088   4.091  83.044  1.00  0.00     0.174 HD
ENDBRANCH  16  26
ENDBRANCH  10  12
ENDBRANCH   9  10
ENDBRANCH   6   9
TORSDOF 5
ENDMDL
