MODEL 1
REMARK VINA RESULT: -7.345699007      0.000      0.000
REMARK  10 active torsions:
REMARK  status: ('A' for Active; 'I' for Inactive)
REMARK    1  A    between atoms: C5_8  and  C6_9 
REMARK    2  A    between atoms: C6_9  and  N2_10 
REMARK    3  A    between atoms: N2_10  and  C7_12 
REMARK    4  A    between atoms: C9_18  and  C10_19 
REMARK    5  A    between atoms: C10_19  and  C11_20 
REMARK    6  A    between atoms: C11_20  and  C12_22 
REMARK    7  A    between atoms: C12_22  and  C13_23 
REMARK    8  A    between atoms: C13_23  and  C14_24 
REMARK       I    between atoms: C14_24  and  N5_26 
REMARK    9  A    between atoms: N5_26  and  C15_28 
REMARK   10  A    between atoms: C15_28  and  C16_29 
ROOT
HETATM    1  C7  UNL     1      -2.096   0.762  24.177  1.00  0.00     0.396 C 
HETATM    2  N3  UNL     1      -0.749   0.533  23.656  1.00  0.00    -0.084 NA
HETATM    3  N4  UNL     1      -0.540   1.305  22.480  1.00  0.00    -0.269 N 
ATOM      4  H4  UNL     1       0.350   1.241  21.985  1.00  0.00     0.185 HD
HETATM    5  C8  UNL     1      -1.556   2.161  21.990  1.00  0.00     0.264 C 
HETATM    6  O2  UNL     1      -1.577   2.486  20.798  1.00  0.00    -0.270 OA
HETATM    7  C9  UNL     1      -2.570   2.643  22.933  1.00  0.00     0.289 C 
HETATM    8  N6  UNL     1      -2.288   2.181  24.299  1.00  0.00    -0.025 N 
ATOM      9  H61 UNL     1      -1.511   2.666  24.748  1.00  0.00     0.282 HD
ATOM     10  H62 UNL     1      -2.999   2.445  24.980  1.00  0.00     0.282 HD
ENDROOT
BRANCH   1  11
HETATM   11  N2  UNL     1      -2.267  -0.017  25.343  1.00  0.00    -0.381 N 
ATOM     12  H2  UNL     1      -2.365  -1.031  25.294  1.00  0.00     0.156 HD
BRANCH  11  13
HETATM   13  C6  UNL     1      -2.296   0.671  26.586  1.00  0.00     0.132 C 
BRANCH  13  14
HETATM   14  C5  UNL     1      -3.386   0.137  27.499  1.00  0.00     0.109 C 
HETATM   15  C4  UNL     1      -3.472  -1.303  27.356  1.00  0.00     0.225 C 
HETATM   16  N1  UNL     1      -4.612  -2.102  27.137  1.00  0.00    -0.339 N 
HETATM   17  O1  UNL     1      -2.368  -1.944  27.437  1.00  0.00    -0.273 OA
HETATM   18  C2  UNL     1      -5.940  -1.609  27.419  1.00  0.00     0.129 C 
ATOM     19  H1  UNL     1      -4.498  -3.047  26.771  1.00  0.00     0.164 HD
HETATM   20  C1  UNL     1      -6.159  -1.587  28.896  1.00  0.00     0.055 C 
HETATM   21  C3  UNL     1      -6.964  -2.436  26.684  1.00  0.00     0.055 C 
HETATM   22  S1  UNL     1      -5.992   0.030  26.682  1.00  0.00     0.171 S 
HETATM   23  C17 UNL     1      -4.647   0.917  27.395  1.00  0.00     0.158 C 
HETATM   24  O5  UNL     1      -7.265   0.741  27.003  1.00  0.00    -0.225 OA
HETATM   25  O6  UNL     1      -5.824  -0.173  25.197  1.00  0.00    -0.225 OA
ENDBRANCH  13  14
ENDBRANCH  11  13
ENDBRANCH   1  11
BRANCH   7  26
HETATM   26  C10 UNL     1      -2.920   4.077  22.829  1.00  0.00     0.121 C 
BRANCH  26  27
HETATM   27  C11 UNL     1      -2.979   4.833  24.084  1.00  0.00     0.129 C 
HETATM   28  O3  UNL     1      -3.781   4.646  24.975  1.00  0.00    -0.298 OA
BRANCH  27  29
HETATM   29  C12 UNL     1      -1.975   5.914  24.289  1.00  0.00     0.087 C 
BRANCH  29  30
HETATM   30  C13 UNL     1      -0.619   5.504  23.743  1.00  0.00     0.110 C 
BRANCH  30  31
HETATM   31  C14 UNL     1       0.064   4.670  24.751  1.00  0.00     0.217 C 
HETATM   32  O4  UNL     1       0.580   3.573  24.385  1.00  0.00    -0.274 OA
HETATM   33  N5  UNL     1       0.175   5.029  26.110  1.00  0.00    -0.360 N 
ATOM     34  H5  UNL     1      -0.239   5.916  26.395  1.00  0.00     0.162 HD
BRANCH  33  35
HETATM   35  C15 UNL     1       0.823   4.248  27.128  1.00  0.00     0.137 C 
BRANCH  35  36
HETATM   36  C16 UNL     1      -0.138   3.427  27.920  1.00  0.00     0.134 C 
HETATM   37 CL1  UNL     1      -1.776   4.101  27.744  1.00  0.00    -0.129 Cl
ENDBRANCH  35  36
ENDBRANCH  33  35
ENDBRANCH  30  31
ENDBRANCH  29  30
ENDBRANCH  27  29
ENDBRANCH  26  27
ENDBRANCH   7  26
TORSDOF 10
ENDMDL
MODEL 2
REMARK VINA RESULT: -7.316551361      3.557      5.787
REMARK  10 active torsions:
REMARK  status: ('A' for Active; 'I' for Inactive)
REMARK    1  A    between atoms: C5_8  and  C6_9 
REMARK    2  A    between atoms: C6_9  and  N2_10 
REMARK    3  A    between atoms: N2_10  and  C7_12 
REMARK    4  A    between atoms: C9_18  and  C10_19 
REMARK    5  A    between atoms: C10_19  and  C11_20 
REMARK    6  A    between atoms: C11_20  and  C12_22 
REMARK    7  A    between atoms: C12_22  and  C13_23 
REMARK    8  A    between atoms: C13_23  and  C14_24 
REMARK       I    between atoms: C14_24  and  N5_26 
REMARK    9  A    between atoms: N5_26  and  C15_28 
REMARK   10  A    between atoms: C15_28  and  C16_29 
ROOT
HETATM    1  C7  UNL     1      -6.621  -2.575  26.811  1.00  0.00     0.396 C 
HETATM    2  N3  UNL     1      -7.598  -2.578  25.723  1.00  0.00    -0.084 NA
HETATM    3  N4  UNL     1      -7.519  -1.362  24.989  1.00  0.00    -0.269 N 
ATOM      4  H4  UNL     1      -8.152  -1.204  24.205  1.00  0.00     0.185 HD
HETATM    5  C8  UNL     1      -6.571  -0.371  25.337  1.00  0.00     0.264 C 
HETATM    6  O2  UNL     1      -6.760   0.810  25.027  1.00  0.00    -0.270 OA
HETATM    7  C9  UNL     1      -5.370  -0.787  26.069  1.00  0.00     0.289 C 
HETATM    8  N6  UNL     1      -5.338  -2.245  26.253  1.00  0.00    -0.025 N 
ATOM      9  H61 UNL     1      -5.110  -2.765  25.405  1.00  0.00     0.282 HD
ATOM     10  H62 UNL     1      -4.549  -2.575  26.807  1.00  0.00     0.282 HD
ENDROOT
BRANCH   1  11
HETATM   11  N2  UNL     1      -6.726  -3.795  27.515  1.00  0.00    -0.381 N 
ATOM     12  H2  UNL     1      -7.630  -4.158  27.816  1.00  0.00     0.156 HD
BRANCH  11  13
HETATM   13  C6  UNL     1      -5.519  -4.496  27.785  1.00  0.00     0.132 C 
BRANCH  13  14
HETATM   14  C5  UNL     1      -5.254  -4.605  29.277  1.00  0.00     0.109 C 
HETATM   15  C4  UNL     1      -6.203  -5.527  29.868  1.00  0.00     0.225 C 
HETATM   16  N1  UNL     1      -7.011  -5.350  31.010  1.00  0.00    -0.339 N 
HETATM   17  O1  UNL     1      -6.334  -6.656  29.281  1.00  0.00    -0.273 OA
HETATM   18  C2  UNL     1      -6.705  -4.341  31.996  1.00  0.00     0.129 C 
ATOM     19  H1  UNL     1      -7.827  -5.947  31.142  1.00  0.00     0.164 HD
HETATM   20  C1  UNL     1      -5.534  -4.781  32.812  1.00  0.00     0.055 C 
HETATM   21  C3  UNL     1      -7.927  -4.049  32.831  1.00  0.00     0.055 C 
HETATM   22  S1  UNL     1      -6.374  -2.851  31.048  1.00  0.00     0.171 S 
HETATM   23  C17 UNL     1      -5.087  -3.277  29.923  1.00  0.00     0.158 C 
HETATM   24  O5  UNL     1      -5.905  -1.733  31.919  1.00  0.00    -0.225 OA
HETATM   25  O6  UNL     1      -7.663  -2.507  30.343  1.00  0.00    -0.225 OA
ENDBRANCH  13  14
ENDBRANCH  11  13
ENDBRANCH   1  11
BRANCH   7  26
HETATM   26  C10 UNL     1      -4.094  -0.198  25.606  1.00  0.00     0.121 C 
BRANCH  26  27
HETATM   27  C11 UNL     1      -2.934  -0.365  26.486  1.00  0.00     0.129 C 
HETATM   28  O3  UNL     1      -2.900  -1.074  27.471  1.00  0.00    -0.298 OA
BRANCH  27  29
HETATM   29  C12 UNL     1      -1.694   0.389  26.149  1.00  0.00     0.087 C 
BRANCH  29  30
HETATM   30  C13 UNL     1      -2.025   1.800  25.698  1.00  0.00     0.110 C 
BRANCH  30  31
HETATM   31  C14 UNL     1      -1.334   2.062  24.421  1.00  0.00     0.217 C 
HETATM   32  O4  UNL     1      -2.008   2.496  23.441  1.00  0.00    -0.274 OA
HETATM   33  N5  UNL     1       0.048   1.854  24.227  1.00  0.00    -0.360 N 
ATOM     34  H5  UNL     1       0.585   1.509  25.023  1.00  0.00     0.162 HD
BRANCH  33  35
HETATM   35  C15 UNL     1       0.762   2.088  23.002  1.00  0.00     0.137 C 
BRANCH  35  36
HETATM   36  C16 UNL     1       0.835   0.872  22.140  1.00  0.00     0.134 C 
HETATM   37 CL1  UNL     1       1.032  -0.568  23.166  1.00  0.00    -0.129 Cl
ENDBRANCH  35  36
ENDBRANCH  33  35
ENDBRANCH  30  31
ENDBRANCH  29  30
ENDBRANCH  27  29
ENDBRANCH  26  27
ENDBRANCH   7  26
TORSDOF 10
ENDMDL
MODEL 3
REMARK VINA RESULT: -7.306617721      2.073      3.635
REMARK  10 active torsions:
REMARK  status: ('A' for Active; 'I' for Inactive)
REMARK    1  A    between atoms: C5_8  and  C6_9 
REMARK    2  A    between atoms: C6_9  and  N2_10 
REMARK    3  A    between atoms: N2_10  and  C7_12 
REMARK    4  A    between atoms: C9_18  and  C10_19 
REMARK    5  A    between atoms: C10_19  and  C11_20 
REMARK    6  A    between atoms: C11_20  and  C12_22 
REMARK    7  A    between atoms: C12_22  and  C13_23 
REMARK    8  A    between atoms: C13_23  and  C14_24 
REMARK       I    between atoms: C14_24  and  N5_26 
REMARK    9  A    between atoms: N5_26  and  C15_28 
REMARK   10  A    between atoms: C15_28  and  C16_29 
ROOT
HETATM    1  C7  UNL     1      -0.301   2.960  26.330  1.00  0.00     0.396 C 
HETATM    2  N3  UNL     1       0.502   3.765  27.250  1.00  0.00    -0.084 NA
HETATM    3  N4  UNL     1       0.926   4.963  26.611  1.00  0.00    -0.269 N 
ATOM      4  H4  UNL     1       1.512   5.626  27.119  1.00  0.00     0.185 HD
HETATM    5  C8  UNL     1       0.541   5.245  25.279  1.00  0.00     0.264 C 
HETATM    6  O2  UNL     1       1.214   6.011  24.583  1.00  0.00    -0.270 OA
HETATM    7  C9  UNL     1      -0.672   4.603  24.758  1.00  0.00     0.289 C 
HETATM    8  N6  UNL     1      -1.335   3.800  25.795  1.00  0.00    -0.025 N 
ATOM      9  H61 UNL     1      -1.824   4.355  26.498  1.00  0.00     0.282 HD
ATOM     10  H62 UNL     1      -2.152   3.289  25.462  1.00  0.00     0.282 HD
ENDROOT
BRANCH   1  11
HETATM   11  N2  UNL     1      -0.704   1.782  26.997  1.00  0.00    -0.381 N 
ATOM     12  H2  UNL     1      -0.346   1.547  27.923  1.00  0.00     0.156 HD
BRANCH  11  13
HETATM   13  C6  UNL     1      -1.628   0.937  26.325  1.00  0.00     0.132 C 
BRANCH  13  14
HETATM   14  C5  UNL     1      -3.040   1.110  26.859  1.00  0.00     0.109 C 
HETATM   15  C4  UNL     1      -3.253   0.190  27.959  1.00  0.00     0.225 C 
HETATM   16  N1  UNL     1      -4.324  -0.702  28.168  1.00  0.00    -0.339 N 
HETATM   17  O1  UNL     1      -2.352   0.178  28.867  1.00  0.00    -0.273 OA
HETATM   18  C2  UNL     1      -5.585  -0.535  27.484  1.00  0.00     0.129 C 
ATOM     19  H1  UNL     1      -4.206  -1.482  28.815  1.00  0.00     0.164 HD
HETATM   20  C1  UNL     1      -6.332   0.607  28.090  1.00  0.00     0.055 C 
HETATM   21  C3  UNL     1      -6.362  -1.827  27.511  1.00  0.00     0.055 C 
HETATM   22  S1  UNL     1      -5.145  -0.246  25.765  1.00  0.00     0.171 S 
HETATM   23  C17 UNL     1      -4.058   1.140  25.777  1.00  0.00     0.158 C 
HETATM   24  O5  UNL     1      -6.342   0.084  24.936  1.00  0.00    -0.225 OA
HETATM   25  O6  UNL     1      -4.466  -1.506  25.289  1.00  0.00    -0.225 OA
ENDBRANCH  13  14
ENDBRANCH  11  13
ENDBRANCH   1  11
BRANCH   7  26
HETATM   26  C10 UNL     1      -1.580   5.473  23.978  1.00  0.00     0.121 C 
BRANCH  26  27
HETATM   27  C11 UNL     1      -2.933   4.964  23.736  1.00  0.00     0.129 C 
HETATM   28  O3  UNL     1      -3.860   5.047  24.515  1.00  0.00    -0.298 OA
BRANCH  27  29
HETATM   29  C12 UNL     1      -3.198   4.295  22.432  1.00  0.00     0.087 C 
BRANCH  29  30
HETATM   30  C13 UNL     1      -3.109   2.785  22.570  1.00  0.00     0.110 C 
BRANCH  30  31
HETATM   31  C14 UNL     1      -1.845   2.329  21.962  1.00  0.00     0.217 C 
HETATM   32  O4  UNL     1      -1.692   2.453  20.711  1.00  0.00    -0.274 OA
HETATM   33  N5  UNL     1      -0.788   1.757  22.700  1.00  0.00    -0.360 N 
ATOM     34  H5  UNL     1      -0.917   1.666  23.708  1.00  0.00     0.162 HD
BRANCH  33  35
HETATM   35  C15 UNL     1       0.456   1.293  22.151  1.00  0.00     0.137 C 
BRANCH  35  36
HETATM   36  C16 UNL     1       1.212   0.422  23.098  1.00  0.00     0.134 C 
HETATM   37 CL1  UNL     1       0.995  -1.282  22.633  1.00  0.00    -0.129 Cl
ENDBRANCH  35  36
ENDBRANCH  33  35
ENDBRANCH  30  31
ENDBRANCH  29  30
ENDBRANCH  27  29
ENDBRANCH  26  27
ENDBRANCH   7  26
TORSDOF 10
ENDMDL
MODEL 4
REMARK VINA RESULT: -7.300242644      4.081      8.822
REMARK  10 active torsions:
REMARK  status: ('A' for Active; 'I' for Inactive)
REMARK    1  A    between atoms: C5_8  and  C6_9 
REMARK    2  A    between atoms: C6_9  and  N2_10 
REMARK    3  A    between atoms: N2_10  and  C7_12 
REMARK    4  A    between atoms: C9_18  and  C10_19 
REMARK    5  A    between atoms: C10_19  and  C11_20 
REMARK    6  A    between atoms: C11_20  and  C12_22 
REMARK    7  A    between atoms: C12_22  and  C13_23 
REMARK    8  A    between atoms: C13_23  and  C14_24 
REMARK       I    between atoms: C14_24  and  N5_26 
REMARK    9  A    between atoms: N5_26  and  C15_28 
REMARK   10  A    between atoms: C15_28  and  C16_29 
ROOT
HETATM    1  C7  UNL     1      -4.861  -0.251  26.325  1.00  0.00     0.396 C 
HETATM    2  N3  UNL     1      -5.946   0.573  25.795  1.00  0.00    -0.084 NA
HETATM    3  N4  UNL     1      -7.100  -0.225  25.561  1.00  0.00    -0.269 N 
ATOM      4  H4  UNL     1      -7.940   0.203  25.172  1.00  0.00     0.185 HD
HETATM    5  C8  UNL     1      -7.092  -1.608  25.862  1.00  0.00     0.264 C 
HETATM    6  O2  UNL     1      -7.874  -2.376  25.291  1.00  0.00    -0.270 OA
HETATM    7  C9  UNL     1      -6.136  -2.094  26.863  1.00  0.00     0.289 C 
HETATM    8  N6  UNL     1      -5.372  -0.984  27.450  1.00  0.00    -0.025 N 
ATOM      9  H61 UNL     1      -5.907  -0.415  28.107  1.00  0.00     0.282 HD
ATOM     10  H62 UNL     1      -4.655  -1.281  28.111  1.00  0.00     0.282 HD
ENDROOT
BRANCH   1  11
HETATM   11  N2  UNL     1      -3.736   0.573  26.547  1.00  0.00    -0.381 N 
ATOM     12  H2  UNL     1      -3.838   1.566  26.756  1.00  0.00     0.156 HD
BRANCH  11  13
HETATM   13  C6  UNL     1      -2.455  -0.039  26.466  1.00  0.00     0.132 C 
BRANCH  13  14
HETATM   14  C5  UNL     1      -1.489   0.786  25.634  1.00  0.00     0.109 C 
HETATM   15  C4  UNL     1      -1.316   2.088  26.247  1.00  0.00     0.225 C 
HETATM   16  N1  UNL     1      -1.397   3.362  25.650  1.00  0.00    -0.339 N 
HETATM   17  O1  UNL     1      -1.056   2.092  27.500  1.00  0.00    -0.273 OA
HETATM   18  C2  UNL     1      -1.279   3.530  24.221  1.00  0.00     0.129 C 
ATOM     19  H1  UNL     1      -1.543   4.182  26.239  1.00  0.00     0.164 HD
HETATM   20  C1  UNL     1       0.148   3.360  23.816  1.00  0.00     0.055 C 
HETATM   21  C3  UNL     1      -1.853   4.863  23.809  1.00  0.00     0.055 C 
HETATM   22  S1  UNL     1      -2.358   2.278  23.516  1.00  0.00     0.171 S 
HETATM   23  C17 UNL     1      -1.808   0.743  24.183  1.00  0.00     0.158 C 
HETATM   24  O5  UNL     1      -2.248   2.226  22.028  1.00  0.00    -0.225 OA
HETATM   25  O6  UNL     1      -3.756   2.630  23.961  1.00  0.00    -0.225 OA
ENDBRANCH  13  14
ENDBRANCH  11  13
ENDBRANCH   1  11
BRANCH   7  26
HETATM   26  C10 UNL     1      -6.667  -3.063  27.847  1.00  0.00     0.121 C 
BRANCH  26  27
HETATM   27  C11 UNL     1      -6.185  -4.443  27.738  1.00  0.00     0.129 C 
HETATM   28  O3  UNL     1      -6.015  -5.044  26.698  1.00  0.00    -0.298 OA
BRANCH  27  29
HETATM   29  C12 UNL     1      -5.874  -5.170  29.001  1.00  0.00     0.087 C 
BRANCH  29  30
HETATM   30  C13 UNL     1      -5.793  -4.208  30.173  1.00  0.00     0.110 C 
BRANCH  30  31
HETATM   31  C14 UNL     1      -6.146  -4.937  31.407  1.00  0.00     0.217 C 
HETATM   32  O4  UNL     1      -6.863  -5.978  31.316  1.00  0.00    -0.274 OA
HETATM   33  N5  UNL     1      -5.727  -4.537  32.693  1.00  0.00    -0.360 N 
ATOM     34  H5  UNL     1      -5.147  -3.702  32.757  1.00  0.00     0.162 HD
BRANCH  33  35
HETATM   35  C15 UNL     1      -6.051  -5.210  33.921  1.00  0.00     0.137 C 
BRANCH  35  36
HETATM   36  C16 UNL     1      -5.313  -4.654  35.092  1.00  0.00     0.134 C 
HETATM   37 CL1  UNL     1      -3.930  -5.709  35.472  1.00  0.00    -0.129 Cl
ENDBRANCH  35  36
ENDBRANCH  33  35
ENDBRANCH  30  31
ENDBRANCH  29  30
ENDBRANCH  27  29
ENDBRANCH  26  27
ENDBRANCH   7  26
TORSDOF 10
ENDMDL
MODEL 5
REMARK VINA RESULT: -7.297838716      3.994      8.361
REMARK  10 active torsions:
REMARK  status: ('A' for Active; 'I' for Inactive)
REMARK    1  A    between atoms: C5_8  and  C6_9 
REMARK    2  A    between atoms: C6_9  and  N2_10 
REMARK    3  A    between atoms: N2_10  and  C7_12 
REMARK    4  A    between atoms: C9_18  and  C10_19 
REMARK    5  A    between atoms: C10_19  and  C11_20 
REMARK    6  A    between atoms: C11_20  and  C12_22 
REMARK    7  A    between atoms: C12_22  and  C13_23 
REMARK    8  A    between atoms: C13_23  and  C14_24 
REMARK       I    between atoms: C14_24  and  N5_26 
REMARK    9  A    between atoms: N5_26  and  C15_28 
REMARK   10  A    between atoms: C15_28  and  C16_29 
ROOT
HETATM    1  C7  UNL     1      -5.087  -0.121  25.722  1.00  0.00     0.396 C 
HETATM    2  N3  UNL     1      -6.250   0.478  25.068  1.00  0.00    -0.084 NA
HETATM    3  N4  UNL     1      -7.347  -0.428  25.091  1.00  0.00    -0.269 N 
ATOM      4  H4  UNL     1      -8.230  -0.162  24.656  1.00  0.00     0.185 HD
HETATM    5  C8  UNL     1      -7.222  -1.694  25.710  1.00  0.00     0.264 C 
HETATM    6  O2  UNL     1      -7.962  -2.627  25.379  1.00  0.00    -0.270 OA
HETATM    7  C9  UNL     1      -6.198  -1.861  26.747  1.00  0.00     0.289 C 
HETATM    8  N6  UNL     1      -5.501  -0.595  27.013  1.00  0.00    -0.025 N 
ATOM      9  H61 UNL     1      -6.055   0.079  27.543  1.00  0.00     0.282 HD
ATOM     10  H62 UNL     1      -4.740  -0.676  27.687  1.00  0.00     0.282 HD
ENDROOT
BRANCH   1  11
HETATM   11  N2  UNL     1      -4.021   0.805  25.682  1.00  0.00    -0.381 N 
ATOM     12  H2  UNL     1      -4.191   1.806  25.594  1.00  0.00     0.156 HD
BRANCH  11  13
HETATM   13  C6  UNL     1      -2.702   0.283  25.771  1.00  0.00     0.132 C 
BRANCH  13  14
HETATM   14  C5  UNL     1      -1.684   1.216  25.138  1.00  0.00     0.109 C 
HETATM   15  C4  UNL     1      -1.709   2.492  25.824  1.00  0.00     0.225 C 
HETATM   16  N1  UNL     1      -1.794   3.788  25.275  1.00  0.00    -0.339 N 
HETATM   17  O1  UNL     1      -1.649   2.447  27.102  1.00  0.00    -0.273 OA
HETATM   18  C2  UNL     1      -1.468   4.039  23.891  1.00  0.00     0.129 C 
ATOM     19  H1  UNL     1      -2.092   4.563  25.867  1.00  0.00     0.164 HD
HETATM   20  C1  UNL     1       0.014   3.989  23.712  1.00  0.00     0.055 C 
HETATM   21  C3  UNL     1      -2.071   5.348  23.449  1.00  0.00     0.055 C 
HETATM   22  S1  UNL     1      -2.325   2.754  22.972  1.00  0.00     0.171 S 
HETATM   23  C17 UNL     1      -1.769   1.228  23.654  1.00  0.00     0.158 C 
HETATM   24  O5  UNL     1      -1.981   2.788  21.520  1.00  0.00    -0.225 OA
HETATM   25  O6  UNL     1      -3.798   2.984  23.203  1.00  0.00    -0.225 OA
ENDBRANCH  13  14
ENDBRANCH  11  13
ENDBRANCH   1  11
BRANCH   7  26
HETATM   26  C10 UNL     1      -6.618  -2.599  27.959  1.00  0.00     0.121 C 
BRANCH  26  27
HETATM   27  C11 UNL     1      -6.224  -2.025  29.249  1.00  0.00     0.129 C 
HETATM   28  O3  UNL     1      -6.482  -0.899  29.620  1.00  0.00    -0.298 OA
BRANCH  27  29
HETATM   29  C12 UNL     1      -5.449  -2.888  30.183  1.00  0.00     0.087 C 
BRANCH  29  30
HETATM   30  C13 UNL     1      -6.160  -3.014  31.519  1.00  0.00     0.110 C 
BRANCH  30  31
HETATM   31  C14 UNL     1      -5.207  -2.679  32.594  1.00  0.00     0.217 C 
HETATM   32  O4  UNL     1      -4.348  -1.772  32.386  1.00  0.00    -0.274 OA
HETATM   33  N5  UNL     1      -5.199  -3.316  33.853  1.00  0.00    -0.360 N 
ATOM     34  H5  UNL     1      -5.898  -4.040  34.015  1.00  0.00     0.162 HD
BRANCH  33  35
HETATM   35  C15 UNL     1      -4.288  -3.028  34.926  1.00  0.00     0.137 C 
BRANCH  35  36
HETATM   36  C16 UNL     1      -3.193  -4.035  35.036  1.00  0.00     0.134 C 
HETATM   37 CL1  UNL     1      -3.850  -5.548  35.705  1.00  0.00    -0.129 Cl
ENDBRANCH  35  36
ENDBRANCH  33  35
ENDBRANCH  30  31
ENDBRANCH  29  30
ENDBRANCH  27  29
ENDBRANCH  26  27
ENDBRANCH   7  26
TORSDOF 10
ENDMDL
