MODEL 1
REMARK VINA RESULT: -8.146018872      0.000      0.000
REMARK  13 active torsions:
REMARK  status: ('A' for Active; 'I' for Inactive)
REMARK    1  A    between atoms: O1_2  and  C2_3 
REMARK    2  A    between atoms: C2_3  and  C3_5 
REMARK    3  A    between atoms: C3_5  and  N1_6 
REMARK    4  A    between atoms: C3_5  and  C6_15 
REMARK       I    between atoms: N1_6  and  C4_8 
REMARK       I    between atoms: C4_8  and  N2_10 
REMARK    5  A    between atoms: N2_10  and  N3_12 
REMARK       I    between atoms: C6_15  and  N4_17 
REMARK    6  A    between atoms: N4_17  and  C7_19 
REMARK    7  A    between atoms: C7_19  and  C8_20 
REMARK    8  A    between atoms: C7_19  and  C11_23 
REMARK    9  A    between atoms: C11_23  and  N5_25 
REMARK   10  A    between atoms: N5_25  and  C12_27 
REMARK   11  A    between atoms: C14_29  and  O5_30 
REMARK   12  A    between atoms: C15_32  and  O6_33 
REMARK   13  A    between atoms: C17_35  and  C18_36 
ROOT
HETATM    1  C7  UNL     1      -2.849   1.151  26.010  1.00  0.00     0.126 C 
ENDROOT
BRANCH   1   2
HETATM    2  N4  UNL     1      -2.400   2.022  24.876  1.00  0.00    -0.351 N 
HETATM    3  C6  UNL     1      -1.294   1.721  24.072  1.00  0.00     0.251 C 
HETATM    4  O4  UNL     1      -0.636   0.679  24.289  1.00  0.00    -0.271 OA
ATOM      5  H4  UNL     1      -2.925   2.875  24.681  1.00  0.00     0.163 HD
BRANCH   3   6
HETATM    6  C3  UNL     1      -0.893   2.610  22.973  1.00  0.00     0.278 C 
BRANCH   6   7
HETATM    7  C2  UNL     1      -1.860   2.566  21.835  1.00  0.00     0.290 C 
HETATM    8  O2  UNL     1      -1.499   2.326  20.649  1.00  0.00    -0.262 OA
BRANCH   7   9
HETATM    9  O1  UNL     1      -3.192   2.793  22.070  1.00  0.00    -0.324 OA
HETATM   10  C1  UNL     1      -3.726   4.084  22.288  1.00  0.00     0.213 C 
ENDBRANCH   7   9
ENDBRANCH   6   7
BRANCH   6  11
HETATM   11  N1  UNL     1      -0.780   3.998  23.373  1.00  0.00    -0.320 N 
HETATM   12  C4  UNL     1       0.334   4.411  24.121  1.00  0.00     0.337 C 
HETATM   13  O3  UNL     1       1.225   3.575  24.446  1.00  0.00    -0.245 OA
HETATM   14  N2  UNL     1       0.536   5.748  24.553  1.00  0.00    -0.254 N 
HETATM   15  C5  UNL     1       1.699   6.141  25.318  1.00  0.00     0.182 C 
ATOM     16  H1  UNL     1      -1.503   4.669  23.113  1.00  0.00     0.165 HD
BRANCH  14  17
HETATM   17  N3  UNL     1      -0.394   6.717  24.246  1.00  0.00    -0.339 N 
ATOM     18  H32 UNL     1      -1.145   6.889  24.914  1.00  0.00     0.177 HD
ATOM     19  H31 UNL     1      -0.318   7.234  23.370  1.00  0.00     0.177 HD
ENDBRANCH  14  17
ENDBRANCH   6  11
ENDBRANCH   3   6
ENDBRANCH   1   2
BRANCH   1  20
HETATM   20  C8  UNL     1      -3.277   2.059  27.106  1.00  0.00     0.012 A 
HETATM   21  C9  UNL     1      -2.779   3.467  27.266  1.00  0.00     0.007 A 
HETATM   22  C10 UNL     1      -2.585   2.365  28.340  1.00  0.00     0.007 A 
ENDBRANCH   1  20
BRANCH   1  23
HETATM   23  C11 UNL     1      -3.880   0.270  25.395  1.00  0.00     0.202 C 
HETATM   24 CL1  UNL     1      -5.478   1.079  25.666  1.00  0.00    -0.100 Cl
BRANCH  23  25
HETATM   25  N5  UNL     1      -3.888  -1.074  25.656  1.00  0.00    -0.376 N 
ATOM     26  H5  UNL     1      -3.510  -1.669  24.918  1.00  0.00     0.160 HD
BRANCH  25  27
HETATM   27  C12 UNL     1      -4.336  -1.731  26.777  1.00  0.00     0.001 C 
HETATM   28  C13 UNL     1      -3.370  -1.691  27.962  1.00  0.00     0.087 C 
HETATM   29  C14 UNL     1      -4.134  -0.988  29.053  1.00  0.00     0.153 C 
HETATM   30  C15 UNL     1      -5.553  -1.468  28.856  1.00  0.00     0.168 C 
HETATM   31  C17 UNL     1      -5.702  -1.554  27.320  1.00  0.00     0.151 C 
BRANCH  29  32
HETATM   32  O5  UNL     1      -3.694  -1.495  30.290  1.00  0.00    -0.393 OA
ATOM     33  H5  UNL     1      -4.446  -1.861  30.742  1.00  0.00     0.210 HD
ENDBRANCH  29  32
BRANCH  30  34
HETATM   34  O6  UNL     1      -6.409  -0.513  29.376  1.00  0.00    -0.387 OA
HETATM   35  C16 UNL     1      -5.980   0.784  29.087  1.00  0.00     0.202 C 
ENDBRANCH  30  34
BRANCH  31  36
HETATM   36  C18 UNL     1      -6.587  -2.718  27.004  1.00  0.00     0.243 C 
HETATM   37  N6  UNL     1      -6.068  -3.882  26.398  1.00  0.00    -0.061 NA
HETATM   38  O7  UNL     1      -7.796  -2.651  27.284  1.00  0.00    -0.276 OA
ENDBRANCH  31  36
ENDBRANCH  25  27
ENDBRANCH  23  25
ENDBRANCH   1  23
TORSDOF 13
ENDMDL
MODEL 2
REMARK VINA RESULT: -8.097240097      4.024      6.913
REMARK  13 active torsions:
REMARK  status: ('A' for Active; 'I' for Inactive)
REMARK    1  A    between atoms: O1_2  and  C2_3 
REMARK    2  A    between atoms: C2_3  and  C3_5 
REMARK    3  A    between atoms: C3_5  and  N1_6 
REMARK    4  A    between atoms: C3_5  and  C6_15 
REMARK       I    between atoms: N1_6  and  C4_8 
REMARK       I    between atoms: C4_8  and  N2_10 
REMARK    5  A    between atoms: N2_10  and  N3_12 
REMARK       I    between atoms: C6_15  and  N4_17 
REMARK    6  A    between atoms: N4_17  and  C7_19 
REMARK    7  A    between atoms: C7_19  and  C8_20 
REMARK    8  A    between atoms: C7_19  and  C11_23 
REMARK    9  A    between atoms: C11_23  and  N5_25 
REMARK   10  A    between atoms: N5_25  and  C12_27 
REMARK   11  A    between atoms: C14_29  and  O5_30 
REMARK   12  A    between atoms: C15_32  and  O6_33 
REMARK   13  A    between atoms: C17_35  and  C18_36 
ROOT
HETATM    1  C7  UNL     1      -6.241  -4.852  28.348  1.00  0.00     0.126 C 
ENDROOT
BRANCH   1   2
HETATM    2  N4  UNL     1      -5.651  -3.693  27.603  1.00  0.00    -0.351 N 
HETATM    3  C6  UNL     1      -6.409  -2.601  27.164  1.00  0.00     0.251 C 
HETATM    4  O4  UNL     1      -7.638  -2.566  27.395  1.00  0.00    -0.271 OA
ATOM      5  H4  UNL     1      -4.649  -3.701  27.407  1.00  0.00     0.163 HD
BRANCH   3   6
HETATM    6  C3  UNL     1      -5.782  -1.490  26.434  1.00  0.00     0.278 C 
BRANCH   6   7
HETATM    7  C2  UNL     1      -6.766  -0.420  26.089  1.00  0.00     0.290 C 
HETATM    8  O2  UNL     1      -7.301  -0.335  24.949  1.00  0.00    -0.262 OA
BRANCH   7   9
HETATM    9  O1  UNL     1      -7.111   0.512  27.035  1.00  0.00    -0.324 OA
HETATM   10  C1  UNL     1      -7.111   1.903  26.780  1.00  0.00     0.213 C 
ENDBRANCH   7   9
ENDBRANCH   6   7
BRANCH   6  11
HETATM   11  N1  UNL     1      -4.712  -0.852  27.174  1.00  0.00    -0.320 N 
HETATM   12  C4  UNL     1      -3.608  -0.332  26.480  1.00  0.00     0.337 C 
HETATM   13  O3  UNL     1      -3.549  -0.426  25.221  1.00  0.00    -0.245 OA
HETATM   14  N2  UNL     1      -2.516   0.315  27.114  1.00  0.00    -0.254 N 
HETATM   15  C5  UNL     1      -1.397   0.845  26.368  1.00  0.00     0.182 C 
ATOM     16  H1  UNL     1      -4.760  -0.781  28.190  1.00  0.00     0.165 HD
BRANCH  14  17
HETATM   17  N3  UNL     1      -2.502   0.451  28.485  1.00  0.00    -0.339 N 
ATOM     18  H32 UNL     1      -3.393   0.411  28.980  1.00  0.00     0.177 HD
ATOM     19  H31 UNL     1      -1.617   0.589  28.973  1.00  0.00     0.177 HD
ENDBRANCH  14  17
ENDBRANCH   6  11
ENDBRANCH   3   6
ENDBRANCH   1   2
BRANCH   1  20
HETATM   20  C8  UNL     1      -5.574  -6.077  27.834  1.00  0.00     0.012 A 
HETATM   21  C9  UNL     1      -5.255  -6.309  26.386  1.00  0.00     0.007 A 
HETATM   22  C10 UNL     1      -6.180  -7.236  27.215  1.00  0.00     0.007 A 
ENDBRANCH   1  20
BRANCH   1  23
HETATM   23  C11 UNL     1      -6.035  -4.497  29.779  1.00  0.00     0.202 C 
HETATM   24 CL1  UNL     1      -5.733  -6.051  30.659  1.00  0.00    -0.100 Cl
BRANCH  23  25
HETATM   25  N5  UNL     1      -6.910  -3.659  30.418  1.00  0.00    -0.376 N 
ATOM     26  H5  UNL     1      -7.898  -3.814  30.214  1.00  0.00     0.160 HD
BRANCH  25  27
HETATM   27  C12 UNL     1      -6.639  -2.638  31.296  1.00  0.00     0.001 C 
HETATM   28  C13 UNL     1      -7.509  -2.636  32.553  1.00  0.00     0.087 C 
HETATM   29  C14 UNL     1      -6.536  -2.793  33.692  1.00  0.00     0.153 C 
HETATM   30  C15 UNL     1      -5.329  -2.007  33.234  1.00  0.00     0.168 C 
HETATM   31  C17 UNL     1      -5.264  -2.283  31.716  1.00  0.00     0.151 C 
BRANCH  29  32
HETATM   32  O5  UNL     1      -7.063  -2.126  34.813  1.00  0.00    -0.393 OA
ATOM     33  H5  UNL     1      -6.337  -1.835  35.351  1.00  0.00     0.210 HD
ENDBRANCH  29  32
BRANCH  30  34
HETATM   34  O6  UNL     1      -4.212  -2.519  33.871  1.00  0.00    -0.387 OA
HETATM   35  C16 UNL     1      -4.387  -3.855  34.235  1.00  0.00     0.202 C 
ENDBRANCH  30  34
BRANCH  31  36
HETATM   36  C18 UNL     1      -4.773  -1.042  31.040  1.00  0.00     0.243 C 
HETATM   37  N6  UNL     1      -5.512  -0.442  29.997  1.00  0.00    -0.061 NA
HETATM   38  O7  UNL     1      -3.698  -0.537  31.408  1.00  0.00    -0.276 OA
ENDBRANCH  31  36
ENDBRANCH  25  27
ENDBRANCH  23  25
ENDBRANCH   1  23
TORSDOF 13
ENDMDL
MODEL 3
REMARK VINA RESULT: -7.868630771      5.537      9.028
REMARK  13 active torsions:
REMARK  status: ('A' for Active; 'I' for Inactive)
REMARK    1  A    between atoms: O1_2  and  C2_3 
REMARK    2  A    between atoms: C2_3  and  C3_5 
REMARK    3  A    between atoms: C3_5  and  N1_6 
REMARK    4  A    between atoms: C3_5  and  C6_15 
REMARK       I    between atoms: N1_6  and  C4_8 
REMARK       I    between atoms: C4_8  and  N2_10 
REMARK    5  A    between atoms: N2_10  and  N3_12 
REMARK       I    between atoms: C6_15  and  N4_17 
REMARK    6  A    between atoms: N4_17  and  C7_19 
REMARK    7  A    between atoms: C7_19  and  C8_20 
REMARK    8  A    between atoms: C7_19  and  C11_23 
REMARK    9  A    between atoms: C11_23  and  N5_25 
REMARK   10  A    between atoms: N5_25  and  C12_27 
REMARK   11  A    between atoms: C14_29  and  O5_30 
REMARK   12  A    between atoms: C15_32  and  O6_33 
REMARK   13  A    between atoms: C17_35  and  C18_36 
ROOT
HETATM    1  C7  UNL     1      -6.250  -4.840  30.687  1.00  0.00     0.126 C 
ENDROOT
BRANCH   1   2
HETATM    2  N4  UNL     1      -5.516  -3.559  30.432  1.00  0.00    -0.351 N 
HETATM    3  C6  UNL     1      -6.124  -2.429  29.871  1.00  0.00     0.251 C 
HETATM    4  O4  UNL     1      -7.337  -2.465  29.564  1.00  0.00    -0.271 OA
ATOM      5  H4  UNL     1      -4.528  -3.507  30.678  1.00  0.00     0.163 HD
BRANCH   3   6
HETATM    6  C3  UNL     1      -5.359  -1.196  29.638  1.00  0.00     0.278 C 
BRANCH   6   7
HETATM    7  C2  UNL     1      -4.200  -1.070  30.572  1.00  0.00     0.290 C 
HETATM    8  O2  UNL     1      -4.266  -1.415  31.784  1.00  0.00    -0.262 OA
BRANCH   7   9
HETATM    9  O1  UNL     1      -3.012  -0.562  30.110  1.00  0.00    -0.324 OA
HETATM   10  C1  UNL     1      -2.718   0.821  30.100  1.00  0.00     0.213 C 
ENDBRANCH   7   9
ENDBRANCH   6   7
BRANCH   6  11
HETATM   11  N1  UNL     1      -4.827  -1.098  28.294  1.00  0.00    -0.320 N 
HETATM   12  C4  UNL     1      -5.504  -0.324  27.339  1.00  0.00     0.337 C 
HETATM   13  O3  UNL     1      -6.572   0.278  27.652  1.00  0.00    -0.245 OA
HETATM   14  N2  UNL     1      -5.059  -0.162  26.001  1.00  0.00    -0.254 N 
HETATM   15  C5  UNL     1      -5.778   0.649  25.044  1.00  0.00     0.182 C 
ATOM     16  H1  UNL     1      -3.969  -1.588  28.044  1.00  0.00     0.165 HD
BRANCH  14  17
HETATM   17  N3  UNL     1      -3.908  -0.792  25.581  1.00  0.00    -0.339 N 
ATOM     18  H32 UNL     1      -3.036  -0.564  26.057  1.00  0.00     0.177 HD
ATOM     19  H31 UNL     1      -3.948  -1.462  24.812  1.00  0.00     0.177 HD
ENDBRANCH  14  17
ENDBRANCH   6  11
ENDBRANCH   3   6
ENDBRANCH   1   2
BRANCH   1  20
HETATM   20  C8  UNL     1      -5.577  -5.890  29.878  1.00  0.00     0.012 A 
HETATM   21  C9  UNL     1      -5.837  -6.113  28.417  1.00  0.00     0.007 A 
HETATM   22  C10 UNL     1      -6.079  -7.193  29.502  1.00  0.00     0.007 A 
ENDBRANCH   1  20
BRANCH   1  23
HETATM   23  C11 UNL     1      -6.219  -4.979  32.170  1.00  0.00     0.202 C 
HETATM   24 CL1  UNL     1      -7.635  -6.013  32.622  1.00  0.00    -0.100 Cl
BRANCH  23  25
HETATM   25  N5  UNL     1      -6.062  -3.875  32.965  1.00  0.00    -0.376 N 
ATOM     26  H5  UNL     1      -6.189  -2.975  32.501  1.00  0.00     0.160 HD
BRANCH  25  27
HETATM   27  C12 UNL     1      -5.756  -3.814  34.303  1.00  0.00     0.001 C 
HETATM   28  C13 UNL     1      -6.716  -2.962  35.134  1.00  0.00     0.087 C 
HETATM   29  C14 UNL     1      -7.306  -3.919  36.136  1.00  0.00     0.153 C 
HETATM   30  C15 UNL     1      -6.155  -4.843  36.460  1.00  0.00     0.168 C 
HETATM   31  C17 UNL     1      -5.428  -5.013  35.108  1.00  0.00     0.151 C 
BRANCH  29  32
HETATM   32  O5  UNL     1      -7.599  -3.197  37.308  1.00  0.00    -0.393 OA
ATOM     33  H5  UNL     1      -6.778  -2.904  37.687  1.00  0.00     0.210 HD
ENDBRANCH  29  32
BRANCH  30  34
HETATM   34  O6  UNL     1      -6.678  -6.051  36.888  1.00  0.00    -0.387 OA
HETATM   35  C16 UNL     1      -7.828  -6.401  36.178  1.00  0.00     0.202 C 
ENDBRANCH  30  34
BRANCH  31  36
HETATM   36  C18 UNL     1      -3.961  -5.122  35.380  1.00  0.00     0.243 C 
HETATM   37  N6  UNL     1      -3.093  -4.037  35.132  1.00  0.00    -0.061 NA
HETATM   38  O7  UNL     1      -3.508  -6.188  35.833  1.00  0.00    -0.276 OA
ENDBRANCH  31  36
ENDBRANCH  25  27
ENDBRANCH  23  25
ENDBRANCH   1  23
TORSDOF 13
ENDMDL
MODEL 4
REMARK VINA RESULT: -7.849302612      1.048      1.505
REMARK  13 active torsions:
REMARK  status: ('A' for Active; 'I' for Inactive)
REMARK    1  A    between atoms: O1_2  and  C2_3 
REMARK    2  A    between atoms: C2_3  and  C3_5 
REMARK    3  A    between atoms: C3_5  and  N1_6 
REMARK    4  A    between atoms: C3_5  and  C6_15 
REMARK       I    between atoms: N1_6  and  C4_8 
REMARK       I    between atoms: C4_8  and  N2_10 
REMARK    5  A    between atoms: N2_10  and  N3_12 
REMARK       I    between atoms: C6_15  and  N4_17 
REMARK    6  A    between atoms: N4_17  and  C7_19 
REMARK    7  A    between atoms: C7_19  and  C8_20 
REMARK    8  A    between atoms: C7_19  and  C11_23 
REMARK    9  A    between atoms: C11_23  and  N5_25 
REMARK   10  A    between atoms: N5_25  and  C12_27 
REMARK   11  A    between atoms: C14_29  and  O5_30 
REMARK   12  A    between atoms: C15_32  and  O6_33 
REMARK   13  A    between atoms: C17_35  and  C18_36 
ROOT
HETATM    1  C7  UNL     1      -3.786   1.609  25.922  1.00  0.00     0.126 C 
ENDROOT
BRANCH   1   2
HETATM    2  N4  UNL     1      -2.842   2.221  24.932  1.00  0.00    -0.351 N 
HETATM    3  C6  UNL     1      -1.515   1.801  24.780  1.00  0.00     0.251 C 
HETATM    4  O4  UNL     1      -1.075   0.869  25.490  1.00  0.00    -0.271 OA
ATOM      5  H4  UNL     1      -3.182   2.980  24.342  1.00  0.00     0.163 HD
BRANCH   3   6
HETATM    6  C3  UNL     1      -0.628   2.436  23.796  1.00  0.00     0.278 C 
BRANCH   6   7
HETATM    7  C2  UNL     1      -0.997   2.077  22.394  1.00  0.00     0.290 C 
HETATM    8  O2  UNL     1      -2.157   2.263  21.930  1.00  0.00    -0.262 OA
BRANCH   7   9
HETATM    9  O1  UNL     1      -0.053   1.523  21.567  1.00  0.00    -0.324 OA
HETATM   10  C1  UNL     1       0.887   0.563  22.006  1.00  0.00     0.213 C 
ENDBRANCH   7   9
ENDBRANCH   6   7
BRANCH   6  11
HETATM   11  N1  UNL     1      -0.633   3.883  23.873  1.00  0.00    -0.320 N 
HETATM   12  C4  UNL     1       0.435   4.544  24.500  1.00  0.00     0.337 C 
HETATM   13  O3  UNL     1       1.388   3.878  24.997  1.00  0.00    -0.245 OA
HETATM   14  N2  UNL     1       0.523   5.955  24.618  1.00  0.00    -0.254 N 
HETATM   15  C5  UNL     1       1.641   6.604  25.266  1.00  0.00     0.182 C 
ATOM     16  H1  UNL     1      -1.405   4.417  23.475  1.00  0.00     0.165 HD
BRANCH  14  17
HETATM   17  N3  UNL     1      -0.480   6.751  24.109  1.00  0.00    -0.339 N 
ATOM     18  H32 UNL     1      -1.156   6.322  23.476  1.00  0.00     0.177 HD
ATOM     19  H31 UNL     1      -0.527   7.737  24.366  1.00  0.00     0.177 HD
ENDBRANCH  14  17
ENDBRANCH   6  11
ENDBRANCH   3   6
ENDBRANCH   1   2
BRANCH   1  20
HETATM   20  C8  UNL     1      -4.751   2.671  26.309  1.00  0.00     0.012 A 
HETATM   21  C9  UNL     1      -4.732   4.062  25.746  1.00  0.00     0.007 A 
HETATM   22  C10 UNL     1      -4.566   3.750  27.255  1.00  0.00     0.007 A 
ENDBRANCH   1  20
BRANCH   1  23
HETATM   23  C11 UNL     1      -4.318   0.412  25.213  1.00  0.00     0.202 C 
HETATM   24 CL1  UNL     1      -6.112   0.629  25.107  1.00  0.00    -0.100 Cl
BRANCH  23  25
HETATM   25  N5  UNL     1      -3.933  -0.846  25.593  1.00  0.00    -0.376 N 
ATOM     26  H5  UNL     1      -3.269  -1.311  24.973  1.00  0.00     0.160 HD
BRANCH  25  27
HETATM   27  C12 UNL     1      -4.319  -1.568  26.696  1.00  0.00     0.001 C 
HETATM   28  C13 UNL     1      -3.318  -1.543  27.852  1.00  0.00     0.087 C 
HETATM   29  C14 UNL     1      -4.072  -0.919  28.996  1.00  0.00     0.153 C 
HETATM   30  C15 UNL     1      -5.478  -1.444  28.821  1.00  0.00     0.168 C 
HETATM   31  C17 UNL     1      -5.673  -1.468  27.288  1.00  0.00     0.151 C 
BRANCH  29  32
HETATM   32  O5  UNL     1      -3.574  -1.462  30.195  1.00  0.00    -0.393 OA
ATOM     33  H5  UNL     1      -3.204  -0.753  30.708  1.00  0.00     0.210 HD
ENDBRANCH  29  32
BRANCH  30  34
HETATM   34  O6  UNL     1      -6.352  -0.547  29.409  1.00  0.00    -0.387 OA
HETATM   35  C16 UNL     1      -6.115   0.763  28.988  1.00  0.00     0.202 C 
ENDBRANCH  30  34
BRANCH  31  36
HETATM   36  C18 UNL     1      -6.523  -2.651  26.948  1.00  0.00     0.243 C 
HETATM   37  N6  UNL     1      -5.965  -3.797  26.342  1.00  0.00    -0.061 NA
HETATM   38  O7  UNL     1      -7.739  -2.616  27.206  1.00  0.00    -0.276 OA
ENDBRANCH  31  36
ENDBRANCH  25  27
ENDBRANCH  23  25
ENDBRANCH   1  23
TORSDOF 13
ENDMDL
MODEL 5
REMARK VINA RESULT: -7.844235124      4.115      7.238
REMARK  13 active torsions:
REMARK  status: ('A' for Active; 'I' for Inactive)
REMARK    1  A    between atoms: O1_2  and  C2_3 
REMARK    2  A    between atoms: C2_3  and  C3_5 
REMARK    3  A    between atoms: C3_5  and  N1_6 
REMARK    4  A    between atoms: C3_5  and  C6_15 
REMARK       I    between atoms: N1_6  and  C4_8 
REMARK       I    between atoms: C4_8  and  N2_10 
REMARK    5  A    between atoms: N2_10  and  N3_12 
REMARK       I    between atoms: C6_15  and  N4_17 
REMARK    6  A    between atoms: N4_17  and  C7_19 
REMARK    7  A    between atoms: C7_19  and  C8_20 
REMARK    8  A    between atoms: C7_19  and  C11_23 
REMARK    9  A    between atoms: C11_23  and  N5_25 
REMARK   10  A    between atoms: N5_25  and  C12_27 
REMARK   11  A    between atoms: C14_29  and  O5_30 
REMARK   12  A    between atoms: C15_32  and  O6_33 
REMARK   13  A    between atoms: C17_35  and  C18_36 
ROOT
HETATM    1  C7  UNL     1      -6.291  -4.619  28.619  1.00  0.00     0.126 C 
ENDROOT
BRANCH   1   2
HETATM    2  N4  UNL     1      -5.689  -3.493  27.833  1.00  0.00    -0.351 N 
HETATM    3  C6  UNL     1      -6.457  -2.540  27.153  1.00  0.00     0.251 C 
HETATM    4  O4  UNL     1      -7.705  -2.608  27.191  1.00  0.00    -0.271 OA
ATOM      5  H4  UNL     1      -4.672  -3.417  27.793  1.00  0.00     0.163 HD
BRANCH   3   6
HETATM    6  C3  UNL     1      -5.818  -1.455  26.395  1.00  0.00     0.278 C 
BRANCH   6   7
HETATM    7  C2  UNL     1      -6.767  -0.339  26.103  1.00  0.00     0.290 C 
HETATM    8  O2  UNL     1      -7.341  -0.214  24.986  1.00  0.00    -0.262 OA
BRANCH   7   9
HETATM    9  O1  UNL     1      -7.036   0.591  27.075  1.00  0.00    -0.324 OA
HETATM   10  C1  UNL     1      -7.000   1.984  26.837  1.00  0.00     0.213 C 
ENDBRANCH   7   9
ENDBRANCH   6   7
BRANCH   6  11
HETATM   11  N1  UNL     1      -4.682  -0.871  27.079  1.00  0.00    -0.320 N 
HETATM   12  C4  UNL     1      -3.602  -0.380  26.329  1.00  0.00     0.337 C 
HETATM   13  O3  UNL     1      -3.621  -0.455  25.067  1.00  0.00    -0.245 OA
HETATM   14  N2  UNL     1      -2.451   0.214  26.907  1.00  0.00    -0.254 N 
HETATM   15  C5  UNL     1      -1.357   0.715  26.103  1.00  0.00     0.182 C 
ATOM     16  H1  UNL     1      -4.668  -0.817  28.097  1.00  0.00     0.165 HD
BRANCH  14  17
HETATM   17  N3  UNL     1      -2.350   0.325  28.277  1.00  0.00    -0.339 N 
ATOM     18  H32 UNL     1      -2.386  -0.531  28.830  1.00  0.00     0.177 HD
ATOM     19  H31 UNL     1      -2.246   1.245  28.706  1.00  0.00     0.177 HD
ENDBRANCH  14  17
ENDBRANCH   6  11
ENDBRANCH   3   6
ENDBRANCH   1   2
BRANCH   1  20
HETATM   20  C8  UNL     1      -5.642  -5.869  28.143  1.00  0.00     0.012 A 
HETATM   21  C9  UNL     1      -5.501  -6.237  26.695  1.00  0.00     0.007 A 
HETATM   22  C10 UNL     1      -6.271  -7.103  27.725  1.00  0.00     0.007 A 
ENDBRANCH   1  20
BRANCH   1  23
HETATM   23  C11 UNL     1      -6.073  -4.219  30.037  1.00  0.00     0.202 C 
HETATM   24 CL1  UNL     1      -5.725  -5.741  30.954  1.00  0.00    -0.100 Cl
BRANCH  23  25
HETATM   25  N5  UNL     1      -6.959  -3.384  30.664  1.00  0.00    -0.376 N 
ATOM     26  H5  UNL     1      -7.839  -3.225  30.174  1.00  0.00     0.160 HD
BRANCH  25  27
HETATM   27  C12 UNL     1      -6.822  -2.730  31.865  1.00  0.00     0.001 C 
HETATM   28  C13 UNL     1      -8.140  -2.261  32.484  1.00  0.00     0.087 C 
HETATM   29  C14 UNL     1      -8.218  -2.981  33.804  1.00  0.00     0.153 C 
HETATM   30  C15 UNL     1      -6.781  -3.022  34.270  1.00  0.00     0.168 C 
HETATM   31  C17 UNL     1      -5.979  -3.243  32.969  1.00  0.00     0.151 C 
BRANCH  29  32
HETATM   32  O5  UNL     1      -8.922  -2.163  34.707  1.00  0.00    -0.393 OA
ATOM     33  H5  UNL     1      -9.383  -1.501  34.205  1.00  0.00     0.210 HD
ENDBRANCH  29  32
BRANCH  30  34
HETATM   34  O6  UNL     1      -6.632  -4.100  35.124  1.00  0.00    -0.387 OA
HETATM   35  C16 UNL     1      -6.872  -5.314  34.476  1.00  0.00     0.202 C 
ENDBRANCH  30  34
BRANCH  31  36
HETATM   36  C18 UNL     1      -4.690  -2.493  33.085  1.00  0.00     0.243 C 
HETATM   37  N6  UNL     1      -4.284  -1.585  32.083  1.00  0.00    -0.061 NA
HETATM   38  O7  UNL     1      -3.971  -2.677  34.083  1.00  0.00    -0.276 OA
ENDBRANCH  31  36
ENDBRANCH  25  27
ENDBRANCH  23  25
ENDBRANCH   1  23
TORSDOF 13
ENDMDL
