MODEL 1
REMARK VINA RESULT: -8.177278973      0.000      0.000
REMARK  13 active torsions:
REMARK  status: ('A' for Active; 'I' for Inactive)
REMARK    1  A    between atoms: C2_2  and  C4_4 
REMARK    2  A    between atoms: C4_4  and  N1_5 
REMARK    3  A    between atoms: C4_4  and  C5_9 
REMARK       I    between atoms: C5_9  and  N2_11 
REMARK    4  A    between atoms: N2_11  and  C6_13 
REMARK    5  A    between atoms: C6_13  and  N3_14 
REMARK    6  A    between atoms: C6_13  and  C7_18 
REMARK    7  A    between atoms: C7_18  and  C8_19 
REMARK       I    between atoms: C8_19  and  N4_21 
REMARK    8  A    between atoms: N4_21  and  C9_23 
REMARK    9  A    between atoms: C11_25  and  C12_26 
REMARK   10  A    between atoms: C11_25  and  C15_35 
REMARK   11  A    between atoms: C12_26  and  O3_27 
REMARK   12  A    between atoms: O3_27  and  C13_28 
REMARK       I    between atoms: C13_28  and  N5_30 
REMARK   13  A    between atoms: N5_30  and  S1_31 
ROOT
HETATM    1  C8  UNL     1      -4.515   0.666  26.277  1.00  0.00     0.221 C 
HETATM    2  O2  UNL     1      -4.499   0.528  27.528  1.00  0.00    -0.273 OA
HETATM    3  N4  UNL     1      -3.722   0.911  25.294  1.00  0.00    -0.350 N 
ATOM      4  H4  UNL     1      -4.194   0.894  24.390  1.00  0.00     0.163 HD
ENDROOT
BRANCH   1   5
HETATM    5  C7  UNL     1      -6.091   0.379  26.003  1.00  0.00     0.157 C 
BRANCH   5   6
HETATM    6  C6  UNL     1      -6.010  -0.938  25.307  1.00  0.00     0.292 C 
BRANCH   6   7
HETATM    7  N2  UNL     1      -5.648  -2.040  26.058  1.00  0.00    -0.331 N 
HETATM    8  C5  UNL     1      -6.395  -2.748  27.035  1.00  0.00     0.250 C 
HETATM    9  O1  UNL     1      -7.538  -2.441  27.321  1.00  0.00    -0.271 OA
ATOM     10  H2  UNL     1      -4.708  -2.396  25.886  1.00  0.00     0.164 HD
BRANCH   8  11
HETATM   11  C4  UNL     1      -5.662  -3.867  27.640  1.00  0.00     0.278 C 
BRANCH  11  12
HETATM   12  C2  UNL     1      -6.003  -4.084  29.098  1.00  0.00     0.017 C 
HETATM   13  C1  UNL     1      -5.799  -5.472  29.632  1.00  0.00     0.012 C 
HETATM   14  C3  UNL     1      -5.354  -3.079  30.007  1.00  0.00     0.012 C 
ENDBRANCH  11  12
BRANCH  11  15
HETATM   15  N1  UNL     1      -5.761  -5.137  26.999  1.00  0.00    -0.066 N 
ATOM     16  H13 UNL     1      -6.427  -5.764  27.451  1.00  0.00     0.275 HD
ATOM     17  H12 UNL     1      -6.222  -5.094  26.090  1.00  0.00     0.275 HD
ATOM     18  H11 UNL     1      -4.816  -5.520  26.953  1.00  0.00     0.275 HD
ENDBRANCH  11  15
ENDBRANCH   8  11
ENDBRANCH   6   7
BRANCH   6  19
HETATM   19  N3  UNL     1      -7.488  -1.147  24.891  1.00  0.00    -0.058 N 
ATOM     20  H33 UNL     1      -8.068  -1.522  25.641  1.00  0.00     0.276 HD
ATOM     21  H32 UNL     1      -7.996  -0.272  24.761  1.00  0.00     0.276 HD
ATOM     22  H31 UNL     1      -7.480  -1.734  24.057  1.00  0.00     0.276 HD
ENDBRANCH   6  19
ENDBRANCH   5   6
ENDBRANCH   1   5
BRANCH   3  23
HETATM   23  C9  UNL     1      -2.318   1.204  25.187  1.00  0.00     0.159 A 
HETATM   24  C10 UNL     1      -1.592   0.948  23.929  1.00  0.00     0.060 A 
HETATM   25  C11 UNL     1      -1.387   2.470  23.766  1.00  0.00     0.139 A 
HETATM   26  C16 UNL     1      -2.162   2.744  24.943  1.00  0.00     0.283 A 
HETATM   27  F1  UNL     1      -1.341   3.223  25.986  1.00  0.00    -0.203 F 
HETATM   28  F2  UNL     1      -3.325   3.421  24.953  1.00  0.00    -0.203 F 
BRANCH  25  29
HETATM   29  C12 UNL     1       0.080   2.894  23.884  1.00  0.00     0.208 C 
BRANCH  29  30
HETATM   30  O3  UNL     1       0.201   4.139  23.195  1.00  0.00    -0.290 OA
BRANCH  30  31
HETATM   31  C13 UNL     1       0.238   5.410  23.915  1.00  0.00     0.450 C 
HETATM   32  O4  UNL     1      -0.077   6.392  23.240  1.00  0.00    -0.220 OA
HETATM   33  N5  UNL     1       0.519   5.451  25.202  1.00  0.00    -0.258 NA
BRANCH  33  34
HETATM   34  S1  UNL     1       0.871   5.542  26.855  1.00  0.00     0.292 S 
HETATM   35  C14 UNL     1      -0.513   6.103  27.842  1.00  0.00     0.202 C 
HETATM   36  O5  UNL     1       1.962   6.642  27.046  1.00  0.00    -0.192 OA
HETATM   37  O6  UNL     1       1.496   4.305  27.432  1.00  0.00    -0.192 OA
ENDBRANCH  33  34
ENDBRANCH  30  31
ENDBRANCH  29  30
ENDBRANCH  25  29
BRANCH  25  38
HETATM   38  C15 UNL     1      -1.954   2.688  22.366  1.00  0.00     0.190 C 
HETATM   39  O7  UNL     1      -1.118   2.267  21.453  1.00  0.00    -0.647 OA
HETATM   40  O8  UNL     1      -3.128   3.186  21.969  1.00  0.00    -0.647 OA
ENDBRANCH  25  38
ENDBRANCH   3  23
TORSDOF 13
ENDMDL
MODEL 2
REMARK VINA RESULT: -8.144822444      2.171      3.663
REMARK  13 active torsions:
REMARK  status: ('A' for Active; 'I' for Inactive)
REMARK    1  A    between atoms: C2_2  and  C4_4 
REMARK    2  A    between atoms: C4_4  and  N1_5 
REMARK    3  A    between atoms: C4_4  and  C5_9 
REMARK       I    between atoms: C5_9  and  N2_11 
REMARK    4  A    between atoms: N2_11  and  C6_13 
REMARK    5  A    between atoms: C6_13  and  N3_14 
REMARK    6  A    between atoms: C6_13  and  C7_18 
REMARK    7  A    between atoms: C7_18  and  C8_19 
REMARK       I    between atoms: C8_19  and  N4_21 
REMARK    8  A    between atoms: N4_21  and  C9_23 
REMARK    9  A    between atoms: C11_25  and  C12_26 
REMARK   10  A    between atoms: C11_25  and  C15_35 
REMARK   11  A    between atoms: C12_26  and  O3_27 
REMARK   12  A    between atoms: O3_27  and  C13_28 
REMARK       I    between atoms: C13_28  and  N5_30 
REMARK   13  A    between atoms: N5_30  and  S1_31 
ROOT
HETATM    1  C8  UNL     1      -4.787   0.920  26.997  1.00  0.00     0.221 C 
HETATM    2  O2  UNL     1      -3.957   0.492  27.842  1.00  0.00    -0.273 OA
HETATM    3  N4  UNL     1      -5.024   1.958  26.275  1.00  0.00    -0.350 N 
ATOM      4  H4  UNL     1      -5.840   1.846  25.674  1.00  0.00     0.163 HD
ENDROOT
BRANCH   1   5
HETATM    5  C7  UNL     1      -5.753  -0.383  26.896  1.00  0.00     0.157 C 
BRANCH   5   6
HETATM    6  C6  UNL     1      -4.753  -1.476  27.071  1.00  0.00     0.292 C 
BRANCH   6   7
HETATM    7  N2  UNL     1      -5.168  -2.631  27.707  1.00  0.00    -0.331 N 
HETATM    8  C5  UNL     1      -6.084  -3.621  27.265  1.00  0.00     0.250 C 
HETATM    9  O1  UNL     1      -6.628  -3.558  26.179  1.00  0.00    -0.271 OA
ATOM     10  H2  UNL     1      -4.757  -2.795  28.626  1.00  0.00     0.164 HD
BRANCH   8  11
HETATM   11  C4  UNL     1      -6.288  -4.706  28.233  1.00  0.00     0.278 C 
BRANCH  11  12
HETATM   12  C2  UNL     1      -6.319  -6.076  27.592  1.00  0.00     0.017 C 
HETATM   13  C1  UNL     1      -5.123  -6.454  26.766  1.00  0.00     0.012 C 
HETATM   14  C3  UNL     1      -6.640  -7.173  28.570  1.00  0.00     0.012 C 
ENDBRANCH  11  12
BRANCH  11  15
HETATM   15  N1  UNL     1      -5.382  -4.784  29.331  1.00  0.00    -0.066 N 
ATOM     16  H13 UNL     1      -4.606  -5.425  29.168  1.00  0.00     0.275 HD
ATOM     17  H12 UNL     1      -4.826  -3.937  29.454  1.00  0.00     0.275 HD
ATOM     18  H11 UNL     1      -5.935  -5.024  30.155  1.00  0.00     0.275 HD
ENDBRANCH  11  15
ENDBRANCH   8  11
ENDBRANCH   6   7
BRANCH   6  19
HETATM   19  N3  UNL     1      -4.465  -1.855  25.596  1.00  0.00    -0.058 N 
ATOM     20  H33 UNL     1      -4.229  -1.052  25.013  1.00  0.00     0.276 HD
ATOM     21  H32 UNL     1      -3.590  -2.364  25.476  1.00  0.00     0.276 HD
ATOM     22  H31 UNL     1      -5.279  -2.371  25.261  1.00  0.00     0.276 HD
ENDBRANCH   6  19
ENDBRANCH   5   6
ENDBRANCH   1   5
BRANCH   3  23
HETATM   23  C9  UNL     1      -4.393   3.242  26.126  1.00  0.00     0.159 A 
HETATM   24  C10 UNL     1      -3.459   3.743  27.151  1.00  0.00     0.060 A 
HETATM   25  C11 UNL     1      -2.314   3.646  26.119  1.00  0.00     0.139 A 
HETATM   26  C16 UNL     1      -3.192   3.081  25.134  1.00  0.00     0.283 A 
HETATM   27  F1  UNL     1      -3.427   3.994  24.085  1.00  0.00    -0.203 F 
HETATM   28  F2  UNL     1      -3.069   1.843  24.620  1.00  0.00    -0.203 F 
BRANCH  25  29
HETATM   29  C12 UNL     1      -1.747   5.014  25.723  1.00  0.00     0.208 C 
BRANCH  29  30
HETATM   30  O3  UNL     1      -0.418   4.782  25.255  1.00  0.00    -0.290 OA
BRANCH  30  31
HETATM   31  C13 UNL     1      -0.105   4.746  23.828  1.00  0.00     0.450 C 
HETATM   32  O4  UNL     1       0.245   5.827  23.351  1.00  0.00    -0.220 OA
HETATM   33  N5  UNL     1      -0.136   3.612  23.157  1.00  0.00    -0.258 NA
BRANCH  33  34
HETATM   34  S1  UNL     1      -0.161   2.175  22.264  1.00  0.00     0.292 S 
HETATM   35  C14 UNL     1      -0.252   0.709  23.288  1.00  0.00     0.202 C 
HETATM   36  O5  UNL     1       1.210   2.054  21.526  1.00  0.00    -0.192 OA
HETATM   37  O6  UNL     1      -1.175   2.141  21.157  1.00  0.00    -0.192 OA
ENDBRANCH  33  34
ENDBRANCH  30  31
ENDBRANCH  29  30
ENDBRANCH  25  29
BRANCH  25  38
HETATM   38  C15 UNL     1      -1.309   2.789  26.882  1.00  0.00     0.190 C 
HETATM   39  O7  UNL     1      -0.764   3.466  27.859  1.00  0.00    -0.647 OA
HETATM   40  O8  UNL     1      -0.957   1.511  26.724  1.00  0.00    -0.647 OA
ENDBRANCH  25  38
ENDBRANCH   3  23
TORSDOF 13
ENDMDL
MODEL 3
REMARK VINA RESULT: -8.084734551      2.275      3.596
REMARK  13 active torsions:
REMARK  status: ('A' for Active; 'I' for Inactive)
REMARK    1  A    between atoms: C2_2  and  C4_4 
REMARK    2  A    between atoms: C4_4  and  N1_5 
REMARK    3  A    between atoms: C4_4  and  C5_9 
REMARK       I    between atoms: C5_9  and  N2_11 
REMARK    4  A    between atoms: N2_11  and  C6_13 
REMARK    5  A    between atoms: C6_13  and  N3_14 
REMARK    6  A    between atoms: C6_13  and  C7_18 
REMARK    7  A    between atoms: C7_18  and  C8_19 
REMARK       I    between atoms: C8_19  and  N4_21 
REMARK    8  A    between atoms: N4_21  and  C9_23 
REMARK    9  A    between atoms: C11_25  and  C12_26 
REMARK   10  A    between atoms: C11_25  and  C15_35 
REMARK   11  A    between atoms: C12_26  and  O3_27 
REMARK   12  A    between atoms: O3_27  and  C13_28 
REMARK       I    between atoms: C13_28  and  N5_30 
REMARK   13  A    between atoms: N5_30  and  S1_31 
ROOT
HETATM    1  C8  UNL     1      -4.822   0.559  27.150  1.00  0.00     0.221 C 
HETATM    2  O2  UNL     1      -3.926   0.454  28.028  1.00  0.00    -0.273 OA
HETATM    3  N4  UNL     1      -5.243   1.379  26.252  1.00  0.00    -0.350 N 
ATOM      4  H4  UNL     1      -6.029   1.012  25.716  1.00  0.00     0.163 HD
ENDROOT
BRANCH   1   5
HETATM    5  C7  UNL     1      -5.542  -0.887  27.336  1.00  0.00     0.157 C 
BRANCH   5   6
HETATM    6  C6  UNL     1      -4.403  -1.799  27.021  1.00  0.00     0.292 C 
BRANCH   6   7
HETATM    7  N2  UNL     1      -4.547  -3.137  27.333  1.00  0.00    -0.331 N 
HETATM    8  C5  UNL     1      -5.544  -4.056  26.914  1.00  0.00     0.250 C 
HETATM    9  O1  UNL     1      -6.439  -3.736  26.154  1.00  0.00    -0.271 OA
ATOM     10  H2  UNL     1      -3.834  -3.520  27.954  1.00  0.00     0.164 HD
BRANCH   8  11
HETATM   11  C4  UNL     1      -5.374  -5.403  27.473  1.00  0.00     0.278 C 
BRANCH  11  12
HETATM   12  C2  UNL     1      -6.284  -5.678  28.650  1.00  0.00     0.017 C 
HETATM   13  C1  UNL     1      -6.673  -7.112  28.873  1.00  0.00     0.012 C 
HETATM   14  C3  UNL     1      -5.784  -5.072  29.931  1.00  0.00     0.012 C 
ENDBRANCH  11  12
BRANCH  11  15
HETATM   15  N1  UNL     1      -5.511  -6.506  26.579  1.00  0.00    -0.066 N 
ATOM     16  H13 UNL     1      -4.941  -7.310  26.841  1.00  0.00     0.275 HD
ATOM     17  H12 UNL     1      -6.420  -6.965  26.644  1.00  0.00     0.275 HD
ATOM     18  H11 UNL     1      -5.305  -6.155  25.643  1.00  0.00     0.275 HD
ENDBRANCH  11  15
ENDBRANCH   8  11
ENDBRANCH   6   7
BRANCH   6  19
HETATM   19  N3  UNL     1      -4.363  -1.701  25.475  1.00  0.00    -0.058 N 
ATOM     20  H33 UNL     1      -4.443  -2.607  25.013  1.00  0.00     0.276 HD
ATOM     21  H32 UNL     1      -5.201  -1.278  25.077  1.00  0.00     0.276 HD
ATOM     22  H31 UNL     1      -3.508  -1.201  25.234  1.00  0.00     0.276 HD
ENDBRANCH   6  19
ENDBRANCH   5   6
ENDBRANCH   1   5
BRANCH   3  23
HETATM   23  C9  UNL     1      -4.852   2.700  25.838  1.00  0.00     0.159 A 
HETATM   24  C10 UNL     1      -4.085   3.574  26.743  1.00  0.00     0.060 A 
HETATM   25  C11 UNL     1      -2.885   3.483  25.774  1.00  0.00     0.139 A 
HETATM   26  C16 UNL     1      -3.588   2.566  24.922  1.00  0.00     0.283 A 
HETATM   27  F1  UNL     1      -3.927   3.175  23.696  1.00  0.00    -0.203 F 
HETATM   28  F2  UNL     1      -3.211   1.295  24.692  1.00  0.00    -0.203 F 
BRANCH  25  29
HETATM   29  C12 UNL     1      -2.558   4.819  25.099  1.00  0.00     0.208 C 
BRANCH  29  30
HETATM   30  O3  UNL     1      -1.134   4.900  25.027  1.00  0.00    -0.290 OA
BRANCH  30  31
HETATM   31  C13 UNL     1      -0.426   4.783  23.753  1.00  0.00     0.450 C 
HETATM   32  O4  UNL     1       0.180   5.799  23.407  1.00  0.00    -0.220 OA
HETATM   33  N5  UNL     1      -0.400   3.641  23.095  1.00  0.00    -0.258 NA
BRANCH  33  34
HETATM   34  S1  UNL     1      -0.342   2.190  22.226  1.00  0.00     0.292 S 
HETATM   35  C14 UNL     1      -0.351   0.738  23.273  1.00  0.00     0.202 C 
HETATM   36  O5  UNL     1       1.034   2.136  21.490  1.00  0.00    -0.192 OA
HETATM   37  O6  UNL     1      -1.351   2.081  21.119  1.00  0.00    -0.192 OA
ENDBRANCH  33  34
ENDBRANCH  30  31
ENDBRANCH  29  30
ENDBRANCH  25  29
BRANCH  25  38
HETATM   38  C15 UNL     1      -1.785   3.015  26.721  1.00  0.00     0.190 C 
HETATM   39  O7  UNL     1      -1.697   3.802  27.762  1.00  0.00    -0.647 OA
HETATM   40  O8  UNL     1      -0.972   1.957  26.657  1.00  0.00    -0.647 OA
ENDBRANCH  25  38
ENDBRANCH   3  23
TORSDOF 13
ENDMDL
MODEL 4
REMARK VINA RESULT: -8.033979849      1.459      2.103
REMARK  13 active torsions:
REMARK  status: ('A' for Active; 'I' for Inactive)
REMARK    1  A    between atoms: C2_2  and  C4_4 
REMARK    2  A    between atoms: C4_4  and  N1_5 
REMARK    3  A    between atoms: C4_4  and  C5_9 
REMARK       I    between atoms: C5_9  and  N2_11 
REMARK    4  A    between atoms: N2_11  and  C6_13 
REMARK    5  A    between atoms: C6_13  and  N3_14 
REMARK    6  A    between atoms: C6_13  and  C7_18 
REMARK    7  A    between atoms: C7_18  and  C8_19 
REMARK       I    between atoms: C8_19  and  N4_21 
REMARK    8  A    between atoms: N4_21  and  C9_23 
REMARK    9  A    between atoms: C11_25  and  C12_26 
REMARK   10  A    between atoms: C11_25  and  C15_35 
REMARK   11  A    between atoms: C12_26  and  O3_27 
REMARK   12  A    between atoms: O3_27  and  C13_28 
REMARK       I    between atoms: C13_28  and  N5_30 
REMARK   13  A    between atoms: N5_30  and  S1_31 
ROOT
HETATM    1  C8  UNL     1      -4.461   0.789  26.229  1.00  0.00     0.221 C 
HETATM    2  O2  UNL     1      -4.458   0.669  27.483  1.00  0.00    -0.273 OA
HETATM    3  N4  UNL     1      -3.660   1.029  25.252  1.00  0.00    -0.350 N 
ATOM      4  H4  UNL     1      -4.121   0.994  24.344  1.00  0.00     0.163 HD
ENDROOT
BRANCH   1   5
HETATM    5  C7  UNL     1      -6.031   0.480  25.941  1.00  0.00     0.157 C 
BRANCH   5   6
HETATM    6  C6  UNL     1      -5.925  -0.829  25.234  1.00  0.00     0.292 C 
BRANCH   6   7
HETATM    7  N2  UNL     1      -5.572  -1.936  25.982  1.00  0.00    -0.331 N 
HETATM    8  C5  UNL     1      -6.320  -2.632  26.967  1.00  0.00     0.250 C 
HETATM    9  O1  UNL     1      -7.455  -2.308  27.263  1.00  0.00    -0.271 OA
ATOM     10  H2  UNL     1      -4.639  -2.306  25.801  1.00  0.00     0.164 HD
BRANCH   8  11
HETATM   11  C4  UNL     1      -5.598  -3.762  27.565  1.00  0.00     0.278 C 
BRANCH  11  12
HETATM   12  C2  UNL     1      -5.937  -3.980  29.023  1.00  0.00     0.017 C 
HETATM   13  C1  UNL     1      -5.792  -5.383  29.540  1.00  0.00     0.012 C 
HETATM   14  C3  UNL     1      -5.234  -3.016  29.938  1.00  0.00     0.012 C 
ENDBRANCH  11  12
BRANCH  11  15
HETATM   15  N1  UNL     1      -5.715  -5.029  26.920  1.00  0.00    -0.066 N 
ATOM     16  H13 UNL     1      -4.861  -5.316  26.441  1.00  0.00     0.275 HD
ATOM     17  H12 UNL     1      -5.764  -5.810  27.575  1.00  0.00     0.275 HD
ATOM     18  H11 UNL     1      -6.524  -4.972  26.301  1.00  0.00     0.275 HD
ENDBRANCH  11  15
ENDBRANCH   8  11
ENDBRANCH   6   7
BRANCH   6  19
HETATM   19  N3  UNL     1      -7.391  -1.043  24.782  1.00  0.00    -0.058 N 
ATOM     20  H33 UNL     1      -7.684  -0.399  24.047  1.00  0.00     0.276 HD
ATOM     21  H32 UNL     1      -7.528  -1.908  24.258  1.00  0.00     0.276 HD
ATOM     22  H31 UNL     1      -7.969  -0.986  25.620  1.00  0.00     0.276 HD
ENDBRANCH   6  19
ENDBRANCH   5   6
ENDBRANCH   1   5
BRANCH   3  23
HETATM   23  C9  UNL     1      -2.258   1.337  25.157  1.00  0.00     0.159 A 
HETATM   24  C10 UNL     1      -1.507   1.043  23.922  1.00  0.00     0.060 A 
HETATM   25  C11 UNL     1      -1.320   2.561  23.705  1.00  0.00     0.139 A 
HETATM   26  C16 UNL     1      -2.117   2.868  24.858  1.00  0.00     0.283 A 
HETATM   27  F1  UNL     1      -1.320   3.397  25.895  1.00  0.00    -0.203 F 
HETATM   28  F2  UNL     1      -3.288   3.530  24.823  1.00  0.00    -0.203 F 
BRANCH  25  29
HETATM   29  C12 UNL     1       0.140   3.008  23.831  1.00  0.00     0.208 C 
BRANCH  29  30
HETATM   30  O3  UNL     1       0.234   4.276  23.181  1.00  0.00    -0.290 OA
BRANCH  30  31
HETATM   31  C13 UNL     1       0.208   5.526  23.939  1.00  0.00     0.450 C 
HETATM   32  O4  UNL     1       1.173   5.694  24.686  1.00  0.00    -0.220 OA
HETATM   33  N5  UNL     1      -0.751   6.411  23.752  1.00  0.00    -0.258 NA
BRANCH  33  34
HETATM   34  S1  UNL     1      -1.963   7.571  23.535  1.00  0.00     0.292 S 
HETATM   35  C14 UNL     1      -3.453   6.908  22.795  1.00  0.00     0.202 C 
HETATM   36  O5  UNL     1      -1.439   8.613  22.497  1.00  0.00    -0.192 OA
HETATM   37  O6  UNL     1      -2.270   8.393  24.753  1.00  0.00    -0.192 OA
ENDBRANCH  33  34
ENDBRANCH  30  31
ENDBRANCH  29  30
ENDBRANCH  25  29
BRANCH  25  38
HETATM   38  C15 UNL     1      -1.865   2.718  22.289  1.00  0.00     0.190 C 
HETATM   39  O7  UNL     1      -1.015   2.261  21.406  1.00  0.00    -0.647 OA
HETATM   40  O8  UNL     1      -3.034   3.195  21.854  1.00  0.00    -0.647 OA
ENDBRANCH  25  38
ENDBRANCH   3  23
TORSDOF 13
ENDMDL
MODEL 5
REMARK VINA RESULT: -7.897507615      3.562      6.156
REMARK  13 active torsions:
REMARK  status: ('A' for Active; 'I' for Inactive)
REMARK    1  A    between atoms: C2_2  and  C4_4 
REMARK    2  A    between atoms: C4_4  and  N1_5 
REMARK    3  A    between atoms: C4_4  and  C5_9 
REMARK       I    between atoms: C5_9  and  N2_11 
REMARK    4  A    between atoms: N2_11  and  C6_13 
REMARK    5  A    between atoms: C6_13  and  N3_14 
REMARK    6  A    between atoms: C6_13  and  C7_18 
REMARK    7  A    between atoms: C7_18  and  C8_19 
REMARK       I    between atoms: C8_19  and  N4_21 
REMARK    8  A    between atoms: N4_21  and  C9_23 
REMARK    9  A    between atoms: C11_25  and  C12_26 
REMARK   10  A    between atoms: C11_25  and  C15_35 
REMARK   11  A    between atoms: C12_26  and  O3_27 
REMARK   12  A    between atoms: O3_27  and  C13_28 
REMARK       I    between atoms: C13_28  and  N5_30 
REMARK   13  A    between atoms: N5_30  and  S1_31 
ROOT
HETATM    1  C8  UNL     1       0.277   2.635  23.172  1.00  0.00     0.221 C 
HETATM    2  O2  UNL     1      -0.612   2.845  22.305  1.00  0.00    -0.273 OA
HETATM    3  N4  UNL     1       0.740   3.136  24.263  1.00  0.00    -0.350 N 
ATOM      4  H4  UNL     1       1.491   2.579  24.668  1.00  0.00     0.163 HD
ENDROOT
BRANCH   1   5
HETATM    5  C7  UNL     1       0.900   1.256  22.578  1.00  0.00     0.157 C 
BRANCH   5   6
HETATM    6  C6  UNL     1       0.374   0.272  23.569  1.00  0.00     0.292 C 
BRANCH   6   7
HETATM    7  N2  UNL     1      -0.976   0.313  23.859  1.00  0.00    -0.331 N 
HETATM    8  C5  UNL     1      -1.622   0.570  25.096  1.00  0.00     0.250 C 
HETATM    9  O1  UNL     1      -0.999   0.822  26.110  1.00  0.00    -0.271 OA
ATOM     10  H2  UNL     1      -1.598   0.132  23.071  1.00  0.00     0.164 HD
BRANCH   8  11
HETATM   11  C4  UNL     1      -3.088   0.510  25.018  1.00  0.00     0.278 C 
BRANCH  11  12
HETATM   12  C2  UNL     1      -3.727  -0.073  26.259  1.00  0.00     0.017 C 
HETATM   13  C1  UNL     1      -4.650   0.833  27.023  1.00  0.00     0.012 C 
HETATM   14  C3  UNL     1      -4.392  -1.397  26.009  1.00  0.00     0.012 C 
ENDBRANCH  11  12
BRANCH  11  15
HETATM   15  N1  UNL     1      -3.778   1.724  24.729  1.00  0.00    -0.066 N 
ATOM     16  H13 UNL     1      -3.384   2.534  25.208  1.00  0.00     0.275 HD
ATOM     17  H12 UNL     1      -3.630   2.054  23.775  1.00  0.00     0.275 HD
ATOM     18  H11 UNL     1      -4.761   1.565  24.951  1.00  0.00     0.275 HD
ENDBRANCH  11  15
ENDBRANCH   8  11
ENDBRANCH   6   7
BRANCH   6  19
HETATM   19  N3  UNL     1       0.633  -1.064  22.828  1.00  0.00    -0.058 N 
ATOM     20  H33 UNL     1      -0.222  -1.582  22.622  1.00  0.00     0.276 HD
ATOM     21  H32 UNL     1       0.941  -0.936  21.864  1.00  0.00     0.276 HD
ATOM     22  H31 UNL     1       1.296  -1.591  23.394  1.00  0.00     0.276 HD
ENDBRANCH   6  19
ENDBRANCH   5   6
ENDBRANCH   1   5
BRANCH   3  23
HETATM   23  C9  UNL     1       0.432   4.308  25.038  1.00  0.00     0.159 A 
HETATM   24  C10 UNL     1      -0.354   4.201  26.280  1.00  0.00     0.060 A 
HETATM   25  C11 UNL     1       0.893   4.641  27.078  1.00  0.00     0.139 A 
HETATM   26  C16 UNL     1       1.696   4.671  25.889  1.00  0.00     0.283 A 
HETATM   27  F1  UNL     1       2.033   5.996  25.542  1.00  0.00    -0.203 F 
HETATM   28  F2  UNL     1       2.757   3.874  25.663  1.00  0.00    -0.203 F 
BRANCH  25  29
HETATM   29  C12 UNL     1       0.727   6.012  27.742  1.00  0.00     0.208 C 
BRANCH  29  30
HETATM   30  O3  UNL     1       1.635   6.043  28.844  1.00  0.00    -0.290 OA
BRANCH  30  31
HETATM   31  C13 UNL     1       1.352   6.826  30.045  1.00  0.00     0.450 C 
HETATM   32  O4  UNL     1       1.695   8.008  29.980  1.00  0.00    -0.220 OA
HETATM   33  N5  UNL     1       0.711   6.292  31.066  1.00  0.00    -0.258 NA
BRANCH  33  34
HETATM   34  S1  UNL     1      -0.113   5.642  32.393  1.00  0.00     0.292 S 
HETATM   35  C14 UNL     1      -1.322   4.403  31.937  1.00  0.00     0.202 C 
HETATM   36  O5  UNL     1      -0.951   6.790  33.038  1.00  0.00    -0.192 OA
HETATM   37  O6  UNL     1       0.772   5.166  33.509  1.00  0.00    -0.192 OA
ENDBRANCH  33  34
ENDBRANCH  30  31
ENDBRANCH  29  30
ENDBRANCH  25  29
BRANCH  25  38
HETATM   38  C15 UNL     1       1.002   3.505  28.090  1.00  0.00     0.190 C 
HETATM   39  O7  UNL     1       2.240   3.339  28.476  1.00  0.00    -0.647 OA
HETATM   40  O8  UNL     1       0.061   2.727  28.631  1.00  0.00    -0.647 OA
ENDBRANCH  25  38
ENDBRANCH   3  23
TORSDOF 13
ENDMDL
