MODEL 1
REMARK VINA RESULT: -8.241770905      0.000      0.000
REMARK  14 active torsions:
REMARK  status: ('A' for Active; 'I' for Inactive)
REMARK    1  A    between atoms: C2_2  and  C3_4 
REMARK    2  A    between atoms: C3_4  and  C5_6 
REMARK    3  A    between atoms: C5_6  and  C6_8 
REMARK    4  A    between atoms: C6_8  and  O2_9 
REMARK    5  A    between atoms: C6_8  and  N1_11 
REMARK    6  A    between atoms: C9_14  and  N2_15 
REMARK    7  A    between atoms: C9_14  and  C19_39 
REMARK       I    between atoms: N2_15  and  C10_17 
REMARK    8  A    between atoms: C10_17  and  C11_19 
REMARK    9  A    between atoms: C11_19  and  N3_20 
REMARK   10  A    between atoms: C11_19  and  C12_24 
REMARK   11  A    between atoms: C12_24  and  N4_25 
REMARK   12  A    between atoms: C12_24  and  C13_29 
REMARK   13  A    between atoms: C13_29  and  C14_30 
REMARK       I    between atoms: C14_30  and  N5_32 
REMARK   14  A    between atoms: N5_32  and  C15_34 
ROOT
HETATM    1  N2  UNL     1      -2.511  -0.148  25.874  1.00  0.00    -0.339 N 
ATOM      2  H2  UNL     1      -2.061  -1.042  25.679  1.00  0.00     0.163 HD
HETATM    3  C10 UNL     1      -2.290   0.882  24.954  1.00  0.00     0.251 C 
HETATM    4  O3  UNL     1      -2.833   2.020  25.164  1.00  0.00    -0.271 OA
ENDROOT
BRANCH   3   5
HETATM    5  C11 UNL     1      -1.436   0.674  23.743  1.00  0.00     0.305 C 
BRANCH   5   6
HETATM    6  N3  UNL     1      -0.180   0.101  24.220  1.00  0.00    -0.064 N 
ATOM      7  H33 UNL     1       0.129   0.489  25.111  1.00  0.00     0.275 HD
ATOM      8  H32 UNL     1      -0.268  -0.867  24.527  1.00  0.00     0.275 HD
ATOM      9  H31 UNL     1       0.496   0.227  23.466  1.00  0.00     0.275 HD
ENDBRANCH   5   6
BRANCH   5  10
HETATM   10  C12 UNL     1      -1.162   2.025  23.121  1.00  0.00     0.231 C 
BRANCH  10  11
HETATM   11  N4  UNL     1      -1.562   2.069  21.755  1.00  0.00    -0.072 N 
ATOM     12  H43 UNL     1      -0.867   1.632  21.150  1.00  0.00     0.274 HD
ATOM     13  H42 UNL     1      -2.347   1.442  21.577  1.00  0.00     0.274 HD
ATOM     14  H41 UNL     1      -1.771   3.020  21.452  1.00  0.00     0.274 HD
ENDBRANCH  10  11
BRANCH  10  15
HETATM   15  C13 UNL     1       0.201   2.563  23.385  1.00  0.00     0.138 C 
BRANCH  15  16
HETATM   16  C14 UNL     1       0.311   3.570  24.439  1.00  0.00     0.220 C 
HETATM   17  O4  UNL     1       0.568   4.759  24.142  1.00  0.00    -0.274 OA
HETATM   18  N5  UNL     1       0.136   3.244  25.794  1.00  0.00    -0.354 N 
ATOM     19  H5  UNL     1      -0.074   2.282  26.060  1.00  0.00     0.162 HD
BRANCH  18  20
HETATM   20  C15 UNL     1       0.249   4.254  26.805  1.00  0.00     0.110 C 
HETATM   21  C16 UNL     1      -1.097   4.702  27.330  1.00  0.00     0.053 C 
HETATM   22  C17 UNL     1      -0.929   4.586  28.819  1.00  0.00     0.169 C 
HETATM   23  O5  UNL     1       0.435   4.694  29.008  1.00  0.00    -0.389 OA
HETATM   24  C18 UNL     1       0.932   3.768  28.067  1.00  0.00     0.192 C 
ENDBRANCH  18  20
ENDBRANCH  15  16
ENDBRANCH  10  15
ENDBRANCH   5  10
ENDBRANCH   3   5
BRANCH   1  25
HETATM   25  C9  UNL     1      -3.318  -0.072  27.077  1.00  0.00     0.138 C 
HETATM   26  C8  UNL     1      -2.893  -1.237  27.970  1.00  0.00     0.065 C 
HETATM   27  C7  UNL     1      -3.866  -1.549  29.053  1.00  0.00     0.150 C 
HETATM   28  N1  UNL     1      -5.260  -1.599  28.472  1.00  0.00    -0.272 N 
HETATM   29  N6  UNL     1      -5.592  -0.396  27.902  1.00  0.00    -0.134 NA
HETATM   30  C20 UNL     1      -4.788  -0.124  26.761  1.00  0.00     0.177 C 
BRANCH  28  31
HETATM   31  C6  UNL     1      -5.982  -2.778  28.575  1.00  0.00     0.194 C 
BRANCH  31  32
HETATM   32  C5  UNL     1      -5.820  -4.110  29.016  1.00  0.00     0.177 C 
HETATM   33  F1  UNL     1      -5.415  -4.147  30.396  1.00  0.00    -0.201 F 
BRANCH  32  34
HETATM   34  C3  UNL     1      -5.951  -5.263  28.449  1.00  0.00     0.026 C 
HETATM   35  C4  UNL     1      -6.344  -6.530  29.133  1.00  0.00     0.055 C 
BRANCH  34  36
HETATM   36  C2  UNL     1      -5.702  -5.443  27.001  1.00  0.00     0.154 C 
HETATM   37  C1  UNL     1      -5.235  -6.673  26.386  1.00  0.00     0.096 C 
HETATM   38  O1  UNL     1      -5.919  -4.422  26.237  1.00  0.00    -0.293 OA
ENDBRANCH  34  36
ENDBRANCH  32  34
ENDBRANCH  31  32
BRANCH  31  39
HETATM   39  O2  UNL     1      -7.254  -2.599  28.104  1.00  0.00    -0.343 OA
ATOM     40  H2  UNL     1      -7.245  -2.589  27.153  1.00  0.00     0.219 HD
ENDBRANCH  31  39
ENDBRANCH  28  31
BRANCH  25  41
HETATM   41  C19 UNL     1      -3.032   1.152  27.853  1.00  0.00     0.204 C 
HETATM   42  O6  UNL     1      -1.882   1.274  28.359  1.00  0.00    -0.646 OA
HETATM   43  O7  UNL     1      -3.917   2.177  28.073  1.00  0.00    -0.646 OA
ENDBRANCH  25  41
ENDBRANCH   1  25
TORSDOF 14
ENDMDL
MODEL 2
REMARK VINA RESULT: -8.069674094      2.204      3.067
REMARK  14 active torsions:
REMARK  status: ('A' for Active; 'I' for Inactive)
REMARK    1  A    between atoms: C2_2  and  C3_4 
REMARK    2  A    between atoms: C3_4  and  C5_6 
REMARK    3  A    between atoms: C5_6  and  C6_8 
REMARK    4  A    between atoms: C6_8  and  O2_9 
REMARK    5  A    between atoms: C6_8  and  N1_11 
REMARK    6  A    between atoms: C9_14  and  N2_15 
REMARK    7  A    between atoms: C9_14  and  C19_39 
REMARK       I    between atoms: N2_15  and  C10_17 
REMARK    8  A    between atoms: C10_17  and  C11_19 
REMARK    9  A    between atoms: C11_19  and  N3_20 
REMARK   10  A    between atoms: C11_19  and  C12_24 
REMARK   11  A    between atoms: C12_24  and  N4_25 
REMARK   12  A    between atoms: C12_24  and  C13_29 
REMARK   13  A    between atoms: C13_29  and  C14_30 
REMARK       I    between atoms: C14_30  and  N5_32 
REMARK   14  A    between atoms: N5_32  and  C15_34 
ROOT
HETATM    1  N2  UNL     1      -4.236   1.910  25.731  1.00  0.00    -0.339 N 
ATOM      2  H2  UNL     1      -4.145   2.924  25.797  1.00  0.00     0.163 HD
HETATM    3  C10 UNL     1      -3.217   1.230  25.056  1.00  0.00     0.251 C 
HETATM    4  O3  UNL     1      -3.295  -0.042  24.947  1.00  0.00    -0.271 OA
ENDROOT
BRANCH   3   5
HETATM    5  C11 UNL     1      -2.051   1.959  24.466  1.00  0.00     0.305 C 
BRANCH   5   6
HETATM    6  N3  UNL     1      -1.672   1.222  23.264  1.00  0.00    -0.064 N 
ATOM      7  H33 UNL     1      -0.900   0.572  23.414  1.00  0.00     0.275 HD
ATOM      8  H32 UNL     1      -2.365   0.530  22.978  1.00  0.00     0.275 HD
ATOM      9  H31 UNL     1      -1.480   1.922  22.547  1.00  0.00     0.275 HD
ENDBRANCH   5   6
BRANCH   5  10
HETATM   10  C12 UNL     1      -0.912   1.912  25.459  1.00  0.00     0.231 C 
BRANCH  10  11
HETATM   11  N4  UNL     1      -0.862   0.668  26.148  1.00  0.00    -0.072 N 
ATOM     12  H43 UNL     1      -1.277   0.741  27.077  1.00  0.00     0.274 HD
ATOM     13  H42 UNL     1      -1.505  -0.010  25.738  1.00  0.00     0.274 HD
ATOM     14  H41 UNL     1       0.087   0.298  26.194  1.00  0.00     0.274 HD
ENDBRANCH  10  11
BRANCH  10  15
HETATM   15  C13 UNL     1      -0.807   3.111  26.336  1.00  0.00     0.138 C 
BRANCH  15  16
HETATM   16  C14 UNL     1      -0.935   2.878  27.774  1.00  0.00     0.220 C 
HETATM   17  O4  UNL     1       0.023   2.387  28.415  1.00  0.00    -0.274 OA
HETATM   18  N5  UNL     1      -2.113   3.191  28.472  1.00  0.00    -0.354 N 
ATOM     19  H5  UNL     1      -2.907   3.591  27.972  1.00  0.00     0.162 HD
BRANCH  18  20
HETATM   20  C15 UNL     1      -2.208   2.951  29.882  1.00  0.00     0.110 C 
HETATM   21  C16 UNL     1      -1.850   4.171  30.702  1.00  0.00     0.053 C 
HETATM   22  C17 UNL     1      -3.015   4.295  31.642  1.00  0.00     0.169 C 
HETATM   23  O5  UNL     1      -3.521   3.012  31.714  1.00  0.00    -0.389 OA
HETATM   24  C18 UNL     1      -3.620   2.662  30.350  1.00  0.00     0.192 C 
ENDBRANCH  18  20
ENDBRANCH  15  16
ENDBRANCH  10  15
ENDBRANCH   5  10
ENDBRANCH   3   5
BRANCH   1  25
HETATM   25  C9  UNL     1      -5.408   1.318  26.346  1.00  0.00     0.138 C 
HETATM   26  C8  UNL     1      -4.927   0.567  27.587  1.00  0.00     0.065 C 
HETATM   27  C7  UNL     1      -5.914  -0.414  28.116  1.00  0.00     0.150 C 
HETATM   28  N1  UNL     1      -6.454  -1.244  26.974  1.00  0.00    -0.272 N 
HETATM   29  N6  UNL     1      -7.068  -0.446  26.041  1.00  0.00    -0.134 NA
HETATM   30  C20 UNL     1      -6.131   0.406  25.392  1.00  0.00     0.177 C 
BRANCH  28  31
HETATM   31  C6  UNL     1      -6.270  -2.617  27.005  1.00  0.00     0.194 C 
BRANCH  31  32
HETATM   32  C5  UNL     1      -5.521  -3.593  27.700  1.00  0.00     0.177 C 
HETATM   33  F1  UNL     1      -4.111  -3.333  27.583  1.00  0.00    -0.201 F 
BRANCH  32  34
HETATM   34  C3  UNL     1      -5.834  -4.639  28.389  1.00  0.00     0.026 C 
HETATM   35  C4  UNL     1      -5.945  -4.700  29.876  1.00  0.00     0.055 C 
BRANCH  34  36
HETATM   36  C2  UNL     1      -6.117  -5.938  27.736  1.00  0.00     0.154 C 
HETATM   37  C1  UNL     1      -6.640  -7.111  28.414  1.00  0.00     0.096 C 
HETATM   38  O1  UNL     1      -5.876  -6.021  26.468  1.00  0.00    -0.293 OA
ENDBRANCH  34  36
ENDBRANCH  32  34
ENDBRANCH  31  32
BRANCH  31  39
HETATM   39  O2  UNL     1      -7.064  -3.224  26.070  1.00  0.00    -0.343 OA
ATOM     40  H2  UNL     1      -7.047  -2.724  25.262  1.00  0.00     0.219 HD
ENDBRANCH  31  39
ENDBRANCH  28  31
BRANCH  25  41
HETATM   41  C19 UNL     1      -6.347   2.346  26.839  1.00  0.00     0.204 C 
HETATM   42  O6  UNL     1      -5.986   3.052  27.821  1.00  0.00    -0.646 OA
HETATM   43  O7  UNL     1      -7.590   2.602  26.318  1.00  0.00    -0.646 OA
ENDBRANCH  25  41
ENDBRANCH   1  25
TORSDOF 14
ENDMDL
MODEL 3
REMARK VINA RESULT: -8.050310923      2.979      9.179
REMARK  14 active torsions:
REMARK  status: ('A' for Active; 'I' for Inactive)
REMARK    1  A    between atoms: C2_2  and  C3_4 
REMARK    2  A    between atoms: C3_4  and  C5_6 
REMARK    3  A    between atoms: C5_6  and  C6_8 
REMARK    4  A    between atoms: C6_8  and  O2_9 
REMARK    5  A    between atoms: C6_8  and  N1_11 
REMARK    6  A    between atoms: C9_14  and  N2_15 
REMARK    7  A    between atoms: C9_14  and  C19_39 
REMARK       I    between atoms: N2_15  and  C10_17 
REMARK    8  A    between atoms: C10_17  and  C11_19 
REMARK    9  A    between atoms: C11_19  and  N3_20 
REMARK   10  A    between atoms: C11_19  and  C12_24 
REMARK   11  A    between atoms: C12_24  and  N4_25 
REMARK   12  A    between atoms: C12_24  and  C13_29 
REMARK   13  A    between atoms: C13_29  and  C14_30 
REMARK       I    between atoms: C14_30  and  N5_32 
REMARK   14  A    between atoms: N5_32  and  C15_34 
ROOT
HETATM    1  N2  UNL     1      -2.805   1.447  24.042  1.00  0.00    -0.339 N 
ATOM      2  H2  UNL     1      -3.624   1.208  23.483  1.00  0.00     0.163 HD
HETATM    3  C10 UNL     1      -2.662   0.785  25.265  1.00  0.00     0.251 C 
HETATM    4  O3  UNL     1      -1.651   1.061  25.998  1.00  0.00    -0.271 OA
ENDROOT
BRANCH   3   5
HETATM    5  C11 UNL     1      -3.663  -0.228  25.724  1.00  0.00     0.305 C 
BRANCH   5   6
HETATM    6  N3  UNL     1      -4.964   0.435  25.688  1.00  0.00    -0.064 N 
ATOM      7  H33 UNL     1      -5.245   0.824  26.588  1.00  0.00     0.275 HD
ATOM      8  H32 UNL     1      -4.956   1.314  25.169  1.00  0.00     0.275 HD
ATOM      9  H31 UNL     1      -5.623  -0.248  25.316  1.00  0.00     0.275 HD
ENDBRANCH   5   6
BRANCH   5  10
HETATM   10  C12 UNL     1      -3.335  -0.603  27.152  1.00  0.00     0.231 C 
BRANCH  10  11
HETATM   11  N4  UNL     1      -2.448  -1.714  27.217  1.00  0.00    -0.072 N 
ATOM     12  H43 UNL     1      -2.367  -2.178  26.312  1.00  0.00     0.274 HD
ATOM     13  H42 UNL     1      -1.480  -1.411  27.329  1.00  0.00     0.274 HD
ATOM     14  H41 UNL     1      -2.717  -2.372  27.948  1.00  0.00     0.274 HD
ENDBRANCH  10  11
BRANCH  10  15
HETATM   15  C13 UNL     1      -4.517  -0.701  28.053  1.00  0.00     0.138 C 
BRANCH  15  16
HETATM   16  C14 UNL     1      -5.402  -1.845  27.842  1.00  0.00     0.220 C 
HETATM   17  O4  UNL     1      -6.505  -1.684  27.271  1.00  0.00    -0.274 OA
HETATM   18  N5  UNL     1      -5.053  -3.138  28.266  1.00  0.00    -0.354 N 
ATOM     19  H5  UNL     1      -4.160  -3.293  28.734  1.00  0.00     0.162 HD
BRANCH  18  20
HETATM   20  C15 UNL     1      -5.942  -4.240  28.045  1.00  0.00     0.110 C 
HETATM   21  C16 UNL     1      -5.593  -5.026  26.800  1.00  0.00     0.053 C 
HETATM   22  C17 UNL     1      -5.545  -6.441  27.302  1.00  0.00     0.169 C 
HETATM   23  O5  UNL     1      -6.356  -6.425  28.420  1.00  0.00    -0.389 OA
HETATM   24  C18 UNL     1      -5.861  -5.304  29.121  1.00  0.00     0.192 C 
ENDBRANCH  18  20
ENDBRANCH  15  16
ENDBRANCH  10  15
ENDBRANCH   5  10
ENDBRANCH   3   5
BRANCH   1  25
HETATM   25  C9  UNL     1      -1.905   2.441  23.488  1.00  0.00     0.138 C 
HETATM   26  C8  UNL     1      -0.498   1.845  23.541  1.00  0.00     0.065 C 
HETATM   27  C7  UNL     1       0.586   2.852  23.386  1.00  0.00     0.150 C 
HETATM   28  N1  UNL     1       0.304   4.034  24.285  1.00  0.00    -0.272 N 
HETATM   29  N6  UNL     1      -0.897   4.613  23.962  1.00  0.00    -0.134 NA
HETATM   30  C20 UNL     1      -1.985   3.740  24.243  1.00  0.00     0.177 C 
BRANCH  28  31
HETATM   31  C6  UNL     1       1.230   4.361  25.263  1.00  0.00     0.194 C 
BRANCH  31  32
HETATM   32  C5  UNL     1       1.349   5.180  26.408  1.00  0.00     0.177 C 
HETATM   33  F1  UNL     1       2.033   6.406  26.091  1.00  0.00    -0.201 F 
BRANCH  32  34
HETATM   34  C3  UNL     1       0.989   5.052  27.641  1.00  0.00     0.026 C 
HETATM   35  C4  UNL     1       0.583   6.165  28.549  1.00  0.00     0.055 C 
BRANCH  34  36
HETATM   36  C2  UNL     1       0.953   3.728  28.302  1.00  0.00     0.154 C 
HETATM   37  C1  UNL     1      -0.221   2.879  28.396  1.00  0.00     0.096 C 
HETATM   38  O1  UNL     1       2.056   3.307  28.831  1.00  0.00    -0.293 OA
ENDBRANCH  34  36
ENDBRANCH  32  34
ENDBRANCH  31  32
BRANCH  31  39
HETATM   39  O2  UNL     1       2.398   3.678  25.060  1.00  0.00    -0.343 OA
ATOM     40  H2  UNL     1       3.135   4.271  25.145  1.00  0.00     0.219 HD
ENDBRANCH  31  39
ENDBRANCH  28  31
BRANCH  25  41
HETATM   41  C19 UNL     1      -2.179   2.693  22.059  1.00  0.00     0.204 C 
HETATM   42  O6  UNL     1      -3.152   3.443  21.769  1.00  0.00    -0.646 OA
HETATM   43  O7  UNL     1      -1.461   2.178  21.010  1.00  0.00    -0.646 OA
ENDBRANCH  25  41
ENDBRANCH   1  25
TORSDOF 14
ENDMDL
MODEL 4
REMARK VINA RESULT: -8.033583319      1.762      2.081
REMARK  14 active torsions:
REMARK  status: ('A' for Active; 'I' for Inactive)
REMARK    1  A    between atoms: C2_2  and  C3_4 
REMARK    2  A    between atoms: C3_4  and  C5_6 
REMARK    3  A    between atoms: C5_6  and  C6_8 
REMARK    4  A    between atoms: C6_8  and  O2_9 
REMARK    5  A    between atoms: C6_8  and  N1_11 
REMARK    6  A    between atoms: C9_14  and  N2_15 
REMARK    7  A    between atoms: C9_14  and  C19_39 
REMARK       I    between atoms: N2_15  and  C10_17 
REMARK    8  A    between atoms: C10_17  and  C11_19 
REMARK    9  A    between atoms: C11_19  and  N3_20 
REMARK   10  A    between atoms: C11_19  and  C12_24 
REMARK   11  A    between atoms: C12_24  and  N4_25 
REMARK   12  A    between atoms: C12_24  and  C13_29 
REMARK   13  A    between atoms: C13_29  and  C14_30 
REMARK       I    between atoms: C14_30  and  N5_32 
REMARK   14  A    between atoms: N5_32  and  C15_34 
ROOT
HETATM    1  N2  UNL     1      -2.200  -0.032  25.425  1.00  0.00    -0.339 N 
ATOM      2  H2  UNL     1      -1.428  -0.694  25.497  1.00  0.00     0.163 HD
HETATM    3  C10 UNL     1      -2.129   0.907  24.391  1.00  0.00     0.251 C 
HETATM    4  O3  UNL     1      -3.074   1.759  24.269  1.00  0.00    -0.271 OA
ENDROOT
BRANCH   3   5
HETATM    5  C11 UNL     1      -0.975   0.930  23.438  1.00  0.00     0.305 C 
BRANCH   5   6
HETATM    6  N3  UNL     1       0.108   0.198  24.087  1.00  0.00    -0.064 N 
ATOM      7  H33 UNL     1       0.156   0.354  25.093  1.00  0.00     0.275 HD
ATOM      8  H32 UNL     1      -0.049  -0.810  24.123  1.00  0.00     0.275 HD
ATOM      9  H31 UNL     1       0.964   0.456  23.595  1.00  0.00     0.275 HD
ENDBRANCH   5   6
BRANCH   5  10
HETATM   10  C12 UNL     1      -0.555   2.369  23.239  1.00  0.00     0.231 C 
BRANCH  10  11
HETATM   11  N4  UNL     1       0.179   2.544  22.032  1.00  0.00    -0.072 N 
ATOM     12  H43 UNL     1       0.518   3.502  21.940  1.00  0.00     0.274 HD
ATOM     13  H42 UNL     1       1.075   2.059  22.069  1.00  0.00     0.274 HD
ATOM     14  H41 UNL     1      -0.362   2.262  21.215  1.00  0.00     0.274 HD
ENDBRANCH  10  11
BRANCH  10  15
HETATM   15  C13 UNL     1       0.062   3.003  24.437  1.00  0.00     0.138 C 
BRANCH  15  16
HETATM   16  C14 UNL     1       0.242   4.453  24.386  1.00  0.00     0.220 C 
HETATM   17  O4  UNL     1       0.151   5.056  23.291  1.00  0.00    -0.274 OA
HETATM   18  N5  UNL     1       0.517   5.206  25.539  1.00  0.00    -0.354 N 
ATOM     19  H5  UNL     1       0.595   4.737  26.443  1.00  0.00     0.162 HD
BRANCH  18  20
HETATM   20  C15 UNL     1       0.687   6.626  25.458  1.00  0.00     0.110 C 
HETATM   21  C16 UNL     1      -0.542   7.385  25.906  1.00  0.00     0.053 C 
HETATM   22  C17 UNL     1       0.015   8.365  26.900  1.00  0.00     0.169 C 
HETATM   23  O5  UNL     1       1.336   8.505  26.522  1.00  0.00    -0.389 OA
HETATM   24  C18 UNL     1       1.747   7.161  26.400  1.00  0.00     0.192 C 
ENDBRANCH  18  20
ENDBRANCH  15  16
ENDBRANCH  10  15
ENDBRANCH   5  10
ENDBRANCH   3   5
BRANCH   1  25
HETATM   25  C9  UNL     1      -3.262  -0.158  26.405  1.00  0.00     0.138 C 
HETATM   26  C8  UNL     1      -2.826  -1.238  27.395  1.00  0.00     0.065 C 
HETATM   27  C7  UNL     1      -3.939  -1.774  28.226  1.00  0.00     0.150 C 
HETATM   28  N1  UNL     1      -5.120  -2.089  27.337  1.00  0.00    -0.272 N 
HETATM   29  N6  UNL     1      -5.550  -0.962  26.682  1.00  0.00    -0.134 NA
HETATM   30  C20 UNL     1      -4.575  -0.499  25.755  1.00  0.00     0.177 C 
BRANCH  28  31
HETATM   31  C6  UNL     1      -5.588  -3.393  27.291  1.00  0.00     0.194 C 
BRANCH  31  32
HETATM   32  C5  UNL     1      -5.472  -4.610  28.000  1.00  0.00     0.177 C 
HETATM   33  F1  UNL     1      -5.015  -4.377  29.344  1.00  0.00    -0.201 F 
BRANCH  32  34
HETATM   34  C3  UNL     1      -5.678  -5.847  27.693  1.00  0.00     0.026 C 
HETATM   35  C4  UNL     1      -5.168  -6.538  26.473  1.00  0.00     0.055 C 
BRANCH  34  36
HETATM   36  C2  UNL     1      -6.487  -6.733  28.561  1.00  0.00     0.154 C 
HETATM   37  C1  UNL     1      -6.397  -6.782  30.010  1.00  0.00     0.096 C 
HETATM   38  O1  UNL     1      -7.332  -7.516  27.974  1.00  0.00    -0.293 OA
ENDBRANCH  34  36
ENDBRANCH  32  34
ENDBRANCH  31  32
BRANCH  31  39
HETATM   39  O2  UNL     1      -6.430  -3.557  26.226  1.00  0.00    -0.343 OA
ATOM     40  H2  UNL     1      -7.041  -2.830  26.184  1.00  0.00     0.219 HD
ENDBRANCH  31  39
ENDBRANCH  28  31
BRANCH  25  41
HETATM   41  C19 UNL     1      -3.421   1.075  27.202  1.00  0.00     0.204 C 
HETATM   42  O6  UNL     1      -2.465   1.421  27.951  1.00  0.00    -0.646 OA
HETATM   43  O7  UNL     1      -4.529   1.884  27.201  1.00  0.00    -0.646 OA
ENDBRANCH  25  41
ENDBRANCH   1  25
TORSDOF 14
ENDMDL
MODEL 5
REMARK VINA RESULT: -8.015568092      3.355      5.389
REMARK  14 active torsions:
REMARK  status: ('A' for Active; 'I' for Inactive)
REMARK    1  A    between atoms: C2_2  and  C3_4 
REMARK    2  A    between atoms: C3_4  and  C5_6 
REMARK    3  A    between atoms: C5_6  and  C6_8 
REMARK    4  A    between atoms: C6_8  and  O2_9 
REMARK    5  A    between atoms: C6_8  and  N1_11 
REMARK    6  A    between atoms: C9_14  and  N2_15 
REMARK    7  A    between atoms: C9_14  and  C19_39 
REMARK       I    between atoms: N2_15  and  C10_17 
REMARK    8  A    between atoms: C10_17  and  C11_19 
REMARK    9  A    between atoms: C11_19  and  N3_20 
REMARK   10  A    between atoms: C11_19  and  C12_24 
REMARK   11  A    between atoms: C12_24  and  N4_25 
REMARK   12  A    between atoms: C12_24  and  C13_29 
REMARK   13  A    between atoms: C13_29  and  C14_30 
REMARK       I    between atoms: C14_30  and  N5_32 
REMARK   14  A    between atoms: N5_32  and  C15_34 
ROOT
HETATM    1  N2  UNL     1      -4.344  -2.238  27.838  1.00  0.00    -0.339 N 
ATOM      2  H2  UNL     1      -3.425  -2.647  28.004  1.00  0.00     0.163 HD
HETATM    3  C10 UNL     1      -4.375  -1.025  27.142  1.00  0.00     0.251 C 
HETATM    4  O3  UNL     1      -5.508  -0.476  26.916  1.00  0.00    -0.271 OA
ENDROOT
BRANCH   3   5
HETATM    5  C11 UNL     1      -3.119  -0.368  26.665  1.00  0.00     0.305 C 
BRANCH   5   6
HETATM    6  N3  UNL     1      -2.041  -1.326  26.895  1.00  0.00    -0.064 N 
ATOM      7  H33 UNL     1      -1.446  -1.083  27.687  1.00  0.00     0.275 HD
ATOM      8  H32 UNL     1      -2.368  -2.224  27.253  1.00  0.00     0.275 HD
ATOM      9  H31 UNL     1      -1.533  -1.403  26.014  1.00  0.00     0.275 HD
ENDBRANCH   5   6
BRANCH   5  10
HETATM   10  C12 UNL     1      -2.879   0.863  27.510  1.00  0.00     0.231 C 
BRANCH  10  11
HETATM   11  N4  UNL     1      -3.963   1.783  27.424  1.00  0.00    -0.072 N 
ATOM     12  H43 UNL     1      -3.629   2.740  27.312  1.00  0.00     0.274 HD
ATOM     13  H42 UNL     1      -4.465   1.684  26.541  1.00  0.00     0.274 HD
ATOM     14  H41 UNL     1      -4.594   1.701  28.220  1.00  0.00     0.274 HD
ENDBRANCH  10  11
BRANCH  10  15
HETATM   15  C13 UNL     1      -1.532   1.476  27.343  1.00  0.00     0.138 C 
BRANCH  15  16
HETATM   16  C14 UNL     1      -1.284   2.168  26.079  1.00  0.00     0.220 C 
HETATM   17  O4  UNL     1      -1.772   3.305  25.884  1.00  0.00    -0.274 OA
HETATM   18  N5  UNL     1      -0.506   1.593  25.061  1.00  0.00    -0.354 N 
ATOM     19  H5  UNL     1      -0.099   0.667  25.197  1.00  0.00     0.162 HD
BRANCH  18  20
HETATM   20  C15 UNL     1      -0.280   2.296  23.833  1.00  0.00     0.110 C 
HETATM   21  C16 UNL     1       1.092   2.027  23.255  1.00  0.00     0.053 C 
HETATM   22  C17 UNL     1       0.785   1.645  21.834  1.00  0.00     0.169 C 
HETATM   23  O5  UNL     1      -0.432   2.248  21.584  1.00  0.00    -0.389 OA
HETATM   24  C18 UNL     1      -1.189   1.849  22.707  1.00  0.00     0.192 C 
ENDBRANCH  18  20
ENDBRANCH  15  16
ENDBRANCH  10  15
ENDBRANCH   5  10
ENDBRANCH   3   5
BRANCH   1  25
HETATM   25  C9  UNL     1      -5.488  -2.971  28.345  1.00  0.00     0.138 C 
HETATM   26  C8  UNL     1      -6.108  -2.117  29.450  1.00  0.00     0.065 C 
HETATM   27  C7  UNL     1      -7.036  -2.868  30.340  1.00  0.00     0.150 C 
HETATM   28  N1  UNL     1      -6.386  -4.167  30.757  1.00  0.00    -0.272 N 
HETATM   29  N6  UNL     1      -6.093  -4.938  29.660  1.00  0.00    -0.134 NA
HETATM   30  C20 UNL     1      -5.090  -4.331  28.854  1.00  0.00     0.177 C 
BRANCH  28  31
HETATM   31  C6  UNL     1      -6.175  -4.402  32.106  1.00  0.00     0.194 C 
BRANCH  31  32
HETATM   32  C5  UNL     1      -5.570  -3.793  33.229  1.00  0.00     0.177 C 
HETATM   33  F1  UNL     1      -4.711  -2.712  32.824  1.00  0.00    -0.201 F 
BRANCH  32  34
HETATM   34  C3  UNL     1      -5.624  -4.008  34.501  1.00  0.00     0.026 C 
HETATM   35  C4  UNL     1      -6.235  -3.096  35.512  1.00  0.00     0.055 C 
BRANCH  34  36
HETATM   36  C2  UNL     1      -5.049  -5.233  35.103  1.00  0.00     0.154 C 
HETATM   37  C1  UNL     1      -3.658  -5.393  35.488  1.00  0.00     0.096 C 
HETATM   38  O1  UNL     1      -5.855  -6.226  35.293  1.00  0.00    -0.293 OA
ENDBRANCH  34  36
ENDBRANCH  32  34
ENDBRANCH  31  32
BRANCH  31  39
HETATM   39  O2  UNL     1      -6.725  -5.600  32.471  1.00  0.00    -0.343 OA
ATOM     40  H2  UNL     1      -6.792  -5.647  33.418  1.00  0.00     0.219 HD
ENDBRANCH  31  39
ENDBRANCH  28  31
BRANCH  25  41
HETATM   41  C19 UNL     1      -6.539  -3.127  27.321  1.00  0.00     0.204 C 
HETATM   42  O6  UNL     1      -6.285  -3.854  26.320  1.00  0.00    -0.646 OA
HETATM   43  O7  UNL     1      -7.780  -2.544  27.361  1.00  0.00    -0.646 OA
ENDBRANCH  25  41
ENDBRANCH   1  25
TORSDOF 14
ENDMDL
