MODEL 1
REMARK VINA RESULT: -9.517615650      0.000      0.000
REMARK  12 active torsions:
REMARK  status: ('A' for Active; 'I' for Inactive)
REMARK    1  A    between atoms: O1_2  and  C2_3 
REMARK    2  A    between atoms: C4_5  and  N1_6 
REMARK    3  A    between atoms: N2_9  and  C7_10 
REMARK    4  A    between atoms: C15_19  and  N3_20 
REMARK    5  A    between atoms: N4_23  and  C18_24 
REMARK    6  A    between atoms: C18_24  and  C19_25 
REMARK    7  A    between atoms: C19_25  and  C20_26 
REMARK    8  A    between atoms: C20_26  and  C21_27 
REMARK       I    between atoms: N7_33  and  C23_35 
REMARK    9  A    between atoms: C23_35  and  C24_37 
REMARK   10  A    between atoms: C24_37  and  C25_38 
REMARK   11  A    between atoms: C25_38  and  C26_39 
REMARK   12  A    between atoms: C26_39  and  C27_40 
ROOT
HETATM    1  N3  UNL     1      18.796  22.760  19.254  1.00  0.00    -0.375 N 
HETATM    2  C16 UNL     1      18.851  24.195  19.084  1.00  0.00     0.153 C 
HETATM    3  C17 UNL     1      19.640  24.904  20.162  1.00  0.00     0.292 C 
HETATM    4  N4  UNL     1      20.870  24.255  20.403  1.00  0.00     0.091 N 
HETATM    5  C28 UNL     1      21.105  23.216  19.451  1.00  0.00     0.292 C 
HETATM    6  C29 UNL     1      20.031  22.146  19.718  1.00  0.00     0.153 C 
ENDROOT
BRANCH   4   7
HETATM    7  C18 UNL     1      22.023  25.114  20.579  1.00  0.00     0.273 C 
BRANCH   7   8
HETATM    8  C19 UNL     1      23.242  24.483  20.005  1.00  0.00     0.037 C 
BRANCH   8   9
HETATM    9  C20 UNL     1      24.412  25.361  19.791  1.00  0.00     0.068 C 
BRANCH   9  10
HETATM   10  C21 UNL     1      24.463  25.909  18.416  1.00  0.00     0.070 A 
HETATM   11  N5  UNL     1      25.333  25.846  17.431  1.00  0.00    -0.296 N 
HETATM   12  N6  UNL     1      25.113  26.411  16.317  1.00  0.00    -0.279 N 
ATOM     13  H5  UNL     1      26.204  25.332  17.566  1.00  0.00     0.187 HD
HETATM   14  C22 UNL     1      23.967  27.081  16.154  1.00  0.00     0.167 A 
ATOM     15  H6  UNL     1      25.797  26.355  15.561  1.00  0.00     0.189 HD
HETATM   16  N7  UNL     1      23.556  27.729  15.091  1.00  0.00    -0.306 N 
HETATM   17  S1  UNL     1      23.219  26.866  17.675  1.00  0.00    -0.038 SA
HETATM   18  C23 UNL     1      22.260  28.349  15.250  1.00  0.00     0.223 C 
ATOM     19  H7  UNL     1      24.101  27.789  14.231  1.00  0.00     0.171 HD
HETATM   20  O3  UNL     1      21.914  28.774  16.378  1.00  0.00    -0.273 OA
BRANCH  18  21
HETATM   21  C24 UNL     1      21.340  28.492  14.113  1.00  0.00     0.103 C 
BRANCH  21  22
HETATM   22  C25 UNL     1      20.650  27.232  13.696  1.00  0.00     0.020 C 
BRANCH  22  23
HETATM   23  C26 UNL     1      19.275  27.039  14.242  1.00  0.00     0.113 C 
BRANCH  23  24
HETATM   24  C27 UNL     1      19.243  26.088  15.405  1.00  0.00     0.172 C 
HETATM   25  O4  UNL     1      18.128  25.875  15.957  1.00  0.00    -0.648 OA
HETATM   26  O5  UNL     1      20.350  25.445  15.891  1.00  0.00    -0.648 OA
ENDBRANCH  23  24
ENDBRANCH  22  23
ENDBRANCH  21  22
ENDBRANCH  18  21
ENDBRANCH   9  10
ENDBRANCH   8   9
ENDBRANCH   7   8
ENDBRANCH   4   7
BRANCH   1  27
HETATM   27  C15 UNL     1      17.620  22.031  18.952  1.00  0.00     0.064 A 
HETATM   28  C2  UNL     1      17.485  21.331  17.749  1.00  0.00     0.096 A 
HETATM   29  C3  UNL     1      16.322  20.655  17.444  1.00  0.00     0.069 A 
HETATM   30  C4  UNL     1      15.247  20.622  18.280  1.00  0.00     0.041 A 
HETATM   31  C13 UNL     1      15.371  21.313  19.480  1.00  0.00     0.032 A 
HETATM   32  C14 UNL     1      16.535  21.997  19.797  1.00  0.00     0.034 A 
BRANCH  28  33
HETATM   33  O1  UNL     1      18.510  21.306  16.848  1.00  0.00    -0.354 OA
HETATM   34  C1  UNL     1      18.602  22.298  15.849  1.00  0.00     0.210 C 
ENDBRANCH  28  33
BRANCH  30  35
HETATM   35  N1  UNL     1      14.043  19.940  17.973  1.00  0.00    -0.298 N 
HETATM   36  C5  UNL     1      13.062  20.317  17.014  1.00  0.00     0.154 C 
HETATM   37  C6  UNL     1      12.103  19.169  16.867  1.00  0.00     0.148 C 
HETATM   38  N2  UNL     1      12.618  18.137  17.723  1.00  0.00    -0.328 N 
HETATM   39  C12 UNL     1      13.581  18.737  18.572  1.00  0.00     0.325 C 
HETATM   40  O2  UNL     1      13.998  18.305  19.701  1.00  0.00    -0.247 OA
BRANCH  38  41
HETATM   41  C7  UNL     1      12.280  16.715  17.782  1.00  0.00     0.089 C 
HETATM   42  C8  UNL     1      11.335  16.494  18.923  1.00  0.00     0.025 C 
HETATM   43  C9  UNL     1       9.964  16.632  18.319  1.00  0.00     0.002 C 
HETATM   44  C10 UNL     1      10.132  15.956  16.961  1.00  0.00     0.002 C 
HETATM   45  C11 UNL     1      11.547  16.263  16.568  1.00  0.00     0.025 C 
ENDBRANCH  38  41
ENDBRANCH  30  35
ENDBRANCH   1  27
TORSDOF 12
ENDMDL
MODEL 2
REMARK VINA RESULT: -9.508846107      1.312      1.498
REMARK  12 active torsions:
REMARK  status: ('A' for Active; 'I' for Inactive)
REMARK    1  A    between atoms: O1_2  and  C2_3 
REMARK    2  A    between atoms: C4_5  and  N1_6 
REMARK    3  A    between atoms: N2_9  and  C7_10 
REMARK    4  A    between atoms: C15_19  and  N3_20 
REMARK    5  A    between atoms: N4_23  and  C18_24 
REMARK    6  A    between atoms: C18_24  and  C19_25 
REMARK    7  A    between atoms: C19_25  and  C20_26 
REMARK    8  A    between atoms: C20_26  and  C21_27 
REMARK       I    between atoms: N7_33  and  C23_35 
REMARK    9  A    between atoms: C23_35  and  C24_37 
REMARK   10  A    between atoms: C24_37  and  C25_38 
REMARK   11  A    between atoms: C25_38  and  C26_39 
REMARK   12  A    between atoms: C26_39  and  C27_40 
ROOT
HETATM    1  N3  UNL     1      17.999  22.323  19.007  1.00  0.00    -0.375 N 
HETATM    2  C16 UNL     1      18.039  23.759  18.842  1.00  0.00     0.153 C 
HETATM    3  C17 UNL     1      18.860  24.470  19.895  1.00  0.00     0.292 C 
HETATM    4  N4  UNL     1      20.102  23.828  20.090  1.00  0.00     0.091 N 
HETATM    5  C28 UNL     1      20.311  22.794  19.127  1.00  0.00     0.292 C 
HETATM    6  C29 UNL     1      19.254  21.716  19.426  1.00  0.00     0.153 C 
ENDROOT
BRANCH   4   7
HETATM    7  C18 UNL     1      21.255  24.694  20.230  1.00  0.00     0.273 C 
BRANCH   7   8
HETATM    8  C19 UNL     1      20.851  26.027  20.755  1.00  0.00     0.037 C 
BRANCH   8   9
HETATM    9  C20 UNL     1      21.924  27.025  20.941  1.00  0.00     0.068 C 
BRANCH   9  10
HETATM   10  C21 UNL     1      22.620  27.349  19.674  1.00  0.00     0.070 A 
HETATM   11  N5  UNL     1      23.882  27.412  19.306  1.00  0.00    -0.296 N 
HETATM   12  N6  UNL     1      24.210  27.707  18.118  1.00  0.00    -0.279 N 
ATOM     13  H5  UNL     1      24.611  27.219  19.992  1.00  0.00     0.187 HD
HETATM   14  C22 UNL     1      23.242  27.957  17.229  1.00  0.00     0.167 A 
ATOM     15  H6  UNL     1      25.192  27.752  17.845  1.00  0.00     0.189 HD
HETATM   16  N7  UNL     1      23.371  28.278  15.965  1.00  0.00    -0.306 N 
HETATM   17  S1  UNL     1      21.837  27.752  18.179  1.00  0.00    -0.038 SA
HETATM   18  C23 UNL     1      22.113  28.484  15.282  1.00  0.00     0.223 C 
ATOM     19  H7  UNL     1      24.277  28.375  15.505  1.00  0.00     0.171 HD
HETATM   20  O3  UNL     1      21.135  28.945  15.918  1.00  0.00    -0.273 OA
BRANCH  18  21
HETATM   21  C24 UNL     1      21.958  28.163  13.857  1.00  0.00     0.103 C 
BRANCH  21  22
HETATM   22  C25 UNL     1      21.159  26.931  13.569  1.00  0.00     0.020 C 
BRANCH  22  23
HETATM   23  C26 UNL     1      21.456  25.754  14.436  1.00  0.00     0.113 C 
BRANCH  23  24
HETATM   24  C27 UNL     1      20.286  25.355  15.290  1.00  0.00     0.172 C 
HETATM   25  O4  UNL     1      20.243  24.163  15.705  1.00  0.00    -0.648 OA
HETATM   26  O5  UNL     1      19.274  26.209  15.639  1.00  0.00    -0.648 OA
ENDBRANCH  23  24
ENDBRANCH  22  23
ENDBRANCH  21  22
ENDBRANCH  18  21
ENDBRANCH   9  10
ENDBRANCH   8   9
ENDBRANCH   7   8
ENDBRANCH   4   7
BRANCH   1  27
HETATM   27  C15 UNL     1      16.818  21.587  18.743  1.00  0.00     0.064 A 
HETATM   28  C2  UNL     1      16.537  21.095  17.466  1.00  0.00     0.096 A 
HETATM   29  C3  UNL     1      15.367  20.412  17.206  1.00  0.00     0.069 A 
HETATM   30  C4  UNL     1      14.425  20.174  18.161  1.00  0.00     0.041 A 
HETATM   31  C13 UNL     1      14.695  20.658  19.436  1.00  0.00     0.032 A 
HETATM   32  C14 UNL     1      15.868  21.346  19.708  1.00  0.00     0.034 A 
BRANCH  28  33
HETATM   33  O1  UNL     1      17.422  21.284  16.444  1.00  0.00    -0.354 OA
HETATM   34  C1  UNL     1      17.160  22.246  15.445  1.00  0.00     0.210 C 
ENDBRANCH  28  33
BRANCH  30  35
HETATM   35  N1  UNL     1      13.213  19.483  17.904  1.00  0.00    -0.298 N 
HETATM   36  C5  UNL     1      12.016  20.023  17.357  1.00  0.00     0.154 C 
HETATM   37  C6  UNL     1      11.101  18.873  17.039  1.00  0.00     0.148 C 
HETATM   38  N2  UNL     1      11.852  17.693  17.370  1.00  0.00    -0.328 N 
HETATM   39  C12 UNL     1      12.963  18.106  18.148  1.00  0.00     0.325 C 
HETATM   40  O2  UNL     1      13.656  17.394  18.951  1.00  0.00    -0.247 OA
BRANCH  38  41
HETATM   41  C7  UNL     1      11.601  16.296  17.019  1.00  0.00     0.089 C 
HETATM   42  C8  UNL     1      10.782  15.668  18.104  1.00  0.00     0.025 C 
HETATM   43  C9  UNL     1       9.355  15.867  17.672  1.00  0.00     0.002 C 
HETATM   44  C10 UNL     1       9.432  15.642  16.164  1.00  0.00     0.002 C 
HETATM   45  C11 UNL     1      10.784  16.167  15.781  1.00  0.00     0.025 C 
ENDBRANCH  38  41
ENDBRANCH  30  35
ENDBRANCH   1  27
TORSDOF 12
ENDMDL
MODEL 3
REMARK VINA RESULT: -9.501611121      3.667     11.825
REMARK  12 active torsions:
REMARK  status: ('A' for Active; 'I' for Inactive)
REMARK    1  A    between atoms: O1_2  and  C2_3 
REMARK    2  A    between atoms: C4_5  and  N1_6 
REMARK    3  A    between atoms: N2_9  and  C7_10 
REMARK    4  A    between atoms: C15_19  and  N3_20 
REMARK    5  A    between atoms: N4_23  and  C18_24 
REMARK    6  A    between atoms: C18_24  and  C19_25 
REMARK    7  A    between atoms: C19_25  and  C20_26 
REMARK    8  A    between atoms: C20_26  and  C21_27 
REMARK       I    between atoms: N7_33  and  C23_35 
REMARK    9  A    between atoms: C23_35  and  C24_37 
REMARK   10  A    between atoms: C24_37  and  C25_38 
REMARK   11  A    between atoms: C25_38  and  C26_39 
REMARK   12  A    between atoms: C26_39  and  C27_40 
ROOT
HETATM    1  N3  UNL     1      14.786  22.734  15.102  1.00  0.00    -0.375 N 
HETATM    2  C16 UNL     1      14.546  21.312  14.987  1.00  0.00     0.153 C 
HETATM    3  C17 UNL     1      13.106  20.918  15.227  1.00  0.00     0.292 C 
HETATM    4  N4  UNL     1      12.222  21.761  14.518  1.00  0.00     0.091 N 
HETATM    5  C28 UNL     1      12.931  22.638  13.642  1.00  0.00     0.292 C 
HETATM    6  C29 UNL     1      13.740  23.582  14.550  1.00  0.00     0.153 C 
ENDROOT
BRANCH   4   7
HETATM    7  C18 UNL     1      11.105  21.111  13.864  1.00  0.00     0.273 C 
BRANCH   7   8
HETATM    8  C19 UNL     1      11.485  19.748  13.404  1.00  0.00     0.037 C 
BRANCH   8   9
HETATM    9  C20 UNL     1      10.513  18.664  13.652  1.00  0.00     0.068 C 
BRANCH   9  10
HETATM   10  C21 UNL     1      10.909  17.799  14.788  1.00  0.00     0.070 A 
HETATM   11  N5  UNL     1      11.362  16.568  14.894  1.00  0.00    -0.296 N 
HETATM   12  N6  UNL     1      11.646  16.064  16.022  1.00  0.00    -0.279 N 
ATOM     13  H5  UNL     1      11.488  16.008  14.051  1.00  0.00     0.187 HD
HETATM   14  C22 UNL     1      11.477  16.810  17.119  1.00  0.00     0.167 A 
ATOM     15  H6  UNL     1      11.997  15.108  16.091  1.00  0.00     0.189 HD
HETATM   16  N7  UNL     1      11.709  16.476  18.365  1.00  0.00    -0.306 N 
HETATM   17  S1  UNL     1      10.888  18.271  16.457  1.00  0.00    -0.038 SA
HETATM   18  C23 UNL     1      11.417  17.527  19.315  1.00  0.00     0.223 C 
ATOM     19  H7  UNL     1      12.063  15.559  18.639  1.00  0.00     0.171 HD
HETATM   20  O3  UNL     1      10.486  18.332  19.077  1.00  0.00    -0.273 OA
BRANCH  18  21
HETATM   21  C24 UNL     1      12.190  17.667  20.556  1.00  0.00     0.103 C 
BRANCH  21  22
HETATM   22  C25 UNL     1      13.481  18.411  20.416  1.00  0.00     0.020 C 
BRANCH  22  23
HETATM   23  C26 UNL     1      13.660  19.153  19.135  1.00  0.00     0.113 C 
BRANCH  23  24
HETATM   24  C27 UNL     1      14.695  18.526  18.244  1.00  0.00     0.172 C 
HETATM   25  O4  UNL     1      15.506  19.295  17.656  1.00  0.00    -0.648 OA
HETATM   26  O5  UNL     1      14.805  17.176  18.039  1.00  0.00    -0.648 OA
ENDBRANCH  23  24
ENDBRANCH  22  23
ENDBRANCH  21  22
ENDBRANCH  18  21
ENDBRANCH   9  10
ENDBRANCH   8   9
ENDBRANCH   7   8
ENDBRANCH   4   7
BRANCH   1  27
HETATM   27  C15 UNL     1      15.977  23.232  15.686  1.00  0.00     0.064 A 
HETATM   28  C2  UNL     1      15.991  23.750  16.984  1.00  0.00     0.096 A 
HETATM   29  C3  UNL     1      17.145  24.268  17.532  1.00  0.00     0.069 A 
HETATM   30  C4  UNL     1      18.328  24.308  16.859  1.00  0.00     0.041 A 
HETATM   31  C13 UNL     1      18.326  23.794  15.567  1.00  0.00     0.032 A 
HETATM   32  C14 UNL     1      17.172  23.271  15.005  1.00  0.00     0.034 A 
BRANCH  28  33
HETATM   33  O1  UNL     1      14.852  23.752  17.737  1.00  0.00    -0.354 OA
HETATM   34  C1  UNL     1      14.515  22.626  18.518  1.00  0.00     0.210 C 
ENDBRANCH  28  33
BRANCH  30  35
HETATM   35  N1  UNL     1      19.519  24.849  17.407  1.00  0.00    -0.298 N 
HETATM   36  C5  UNL     1      20.146  26.077  17.057  1.00  0.00     0.154 C 
HETATM   37  C6  UNL     1      21.225  26.343  18.069  1.00  0.00     0.148 C 
HETATM   38  N2  UNL     1      21.130  25.263  19.012  1.00  0.00    -0.328 N 
HETATM   39  C12 UNL     1      20.320  24.260  18.422  1.00  0.00     0.325 C 
HETATM   40  O2  UNL     1      20.281  23.018  18.721  1.00  0.00    -0.247 OA
BRANCH  38  41
HETATM   41  C7  UNL     1      21.718  25.130  20.344  1.00  0.00     0.089 C 
HETATM   42  C8  UNL     1      22.986  24.341  20.234  1.00  0.00     0.025 C 
HETATM   43  C9  UNL     1      24.063  25.372  20.035  1.00  0.00     0.002 C 
HETATM   44  C10 UNL     1      23.617  26.499  20.962  1.00  0.00     0.002 C 
HETATM   45  C11 UNL     1      22.118  26.445  20.914  1.00  0.00     0.025 C 
ENDBRANCH  38  41
ENDBRANCH  30  35
ENDBRANCH   1  27
TORSDOF 12
ENDMDL
MODEL 4
REMARK VINA RESULT: -9.425572154      3.409     12.231
REMARK  12 active torsions:
REMARK  status: ('A' for Active; 'I' for Inactive)
REMARK    1  A    between atoms: O1_2  and  C2_3 
REMARK    2  A    between atoms: C4_5  and  N1_6 
REMARK    3  A    between atoms: N2_9  and  C7_10 
REMARK    4  A    between atoms: C15_19  and  N3_20 
REMARK    5  A    between atoms: N4_23  and  C18_24 
REMARK    6  A    between atoms: C18_24  and  C19_25 
REMARK    7  A    between atoms: C19_25  and  C20_26 
REMARK    8  A    between atoms: C20_26  and  C21_27 
REMARK       I    between atoms: N7_33  and  C23_35 
REMARK    9  A    between atoms: C23_35  and  C24_37 
REMARK   10  A    between atoms: C24_37  and  C25_38 
REMARK   11  A    between atoms: C25_38  and  C26_39 
REMARK   12  A    between atoms: C26_39  and  C27_40 
ROOT
HETATM    1  N3  UNL     1      15.988  22.870  14.658  1.00  0.00    -0.375 N 
HETATM    2  C16 UNL     1      14.851  22.756  15.544  1.00  0.00     0.153 C 
HETATM    3  C17 UNL     1      13.521  22.725  14.825  1.00  0.00     0.292 C 
HETATM    4  N4  UNL     1      13.554  21.831  13.733  1.00  0.00     0.091 N 
HETATM    5  C28 UNL     1      14.770  21.081  13.710  1.00  0.00     0.292 C 
HETATM    6  C29 UNL     1      15.890  22.099  13.427  1.00  0.00     0.153 C 
ENDROOT
BRANCH   4   7
HETATM    7  C18 UNL     1      12.385  20.994  13.556  1.00  0.00     0.273 C 
BRANCH   7   8
HETATM    8  C19 UNL     1      11.158  21.701  14.010  1.00  0.00     0.037 C 
BRANCH   8   9
HETATM    9  C20 UNL     1      10.023  20.861  14.444  1.00  0.00     0.068 C 
BRANCH   9  10
HETATM   10  C21 UNL     1      10.466  19.633  15.146  1.00  0.00     0.070 A 
HETATM   11  N5  UNL     1      10.740  18.403  14.767  1.00  0.00    -0.296 N 
HETATM   12  N6  UNL     1      11.126  17.527  15.597  1.00  0.00    -0.279 N 
ATOM     13  H5  UNL     1      10.639  18.150  13.784  1.00  0.00     0.187 HD
HETATM   14  C22 UNL     1      11.254  17.873  16.883  1.00  0.00     0.167 A 
ATOM     15  H6  UNL     1      11.335  16.576  15.291  1.00  0.00     0.189 HD
HETATM   16  N7  UNL     1      11.635  17.122  17.887  1.00  0.00    -0.306 N 
HETATM   17  S1  UNL     1      10.792  19.517  16.846  1.00  0.00    -0.038 SA
HETATM   18  C23 UNL     1      11.665  17.813  19.156  1.00  0.00     0.223 C 
ATOM     19  H7  UNL     1      11.886  16.138  17.782  1.00  0.00     0.171 HD
HETATM   20  O3  UNL     1      10.839  18.731  19.377  1.00  0.00    -0.273 OA
BRANCH  18  21
HETATM   21  C24 UNL     1      12.644  17.460  20.193  1.00  0.00     0.103 C 
BRANCH  21  22
HETATM   22  C25 UNL     1      14.007  18.045  20.000  1.00  0.00     0.020 C 
BRANCH  22  23
HETATM   23  C26 UNL     1      14.129  19.503  20.289  1.00  0.00     0.113 C 
BRANCH  23  24
HETATM   24  C27 UNL     1      14.457  20.310  19.064  1.00  0.00     0.172 C 
HETATM   25  O4  UNL     1      14.885  21.486  19.234  1.00  0.00    -0.648 OA
HETATM   26  O5  UNL     1      14.318  19.840  17.785  1.00  0.00    -0.648 OA
ENDBRANCH  23  24
ENDBRANCH  22  23
ENDBRANCH  21  22
ENDBRANCH  18  21
ENDBRANCH   9  10
ENDBRANCH   8   9
ENDBRANCH   7   8
ENDBRANCH   4   7
BRANCH   1  27
HETATM   27  C15 UNL     1      17.113  23.657  15.005  1.00  0.00     0.064 A 
HETATM   28  C2  UNL     1      18.254  23.087  15.577  1.00  0.00     0.096 A 
HETATM   29  C3  UNL     1      19.331  23.865  15.948  1.00  0.00     0.069 A 
HETATM   30  C4  UNL     1      19.355  25.217  15.784  1.00  0.00     0.041 A 
HETATM   31  C13 UNL     1      18.226  25.795  15.215  1.00  0.00     0.032 A 
HETATM   32  C14 UNL     1      17.138  25.023  14.838  1.00  0.00     0.034 A 
BRANCH  28  33
HETATM   33  O1  UNL     1      18.322  21.739  15.780  1.00  0.00    -0.354 OA
HETATM   34  C1  UNL     1      17.853  21.178  16.987  1.00  0.00     0.210 C 
ENDBRANCH  28  33
BRANCH  30  35
HETATM   35  N1  UNL     1      20.451  26.028  16.172  1.00  0.00    -0.298 N 
HETATM   36  C5  UNL     1      20.744  26.510  17.478  1.00  0.00     0.154 C 
HETATM   37  C6  UNL     1      22.122  27.108  17.446  1.00  0.00     0.148 C 
HETATM   38  N2  UNL     1      22.596  26.886  16.107  1.00  0.00    -0.328 N 
HETATM   39  C12 UNL     1      21.476  26.520  15.320  1.00  0.00     0.325 C 
HETATM   40  O2  UNL     1      21.360  26.602  14.049  1.00  0.00    -0.247 OA
BRANCH  38  41
HETATM   41  C7  UNL     1      23.950  26.991  15.565  1.00  0.00     0.089 C 
HETATM   42  C8  UNL     1      24.115  28.343  14.942  1.00  0.00     0.025 C 
HETATM   43  C9  UNL     1      24.660  29.210  16.044  1.00  0.00     0.002 C 
HETATM   44  C10 UNL     1      25.627  28.269  16.757  1.00  0.00     0.002 C 
HETATM   45  C11 UNL     1      24.988  26.918  16.630  1.00  0.00     0.025 C 
ENDBRANCH  38  41
ENDBRANCH  30  35
ENDBRANCH   1  27
TORSDOF 12
ENDMDL
MODEL 5
REMARK VINA RESULT: -9.406458712      3.317     10.479
REMARK  12 active torsions:
REMARK  status: ('A' for Active; 'I' for Inactive)
REMARK    1  A    between atoms: O1_2  and  C2_3 
REMARK    2  A    between atoms: C4_5  and  N1_6 
REMARK    3  A    between atoms: N2_9  and  C7_10 
REMARK    4  A    between atoms: C15_19  and  N3_20 
REMARK    5  A    between atoms: N4_23  and  C18_24 
REMARK    6  A    between atoms: C18_24  and  C19_25 
REMARK    7  A    between atoms: C19_25  and  C20_26 
REMARK    8  A    between atoms: C20_26  and  C21_27 
REMARK       I    between atoms: N7_33  and  C23_35 
REMARK    9  A    between atoms: C23_35  and  C24_37 
REMARK   10  A    between atoms: C24_37  and  C25_38 
REMARK   11  A    between atoms: C25_38  and  C26_39 
REMARK   12  A    between atoms: C26_39  and  C27_40 
ROOT
HETATM    1  N3  UNL     1      15.308  20.520  18.877  1.00  0.00    -0.375 N 
HETATM    2  C16 UNL     1      14.911  19.709  17.747  1.00  0.00     0.153 C 
HETATM    3  C17 UNL     1      14.649  18.262  18.099  1.00  0.00     0.292 C 
HETATM    4  N4  UNL     1      13.847  18.157  19.256  1.00  0.00     0.091 N 
HETATM    5  C28 UNL     1      13.366  19.436  19.673  1.00  0.00     0.292 C 
HETATM    6  C29 UNL     1      14.607  20.231  20.119  1.00  0.00     0.153 C 
ENDROOT
BRANCH   4   7
HETATM    7  C18 UNL     1      12.799  17.157  19.220  1.00  0.00     0.273 C 
BRANCH   7   8
HETATM    8  C19 UNL     1      12.429  16.835  17.815  1.00  0.00     0.037 C 
BRANCH   8   9
HETATM    9  C20 UNL     1      11.070  17.217  17.378  1.00  0.00     0.068 C 
BRANCH   9  10
HETATM   10  C21 UNL     1      11.019  18.594  16.832  1.00  0.00     0.070 A 
HETATM   11  N5  UNL     1      10.332  19.676  17.127  1.00  0.00    -0.296 N 
HETATM   12  N6  UNL     1      10.500  20.760  16.491  1.00  0.00    -0.279 N 
ATOM     13  H5  UNL     1       9.648  19.643  17.883  1.00  0.00     0.187 HD
HETATM   14  C22 UNL     1      11.400  20.789  15.501  1.00  0.00     0.167 A 
ATOM     15  H6  UNL     1       9.961  21.593  16.729  1.00  0.00     0.189 HD
HETATM   16  N7  UNL     1      11.719  21.800  14.730  1.00  0.00    -0.306 N 
HETATM   17  S1  UNL     1      11.992  19.187  15.524  1.00  0.00    -0.038 SA
HETATM   18  C23 UNL     1      12.738  21.490  13.752  1.00  0.00     0.223 C 
ATOM     19  H7  UNL     1      11.287  22.720  14.813  1.00  0.00     0.171 HD
HETATM   20  O3  UNL     1      12.803  20.332  13.275  1.00  0.00    -0.273 OA
BRANCH  18  21
HETATM   21  C24 UNL     1      13.699  22.508  13.306  1.00  0.00     0.103 C 
BRANCH  21  22
HETATM   22  C25 UNL     1      15.129  22.067  13.300  1.00  0.00     0.020 C 
BRANCH  22  23
HETATM   23  C26 UNL     1      15.699  21.711  14.632  1.00  0.00     0.113 C 
BRANCH  23  24
HETATM   24  C27 UNL     1      16.990  22.424  14.918  1.00  0.00     0.172 C 
HETATM   25  O4  UNL     1      17.938  21.746  15.405  1.00  0.00    -0.648 OA
HETATM   26  O5  UNL     1      17.192  23.757  14.679  1.00  0.00    -0.648 OA
ENDBRANCH  23  24
ENDBRANCH  22  23
ENDBRANCH  21  22
ENDBRANCH  18  21
ENDBRANCH   9  10
ENDBRANCH   8   9
ENDBRANCH   7   8
ENDBRANCH   4   7
BRANCH   1  27
HETATM   27  C15 UNL     1      16.289  21.534  18.744  1.00  0.00     0.064 A 
HETATM   28  C2  UNL     1      15.942  22.841  18.391  1.00  0.00     0.096 A 
HETATM   29  C3  UNL     1      16.905  23.814  18.225  1.00  0.00     0.069 A 
HETATM   30  C4  UNL     1      18.235  23.571  18.395  1.00  0.00     0.041 A 
HETATM   31  C13 UNL     1      18.591  22.275  18.747  1.00  0.00     0.032 A 
HETATM   32  C14 UNL     1      17.631  21.288  18.916  1.00  0.00     0.034 A 
BRANCH  28  33
HETATM   33  O1  UNL     1      14.633  23.179  18.200  1.00  0.00    -0.354 OA
HETATM   34  C1  UNL     1      14.225  23.789  16.995  1.00  0.00     0.210 C 
ENDBRANCH  28  33
BRANCH  30  35
HETATM   35  N1  UNL     1      19.236  24.560  18.216  1.00  0.00    -0.298 N 
HETATM   36  C5  UNL     1      20.484  24.652  18.892  1.00  0.00     0.154 C 
HETATM   37  C6  UNL     1      21.302  25.705  18.199  1.00  0.00     0.148 C 
HETATM   38  N2  UNL     1      20.494  26.142  17.094  1.00  0.00    -0.328 N 
HETATM   39  C12 UNL     1      19.179  25.661  17.320  1.00  0.00     0.325 C 
HETATM   40  O2  UNL     1      18.092  26.111  16.821  1.00  0.00    -0.247 OA
BRANCH  38  41
HETATM   41  C7  UNL     1      20.862  26.932  15.920  1.00  0.00     0.089 C 
HETATM   42  C8  UNL     1      21.815  28.006  16.343  1.00  0.00     0.025 C 
HETATM   43  C9  UNL     1      23.180  27.400  16.167  1.00  0.00     0.002 C 
HETATM   44  C10 UNL     1      23.023  26.600  14.878  1.00  0.00     0.002 C 
HETATM   45  C11 UNL     1      21.600  26.124  14.911  1.00  0.00     0.025 C 
ENDBRANCH  38  41
ENDBRANCH  30  35
ENDBRANCH   1  27
TORSDOF 12
ENDMDL
