MODEL 1
REMARK VINA RESULT: -7.845380343      0.000      0.000
REMARK  20 active torsions:
REMARK  status: ('A' for Active; 'I' for Inactive)
REMARK    1  A    between atoms: C2_2  and  C3_3 
REMARK    2  A    between atoms: C3_3  and  C4_4 
REMARK    3  A    between atoms: C4_4  and  C5_5 
REMARK    4  A    between atoms: C5_5  and  O1_6 
REMARK    5  A    between atoms: O1_6  and  C6_7 
REMARK       I    between atoms: C6_7  and  N1_9 
REMARK    6  A    between atoms: N2_12  and  C9_13 
REMARK    7  A    between atoms: C9_13  and  O3_14 
REMARK    8  A    between atoms: C9_13  and  C10_16 
REMARK    9  A    between atoms: C10_16  and  C11_17 
REMARK   10  A    between atoms: C10_16  and  N3_23 
REMARK   11  A    between atoms: C11_17  and  C12_18 
REMARK   12  A    between atoms: C12_18  and  C13_19 
REMARK   13  A    between atoms: C13_19  and  O5_21 
REMARK       I    between atoms: N3_23  and  C15_25 
REMARK   14  A    between atoms: C15_25  and  C16_27 
REMARK   15  A    between atoms: C16_27  and  N4_28 
REMARK   16  A    between atoms: C16_27  and  C26_41 
REMARK       I    between atoms: N4_28  and  C17_30 
REMARK   17  A    between atoms: C17_30  and  O8_32 
REMARK   18  A    between atoms: O8_32  and  C18_33 
REMARK   19  A    between atoms: C18_33  and  C21_36 
REMARK   20  A    between atoms: C22_37  and  C23_38 
ROOT
HETATM    1  C10 UNL     1      16.305  22.650  15.864  1.00  0.00     0.063 C 
ENDROOT
BRANCH   1   2
HETATM    2  C9  UNL     1      15.025  22.546  16.540  1.00  0.00     0.161 C 
BRANCH   2   3
HETATM    3  N2  UNL     1      14.420  21.594  17.355  1.00  0.00    -0.357 N 
HETATM    4  C8  UNL     1      14.502  21.441  18.779  1.00  0.00     0.145 C 
HETATM    5  C7  UNL     1      14.334  19.956  19.115  1.00  0.00     0.148 C 
HETATM    6  N1  UNL     1      12.933  19.662  18.776  1.00  0.00    -0.325 N 
HETATM    7  C6  UNL     1      12.194  18.859  19.652  1.00  0.00     0.362 C 
HETATM    8  C30 UNL     1      12.378  20.213  17.556  1.00  0.00     0.148 C 
HETATM    9  O2  UNL     1      12.689  18.390  20.707  1.00  0.00    -0.238 OA
HETATM   10  C29 UNL     1      13.554  20.584  16.676  1.00  0.00     0.145 C 
BRANCH   7  11
HETATM   11  O1  UNL     1      10.855  18.589  19.310  1.00  0.00    -0.304 OA
BRANCH  11  12
HETATM   12  C5  UNL     1      10.527  17.229  19.071  1.00  0.00     0.180 C 
BRANCH  12  13
HETATM   13  C4  UNL     1      10.537  16.988  17.610  1.00  0.00     0.027 C 
BRANCH  13  14
HETATM   14  C3  UNL     1      11.495  16.010  17.062  1.00  0.00     0.002 C 
BRANCH  14  15
HETATM   15  C2  UNL     1      10.964  14.796  16.393  1.00  0.00    -0.004 C 
HETATM   16  C1  UNL     1      10.083  13.896  17.166  1.00  0.00     0.005 C 
ENDBRANCH  14  15
ENDBRANCH  13  14
ENDBRANCH  12  13
ENDBRANCH  11  12
ENDBRANCH   7  11
ENDBRANCH   2   3
BRANCH   2  17
HETATM   17  O3  UNL     1      14.229  23.601  16.337  1.00  0.00    -0.345 OA
ATOM     18  H3  UNL     1      14.594  24.198  15.695  1.00  0.00     0.219 HD
ENDBRANCH   2  17
ENDBRANCH   1   2
BRANCH   1  19
HETATM   19  C11 UNL     1      16.506  22.721  14.430  1.00  0.00     0.071 C 
BRANCH  19  20
HETATM   20  C12 UNL     1      15.781  21.812  13.499  1.00  0.00     0.117 C 
BRANCH  20  21
HETATM   21  C13 UNL     1      14.685  22.460  12.727  1.00  0.00     0.258 C 
HETATM   22  O4  UNL     1      14.742  22.535  11.494  1.00  0.00    -0.265 OA
BRANCH  21  23
HETATM   23  O5  UNL     1      13.584  22.989  13.384  1.00  0.00    -0.326 OA
HETATM   24  C14 UNL     1      12.460  22.179  13.722  1.00  0.00     0.213 C 
ENDBRANCH  21  23
ENDBRANCH  20  21
ENDBRANCH  19  20
ENDBRANCH   1  19
BRANCH   1  25
HETATM   25  N3  UNL     1      17.180  23.629  16.574  1.00  0.00    -0.325 N 
HETATM   26  C15 UNL     1      18.263  23.223  17.346  1.00  0.00     0.245 C 
HETATM   27  O6  UNL     1      18.452  21.946  17.413  1.00  0.00    -0.271 OA
ATOM     28  H3  UNL     1      16.977  24.625  16.492  1.00  0.00     0.169 HD
BRANCH  26  29
HETATM   29  C16 UNL     1      19.186  24.059  18.074  1.00  0.00     0.182 C 
BRANCH  29  30
HETATM   30  N4  UNL     1      20.288  24.547  17.229  1.00  0.00    -0.323 N 
HETATM   31  C17 UNL     1      20.149  25.667  16.378  1.00  0.00     0.362 C 
HETATM   32  O7  UNL     1      19.098  26.331  16.269  1.00  0.00    -0.238 OA
ATOM     33  H4  UNL     1      21.183  24.059  17.258  1.00  0.00     0.165 HD
BRANCH  31  34
HETATM   34  O8  UNL     1      21.233  26.064  15.614  1.00  0.00    -0.280 OA
BRANCH  34  35
HETATM   35  C18 UNL     1      22.082  27.125  15.921  1.00  0.00     0.128 C 
HETATM   36  C19 UNL     1      21.462  28.402  15.384  1.00  0.00     0.061 C 
HETATM   37  C20 UNL     1      23.375  26.916  15.157  1.00  0.00     0.061 C 
BRANCH  35  38
HETATM   38  C21 UNL     1      22.311  27.207  17.361  1.00  0.00    -0.068 C 
HETATM   39  C22 UNL     1      22.506  27.295  18.540  1.00  0.00    -0.099 C 
BRANCH  39  40
HETATM   40  C23 UNL     1      22.735  27.424  19.966  1.00  0.00     0.057 C 
HETATM   41  C24 UNL     1      23.130  26.111  20.609  1.00  0.00     0.023 C 
HETATM   42  C25 UNL     1      21.460  27.916  20.602  1.00  0.00     0.023 C 
ENDBRANCH  39  40
ENDBRANCH  35  38
ENDBRANCH  34  35
ENDBRANCH  31  34
ENDBRANCH  29  30
BRANCH  29  43
HETATM   43  C26 UNL     1      19.742  23.611  19.365  1.00  0.00     0.009 C 
HETATM   44  C27 UNL     1      21.212  23.285  19.253  1.00  0.00     0.012 C 
HETATM   45  C28 UNL     1      19.609  24.701  20.421  1.00  0.00     0.012 C 
ENDBRANCH  29  43
ENDBRANCH  26  29
ENDBRANCH   1  25
TORSDOF 20
ENDMDL
MODEL 2
REMARK VINA RESULT: -7.751590479      2.492     11.421
REMARK  20 active torsions:
REMARK  status: ('A' for Active; 'I' for Inactive)
REMARK    1  A    between atoms: C2_2  and  C3_3 
REMARK    2  A    between atoms: C3_3  and  C4_4 
REMARK    3  A    between atoms: C4_4  and  C5_5 
REMARK    4  A    between atoms: C5_5  and  O1_6 
REMARK    5  A    between atoms: O1_6  and  C6_7 
REMARK       I    between atoms: C6_7  and  N1_9 
REMARK    6  A    between atoms: N2_12  and  C9_13 
REMARK    7  A    between atoms: C9_13  and  O3_14 
REMARK    8  A    between atoms: C9_13  and  C10_16 
REMARK    9  A    between atoms: C10_16  and  C11_17 
REMARK   10  A    between atoms: C10_16  and  N3_23 
REMARK   11  A    between atoms: C11_17  and  C12_18 
REMARK   12  A    between atoms: C12_18  and  C13_19 
REMARK   13  A    between atoms: C13_19  and  O5_21 
REMARK       I    between atoms: N3_23  and  C15_25 
REMARK   14  A    between atoms: C15_25  and  C16_27 
REMARK   15  A    between atoms: C16_27  and  N4_28 
REMARK   16  A    between atoms: C16_27  and  C26_41 
REMARK       I    between atoms: N4_28  and  C17_30 
REMARK   17  A    between atoms: C17_30  and  O8_32 
REMARK   18  A    between atoms: O8_32  and  C18_33 
REMARK   19  A    between atoms: C18_33  and  C21_36 
REMARK   20  A    between atoms: C22_37  and  C23_38 
ROOT
HETATM    1  C10 UNL     1      14.790  22.114  17.389  1.00  0.00     0.063 C 
ENDROOT
BRANCH   1   2
HETATM    2  C9  UNL     1      15.280  23.321  16.749  1.00  0.00     0.161 C 
BRANCH   2   3
HETATM    3  N2  UNL     1      16.538  23.814  16.417  1.00  0.00    -0.357 N 
HETATM    4  C8  UNL     1      17.404  23.427  15.340  1.00  0.00     0.145 C 
HETATM    5  C7  UNL     1      18.853  23.655  15.782  1.00  0.00     0.148 C 
HETATM    6  N1  UNL     1      18.980  25.118  15.872  1.00  0.00    -0.325 N 
HETATM    7  C6  UNL     1      20.148  25.713  15.381  1.00  0.00     0.362 C 
HETATM    8  C30 UNL     1      17.898  25.879  16.462  1.00  0.00     0.148 C 
HETATM    9  O2  UNL     1      21.078  25.040  14.870  1.00  0.00    -0.238 OA
HETATM   10  C29 UNL     1      17.081  24.903  17.283  1.00  0.00     0.145 C 
BRANCH   7  11
HETATM   11  O1  UNL     1      20.251  27.114  15.476  1.00  0.00    -0.304 OA
BRANCH  11  12
HETATM   12  C5  UNL     1      20.143  27.839  14.261  1.00  0.00     0.180 C 
BRANCH  12  13
HETATM   13  C4  UNL     1      21.445  28.483  13.975  1.00  0.00     0.027 C 
BRANCH  13  14
HETATM   14  C3  UNL     1      22.324  28.834  15.107  1.00  0.00     0.002 C 
BRANCH  14  15
HETATM   15  C2  UNL     1      23.731  28.364  15.084  1.00  0.00    -0.004 C 
HETATM   16  C1  UNL     1      24.013  26.967  15.476  1.00  0.00     0.005 C 
ENDBRANCH  14  15
ENDBRANCH  13  14
ENDBRANCH  12  13
ENDBRANCH  11  12
ENDBRANCH   7  11
ENDBRANCH   2   3
BRANCH   2  17
HETATM   17  O3  UNL     1      14.308  24.168  16.396  1.00  0.00    -0.345 OA
ATOM     18  H3  UNL     1      13.582  23.718  15.980  1.00  0.00     0.219 HD
ENDBRANCH   2  17
ENDBRANCH   1   2
BRANCH   1  19
HETATM   19  C11 UNL     1      14.881  21.804  18.802  1.00  0.00     0.071 C 
BRANCH  19  20
HETATM   20  C12 UNL     1      16.035  21.045  19.357  1.00  0.00     0.117 C 
BRANCH  20  21
HETATM   21  C13 UNL     1      17.372  21.557  18.945  1.00  0.00     0.258 C 
HETATM   22  O4  UNL     1      17.990  21.026  18.014  1.00  0.00    -0.265 OA
BRANCH  21  23
HETATM   23  O5  UNL     1      17.942  22.636  19.603  1.00  0.00    -0.326 OA
HETATM   24  C14 UNL     1      19.342  22.896  19.529  1.00  0.00     0.213 C 
ENDBRANCH  21  23
ENDBRANCH  20  21
ENDBRANCH  19  20
ENDBRANCH   1  19
BRANCH   1  25
HETATM   25  N3  UNL     1      13.443  21.762  16.851  1.00  0.00    -0.325 N 
HETATM   26  C15 UNL     1      13.280  20.849  15.815  1.00  0.00     0.245 C 
HETATM   27  O6  UNL     1      14.371  20.338  15.346  1.00  0.00    -0.271 OA
ATOM     28  H3  UNL     1      12.617  22.203  17.256  1.00  0.00     0.169 HD
BRANCH  26  29
HETATM   29  C16 UNL     1      12.044  20.417  15.210  1.00  0.00     0.182 C 
BRANCH  29  30
HETATM   30  N4  UNL     1      11.992  18.958  15.020  1.00  0.00    -0.323 N 
HETATM   31  C17 UNL     1      10.797  18.218  15.173  1.00  0.00     0.362 C 
HETATM   32  O7  UNL     1       9.699  18.725  15.478  1.00  0.00    -0.238 OA
ATOM     33  H4  UNL     1      12.848  18.464  14.770  1.00  0.00     0.165 HD
BRANCH  31  34
HETATM   34  O8  UNL     1      10.830  16.848  14.977  1.00  0.00    -0.280 OA
BRANCH  34  35
HETATM   35  C18 UNL     1      10.747  15.892  15.987  1.00  0.00     0.128 C 
HETATM   36  C19 UNL     1      11.287  14.581  15.447  1.00  0.00     0.061 C 
HETATM   37  C20 UNL     1       9.279  15.666  16.287  1.00  0.00     0.061 C 
BRANCH  35  38
HETATM   38  C21 UNL     1      11.483  16.325  17.172  1.00  0.00    -0.068 C 
HETATM   39  C22 UNL     1      12.101  16.689  18.132  1.00  0.00    -0.099 C 
BRANCH  39  40
HETATM   40  C23 UNL     1      12.855  17.150  19.281  1.00  0.00     0.057 C 
HETATM   41  C24 UNL     1      12.029  18.025  20.201  1.00  0.00     0.023 C 
HETATM   42  C25 UNL     1      14.034  17.945  18.779  1.00  0.00     0.023 C 
ENDBRANCH  39  40
ENDBRANCH  35  38
ENDBRANCH  34  35
ENDBRANCH  31  34
ENDBRANCH  29  30
BRANCH  29  43
HETATM   43  C26 UNL     1      11.540  21.072  13.988  1.00  0.00     0.009 C 
HETATM   44  C27 UNL     1      10.146  21.618  14.187  1.00  0.00     0.012 C 
HETATM   45  C28 UNL     1      12.426  22.248  13.597  1.00  0.00     0.012 C 
ENDBRANCH  29  43
ENDBRANCH  26  29
ENDBRANCH   1  25
TORSDOF 20
ENDMDL
MODEL 3
REMARK VINA RESULT: -7.713811650      1.842      3.201
REMARK  20 active torsions:
REMARK  status: ('A' for Active; 'I' for Inactive)
REMARK    1  A    between atoms: C2_2  and  C3_3 
REMARK    2  A    between atoms: C3_3  and  C4_4 
REMARK    3  A    between atoms: C4_4  and  C5_5 
REMARK    4  A    between atoms: C5_5  and  O1_6 
REMARK    5  A    between atoms: O1_6  and  C6_7 
REMARK       I    between atoms: C6_7  and  N1_9 
REMARK    6  A    between atoms: N2_12  and  C9_13 
REMARK    7  A    between atoms: C9_13  and  O3_14 
REMARK    8  A    between atoms: C9_13  and  C10_16 
REMARK    9  A    between atoms: C10_16  and  C11_17 
REMARK   10  A    between atoms: C10_16  and  N3_23 
REMARK   11  A    between atoms: C11_17  and  C12_18 
REMARK   12  A    between atoms: C12_18  and  C13_19 
REMARK   13  A    between atoms: C13_19  and  O5_21 
REMARK       I    between atoms: N3_23  and  C15_25 
REMARK   14  A    between atoms: C15_25  and  C16_27 
REMARK   15  A    between atoms: C16_27  and  N4_28 
REMARK   16  A    between atoms: C16_27  and  C26_41 
REMARK       I    between atoms: N4_28  and  C17_30 
REMARK   17  A    between atoms: C17_30  and  O8_32 
REMARK   18  A    between atoms: O8_32  and  C18_33 
REMARK   19  A    between atoms: C18_33  and  C21_36 
REMARK   20  A    between atoms: C22_37  and  C23_38 
ROOT
HETATM    1  C10 UNL     1      17.735  21.808  18.262  1.00  0.00     0.063 C 
ENDROOT
BRANCH   1   2
HETATM    2  C9  UNL     1      16.522  21.841  19.058  1.00  0.00     0.161 C 
BRANCH   2   3
HETATM    3  N2  UNL     1      15.399  21.026  19.169  1.00  0.00    -0.357 N 
HETATM    4  C8  UNL     1      14.683  20.631  20.347  1.00  0.00     0.145 C 
HETATM    5  C7  UNL     1      14.065  19.252  20.096  1.00  0.00     0.148 C 
HETATM    6  N1  UNL     1      13.030  19.496  19.079  1.00  0.00    -0.325 N 
HETATM    7  C6  UNL     1      11.795  18.855  19.225  1.00  0.00     0.362 C 
HETATM    8  C30 UNL     1      13.330  20.386  17.976  1.00  0.00     0.148 C 
HETATM    9  O2  UNL     1      11.549  18.088  20.189  1.00  0.00    -0.238 OA
HETATM   10  C29 UNL     1      14.840  20.481  17.896  1.00  0.00     0.145 C 
BRANCH   7  11
HETATM   11  O1  UNL     1      10.817  19.101  18.242  1.00  0.00    -0.304 OA
BRANCH  11  12
HETATM   12  C5  UNL     1      10.664  18.108  17.240  1.00  0.00     0.180 C 
BRANCH  12  13
HETATM   13  C4  UNL     1      10.592  18.771  15.919  1.00  0.00     0.027 C 
BRANCH  13  14
HETATM   14  C3  UNL     1      10.246  20.204  15.866  1.00  0.00     0.002 C 
BRANCH  14  15
HETATM   15  C2  UNL     1      10.272  20.891  14.551  1.00  0.00    -0.004 C 
HETATM   16  C1  UNL     1      11.489  21.637  14.171  1.00  0.00     0.005 C 
ENDBRANCH  14  15
ENDBRANCH  13  14
ENDBRANCH  12  13
ENDBRANCH  11  12
ENDBRANCH   7  11
ENDBRANCH   2   3
BRANCH   2  17
HETATM   17  O3  UNL     1      16.451  22.896  19.876  1.00  0.00    -0.345 OA
ATOM     18  H3  UNL     1      17.313  23.198  20.137  1.00  0.00     0.219 HD
ENDBRANCH   2  17
ENDBRANCH   1   2
BRANCH   1  19
HETATM   19  C11 UNL     1      17.860  21.264  16.924  1.00  0.00     0.071 C 
BRANCH  19  20
HETATM   20  C12 UNL     1      18.270  22.117  15.775  1.00  0.00     0.117 C 
BRANCH  20  21
HETATM   21  C13 UNL     1      17.154  22.849  15.114  1.00  0.00     0.258 C 
HETATM   22  O4  UNL     1      16.657  23.849  15.644  1.00  0.00    -0.265 OA
BRANCH  21  23
HETATM   23  O5  UNL     1      16.657  22.414  13.894  1.00  0.00    -0.326 OA
HETATM   24  C14 UNL     1      15.409  21.731  13.802  1.00  0.00     0.213 C 
ENDBRANCH  21  23
ENDBRANCH  20  21
ENDBRANCH  19  20
ENDBRANCH   1  19
BRANCH   1  25
HETATM   25  N3  UNL     1      18.457  23.109  18.378  1.00  0.00    -0.325 N 
HETATM   26  C15 UNL     1      19.757  23.188  18.868  1.00  0.00     0.245 C 
HETATM   27  O6  UNL     1      20.287  22.064  19.223  1.00  0.00    -0.271 OA
ATOM     28  H3  UNL     1      17.985  23.966  18.089  1.00  0.00     0.169 HD
BRANCH  26  29
HETATM   29  C16 UNL     1      20.566  24.371  19.025  1.00  0.00     0.182 C 
BRANCH  29  30
HETATM   30  N4  UNL     1      21.225  24.771  17.770  1.00  0.00    -0.323 N 
HETATM   31  C17 UNL     1      20.522  25.389  16.711  1.00  0.00     0.362 C 
HETATM   32  O7  UNL     1      19.300  25.646  16.743  1.00  0.00    -0.238 OA
ATOM     33  H4  UNL     1      22.224  24.596  17.662  1.00  0.00     0.165 HD
BRANCH  31  34
HETATM   34  O8  UNL     1      21.213  25.736  15.563  1.00  0.00    -0.280 OA
BRANCH  34  35
HETATM   35  C18 UNL     1      21.772  26.987  15.313  1.00  0.00     0.128 C 
HETATM   36  C19 UNL     1      21.165  27.983  16.284  1.00  0.00     0.061 C 
HETATM   37  C20 UNL     1      21.340  27.416  13.925  1.00  0.00     0.061 C 
BRANCH  35  38
HETATM   38  C21 UNL     1      23.227  26.939  15.437  1.00  0.00    -0.068 C 
HETATM   39  C22 UNL     1      24.421  26.921  15.537  1.00  0.00    -0.099 C 
BRANCH  39  40
HETATM   40  C23 UNL     1      25.864  26.921  15.672  1.00  0.00     0.057 C 
HETATM   41  C24 UNL     1      26.330  26.170  16.902  1.00  0.00     0.023 C 
HETATM   42  C25 UNL     1      26.327  28.352  15.769  1.00  0.00     0.023 C 
ENDBRANCH  39  40
ENDBRANCH  35  38
ENDBRANCH  34  35
ENDBRANCH  31  34
ENDBRANCH  29  30
BRANCH  29  43
HETATM   43  C26 UNL     1      21.544  24.468  20.125  1.00  0.00     0.009 C 
HETATM   44  C27 UNL     1      22.963  24.382  19.615  1.00  0.00     0.012 C 
HETATM   45  C28 UNL     1      21.414  25.801  20.852  1.00  0.00     0.012 C 
ENDBRANCH  29  43
ENDBRANCH  26  29
ENDBRANCH   1  25
TORSDOF 20
ENDMDL
MODEL 4
REMARK VINA RESULT: -7.664398175      2.301     11.699
REMARK  20 active torsions:
REMARK  status: ('A' for Active; 'I' for Inactive)
REMARK    1  A    between atoms: C2_2  and  C3_3 
REMARK    2  A    between atoms: C3_3  and  C4_4 
REMARK    3  A    between atoms: C4_4  and  C5_5 
REMARK    4  A    between atoms: C5_5  and  O1_6 
REMARK    5  A    between atoms: O1_6  and  C6_7 
REMARK       I    between atoms: C6_7  and  N1_9 
REMARK    6  A    between atoms: N2_12  and  C9_13 
REMARK    7  A    between atoms: C9_13  and  O3_14 
REMARK    8  A    between atoms: C9_13  and  C10_16 
REMARK    9  A    between atoms: C10_16  and  C11_17 
REMARK   10  A    between atoms: C10_16  and  N3_23 
REMARK   11  A    between atoms: C11_17  and  C12_18 
REMARK   12  A    between atoms: C12_18  and  C13_19 
REMARK   13  A    between atoms: C13_19  and  O5_21 
REMARK       I    between atoms: N3_23  and  C15_25 
REMARK   14  A    between atoms: C15_25  and  C16_27 
REMARK   15  A    between atoms: C16_27  and  N4_28 
REMARK   16  A    between atoms: C16_27  and  C26_41 
REMARK       I    between atoms: N4_28  and  C17_30 
REMARK   17  A    between atoms: C17_30  and  O8_32 
REMARK   18  A    between atoms: O8_32  and  C18_33 
REMARK   19  A    between atoms: C18_33  and  C21_36 
REMARK   20  A    between atoms: C22_37  and  C23_38 
ROOT
HETATM    1  C10 UNL     1      17.468  23.372  17.423  1.00  0.00     0.063 C 
ENDROOT
BRANCH   1   2
HETATM    2  C9  UNL     1      17.633  24.801  17.230  1.00  0.00     0.161 C 
BRANCH   2   3
HETATM    3  N2  UNL     1      18.561  25.601  16.570  1.00  0.00    -0.357 N 
HETATM    4  C8  UNL     1      18.447  26.255  15.298  1.00  0.00     0.145 C 
HETATM    5  C7  UNL     1      19.846  26.362  14.685  1.00  0.00     0.148 C 
HETATM    6  N1  UNL     1      20.551  27.321  15.549  1.00  0.00    -0.325 N 
HETATM    7  C6  UNL     1      21.362  28.288  14.944  1.00  0.00     0.362 C 
HETATM    8  C30 UNL     1      20.376  27.228  16.985  1.00  0.00     0.148 C 
HETATM    9  O2  UNL     1      21.501  28.357  13.697  1.00  0.00    -0.238 OA
HETATM   10  C29 UNL     1      19.861  25.831  17.267  1.00  0.00     0.145 C 
BRANCH   7  11
HETATM   11  O1  UNL     1      22.028  29.197  15.788  1.00  0.00    -0.304 OA
BRANCH  11  12
HETATM   12  C5  UNL     1      23.446  29.173  15.747  1.00  0.00     0.180 C 
BRANCH  12  13
HETATM   13  C4  UNL     1      23.921  27.953  16.436  1.00  0.00     0.027 C 
BRANCH  13  14
HETATM   14  C3  UNL     1      24.797  27.021  15.700  1.00  0.00     0.002 C 
BRANCH  14  15
HETATM   15  C2  UNL     1      26.164  27.470  15.338  1.00  0.00    -0.004 C 
HETATM   16  C1  UNL     1      27.306  26.601  15.690  1.00  0.00     0.005 C 
ENDBRANCH  14  15
ENDBRANCH  13  14
ENDBRANCH  12  13
ENDBRANCH  11  12
ENDBRANCH   7  11
ENDBRANCH   2   3
BRANCH   2  17
HETATM   17  O3  UNL     1      16.682  25.530  17.822  1.00  0.00    -0.345 OA
ATOM     18  H3  UNL     1      15.812  25.248  17.567  1.00  0.00     0.219 HD
ENDBRANCH   2  17
ENDBRANCH   1   2
BRANCH   1  19
HETATM   19  C11 UNL     1      17.870  22.621  18.596  1.00  0.00     0.071 C 
BRANCH  19  20
HETATM   20  C12 UNL     1      18.892  23.148  19.543  1.00  0.00     0.117 C 
BRANCH  20  21
HETATM   21  C13 UNL     1      20.143  22.344  19.619  1.00  0.00     0.258 C 
HETATM   22  O4  UNL     1      20.097  21.129  19.845  1.00  0.00    -0.265 OA
BRANCH  21  23
HETATM   23  O5  UNL     1      21.377  22.950  19.441  1.00  0.00    -0.326 OA
HETATM   24  C14 UNL     1      21.717  24.157  20.118  1.00  0.00     0.213 C 
ENDBRANCH  21  23
ENDBRANCH  20  21
ENDBRANCH  19  20
ENDBRANCH   1  19
BRANCH   1  25
HETATM   25  N3  UNL     1      16.118  22.945  16.954  1.00  0.00    -0.325 N 
HETATM   26  C15 UNL     1      15.952  22.095  15.865  1.00  0.00     0.245 C 
HETATM   27  O6  UNL     1      17.042  21.712  15.286  1.00  0.00    -0.271 OA
ATOM     28  H3  UNL     1      15.291  23.285  17.445  1.00  0.00     0.169 HD
BRANCH  26  29
HETATM   29  C16 UNL     1      14.713  21.603  15.315  1.00  0.00     0.182 C 
BRANCH  29  30
HETATM   30  N4  UNL     1      14.315  20.310  15.896  1.00  0.00    -0.323 N 
HETATM   31  C17 UNL     1      13.842  20.190  17.222  1.00  0.00     0.362 C 
HETATM   32  O7  UNL     1      13.720  21.153  18.007  1.00  0.00    -0.238 OA
ATOM     33  H4  UNL     1      14.385  19.470  15.321  1.00  0.00     0.165 HD
BRANCH  31  34
HETATM   34  O8  UNL     1      13.487  18.939  17.695  1.00  0.00    -0.280 OA
BRANCH  34  35
HETATM   35  C18 UNL     1      12.200  18.406  17.663  1.00  0.00     0.128 C 
HETATM   36  C19 UNL     1      11.537  18.684  19.000  1.00  0.00     0.061 C 
HETATM   37  C20 UNL     1      12.328  16.900  17.547  1.00  0.00     0.061 C 
BRANCH  35  38
HETATM   38  C21 UNL     1      11.431  18.972  16.558  1.00  0.00    -0.068 C 
HETATM   39  C22 UNL     1      10.782  19.430  15.661  1.00  0.00    -0.099 C 
BRANCH  39  40
HETATM   40  C23 UNL     1       9.979  19.989  14.591  1.00  0.00     0.057 C 
HETATM   41  C24 UNL     1      10.367  19.445  13.232  1.00  0.00     0.023 C 
HETATM   42  C25 UNL     1      10.174  21.484  14.593  1.00  0.00     0.023 C 
ENDBRANCH  39  40
ENDBRANCH  35  38
ENDBRANCH  34  35
ENDBRANCH  31  34
ENDBRANCH  29  30
BRANCH  29  43
HETATM   43  C26 UNL     1      14.512  21.548  13.854  1.00  0.00     0.009 C 
HETATM   44  C27 UNL     1      13.940  20.219  13.423  1.00  0.00     0.012 C 
HETATM   45  C28 UNL     1      13.532  22.622  13.400  1.00  0.00     0.012 C 
ENDBRANCH  29  43
ENDBRANCH  26  29
ENDBRANCH   1  25
TORSDOF 20
ENDMDL
MODEL 5
REMARK VINA RESULT: -7.627726529      1.939     11.361
REMARK  20 active torsions:
REMARK  status: ('A' for Active; 'I' for Inactive)
REMARK    1  A    between atoms: C2_2  and  C3_3 
REMARK    2  A    between atoms: C3_3  and  C4_4 
REMARK    3  A    between atoms: C4_4  and  C5_5 
REMARK    4  A    between atoms: C5_5  and  O1_6 
REMARK    5  A    between atoms: O1_6  and  C6_7 
REMARK       I    between atoms: C6_7  and  N1_9 
REMARK    6  A    between atoms: N2_12  and  C9_13 
REMARK    7  A    between atoms: C9_13  and  O3_14 
REMARK    8  A    between atoms: C9_13  and  C10_16 
REMARK    9  A    between atoms: C10_16  and  C11_17 
REMARK   10  A    between atoms: C10_16  and  N3_23 
REMARK   11  A    between atoms: C11_17  and  C12_18 
REMARK   12  A    between atoms: C12_18  and  C13_19 
REMARK   13  A    between atoms: C13_19  and  O5_21 
REMARK       I    between atoms: N3_23  and  C15_25 
REMARK   14  A    between atoms: C15_25  and  C16_27 
REMARK   15  A    between atoms: C16_27  and  N4_28 
REMARK   16  A    between atoms: C16_27  and  C26_41 
REMARK       I    between atoms: N4_28  and  C17_30 
REMARK   17  A    between atoms: C17_30  and  O8_32 
REMARK   18  A    between atoms: O8_32  and  C18_33 
REMARK   19  A    between atoms: C18_33  and  C21_36 
REMARK   20  A    between atoms: C22_37  and  C23_38 
ROOT
HETATM    1  C10 UNL     1      16.641  21.594  15.799  1.00  0.00     0.063 C 
ENDROOT
BRANCH   1   2
HETATM    2  C9  UNL     1      17.076  22.802  15.122  1.00  0.00     0.161 C 
BRANCH   2   3
HETATM    3  N2  UNL     1      17.922  23.858  15.447  1.00  0.00    -0.357 N 
HETATM    4  C8  UNL     1      17.639  25.264  15.483  1.00  0.00     0.145 C 
HETATM    5  C7  UNL     1      18.930  26.023  15.161  1.00  0.00     0.148 C 
HETATM    6  N1  UNL     1      19.798  25.775  16.322  1.00  0.00    -0.325 N 
HETATM    7  C6  UNL     1      20.544  26.844  16.832  1.00  0.00     0.362 C 
HETATM    8  C30 UNL     1      19.845  24.442  16.889  1.00  0.00     0.148 C 
HETATM    9  O2  UNL     1      20.492  27.995  16.331  1.00  0.00    -0.238 OA
HETATM   10  C29 UNL     1      19.324  23.501  15.822  1.00  0.00     0.145 C 
BRANCH   7  11
HETATM   11  O1  UNL     1      21.369  26.587  17.944  1.00  0.00    -0.304 OA
BRANCH  11  12
HETATM   12  C5  UNL     1      21.595  27.674  18.827  1.00  0.00     0.180 C 
BRANCH  12  13
HETATM   13  C4  UNL     1      22.621  27.276  19.818  1.00  0.00     0.027 C 
BRANCH  13  14
HETATM   14  C3  UNL     1      22.176  26.752  21.123  1.00  0.00     0.002 C 
BRANCH  14  15
HETATM   15  C2  UNL     1      21.622  27.704  22.117  1.00  0.00    -0.004 C 
HETATM   16  C1  UNL     1      21.735  27.368  23.552  1.00  0.00     0.005 C 
ENDBRANCH  14  15
ENDBRANCH  13  14
ENDBRANCH  12  13
ENDBRANCH  11  12
ENDBRANCH   7  11
ENDBRANCH   2   3
BRANCH   2  17
HETATM   17  O3  UNL     1      16.545  22.949  13.904  1.00  0.00    -0.345 OA
ATOM     18  H3  UNL     1      15.877  22.296  13.730  1.00  0.00     0.219 HD
ENDBRANCH   2  17
ENDBRANCH   1   2
BRANCH   1  19
HETATM   19  C11 UNL     1      17.323  20.944  16.902  1.00  0.00     0.071 C 
BRANCH  19  20
HETATM   20  C12 UNL     1      16.995  21.270  18.317  1.00  0.00     0.117 C 
BRANCH  20  21
HETATM   21  C13 UNL     1      18.069  21.993  19.054  1.00  0.00     0.258 C 
HETATM   22  O4  UNL     1      17.847  23.093  19.571  1.00  0.00    -0.265 OA
BRANCH  21  23
HETATM   23  O5  UNL     1      19.335  21.438  19.166  1.00  0.00    -0.326 OA
HETATM   24  C14 UNL     1      20.360  22.075  19.926  1.00  0.00     0.213 C 
ENDBRANCH  21  23
ENDBRANCH  20  21
ENDBRANCH  19  20
ENDBRANCH   1  19
BRANCH   1  25
HETATM   25  N3  UNL     1      15.168  21.645  16.039  1.00  0.00    -0.325 N 
HETATM   26  C15 UNL     1      14.265  20.995  15.205  1.00  0.00     0.245 C 
HETATM   27  O6  UNL     1      14.785  20.356  14.210  1.00  0.00    -0.271 OA
ATOM     28  H3  UNL     1      14.814  22.172  16.837  1.00  0.00     0.169 HD
BRANCH  26  29
HETATM   29  C16 UNL     1      12.828  20.958  15.326  1.00  0.00     0.182 C 
BRANCH  29  30
HETATM   30  N4  UNL     1      12.372  19.951  16.298  1.00  0.00    -0.323 N 
HETATM   31  C17 UNL     1      12.679  20.037  17.675  1.00  0.00     0.362 C 
HETATM   32  O7  UNL     1      13.353  20.958  18.182  1.00  0.00    -0.238 OA
ATOM     33  H4  UNL     1      11.815  19.164  15.967  1.00  0.00     0.165 HD
BRANCH  31  34
HETATM   34  O8  UNL     1      12.213  19.051  18.527  1.00  0.00    -0.280 OA
BRANCH  34  35
HETATM   35  C18 UNL     1      12.750  17.771  18.640  1.00  0.00     0.128 C 
HETATM   36  C19 UNL     1      12.553  17.296  20.067  1.00  0.00     0.061 C 
HETATM   37  C20 UNL     1      14.247  17.879  18.421  1.00  0.00     0.061 C 
BRANCH  35  38
HETATM   38  C21 UNL     1      12.128  16.860  17.683  1.00  0.00    -0.068 C 
HETATM   39  C22 UNL     1      11.628  16.096  16.906  1.00  0.00    -0.099 C 
BRANCH  39  40
HETATM   40  C23 UNL     1      11.023  15.155  15.984  1.00  0.00     0.057 C 
HETATM   41  C24 UNL     1       9.910  15.779  15.168  1.00  0.00     0.023 C 
HETATM   42  C25 UNL     1      10.458  14.011  16.786  1.00  0.00     0.023 C 
ENDBRANCH  39  40
ENDBRANCH  35  38
ENDBRANCH  34  35
ENDBRANCH  31  34
ENDBRANCH  29  30
BRANCH  29  43
HETATM   43  C26 UNL     1      11.978  20.873  14.122  1.00  0.00     0.009 C 
HETATM   44  C27 UNL     1      11.512  19.459  13.872  1.00  0.00     0.012 C 
HETATM   45  C28 UNL     1      10.729  21.731  14.277  1.00  0.00     0.012 C 
ENDBRANCH  29  43
ENDBRANCH  26  29
ENDBRANCH   1  25
TORSDOF 20
ENDMDL
