MODEL 1
REMARK VINA RESULT: -8.675702495      0.000      0.000
REMARK  14 active torsions:
REMARK  status: ('A' for Active; 'I' for Inactive)
REMARK    1  A    between atoms: O1_2  and  C2_3 
REMARK    2  A    between atoms: C2_3  and  C3_4 
REMARK    3  A    between atoms: C3_4  and  N1_5 
REMARK       I    between atoms: N1_5  and  C4_6 
REMARK    4  A    between atoms: N1_5  and  C23_42 
REMARK    5  A    between atoms: C4_6  and  C5_8 
REMARK    6  A    between atoms: C5_8  and  C6_9 
REMARK    7  A    between atoms: C5_8  and  C19_38 
REMARK       I    between atoms: C6_9  and  N2_11 
REMARK    8  A    between atoms: N2_11  and  C7_13 
REMARK    9  A    between atoms: C8_18  and  C9_19 
REMARK   10  A    between atoms: C9_19  and  C10_20 
REMARK   11  A    between atoms: C10_20  and  C11_21 
REMARK   12  A    between atoms: C11_21  and  C12_22 
REMARK   13  A    between atoms: C12_22  and  C13_23 
REMARK       I    between atoms: N7_29  and  C15_31 
REMARK   14  A    between atoms: C15_31  and  C16_33 
ROOT
HETATM    1  C7  UNL     1      16.621  22.381  16.945  1.00  0.00     0.167 A 
HETATM    2  N3  UNL     1      16.195  22.361  18.215  1.00  0.00    -0.279 N 
ATOM      3  H3  UNL     1      15.231  22.601  18.446  1.00  0.00     0.189 HD
HETATM    4  N4  UNL     1      17.018  22.036  19.125  1.00  0.00    -0.296 N 
ATOM      5  H4  UNL     1      16.715  22.015  20.099  1.00  0.00     0.187 HD
HETATM    6  C8  UNL     1      18.267  21.724  18.820  1.00  0.00     0.069 A 
HETATM    7  S2  UNL     1      18.253  21.912  17.124  1.00  0.00    -0.038 SA
ENDROOT
BRANCH   1   8
HETATM    8  N2  UNL     1      15.926  22.693  15.878  1.00  0.00    -0.305 N 
HETATM    9  C6  UNL     1      14.542  22.838  15.974  1.00  0.00     0.237 C 
HETATM   10  O3  UNL     1      14.096  23.876  16.500  1.00  0.00    -0.272 OA
ATOM     11  H2  UNL     1      16.395  22.828  14.982  1.00  0.00     0.171 HD
BRANCH   9  12
HETATM   12  C5  UNL     1      13.547  21.814  15.477  1.00  0.00     0.177 C 
BRANCH  12  13
HETATM   13  C4  UNL     1      13.649  20.584  16.289  1.00  0.00     0.234 C 
HETATM   14  N1  UNL     1      12.590  19.876  16.884  1.00  0.00    -0.345 N 
HETATM   15  O2  UNL     1      14.827  20.118  16.458  1.00  0.00    -0.272 OA
BRANCH  14  16
HETATM   16  C3  UNL     1      11.235  20.386  16.832  1.00  0.00     0.152 C 
BRANCH  16  17
HETATM   17  C2  UNL     1      10.439  19.872  15.657  1.00  0.00     0.187 C 
BRANCH  17  18
HETATM   18  O1  UNL     1       9.366  20.653  15.292  1.00  0.00    -0.394 OA
HETATM   19  C1  UNL     1       9.686  21.588  14.319  1.00  0.00     0.201 C 
ENDBRANCH  17  18
ENDBRANCH  16  17
ENDBRANCH  14  16
BRANCH  14  20
HETATM   20  C23 UNL     1      12.792  18.616  17.577  1.00  0.00     0.087 C 
HETATM   21  C24 UNL     1      13.198  18.729  19.000  1.00  0.00     0.025 C 
HETATM   22  C25 UNL     1      12.677  17.469  19.670  1.00  0.00     0.002 C 
HETATM   23  C26 UNL     1      12.122  16.607  18.549  1.00  0.00     0.002 C 
HETATM   24  C27 UNL     1      11.627  17.695  17.576  1.00  0.00     0.025 C 
ENDBRANCH  14  20
ENDBRANCH  12  13
BRANCH  12  25
HETATM   25  C19 UNL     1      13.857  21.542  14.002  1.00  0.00    -0.031 C 
HETATM   26  C20 UNL     1      13.027  20.367  13.495  1.00  0.00     0.016 C 
HETATM   27  C21 UNL     1      13.382  22.736  13.164  1.00  0.00     0.016 C 
HETATM   28  C22 UNL     1      15.314  21.349  13.711  1.00  0.00     0.016 C 
ENDBRANCH  12  25
ENDBRANCH   9  12
ENDBRANCH   1   8
BRANCH   6  29
HETATM   29  C9  UNL     1      19.381  21.321  19.744  1.00  0.00     0.066 C 
BRANCH  29  30
HETATM   30  C10 UNL     1      20.374  22.452  19.909  1.00  0.00     0.007 C 
BRANCH  30  31
HETATM   31  C11 UNL     1      19.796  23.630  20.617  1.00  0.00     0.007 C 
BRANCH  31  32
HETATM   32  C12 UNL     1      20.587  24.877  20.326  1.00  0.00     0.066 C 
BRANCH  32  33
HETATM   33  C13 UNL     1      20.107  25.418  19.006  1.00  0.00     0.069 A 
HETATM   34  N5  UNL     1      18.944  25.226  18.404  1.00  0.00    -0.296 N 
HETATM   35  N6  UNL     1      18.703  25.755  17.280  1.00  0.00    -0.279 N 
ATOM     36  H5  UNL     1      18.235  24.646  18.852  1.00  0.00     0.187 HD
HETATM   37  C14 UNL     1      19.642  26.511  16.709  1.00  0.00     0.167 A 
ATOM     38  H6  UNL     1      17.805  25.606  16.818  1.00  0.00     0.189 HD
HETATM   39  N7  UNL     1      19.578  27.138  15.555  1.00  0.00    -0.306 N 
HETATM   40  S1  UNL     1      20.901  26.431  17.864  1.00  0.00    -0.038 SA
HETATM   41  C15 UNL     1      20.727  27.903  15.137  1.00  0.00     0.227 C 
ATOM     42  H7  UNL     1      18.742  27.084  14.973  1.00  0.00     0.171 HD
HETATM   43  O4  UNL     1      21.088  28.828  15.908  1.00  0.00    -0.273 OA
BRANCH  41  44
HETATM   44  C16 UNL     1      21.371  27.550  13.870  1.00  0.00     0.070 C 
HETATM   45  C17 UNL     1      21.873  26.112  13.878  1.00  0.00     0.019 C 
HETATM   46  C18 UNL     1      22.541  28.457  13.612  1.00  0.00     0.019 C 
ENDBRANCH  41  44
ENDBRANCH  32  33
ENDBRANCH  31  32
ENDBRANCH  30  31
ENDBRANCH  29  30
ENDBRANCH   6  29
TORSDOF 14
ENDMDL
MODEL 2
REMARK VINA RESULT: -8.672071524      3.873     10.915
REMARK  14 active torsions:
REMARK  status: ('A' for Active; 'I' for Inactive)
REMARK    1  A    between atoms: O1_2  and  C2_3 
REMARK    2  A    between atoms: C2_3  and  C3_4 
REMARK    3  A    between atoms: C3_4  and  N1_5 
REMARK       I    between atoms: N1_5  and  C4_6 
REMARK    4  A    between atoms: N1_5  and  C23_42 
REMARK    5  A    between atoms: C4_6  and  C5_8 
REMARK    6  A    between atoms: C5_8  and  C6_9 
REMARK    7  A    between atoms: C5_8  and  C19_38 
REMARK       I    between atoms: C6_9  and  N2_11 
REMARK    8  A    between atoms: N2_11  and  C7_13 
REMARK    9  A    between atoms: C8_18  and  C9_19 
REMARK   10  A    between atoms: C9_19  and  C10_20 
REMARK   11  A    between atoms: C10_20  and  C11_21 
REMARK   12  A    between atoms: C11_21  and  C12_22 
REMARK   13  A    between atoms: C12_22  and  C13_23 
REMARK       I    between atoms: N7_29  and  C15_31 
REMARK   14  A    between atoms: C15_31  and  C16_33 
ROOT
HETATM    1  C7  UNL     1      24.481  27.236  16.358  1.00  0.00     0.167 A 
HETATM    2  N3  UNL     1      24.098  26.379  15.402  1.00  0.00    -0.279 N 
ATOM      3  H3  UNL     1      24.583  25.491  15.274  1.00  0.00     0.189 HD
HETATM    4  N4  UNL     1      23.118  26.696  14.661  1.00  0.00    -0.296 N 
ATOM      5  H4  UNL     1      22.811  26.058  13.927  1.00  0.00     0.187 HD
HETATM    6  C8  UNL     1      22.492  27.849  14.833  1.00  0.00     0.069 A 
HETATM    7  S2  UNL     1      23.367  28.513  16.139  1.00  0.00    -0.038 SA
ENDROOT
BRANCH   1   8
HETATM    8  N2  UNL     1      25.465  27.088  17.212  1.00  0.00    -0.305 N 
HETATM    9  C6  UNL     1      25.832  25.808  17.626  1.00  0.00     0.237 C 
HETATM   10  O3  UNL     1      26.485  25.100  16.835  1.00  0.00    -0.272 OA
ATOM     11  H2  UNL     1      25.960  27.905  17.571  1.00  0.00     0.171 HD
BRANCH   9  12
HETATM   12  C5  UNL     1      25.489  25.226  18.978  1.00  0.00     0.177 C 
BRANCH  12  13
HETATM   13  C4  UNL     1      24.704  26.204  19.759  1.00  0.00     0.234 C 
HETATM   14  N1  UNL     1      23.405  26.030  20.266  1.00  0.00    -0.345 N 
HETATM   15  O2  UNL     1      25.278  27.320  19.999  1.00  0.00    -0.272 OA
BRANCH  14  16
HETATM   16  C3  UNL     1      22.640  24.839  19.955  1.00  0.00     0.152 C 
BRANCH  16  17
HETATM   17  C2  UNL     1      21.751  24.988  18.745  1.00  0.00     0.187 C 
BRANCH  17  18
HETATM   18  O1  UNL     1      20.424  25.226  19.020  1.00  0.00    -0.394 OA
HETATM   19  C1  UNL     1      19.881  24.302  19.900  1.00  0.00     0.201 C 
ENDBRANCH  17  18
ENDBRANCH  16  17
ENDBRANCH  14  16
BRANCH  14  20
HETATM   20  C23 UNL     1      22.764  27.021  21.112  1.00  0.00     0.087 C 
HETATM   21  C24 UNL     1      21.930  28.022  20.403  1.00  0.00     0.025 C 
HETATM   22  C25 UNL     1      20.868  28.445  21.403  1.00  0.00     0.002 C 
HETATM   23  C26 UNL     1      21.242  27.768  22.710  1.00  0.00     0.002 C 
HETATM   24  C27 UNL     1      21.890  26.474  22.183  1.00  0.00     0.025 C 
ENDBRANCH  14  20
ENDBRANCH  12  13
BRANCH  12  25
HETATM   25  C19 UNL     1      26.805  24.870  19.678  1.00  0.00    -0.031 C 
HETATM   26  C20 UNL     1      26.573  24.681  21.174  1.00  0.00     0.016 C 
HETATM   27  C21 UNL     1      27.276  23.496  19.187  1.00  0.00     0.016 C 
HETATM   28  C22 UNL     1      27.916  25.840  19.415  1.00  0.00     0.016 C 
ENDBRANCH  12  25
ENDBRANCH   9  12
ENDBRANCH   1   8
BRANCH   6  29
HETATM   29  C9  UNL     1      21.325  28.402  14.065  1.00  0.00     0.066 C 
BRANCH  29  30
HETATM   30  C10 UNL     1      20.187  27.404  14.030  1.00  0.00     0.007 C 
BRANCH  30  31
HETATM   31  C11 UNL     1      19.793  26.929  15.386  1.00  0.00     0.007 C 
BRANCH  31  32
HETATM   32  C12 UNL     1      19.601  25.436  15.402  1.00  0.00     0.066 C 
BRANCH  32  33
HETATM   33  C13 UNL     1      18.398  25.144  16.257  1.00  0.00     0.069 A 
HETATM   34  N5  UNL     1      17.918  25.836  17.278  1.00  0.00    -0.296 N 
HETATM   35  N6  UNL     1      16.890  25.441  17.901  1.00  0.00    -0.279 N 
ATOM     36  H5  UNL     1      18.382  26.697  17.566  1.00  0.00     0.187 HD
HETATM   37  C14 UNL     1      16.295  24.312  17.510  1.00  0.00     0.167 A 
ATOM     38  H6  UNL     1      16.522  25.976  18.687  1.00  0.00     0.189 HD
HETATM   39  N7  UNL     1      15.226  23.746  18.027  1.00  0.00    -0.306 N 
HETATM   40  S1  UNL     1      17.283  23.834  16.199  1.00  0.00    -0.038 SA
HETATM   41  C15 UNL     1      14.759  22.517  17.435  1.00  0.00     0.227 C 
ATOM     42  H7  UNL     1      14.743  24.163  18.823  1.00  0.00     0.171 HD
HETATM   43  O4  UNL     1      14.454  22.569  16.217  1.00  0.00    -0.273 OA
BRANCH  41  44
HETATM   44  C16 UNL     1      14.678  21.326  18.283  1.00  0.00     0.070 C 
HETATM   45  C17 UNL     1      15.243  21.587  19.673  1.00  0.00     0.019 C 
HETATM   46  C18 UNL     1      15.451  20.195  17.666  1.00  0.00     0.019 C 
ENDBRANCH  41  44
ENDBRANCH  32  33
ENDBRANCH  31  32
ENDBRANCH  30  31
ENDBRANCH  29  30
ENDBRANCH   6  29
TORSDOF 14
ENDMDL
MODEL 3
REMARK VINA RESULT: -8.666551290      2.487      9.501
REMARK  14 active torsions:
REMARK  status: ('A' for Active; 'I' for Inactive)
REMARK    1  A    between atoms: O1_2  and  C2_3 
REMARK    2  A    between atoms: C2_3  and  C3_4 
REMARK    3  A    between atoms: C3_4  and  N1_5 
REMARK       I    between atoms: N1_5  and  C4_6 
REMARK    4  A    between atoms: N1_5  and  C23_42 
REMARK    5  A    between atoms: C4_6  and  C5_8 
REMARK    6  A    between atoms: C5_8  and  C6_9 
REMARK    7  A    between atoms: C5_8  and  C19_38 
REMARK       I    between atoms: C6_9  and  N2_11 
REMARK    8  A    between atoms: N2_11  and  C7_13 
REMARK    9  A    between atoms: C8_18  and  C9_19 
REMARK   10  A    between atoms: C9_19  and  C10_20 
REMARK   11  A    between atoms: C10_20  and  C11_21 
REMARK   12  A    between atoms: C11_21  and  C12_22 
REMARK   13  A    between atoms: C12_22  and  C13_23 
REMARK       I    between atoms: N7_29  and  C15_31 
REMARK   14  A    between atoms: C15_31  and  C16_33 
ROOT
HETATM    1  C7  UNL     1      15.054  22.305  18.711  1.00  0.00     0.167 A 
HETATM    2  N3  UNL     1      14.023  21.817  18.008  1.00  0.00    -0.279 N 
ATOM      3  H3  UNL     1      13.625  22.345  17.232  1.00  0.00     0.189 HD
HETATM    4  N4  UNL     1      13.553  20.682  18.329  1.00  0.00    -0.296 N 
ATOM      5  H4  UNL     1      12.768  20.294  17.808  1.00  0.00     0.187 HD
HETATM    6  C8  UNL     1      14.074  20.001  19.336  1.00  0.00     0.069 A 
HETATM    7  S2  UNL     1      15.312  21.058  19.849  1.00  0.00    -0.038 SA
ENDROOT
BRANCH   1   8
HETATM    8  N2  UNL     1      15.667  23.451  18.534  1.00  0.00    -0.305 N 
HETATM    9  C6  UNL     1      16.226  23.749  17.292  1.00  0.00     0.237 C 
HETATM   10  O3  UNL     1      15.459  24.079  16.367  1.00  0.00    -0.272 OA
ATOM     11  H2  UNL     1      15.734  24.120  19.301  1.00  0.00     0.171 HD
BRANCH   9  12
HETATM   12  C5  UNL     1      17.708  23.699  16.997  1.00  0.00     0.177 C 
BRANCH  12  13
HETATM   13  C4  UNL     1      18.179  25.034  16.576  1.00  0.00     0.234 C 
HETATM   14  N1  UNL     1      19.439  25.602  16.828  1.00  0.00    -0.345 N 
HETATM   15  O2  UNL     1      17.347  25.737  15.906  1.00  0.00    -0.272 OA
BRANCH  14  16
HETATM   16  C3  UNL     1      20.406  24.921  17.665  1.00  0.00     0.152 C 
BRANCH  16  17
HETATM   17  C2  UNL     1      20.189  25.140  19.143  1.00  0.00     0.187 C 
BRANCH  17  18
HETATM   18  O1  UNL     1      19.664  24.064  19.822  1.00  0.00    -0.394 OA
HETATM   19  C1  UNL     1      18.522  24.385  20.540  1.00  0.00     0.201 C 
ENDBRANCH  17  18
ENDBRANCH  16  17
ENDBRANCH  14  16
BRANCH  14  20
HETATM   20  C23 UNL     1      19.836  26.886  16.276  1.00  0.00     0.087 C 
HETATM   21  C24 UNL     1      21.019  27.515  16.913  1.00  0.00     0.025 C 
HETATM   22  C25 UNL     1      21.655  28.370  15.830  1.00  0.00     0.002 C 
HETATM   23  C26 UNL     1      20.703  28.309  14.647  1.00  0.00     0.002 C 
HETATM   24  C27 UNL     1      20.130  26.889  14.820  1.00  0.00     0.025 C 
ENDBRANCH  14  20
ENDBRANCH  12  13
BRANCH  12  25
HETATM   25  C19 UNL     1      17.929  22.651  15.902  1.00  0.00    -0.031 C 
HETATM   26  C20 UNL     1      19.400  22.607  15.501  1.00  0.00     0.016 C 
HETATM   27  C21 UNL     1      17.648  21.258  16.480  1.00  0.00     0.016 C 
HETATM   28  C22 UNL     1      17.041  22.823  14.707  1.00  0.00     0.016 C 
ENDBRANCH  12  25
ENDBRANCH   9  12
ENDBRANCH   1   8
BRANCH   6  29
HETATM   29  C9  UNL     1      13.662  18.658  19.867  1.00  0.00     0.066 C 
BRANCH  29  30
HETATM   30  C10 UNL     1      12.167  18.615  20.107  1.00  0.00     0.007 C 
BRANCH  30  31
HETATM   31  C11 UNL     1      11.566  17.293  19.769  1.00  0.00     0.007 C 
BRANCH  31  32
HETATM   32  C12 UNL     1      10.344  17.460  18.907  1.00  0.00     0.066 C 
BRANCH  32  33
HETATM   33  C13 UNL     1      10.814  17.670  17.493  1.00  0.00     0.069 A 
HETATM   34  N5  UNL     1      11.278  16.778  16.632  1.00  0.00    -0.296 N 
HETATM   35  N6  UNL     1      11.643  17.128  15.471  1.00  0.00    -0.279 N 
ATOM     36  H5  UNL     1      11.341  15.798  16.906  1.00  0.00     0.187 HD
HETATM   37  C14 UNL     1      11.553  18.414  15.129  1.00  0.00     0.167 A 
ATOM     38  H6  UNL     1      11.999  16.438  14.809  1.00  0.00     0.189 HD
HETATM   39  N7  UNL     1      11.879  18.965  13.980  1.00  0.00    -0.306 N 
HETATM   40  S1  UNL     1      10.917  19.110  16.556  1.00  0.00    -0.038 SA
HETATM   41  C15 UNL     1      11.694  20.388  13.836  1.00  0.00     0.227 C 
ATOM     42  H7  UNL     1      12.253  18.403  13.215  1.00  0.00     0.171 HD
HETATM   43  O4  UNL     1      10.522  20.814  13.997  1.00  0.00    -0.273 OA
BRANCH  41  44
HETATM   44  C16 UNL     1      12.863  21.210  13.520  1.00  0.00     0.070 C 
HETATM   45  C17 UNL     1      14.148  20.394  13.549  1.00  0.00     0.019 C 
HETATM   46  C18 UNL     1      12.994  22.332  14.512  1.00  0.00     0.019 C 
ENDBRANCH  41  44
ENDBRANCH  32  33
ENDBRANCH  31  32
ENDBRANCH  30  31
ENDBRANCH  29  30
ENDBRANCH   6  29
TORSDOF 14
ENDMDL
MODEL 4
REMARK VINA RESULT: -8.642711256      2.417     10.576
REMARK  14 active torsions:
REMARK  status: ('A' for Active; 'I' for Inactive)
REMARK    1  A    between atoms: O1_2  and  C2_3 
REMARK    2  A    between atoms: C2_3  and  C3_4 
REMARK    3  A    between atoms: C3_4  and  N1_5 
REMARK       I    between atoms: N1_5  and  C4_6 
REMARK    4  A    between atoms: N1_5  and  C23_42 
REMARK    5  A    between atoms: C4_6  and  C5_8 
REMARK    6  A    between atoms: C5_8  and  C6_9 
REMARK    7  A    between atoms: C5_8  and  C19_38 
REMARK       I    between atoms: C6_9  and  N2_11 
REMARK    8  A    between atoms: N2_11  and  C7_13 
REMARK    9  A    between atoms: C8_18  and  C9_19 
REMARK   10  A    between atoms: C9_19  and  C10_20 
REMARK   11  A    between atoms: C10_20  and  C11_21 
REMARK   12  A    between atoms: C11_21  and  C12_22 
REMARK   13  A    between atoms: C12_22  and  C13_23 
REMARK       I    between atoms: N7_29  and  C15_31 
REMARK   14  A    between atoms: C15_31  and  C16_33 
ROOT
HETATM    1  C7  UNL     1      17.693  25.181  16.544  1.00  0.00     0.167 A 
HETATM    2  N3  UNL     1      16.426  25.002  16.941  1.00  0.00    -0.279 N 
ATOM      3  H3  UNL     1      15.966  25.688  17.538  1.00  0.00     0.189 HD
HETATM    4  N4  UNL     1      15.811  23.959  16.558  1.00  0.00    -0.296 N 
ATOM      5  H4  UNL     1      14.847  23.804  16.850  1.00  0.00     0.187 HD
HETATM    6  C8  UNL     1      16.413  23.073  15.783  1.00  0.00     0.069 A 
HETATM    7  S2  UNL     1      17.954  23.783  15.597  1.00  0.00    -0.038 SA
ENDROOT
BRANCH   1   8
HETATM    8  N2  UNL     1      18.486  26.183  16.837  1.00  0.00    -0.305 N 
HETATM    9  C6  UNL     1      19.579  26.461  16.017  1.00  0.00     0.237 C 
HETATM   10  O3  UNL     1      19.366  27.021  14.925  1.00  0.00    -0.272 OA
ATOM     11  H2  UNL     1      18.303  26.756  17.661  1.00  0.00     0.171 HD
BRANCH   9  12
HETATM   12  C5  UNL     1      21.009  26.126  16.373  1.00  0.00     0.177 C 
BRANCH  12  13
HETATM   13  C4  UNL     1      21.354  26.726  17.678  1.00  0.00     0.234 C 
HETATM   14  N1  UNL     1      21.829  26.053  18.817  1.00  0.00    -0.345 N 
HETATM   15  O2  UNL     1      21.207  27.992  17.770  1.00  0.00    -0.272 OA
BRANCH  14  16
HETATM   16  C3  UNL     1      21.929  24.607  18.837  1.00  0.00     0.152 C 
BRANCH  16  17
HETATM   17  C2  UNL     1      20.729  23.925  19.448  1.00  0.00     0.187 C 
BRANCH  17  18
HETATM   18  O1  UNL     1      19.526  24.559  19.238  1.00  0.00    -0.394 OA
HETATM   19  C1  UNL     1      18.603  24.312  20.243  1.00  0.00     0.201 C 
ENDBRANCH  17  18
ENDBRANCH  16  17
ENDBRANCH  14  16
BRANCH  14  20
HETATM   20  C23 UNL     1      22.236  26.756  20.020  1.00  0.00     0.087 C 
HETATM   21  C24 UNL     1      21.141  27.100  20.960  1.00  0.00     0.025 C 
HETATM   22  C25 UNL     1      21.786  27.142  22.335  1.00  0.00     0.002 C 
HETATM   23  C26 UNL     1      23.276  26.969  22.094  1.00  0.00     0.002 C 
HETATM   24  C27 UNL     1      23.258  26.064  20.848  1.00  0.00     0.025 C 
ENDBRANCH  14  20
ENDBRANCH  12  13
BRANCH  12  25
HETATM   25  C19 UNL     1      21.905  26.663  15.251  1.00  0.00    -0.031 C 
HETATM   26  C20 UNL     1      23.340  26.814  15.747  1.00  0.00     0.016 C 
HETATM   27  C21 UNL     1      21.993  25.613  14.137  1.00  0.00     0.016 C 
HETATM   28  C22 UNL     1      21.405  27.931  14.628  1.00  0.00     0.016 C 
ENDBRANCH  12  25
ENDBRANCH   9  12
ENDBRANCH   1   8
BRANCH   6  29
HETATM   29  C9  UNL     1      15.863  21.788  15.232  1.00  0.00     0.066 C 
BRANCH  29  30
HETATM   30  C10 UNL     1      15.471  21.954  13.779  1.00  0.00     0.007 C 
BRANCH  30  31
HETATM   31  C11 UNL     1      14.142  21.358  13.467  1.00  0.00     0.007 C 
BRANCH  31  32
HETATM   32  C12 UNL     1      13.025  22.281  13.875  1.00  0.00     0.066 C 
BRANCH  32  33
HETATM   33  C13 UNL     1      12.116  21.512  14.795  1.00  0.00     0.069 A 
HETATM   34  N5  UNL     1      10.824  21.689  15.023  1.00  0.00    -0.296 N 
HETATM   35  N6  UNL     1      10.205  20.951  15.844  1.00  0.00    -0.279 N 
ATOM     36  H5  UNL     1      10.322  22.427  14.530  1.00  0.00     0.187 HD
HETATM   37  C14 UNL     1      10.878  19.989  16.478  1.00  0.00     0.167 A 
ATOM     38  H6  UNL     1       9.209  21.088  16.017  1.00  0.00     0.189 HD
HETATM   39  N7  UNL     1      10.414  19.130  17.359  1.00  0.00    -0.306 N 
HETATM   40  S1  UNL     1      12.453  20.190  15.843  1.00  0.00    -0.038 SA
HETATM   41  C15 UNL     1      11.334  18.171  17.918  1.00  0.00     0.227 C 
ATOM     42  H7  UNL     1       9.432  19.141  17.638  1.00  0.00     0.171 HD
HETATM   43  O4  UNL     1      11.908  17.409  17.099  1.00  0.00    -0.273 OA
BRANCH  41  44
HETATM   44  C16 UNL     1      11.525  18.160  19.370  1.00  0.00     0.070 C 
HETATM   45  C17 UNL     1      12.651  19.092  19.795  1.00  0.00     0.019 C 
HETATM   46  C18 UNL     1      11.860  16.772  19.839  1.00  0.00     0.019 C 
ENDBRANCH  41  44
ENDBRANCH  32  33
ENDBRANCH  31  32
ENDBRANCH  30  31
ENDBRANCH  29  30
ENDBRANCH   6  29
TORSDOF 14
ENDMDL
MODEL 5
REMARK VINA RESULT: -8.629744165      2.676     10.025
REMARK  14 active torsions:
REMARK  status: ('A' for Active; 'I' for Inactive)
REMARK    1  A    between atoms: O1_2  and  C2_3 
REMARK    2  A    between atoms: C2_3  and  C3_4 
REMARK    3  A    between atoms: C3_4  and  N1_5 
REMARK       I    between atoms: N1_5  and  C4_6 
REMARK    4  A    between atoms: N1_5  and  C23_42 
REMARK    5  A    between atoms: C4_6  and  C5_8 
REMARK    6  A    between atoms: C5_8  and  C6_9 
REMARK    7  A    between atoms: C5_8  and  C19_38 
REMARK       I    between atoms: C6_9  and  N2_11 
REMARK    8  A    between atoms: N2_11  and  C7_13 
REMARK    9  A    between atoms: C8_18  and  C9_19 
REMARK   10  A    between atoms: C9_19  and  C10_20 
REMARK   11  A    between atoms: C10_20  and  C11_21 
REMARK   12  A    between atoms: C11_21  and  C12_22 
REMARK   13  A    between atoms: C12_22  and  C13_23 
REMARK       I    between atoms: N7_29  and  C15_31 
REMARK   14  A    between atoms: C15_31  and  C16_33 
ROOT
HETATM    1  C7  UNL     1      15.211  23.241  16.774  1.00  0.00     0.167 A 
HETATM    2  N3  UNL     1      14.222  24.077  16.432  1.00  0.00    -0.279 N 
ATOM      3  H3  UNL     1      14.051  24.929  16.965  1.00  0.00     0.189 HD
HETATM    4  N4  UNL     1      13.502  23.785  15.427  1.00  0.00    -0.296 N 
ATOM      5  H4  UNL     1      12.743  24.408  15.151  1.00  0.00     0.187 HD
HETATM    6  C8  UNL     1      13.729  22.679  14.738  1.00  0.00     0.069 A 
HETATM    7  S2  UNL     1      15.055  22.022  15.587  1.00  0.00    -0.038 SA
ENDROOT
BRANCH   1   8
HETATM    8  N2  UNL     1      16.050  23.368  17.774  1.00  0.00    -0.305 N 
HETATM    9  C6  UNL     1      17.062  24.326  17.707  1.00  0.00     0.237 C 
HETATM   10  O3  UNL     1      16.753  25.520  17.886  1.00  0.00    -0.272 OA
ATOM     11  H2  UNL     1      15.964  22.770  18.596  1.00  0.00     0.171 HD
BRANCH   9  12
HETATM   12  C5  UNL     1      18.513  24.005  17.432  1.00  0.00     0.177 C 
BRANCH  12  13
HETATM   13  C4  UNL     1      19.376  25.055  18.012  1.00  0.00     0.234 C 
HETATM   14  N1  UNL     1      20.115  24.977  19.204  1.00  0.00    -0.345 N 
HETATM   15  O2  UNL     1      19.456  26.145  17.348  1.00  0.00    -0.272 OA
BRANCH  14  16
HETATM   16  C3  UNL     1      20.004  23.821  20.072  1.00  0.00     0.152 C 
BRANCH  16  17
HETATM   17  C2  UNL     1      20.942  22.696  19.707  1.00  0.00     0.187 C 
BRANCH  17  18
HETATM   18  O1  UNL     1      20.349  21.462  19.571  1.00  0.00    -0.394 OA
HETATM   19  C1  UNL     1      18.966  21.514  19.667  1.00  0.00     0.201 C 
ENDBRANCH  17  18
ENDBRANCH  16  17
ENDBRANCH  14  16
BRANCH  14  20
HETATM   20  C23 UNL     1      21.015  26.034  19.630  1.00  0.00     0.087 C 
HETATM   21  C24 UNL     1      21.179  26.180  21.097  1.00  0.00     0.025 C 
HETATM   22  C25 UNL     1      22.570  26.758  21.294  1.00  0.00     0.002 C 
HETATM   23  C26 UNL     1      23.088  27.064  19.899  1.00  0.00     0.002 C 
HETATM   24  C27 UNL     1      22.397  25.949  19.090  1.00  0.00     0.025 C 
ENDBRANCH  14  20
ENDBRANCH  12  13
BRANCH  12  25
HETATM   25  C19 UNL     1      18.688  23.907  15.913  1.00  0.00    -0.031 C 
HETATM   26  C20 UNL     1      20.136  24.197  15.528  1.00  0.00     0.016 C 
HETATM   27  C21 UNL     1      18.460  22.454  15.478  1.00  0.00     0.016 C 
HETATM   28  C22 UNL     1      17.733  24.758  15.134  1.00  0.00     0.016 C 
ENDBRANCH  12  25
ENDBRANCH   9  12
ENDBRANCH   1   8
BRANCH   6  29
HETATM   29  C9  UNL     1      12.993  22.162  13.535  1.00  0.00     0.066 C 
BRANCH  29  30
HETATM   30  C10 UNL     1      11.900  21.200  13.949  1.00  0.00     0.007 C 
BRANCH  30  31
HETATM   31  C11 UNL     1      10.698  21.892  14.494  1.00  0.00     0.007 C 
BRANCH  31  32
HETATM   32  C12 UNL     1       9.668  20.898  14.963  1.00  0.00     0.066 C 
BRANCH  32  33
HETATM   33  C13 UNL     1      10.402  19.777  15.648  1.00  0.00     0.069 A 
HETATM   34  N5  UNL     1      10.165  18.476  15.594  1.00  0.00    -0.296 N 
HETATM   35  N6  UNL     1      10.881  17.661  16.246  1.00  0.00    -0.279 N 
ATOM     36  H5  UNL     1       9.398  18.127  15.021  1.00  0.00     0.187 HD
HETATM   37  C14 UNL     1      11.881  18.136  16.991  1.00  0.00     0.167 A 
ATOM     38  H6  UNL     1      10.697  16.658  16.202  1.00  0.00     0.189 HD
HETATM   39  N7  UNL     1      12.726  17.452  17.732  1.00  0.00    -0.306 N 
HETATM   40  S1  UNL     1      11.751  19.818  16.716  1.00  0.00    -0.038 SA
HETATM   41  C15 UNL     1      13.734  18.185  18.456  1.00  0.00     0.227 C 
ATOM     42  H7  UNL     1      12.669  16.435  17.792  1.00  0.00     0.171 HD
HETATM   43  O4  UNL     1      14.514  18.888  17.765  1.00  0.00    -0.273 OA
BRANCH  41  44
HETATM   44  C16 UNL     1      13.771  18.056  19.914  1.00  0.00     0.070 C 
HETATM   45  C17 UNL     1      12.450  17.534  20.465  1.00  0.00     0.019 C 
HETATM   46  C18 UNL     1      14.051  19.389  20.548  1.00  0.00     0.019 C 
ENDBRANCH  41  44
ENDBRANCH  32  33
ENDBRANCH  31  32
ENDBRANCH  30  31
ENDBRANCH  29  30
ENDBRANCH   6  29
TORSDOF 14
ENDMDL
