MODEL 1
REMARK VINA RESULT: -8.372960444      0.000      0.000
REMARK  12 active torsions:
REMARK  status: ('A' for Active; 'I' for Inactive)
REMARK    1  A    between atoms: C2_2  and  C3_3 
REMARK    2  A    between atoms: C3_3  and  N1_4 
REMARK    3  A    between atoms: N1_4  and  C4_5 
REMARK    4  A    between atoms: N1_4  and  S1_8 
REMARK    5  A    between atoms: C4_5  and  C5_6 
REMARK    6  A    between atoms: S1_8  and  O1_9 
REMARK    7  A    between atoms: S1_8  and  C7_11 
REMARK    8  A    between atoms: S1_8  and  C14_18 
REMARK    9  A    between atoms: S1_8  and  C26_40 
REMARK   10  A    between atoms: C7_11  and  C8_12 
REMARK   11  A    between atoms: C18_27  and  N4_28 
REMARK   12  A    between atoms: N5_31  and  C21_32 
ROOT
HETATM    1  S1  UNL     1      15.314  23.572  17.383  1.00  0.00    -0.079 SA
ENDROOT
BRANCH   1   2
HETATM    2  N1  UNL     1      16.557  24.805  18.171  1.00  0.00    -0.256 NA
BRANCH   2   3
HETATM    3  C3  UNL     1      17.757  24.224  18.679  1.00  0.00     0.102 C 
BRANCH   3   4
HETATM    4  C2  UNL     1      18.044  24.237  20.115  1.00  0.00     0.011 C 
HETATM    5  C1  UNL     1      19.561  24.515  20.272  1.00  0.00     0.006 C 
ENDBRANCH   3   4
ENDBRANCH   2   3
BRANCH   2   6
HETATM    6  C4  UNL     1      16.991  25.685  17.085  1.00  0.00     0.102 C 
BRANCH   6   7
HETATM    7  C5  UNL     1      18.451  25.856  16.962  1.00  0.00     0.011 C 
HETATM    8  C6  UNL     1      18.999  26.230  15.630  1.00  0.00     0.006 C 
ENDBRANCH   6   7
ENDBRANCH   2   6
ENDBRANCH   1   2
BRANCH   1   9
HETATM    9  O1  UNL     1      14.179  24.416  18.011  1.00  0.00    -0.338 OA
ATOM     10  H1  UNL     1      14.788  25.144  18.038  1.00  0.00     0.227 HD
ENDBRANCH   1   9
BRANCH   1  11
HETATM   11  C7  UNL     1      14.672  23.830  15.663  1.00  0.00     0.039 C 
BRANCH  11  12
HETATM   12  C8  UNL     1      13.635  22.889  15.032  1.00  0.00     0.016 C 
HETATM   13  C9  UNL     1      13.451  23.173  13.565  1.00  0.00     0.009 C 
HETATM   14  C10 UNL     1      14.242  22.256  12.665  1.00  0.00     0.001 C 
HETATM   15  C11 UNL     1      13.718  20.832  12.753  1.00  0.00     0.000 C 
HETATM   16  C12 UNL     1      13.320  20.594  14.192  1.00  0.00     0.001 C 
HETATM   17  C13 UNL     1      14.113  21.451  15.131  1.00  0.00     0.009 C 
ENDBRANCH  11  12
ENDBRANCH   1  11
BRANCH   1  18
HETATM   18  C14 UNL     1      14.780  22.045  18.419  1.00  0.00     0.097 A 
HETATM   19  C15 UNL     1      15.156  21.725  19.711  1.00  0.00     0.128 A 
HETATM   20  N2  UNL     1      14.752  20.654  20.364  1.00  0.00    -0.348 N 
HETATM   21  C16 UNL     1      13.933  19.779  19.817  1.00  0.00     0.135 A 
ATOM     22  H2  UNL     1      15.082  20.499  21.316  1.00  0.00     0.167 HD
HETATM   23  N3  UNL     1      13.555  18.689  20.508  1.00  0.00    -0.306 N 
HETATM   24  C25 UNL     1      13.512  20.028  18.533  1.00  0.00     0.080 A 
HETATM   25  C17 UNL     1      12.743  17.762  20.005  1.00  0.00     0.273 A 
ATOM     26  H3  UNL     1      13.905  18.567  21.459  1.00  0.00     0.170 HD
HETATM   27  O2  UNL     1      12.443  16.776  20.725  1.00  0.00    -0.266 OA
HETATM   28  C18 UNL     1      12.283  17.951  18.712  1.00  0.00     0.101 A 
HETATM   29  C24 UNL     1      12.672  19.086  17.987  1.00  0.00     0.068 A 
HETATM   30  N6  UNL     1      13.929  21.119  17.878  1.00  0.00    -0.346 N 
ATOM     31  H6  UNL     1      13.596  21.268  16.925  1.00  0.00     0.167 HD
BRANCH  28  32
HETATM   32  N4  UNL     1      11.441  16.952  18.159  1.00  0.00    -0.373 N 
HETATM   33  C19 UNL     1      12.026  15.963  17.286  1.00  0.00     0.143 C 
HETATM   34  C20 UNL     1      11.289  15.826  15.992  1.00  0.00     0.145 C 
HETATM   35  N5  UNL     1       9.880  16.065  16.222  1.00  0.00    -0.356 N 
HETATM   36  C22 UNL     1       9.292  15.961  17.558  1.00  0.00     0.145 C 
HETATM   37  C23 UNL     1      10.028  16.913  18.454  1.00  0.00     0.143 C 
BRANCH  35  38
HETATM   38  C21 UNL     1       9.082  16.405  15.088  1.00  0.00     0.350 C 
HETATM   39  O3  UNL     1       9.511  17.090  14.143  1.00  0.00    -0.284 OA
ENDBRANCH  35  38
ENDBRANCH  28  32
ENDBRANCH   1  18
BRANCH   1  40
HETATM   40  C26 UNL     1      16.872  22.694  16.801  1.00  0.00     0.070 C 
HETATM   41  C27 UNL     1      16.975  21.177  17.051  1.00  0.00     0.043 C 
HETATM   42  C28 UNL     1      18.380  20.830  16.712  1.00  0.00     0.168 C 
HETATM   43  O4  UNL     1      19.203  21.916  16.469  1.00  0.00    -0.391 OA
HETATM   44  C29 UNL     1      18.850  22.645  15.325  1.00  0.00     0.168 C 
HETATM   45  C30 UNL     1      17.342  22.858  15.378  1.00  0.00     0.043 C 
ENDBRANCH   1  40
TORSDOF 12
ENDMDL
MODEL 2
REMARK VINA RESULT: -8.273784230      4.426      8.541
REMARK  12 active torsions:
REMARK  status: ('A' for Active; 'I' for Inactive)
REMARK    1  A    between atoms: C2_2  and  C3_3 
REMARK    2  A    between atoms: C3_3  and  N1_4 
REMARK    3  A    between atoms: N1_4  and  C4_5 
REMARK    4  A    between atoms: N1_4  and  S1_8 
REMARK    5  A    between atoms: C4_5  and  C5_6 
REMARK    6  A    between atoms: S1_8  and  O1_9 
REMARK    7  A    between atoms: S1_8  and  C7_11 
REMARK    8  A    between atoms: S1_8  and  C14_18 
REMARK    9  A    between atoms: S1_8  and  C26_40 
REMARK   10  A    between atoms: C7_11  and  C8_12 
REMARK   11  A    between atoms: C18_27  and  N4_28 
REMARK   12  A    between atoms: N5_31  and  C21_32 
ROOT
HETATM    1  S1  UNL     1      22.226  25.363  19.131  1.00  0.00    -0.079 SA
ENDROOT
BRANCH   1   2
HETATM    2  N1  UNL     1      22.596  27.000  18.198  1.00  0.00    -0.256 NA
BRANCH   2   3
HETATM    3  C3  UNL     1      23.978  27.311  18.032  1.00  0.00     0.102 C 
BRANCH   3   4
HETATM    4  C2  UNL     1      24.545  27.515  16.698  1.00  0.00     0.011 C 
HETATM    5  C1  UNL     1      25.749  26.547  16.563  1.00  0.00     0.006 C 
ENDBRANCH   3   4
ENDBRANCH   2   3
BRANCH   2   6
HETATM    6  C4  UNL     1      22.083  26.814  16.841  1.00  0.00     0.102 C 
BRANCH   6   7
HETATM    7  C5  UNL     1      20.857  27.572  16.524  1.00  0.00     0.011 C 
HETATM    8  C6  UNL     1      20.774  28.237  15.196  1.00  0.00     0.006 C 
ENDBRANCH   6   7
ENDBRANCH   2   6
ENDBRANCH   1   2
BRANCH   1   9
HETATM    9  O1  UNL     1      22.425  24.627  17.784  1.00  0.00    -0.338 OA
ATOM     10  H1  UNL     1      22.943  23.986  18.256  1.00  0.00     0.227 HD
ENDBRANCH   1   9
BRANCH   1  11
HETATM   11  C7  UNL     1      23.583  24.404  19.953  1.00  0.00     0.039 C 
BRANCH  11  12
HETATM   12  C8  UNL     1      24.990  24.301  19.347  1.00  0.00     0.016 C 
HETATM   13  C9  UNL     1      26.046  24.765  20.314  1.00  0.00     0.009 C 
HETATM   14  C10 UNL     1      26.720  23.643  21.063  1.00  0.00     0.001 C 
HETATM   15  C11 UNL     1      27.549  22.786  20.119  1.00  0.00     0.000 C 
HETATM   16  C12 UNL     1      26.786  22.699  18.816  1.00  0.00     0.001 C 
HETATM   17  C13 UNL     1      25.311  22.850  19.030  1.00  0.00     0.009 C 
ENDBRANCH  11  12
ENDBRANCH   1  11
BRANCH   1  18
HETATM   18  C14 UNL     1      20.403  24.765  19.213  1.00  0.00     0.097 A 
HETATM   19  C15 UNL     1      19.613  24.610  20.339  1.00  0.00     0.128 A 
HETATM   20  N2  UNL     1      18.365  24.190  20.323  1.00  0.00    -0.348 N 
HETATM   21  C16 UNL     1      17.754  23.876  19.198  1.00  0.00     0.135 A 
ATOM     22  H2  UNL     1      17.858  24.106  21.204  1.00  0.00     0.167 HD
HETATM   23  N3  UNL     1      16.483  23.435  19.224  1.00  0.00    -0.306 N 
HETATM   24  C25 UNL     1      18.473  24.005  18.035  1.00  0.00     0.080 A 
HETATM   25  C17 UNL     1      15.819  23.088  18.124  1.00  0.00     0.273 A 
ATOM     26  H3  UNL     1      16.008  23.364  20.124  1.00  0.00     0.170 HD
HETATM   27  O2  UNL     1      14.634  22.687  18.243  1.00  0.00    -0.266 OA
HETATM   28  C18 UNL     1      16.488  23.193  16.916  1.00  0.00     0.101 A 
HETATM   29  C24 UNL     1      17.812  23.652  16.883  1.00  0.00     0.068 A 
HETATM   30  N6  UNL     1      19.743  24.432  18.062  1.00  0.00    -0.346 N 
ATOM     31  H6  UNL     1      20.244  24.513  17.177  1.00  0.00     0.167 HD
BRANCH  28  32
HETATM   32  N4  UNL     1      15.796  22.795  15.743  1.00  0.00    -0.373 N 
HETATM   33  C19 UNL     1      15.116  23.803  14.967  1.00  0.00     0.143 C 
HETATM   34  C20 UNL     1      13.694  23.443  14.671  1.00  0.00     0.145 C 
HETATM   35  N5  UNL     1      13.591  22.007  14.522  1.00  0.00    -0.356 N 
HETATM   36  C22 UNL     1      14.761  21.179  14.232  1.00  0.00     0.145 C 
HETATM   37  C23 UNL     1      15.765  21.413  15.322  1.00  0.00     0.143 C 
BRANCH  35  38
HETATM   38  C21 UNL     1      12.293  21.428  14.666  1.00  0.00     0.350 C 
HETATM   39  O3  UNL     1      11.317  21.781  13.982  1.00  0.00    -0.284 OA
ENDBRANCH  35  38
ENDBRANCH  28  32
ENDBRANCH   1  18
BRANCH   1  40
HETATM   40  C26 UNL     1      21.970  26.502  20.605  1.00  0.00     0.070 C 
HETATM   41  C27 UNL     1      23.102  26.588  21.648  1.00  0.00     0.043 C 
HETATM   42  C28 UNL     1      22.518  27.354  22.781  1.00  0.00     0.168 C 
HETATM   43  O4  UNL     1      21.158  27.595  22.678  1.00  0.00    -0.391 OA
HETATM   44  C29 UNL     1      20.814  28.437  21.612  1.00  0.00     0.168 C 
HETATM   45  C30 UNL     1      21.571  27.939  20.386  1.00  0.00     0.043 C 
ENDBRANCH   1  40
TORSDOF 12
ENDMDL
MODEL 3
REMARK VINA RESULT: -8.163664890      6.708     10.907
REMARK  12 active torsions:
REMARK  status: ('A' for Active; 'I' for Inactive)
REMARK    1  A    between atoms: C2_2  and  C3_3 
REMARK    2  A    between atoms: C3_3  and  N1_4 
REMARK    3  A    between atoms: N1_4  and  C4_5 
REMARK    4  A    between atoms: N1_4  and  S1_8 
REMARK    5  A    between atoms: C4_5  and  C5_6 
REMARK    6  A    between atoms: S1_8  and  O1_9 
REMARK    7  A    between atoms: S1_8  and  C7_11 
REMARK    8  A    between atoms: S1_8  and  C14_18 
REMARK    9  A    between atoms: S1_8  and  C26_40 
REMARK   10  A    between atoms: C7_11  and  C8_12 
REMARK   11  A    between atoms: C18_27  and  N4_28 
REMARK   12  A    between atoms: N5_31  and  C21_32 
ROOT
HETATM    1  S1  UNL     1      26.000  25.850  18.436  1.00  0.00    -0.079 SA
ENDROOT
BRANCH   1   2
HETATM    2  N1  UNL     1      26.591  27.513  17.680  1.00  0.00    -0.256 NA
BRANCH   2   3
HETATM    3  C3  UNL     1      27.151  27.425  16.371  1.00  0.00     0.102 C 
BRANCH   3   4
HETATM    4  C2  UNL     1      28.587  27.622  16.157  1.00  0.00     0.011 C 
HETATM    5  C1  UNL     1      29.219  26.215  15.999  1.00  0.00     0.006 C 
ENDBRANCH   3   4
ENDBRANCH   2   3
BRANCH   2   6
HETATM    6  C4  UNL     1      25.389  28.333  17.525  1.00  0.00     0.102 C 
BRANCH   6   7
HETATM    7  C5  UNL     1      25.118  28.796  16.151  1.00  0.00     0.011 C 
HETATM    8  C6  UNL     1      23.706  28.805  15.684  1.00  0.00     0.006 C 
ENDBRANCH   6   7
ENDBRANCH   2   6
ENDBRANCH   1   2
BRANCH   1   9
HETATM    9  O1  UNL     1      25.440  25.488  17.040  1.00  0.00    -0.338 OA
ATOM     10  H1  UNL     1      25.304  26.418  16.897  1.00  0.00     0.227 HD
ENDBRANCH   1   9
BRANCH   1  11
HETATM   11  C7  UNL     1      27.112  24.367  18.469  1.00  0.00     0.039 C 
BRANCH  11  12
HETATM   12  C8  UNL     1      26.836  23.162  19.381  1.00  0.00     0.016 C 
HETATM   13  C9  UNL     1      25.788  22.254  18.797  1.00  0.00     0.009 C 
HETATM   14  C10 UNL     1      26.356  21.063  18.065  1.00  0.00     0.001 C 
HETATM   15  C11 UNL     1      27.051  20.118  19.032  1.00  0.00     0.000 C 
HETATM   16  C12 UNL     1      27.738  20.975  20.072  1.00  0.00     0.001 C 
HETATM   17  C13 UNL     1      28.095  22.324  19.526  1.00  0.00     0.009 C 
ENDBRANCH  11  12
ENDBRANCH   1  11
BRANCH   1  18
HETATM   18  C14 UNL     1      24.234  25.777  19.187  1.00  0.00     0.097 A 
HETATM   19  C15 UNL     1      23.768  26.423  20.319  1.00  0.00     0.128 A 
HETATM   20  N2  UNL     1      22.539  26.326  20.781  1.00  0.00    -0.348 N 
HETATM   21  C16 UNL     1      21.630  25.584  20.182  1.00  0.00     0.135 A 
ATOM     22  H2  UNL     1      22.284  26.839  21.625  1.00  0.00     0.167 HD
HETATM   23  N3  UNL     1      20.389  25.496  20.693  1.00  0.00    -0.306 N 
HETATM   24  C25 UNL     1      22.016  24.911  19.048  1.00  0.00     0.080 A 
HETATM   25  C17 UNL     1      19.434  24.751  20.143  1.00  0.00     0.273 A 
ATOM     26  H3  UNL     1      20.170  26.024  21.539  1.00  0.00     0.170 HD
HETATM   27  O2  UNL     1      18.302  24.730  20.690  1.00  0.00    -0.266 OA
HETATM   28  C18 UNL     1      19.758  24.044  18.996  1.00  0.00     0.101 A 
HETATM   29  C24 UNL     1      21.050  24.132  18.458  1.00  0.00     0.068 A 
HETATM   30  N6  UNL     1      23.270  25.015  18.586  1.00  0.00    -0.346 N 
ATOM     31  H6  UNL     1      23.518  24.499  17.742  1.00  0.00     0.167 HD
BRANCH  28  32
HETATM   32  N4  UNL     1      18.753  23.223  18.422  1.00  0.00    -0.373 N 
HETATM   33  C19 UNL     1      17.832  23.815  17.484  1.00  0.00     0.143 C 
HETATM   34  C20 UNL     1      16.402  23.534  17.821  1.00  0.00     0.145 C 
HETATM   35  N5  UNL     1      16.309  22.224  18.430  1.00  0.00    -0.356 N 
HETATM   36  C22 UNL     1      17.362  21.223  18.263  1.00  0.00     0.145 C 
HETATM   37  C23 UNL     1      18.643  21.823  18.761  1.00  0.00     0.143 C 
BRANCH  35  38
HETATM   38  C21 UNL     1      15.140  21.945  19.203  1.00  0.00     0.350 C 
HETATM   39  O3  UNL     1      15.130  21.130  20.141  1.00  0.00    -0.284 OA
ENDBRANCH  35  38
ENDBRANCH  28  32
ENDBRANCH   1  18
BRANCH   1  40
HETATM   40  C26 UNL     1      26.702  26.563  20.029  1.00  0.00     0.070 C 
HETATM   41  C27 UNL     1      26.762  25.639  21.261  1.00  0.00     0.043 C 
HETATM   42  C28 UNL     1      27.122  26.536  22.391  1.00  0.00     0.168 C 
HETATM   43  O4  UNL     1      27.115  27.886  22.085  1.00  0.00    -0.391 OA
HETATM   44  C29 UNL     1      28.097  28.259  21.157  1.00  0.00     0.168 C 
HETATM   45  C30 UNL     1      28.047  27.243  20.021  1.00  0.00     0.043 C 
ENDBRANCH   1  40
TORSDOF 12
ENDMDL
MODEL 4
REMARK VINA RESULT: -8.001594214      4.144      7.914
REMARK  12 active torsions:
REMARK  status: ('A' for Active; 'I' for Inactive)
REMARK    1  A    between atoms: C2_2  and  C3_3 
REMARK    2  A    between atoms: C3_3  and  N1_4 
REMARK    3  A    between atoms: N1_4  and  C4_5 
REMARK    4  A    between atoms: N1_4  and  S1_8 
REMARK    5  A    between atoms: C4_5  and  C5_6 
REMARK    6  A    between atoms: S1_8  and  O1_9 
REMARK    7  A    between atoms: S1_8  and  C7_11 
REMARK    8  A    between atoms: S1_8  and  C14_18 
REMARK    9  A    between atoms: S1_8  and  C26_40 
REMARK   10  A    between atoms: C7_11  and  C8_12 
REMARK   11  A    between atoms: C18_27  and  N4_28 
REMARK   12  A    between atoms: N5_31  and  C21_32 
ROOT
HETATM    1  S1  UNL     1      22.016  26.970  19.209  1.00  0.00    -0.079 SA
ENDROOT
BRANCH   1   2
HETATM    2  N1  UNL     1      22.816  27.462  20.884  1.00  0.00    -0.256 NA
BRANCH   2   3
HETATM    3  C3  UNL     1      22.190  26.918  22.044  1.00  0.00     0.102 C 
BRANCH   3   4
HETATM    4  C2  UNL     1      21.353  27.756  22.906  1.00  0.00     0.011 C 
HETATM    5  C1  UNL     1      21.749  27.438  24.371  1.00  0.00     0.006 C 
ENDBRANCH   3   4
ENDBRANCH   2   3
BRANCH   2   6
HETATM    6  C4  UNL     1      24.161  26.885  20.871  1.00  0.00     0.102 C 
BRANCH   6   7
HETATM    7  C5  UNL     1      24.703  26.529  22.196  1.00  0.00     0.011 C 
HETATM    8  C6  UNL     1      26.144  26.171  22.286  1.00  0.00     0.006 C 
ENDBRANCH   6   7
ENDBRANCH   2   6
ENDBRANCH   1   2
BRANCH   1   9
HETATM    9  O1  UNL     1      21.115  28.220  19.346  1.00  0.00    -0.338 OA
ATOM     10  H1  UNL     1      20.544  27.831  18.694  1.00  0.00     0.227 HD
ENDBRANCH   1   9
BRANCH   1  11
HETATM   11  C7  UNL     1      22.731  27.554  17.601  1.00  0.00     0.039 C 
BRANCH  11  12
HETATM   12  C8  UNL     1      21.921  28.405  16.611  1.00  0.00     0.016 C 
HETATM   13  C9  UNL     1      22.812  29.078  15.602  1.00  0.00     0.009 C 
HETATM   14  C10 UNL     1      22.899  28.347  14.285  1.00  0.00     0.001 C 
HETATM   15  C11 UNL     1      21.563  28.380  13.560  1.00  0.00     0.000 C 
HETATM   16  C12 UNL     1      20.485  28.258  14.614  1.00  0.00     0.001 C 
HETATM   17  C13 UNL     1      20.975  27.517  15.820  1.00  0.00     0.009 C 
ENDBRANCH  11  12
ENDBRANCH   1  11
BRANCH   1  18
HETATM   18  C14 UNL     1      20.473  25.827  19.247  1.00  0.00     0.097 A 
HETATM   19  C15 UNL     1      19.919  25.189  20.343  1.00  0.00     0.128 A 
HETATM   20  N2  UNL     1      18.856  24.414  20.297  1.00  0.00    -0.348 N 
HETATM   21  C16 UNL     1      18.218  24.180  19.168  1.00  0.00     0.135 A 
ATOM     22  H2  UNL     1      18.517  23.984  21.158  1.00  0.00     0.167 HD
HETATM   23  N3  UNL     1      17.145  23.368  19.157  1.00  0.00    -0.306 N 
HETATM   24  C25 UNL     1      18.707  24.780  18.033  1.00  0.00     0.080 A 
HETATM   25  C17 UNL     1      16.470  23.081  18.047  1.00  0.00     0.273 A 
ATOM     26  H3  UNL     1      16.835  22.956  20.037  1.00  0.00     0.170 HD
HETATM   27  O2  UNL     1      15.478  22.313  18.132  1.00  0.00    -0.266 OA
HETATM   28  C18 UNL     1      16.912  23.653  16.866  1.00  0.00     0.101 A 
HETATM   29  C24 UNL     1      18.030  24.500  16.871  1.00  0.00     0.068 A 
HETATM   30  N6  UNL     1      19.790  25.567  18.090  1.00  0.00    -0.346 N 
ATOM     31  H6  UNL     1      20.124  25.993  17.226  1.00  0.00     0.167 HD
BRANCH  28  32
HETATM   32  N4  UNL     1      16.215  23.327  15.674  1.00  0.00    -0.373 N 
HETATM   33  C19 UNL     1      14.923  23.924  15.444  1.00  0.00     0.143 C 
HETATM   34  C20 UNL     1      13.873  22.916  15.097  1.00  0.00     0.145 C 
HETATM   35  N5  UNL     1      14.483  21.837  14.350  1.00  0.00    -0.356 N 
HETATM   36  C22 UNL     1      15.768  22.003  13.671  1.00  0.00     0.145 C 
HETATM   37  C23 UNL     1      16.777  22.417  14.702  1.00  0.00     0.143 C 
BRANCH  35  38
HETATM   38  C21 UNL     1      13.775  20.598  14.299  1.00  0.00     0.350 C 
HETATM   39  O3  UNL     1      13.025  20.210  15.212  1.00  0.00    -0.284 OA
ENDBRANCH  35  38
ENDBRANCH  28  32
ENDBRANCH   1  18
BRANCH   1  40
HETATM   40  C26 UNL     1      23.174  25.492  19.327  1.00  0.00     0.070 C 
HETATM   41  C27 UNL     1      22.541  24.088  19.357  1.00  0.00     0.043 C 
HETATM   42  C28 UNL     1      23.664  23.172  19.692  1.00  0.00     0.168 C 
HETATM   43  O4  UNL     1      24.841  23.805  20.050  1.00  0.00    -0.391 OA
HETATM   44  C29 UNL     1      25.427  24.536  19.006  1.00  0.00     0.168 C 
HETATM   45  C30 UNL     1      24.317  25.352  18.354  1.00  0.00     0.043 C 
ENDBRANCH   1  40
TORSDOF 12
ENDMDL
MODEL 5
REMARK VINA RESULT: -7.897928786      4.491      8.618
REMARK  12 active torsions:
REMARK  status: ('A' for Active; 'I' for Inactive)
REMARK    1  A    between atoms: C2_2  and  C3_3 
REMARK    2  A    between atoms: C3_3  and  N1_4 
REMARK    3  A    between atoms: N1_4  and  C4_5 
REMARK    4  A    between atoms: N1_4  and  S1_8 
REMARK    5  A    between atoms: C4_5  and  C5_6 
REMARK    6  A    between atoms: S1_8  and  O1_9 
REMARK    7  A    between atoms: S1_8  and  C7_11 
REMARK    8  A    between atoms: S1_8  and  C14_18 
REMARK    9  A    between atoms: S1_8  and  C26_40 
REMARK   10  A    between atoms: C7_11  and  C8_12 
REMARK   11  A    between atoms: C18_27  and  N4_28 
REMARK   12  A    between atoms: N5_31  and  C21_32 
ROOT
HETATM    1  S1  UNL     1      22.431  25.903  18.462  1.00  0.00    -0.079 SA
ENDROOT
BRANCH   1   2
HETATM    2  N1  UNL     1      23.192  27.609  18.022  1.00  0.00    -0.256 NA
BRANCH   2   3
HETATM    3  C3  UNL     1      24.553  27.791  18.409  1.00  0.00     0.102 C 
BRANCH   3   4
HETATM    4  C2  UNL     1      25.623  27.776  17.410  1.00  0.00     0.011 C 
HETATM    5  C1  UNL     1      26.966  27.739  18.184  1.00  0.00     0.006 C 
ENDBRANCH   3   4
ENDBRANCH   2   3
BRANCH   2   6
HETATM    6  C4  UNL     1      23.199  27.680  16.560  1.00  0.00     0.102 C 
BRANCH   6   7
HETATM    7  C5  UNL     1      22.358  28.744  15.980  1.00  0.00     0.011 C 
HETATM    8  C6  UNL     1      21.845  28.549  14.597  1.00  0.00     0.006 C 
ENDBRANCH   6   7
ENDBRANCH   2   6
ENDBRANCH   1   2
BRANCH   1   9
HETATM    9  O1  UNL     1      22.917  25.402  17.081  1.00  0.00    -0.338 OA
ATOM     10  H1  UNL     1      22.037  25.076  16.933  1.00  0.00     0.227 HD
ENDBRANCH   1   9
BRANCH   1  11
HETATM   11  C7  UNL     1      23.418  24.622  19.370  1.00  0.00     0.039 C 
BRANCH  11  12
HETATM   12  C8  UNL     1      24.953  24.617  19.356  1.00  0.00     0.016 C 
HETATM   13  C9  UNL     1      25.520  25.081  20.672  1.00  0.00     0.009 C 
HETATM   14  C10 UNL     1      25.922  23.955  21.591  1.00  0.00     0.001 C 
HETATM   15  C11 UNL     1      27.104  23.188  21.020  1.00  0.00     0.000 C 
HETATM   16  C12 UNL     1      26.913  23.132  19.521  1.00  0.00     0.001 C 
HETATM   17  C13 UNL     1      25.463  23.201  19.148  1.00  0.00     0.009 C 
ENDBRANCH  11  12
ENDBRANCH   1  11
BRANCH   1  18
HETATM   18  C14 UNL     1      20.606  25.573  17.963  1.00  0.00     0.097 A 
HETATM   19  C15 UNL     1      19.760  26.404  17.250  1.00  0.00     0.128 A 
HETATM   20  N2  UNL     1      18.513  26.114  16.943  1.00  0.00    -0.348 N 
HETATM   21  C16 UNL     1      17.958  24.974  17.304  1.00  0.00     0.135 A 
ATOM     22  H2  UNL     1      17.962  26.789  16.412  1.00  0.00     0.167 HD
HETATM   23  N3  UNL     1      16.675  24.721  16.986  1.00  0.00    -0.306 N 
HETATM   24  C25 UNL     1      18.735  24.094  18.016  1.00  0.00     0.080 A 
HETATM   25  C17 UNL     1      16.055  23.596  17.336  1.00  0.00     0.273 A 
ATOM     26  H3  UNL     1      16.156  25.420  16.455  1.00  0.00     0.170 HD
HETATM   27  O2  UNL     1      14.854  23.445  16.996  1.00  0.00    -0.266 OA
HETATM   28  C18 UNL     1      16.783  22.665  18.058  1.00  0.00     0.101 A 
HETATM   29  C24 UNL     1      18.120  22.924  18.391  1.00  0.00     0.068 A 
HETATM   30  N6  UNL     1      20.003  24.398  18.323  1.00  0.00    -0.346 N 
ATOM     31  H6  UNL     1      20.548  23.719  18.855  1.00  0.00     0.167 HD
BRANCH  28  32
HETATM   32  N4  UNL     1      16.119  21.478  18.461  1.00  0.00    -0.373 N 
HETATM   33  C19 UNL     1      16.228  20.309  17.624  1.00  0.00     0.143 C 
HETATM   34  C20 UNL     1      14.899  19.702  17.302  1.00  0.00     0.145 C 
HETATM   35  N5  UNL     1      14.007  19.892  18.427  1.00  0.00    -0.356 N 
HETATM   36  C22 UNL     1      14.515  20.182  19.768  1.00  0.00     0.145 C 
HETATM   37  C23 UNL     1      15.347  21.427  19.681  1.00  0.00     0.143 C 
BRANCH  35  38
HETATM   38  C21 UNL     1      12.606  19.783  18.175  1.00  0.00     0.350 C 
HETATM   39  O3  UNL     1      11.803  19.332  19.011  1.00  0.00    -0.284 OA
ENDBRANCH  35  38
ENDBRANCH  28  32
ENDBRANCH   1  18
BRANCH   1  40
HETATM   40  C26 UNL     1      21.893  26.780  20.037  1.00  0.00     0.070 C 
HETATM   41  C27 UNL     1      21.040  28.055  19.889  1.00  0.00     0.043 C 
HETATM   42  C28 UNL     1      20.985  28.636  21.257  1.00  0.00     0.168 C 
HETATM   43  O4  UNL     1      21.815  28.024  22.180  1.00  0.00    -0.391 OA
HETATM   44  C29 UNL     1      21.459  26.698  22.465  1.00  0.00     0.168 C 
HETATM   45  C30 UNL     1      21.202  26.008  21.131  1.00  0.00     0.043 C 
ENDBRANCH   1  40
TORSDOF 12
ENDMDL
