MODEL 1
REMARK VINA RESULT: -8.491527054      0.000      0.000
REMARK  14 active torsions:
REMARK  status: ('A' for Active; 'I' for Inactive)
REMARK    1  A    between atoms: C2_2  and  C3_3 
REMARK    2  A    between atoms: C3_3  and  N1_4 
REMARK       I    between atoms: N1_4  and  C4_6 
REMARK    3  A    between atoms: C4_6  and  C5_8 
REMARK    4  A    between atoms: C8_11  and  N2_12 
REMARK    5  A    between atoms: N2_12  and  C9_14 
REMARK    6  A    between atoms: C14_22  and  N5_23 
REMARK    7  A    between atoms: N5_23  and  C15_25 
REMARK    8  A    between atoms: C15_25  and  C16_26 
REMARK    9  A    between atoms: C16_26  and  C17_27 
REMARK   10  A    between atoms: C17_27  and  N6_28 
REMARK   11  A    between atoms: C22_34  and  N7_35 
REMARK   12  A    between atoms: C25_38  and  O3_39 
REMARK   13  A    between atoms: O3_39  and  C26_40 
REMARK   14  A    between atoms: C26_40  and  C27_41 
ROOT
HETATM    1  C9  UNL     1      15.117  21.045  19.185  1.00  0.00     0.131 A 
HETATM    2  N3  UNL     1      15.315  20.671  20.474  1.00  0.00    -0.349 N 
ATOM      3  H3  UNL     1      16.107  21.033  21.004  1.00  0.00     0.167 HD
HETATM    4  C10 UNL     1      14.451  19.817  21.038  1.00  0.00     0.107 A 
HETATM    5  C11 UNL     1      13.389  19.332  20.326  1.00  0.00     0.114 A 
HETATM    6  N4  UNL     1      13.181  19.695  19.050  1.00  0.00    -0.326 N 
HETATM    7  C12 UNL     1      12.111  19.177  18.387  1.00  0.00     0.099 A 
HETATM    8  C13 UNL     1      11.919  19.554  17.082  1.00  0.00     0.049 A 
HETATM    9  C14 UNL     1      12.737  20.411  16.425  1.00  0.00     0.058 A 
HETATM   10  C22 UNL     1      13.848  20.944  17.133  1.00  0.00     0.088 A 
HETATM   11  C31 UNL     1      14.019  20.551  18.435  1.00  0.00     0.111 A 
ENDROOT
BRANCH   1  12
HETATM   12  N2  UNL     1      15.887  21.821  18.590  1.00  0.00    -0.370 N 
ATOM     13  H2  UNL     1      15.587  22.041  17.640  1.00  0.00     0.161 HD
BRANCH  12  14
HETATM   14  C8  UNL     1      17.077  22.450  18.954  1.00  0.00     0.083 C 
HETATM   15  C7  UNL     1      17.133  23.954  18.897  1.00  0.00     0.026 C 
HETATM   16  C6  UNL     1      18.238  24.345  19.917  1.00  0.00     0.016 C 
HETATM   17  C5  UNL     1      19.521  23.834  19.271  1.00  0.00     0.078 C 
HETATM   18  C33 UNL     1      19.478  22.338  19.228  1.00  0.00     0.016 C 
HETATM   19  C32 UNL     1      18.351  21.939  18.268  1.00  0.00     0.026 C 
BRANCH  17  20
HETATM   20  C4  UNL     1      20.694  24.373  19.962  1.00  0.00     0.221 C 
HETATM   21  N1  UNL     1      20.747  25.744  20.310  1.00  0.00    -0.361 N 
ATOM     22  H1  UNL     1      19.964  26.354  20.078  1.00  0.00     0.162 HD
HETATM   23  O1  UNL     1      21.656  23.590  20.240  1.00  0.00    -0.273 OA
BRANCH  21  24
HETATM   24  C3  UNL     1      21.912  26.293  20.999  1.00  0.00     0.122 C 
BRANCH  24  25
HETATM   25  C2  UNL     1      21.531  27.574  21.723  1.00  0.00     0.015 C 
HETATM   26  C1  UNL     1      21.767  27.447  23.214  1.00  0.00     0.006 C 
ENDBRANCH  24  25
ENDBRANCH  21  24
ENDBRANCH  17  20
ENDBRANCH  12  14
ENDBRANCH   1  12
BRANCH  10  27
HETATM   27  N7  UNL     1      14.640  21.842  16.365  1.00  0.00    -0.377 N 
HETATM   28  C23 UNL     1      15.758  21.308  15.648  1.00  0.00     0.125 C 
HETATM   29  C24 UNL     1      16.431  22.161  14.655  1.00  0.00     0.051 C 
HETATM   30  C25 UNL     1      16.359  23.625  14.886  1.00  0.00     0.124 C 
HETATM   31  C29 UNL     1      15.033  24.100  15.372  1.00  0.00     0.051 C 
HETATM   32  C30 UNL     1      14.395  23.254  16.399  1.00  0.00     0.125 C 
BRANCH  30  33
HETATM   33  O3  UNL     1      17.307  23.951  15.855  1.00  0.00    -0.386 OA
BRANCH  33  34
HETATM   34  C26 UNL     1      17.754  25.260  15.729  1.00  0.00     0.167 C 
BRANCH  34  35
HETATM   35  C27 UNL     1      19.252  25.364  15.864  1.00  0.00     0.022 C 
HETATM   36  C28 UNL     1      19.870  24.010  15.603  1.00  0.00     0.007 C 
ENDBRANCH  34  35
ENDBRANCH  33  34
ENDBRANCH  30  33
ENDBRANCH  10  27
BRANCH   9  37
HETATM   37  N5  UNL     1      12.616  20.795  15.214  1.00  0.00    -0.388 N 
ATOM     38  H5  UNL     1      12.594  21.804  15.061  1.00  0.00     0.159 HD
BRANCH  37  39
HETATM   39  C15 UNL     1      12.506  19.978  14.042  1.00  0.00     0.121 C 
BRANCH  39  40
HETATM   40  C16 UNL     1      11.088  19.921  13.509  1.00  0.00     0.050 C 
BRANCH  40  41
HETATM   41  C17 UNL     1      10.412  18.625  13.803  1.00  0.00     0.274 C 
BRANCH  41  42
HETATM   42  N6  UNL     1      11.268  17.497  13.959  1.00  0.00     0.092 N 
HETATM   43  C18 UNL     1      10.936  16.710  15.105  1.00  0.00     0.298 C 
HETATM   44  C19 UNL     1      10.626  15.266  14.748  1.00  0.00     0.198 C 
HETATM   45  O2  UNL     1      11.662  14.701  14.013  1.00  0.00    -0.388 OA
HETATM   46  C20 UNL     1      12.006  15.414  12.893  1.00  0.00     0.198 C 
HETATM   47  C21 UNL     1      11.180  16.687  12.760  1.00  0.00     0.298 C 
ENDBRANCH  41  42
ENDBRANCH  40  41
ENDBRANCH  39  40
ENDBRANCH  37  39
ENDBRANCH   9  37
TORSDOF 14
ENDMDL
MODEL 2
REMARK VINA RESULT: -8.477567381      2.517      5.154
REMARK  14 active torsions:
REMARK  status: ('A' for Active; 'I' for Inactive)
REMARK    1  A    between atoms: C2_2  and  C3_3 
REMARK    2  A    between atoms: C3_3  and  N1_4 
REMARK       I    between atoms: N1_4  and  C4_6 
REMARK    3  A    between atoms: C4_6  and  C5_8 
REMARK    4  A    between atoms: C8_11  and  N2_12 
REMARK    5  A    between atoms: N2_12  and  C9_14 
REMARK    6  A    between atoms: C14_22  and  N5_23 
REMARK    7  A    between atoms: N5_23  and  C15_25 
REMARK    8  A    between atoms: C15_25  and  C16_26 
REMARK    9  A    between atoms: C16_26  and  C17_27 
REMARK   10  A    between atoms: C17_27  and  N6_28 
REMARK   11  A    between atoms: C22_34  and  N7_35 
REMARK   12  A    between atoms: C25_38  and  O3_39 
REMARK   13  A    between atoms: O3_39  and  C26_40 
REMARK   14  A    between atoms: C26_40  and  C27_41 
ROOT
HETATM    1  C9  UNL     1      16.423  22.318  14.857  1.00  0.00     0.131 A 
HETATM    2  N3  UNL     1      16.396  22.421  13.505  1.00  0.00    -0.349 N 
ATOM      3  H3  UNL     1      17.152  22.887  13.004  1.00  0.00     0.167 HD
HETATM    4  C10 UNL     1      15.358  21.901  12.838  1.00  0.00     0.107 A 
HETATM    5  C11 UNL     1      14.343  21.277  13.511  1.00  0.00     0.114 A 
HETATM    6  N4  UNL     1      14.358  21.167  14.849  1.00  0.00    -0.326 N 
HETATM    7  C12 UNL     1      13.319  20.541  15.467  1.00  0.00     0.099 A 
HETATM    8  C13 UNL     1      13.349  20.445  16.836  1.00  0.00     0.049 A 
HETATM    9  C14 UNL     1      14.355  20.939  17.597  1.00  0.00     0.058 A 
HETATM   10  C22 UNL     1      15.432  21.588  16.934  1.00  0.00     0.088 A 
HETATM   11  C31 UNL     1      15.379  21.673  15.567  1.00  0.00     0.111 A 
ENDROOT
BRANCH   1  12
HETATM   12  N2  UNL     1      17.346  22.793  15.543  1.00  0.00    -0.370 N 
ATOM     13  H2  UNL     1      17.519  22.275  16.405  1.00  0.00     0.161 HD
BRANCH  12  14
HETATM   14  C8  UNL     1      18.193  23.888  15.378  1.00  0.00     0.083 C 
HETATM   15  C7  UNL     1      19.612  23.771  15.868  1.00  0.00     0.026 C 
HETATM   16  C6  UNL     1      20.411  24.787  15.005  1.00  0.00     0.016 C 
HETATM   17  C5  UNL     1      19.895  26.142  15.476  1.00  0.00     0.078 C 
HETATM   18  C33 UNL     1      18.457  26.275  15.083  1.00  0.00     0.016 C 
HETATM   19  C32 UNL     1      17.665  25.236  15.887  1.00  0.00     0.026 C 
BRANCH  17  20
HETATM   20  C4  UNL     1      20.749  27.220  14.971  1.00  0.00     0.221 C 
HETATM   21  N1  UNL     1      22.134  27.000  14.777  1.00  0.00    -0.361 N 
ATOM     22  H1  UNL     1      22.534  26.087  14.991  1.00  0.00     0.162 HD
HETATM   23  O1  UNL     1      20.224  28.348  14.713  1.00  0.00    -0.273 OA
BRANCH  21  24
HETATM   24  C3  UNL     1      22.994  28.067  14.275  1.00  0.00     0.122 C 
BRANCH  24  25
HETATM   25  C2  UNL     1      24.200  28.233  15.186  1.00  0.00     0.015 C 
HETATM   26  C1  UNL     1      24.684  26.893  15.700  1.00  0.00     0.006 C 
ENDBRANCH  24  25
ENDBRANCH  21  24
ENDBRANCH  17  20
ENDBRANCH  12  14
ENDBRANCH   1  12
BRANCH  10  27
HETATM   27  N7  UNL     1      16.444  22.062  17.815  1.00  0.00    -0.377 N 
HETATM   28  C23 UNL     1      16.273  23.358  18.399  1.00  0.00     0.125 C 
HETATM   29  C24 UNL     1      17.167  23.759  19.498  1.00  0.00     0.051 C 
HETATM   30  C25 UNL     1      18.514  23.136  19.513  1.00  0.00     0.124 C 
HETATM   31  C29 UNL     1      18.519  21.690  19.154  1.00  0.00     0.051 C 
HETATM   32  C30 UNL     1      17.649  21.315  18.022  1.00  0.00     0.125 C 
BRANCH  30  33
HETATM   33  O3  UNL     1      19.306  23.806  18.582  1.00  0.00    -0.386 OA
BRANCH  33  34
HETATM   34  C26 UNL     1      20.034  24.838  19.162  1.00  0.00     0.167 C 
BRANCH  34  35
HETATM   35  C27 UNL     1      21.504  24.746  18.839  1.00  0.00     0.022 C 
HETATM   36  C28 UNL     1      22.110  23.590  19.601  1.00  0.00     0.007 C 
ENDBRANCH  34  35
ENDBRANCH  33  34
ENDBRANCH  30  33
ENDBRANCH  10  27
BRANCH   9  37
HETATM   37  N5  UNL     1      14.437  20.887  18.869  1.00  0.00    -0.388 N 
ATOM     38  H5  UNL     1      14.357  21.777  19.362  1.00  0.00     0.159 HD
BRANCH  37  39
HETATM   39  C15 UNL     1      14.629  19.727  19.689  1.00  0.00     0.121 C 
BRANCH  39  40
HETATM   40  C16 UNL     1      13.318  19.080  20.087  1.00  0.00     0.050 C 
BRANCH  40  41
HETATM   41  C17 UNL     1      13.319  17.602  19.891  1.00  0.00     0.274 C 
BRANCH  41  42
HETATM   42  N6  UNL     1      12.209  17.067  19.177  1.00  0.00     0.092 N 
HETATM   43  C18 UNL     1      11.095  17.962  19.144  1.00  0.00     0.298 C 
HETATM   44  C19 UNL     1      10.664  18.302  17.727  1.00  0.00     0.198 C 
HETATM   45  O2  UNL     1      10.426  17.148  16.988  1.00  0.00    -0.388 OA
HETATM   46  C20 UNL     1      11.475  16.265  16.979  1.00  0.00     0.198 C 
HETATM   47  C21 UNL     1      12.638  16.762  17.827  1.00  0.00     0.298 C 
ENDBRANCH  41  42
ENDBRANCH  40  41
ENDBRANCH  39  40
ENDBRANCH  37  39
ENDBRANCH   9  37
TORSDOF 14
ENDMDL
MODEL 3
REMARK VINA RESULT: -8.392454427      3.028      9.913
REMARK  14 active torsions:
REMARK  status: ('A' for Active; 'I' for Inactive)
REMARK    1  A    between atoms: C2_2  and  C3_3 
REMARK    2  A    between atoms: C3_3  and  N1_4 
REMARK       I    between atoms: N1_4  and  C4_6 
REMARK    3  A    between atoms: C4_6  and  C5_8 
REMARK    4  A    between atoms: C8_11  and  N2_12 
REMARK    5  A    between atoms: N2_12  and  C9_14 
REMARK    6  A    between atoms: C14_22  and  N5_23 
REMARK    7  A    between atoms: N5_23  and  C15_25 
REMARK    8  A    between atoms: C15_25  and  C16_26 
REMARK    9  A    between atoms: C16_26  and  C17_27 
REMARK   10  A    between atoms: C17_27  and  N6_28 
REMARK   11  A    between atoms: C22_34  and  N7_35 
REMARK   12  A    between atoms: C25_38  and  O3_39 
REMARK   13  A    between atoms: O3_39  and  C26_40 
REMARK   14  A    between atoms: C26_40  and  C27_41 
ROOT
HETATM    1  C9  UNL     1      18.461  21.994  18.471  1.00  0.00     0.131 A 
HETATM    2  N3  UNL     1      18.900  21.313  19.560  1.00  0.00    -0.349 N 
ATOM      3  H3  UNL     1      18.376  20.515  19.918  1.00  0.00     0.167 HD
HETATM    4  C10 UNL     1      20.032  21.709  20.155  1.00  0.00     0.107 A 
HETATM    5  C11 UNL     1      20.733  22.780  19.672  1.00  0.00     0.114 A 
HETATM    6  N4  UNL     1      20.310  23.462  18.596  1.00  0.00    -0.326 N 
HETATM    7  C12 UNL     1      21.044  24.524  18.162  1.00  0.00     0.099 A 
HETATM    8  C13 UNL     1      20.592  25.212  17.064  1.00  0.00     0.049 A 
HETATM    9  C14 UNL     1      19.459  24.888  16.395  1.00  0.00     0.058 A 
HETATM   10  C22 UNL     1      18.707  23.776  16.861  1.00  0.00     0.088 A 
HETATM   11  C31 UNL     1      19.177  23.105  17.959  1.00  0.00     0.111 A 
ENDROOT
BRANCH   1  12
HETATM   12  N2  UNL     1      17.409  21.695  17.877  1.00  0.00    -0.370 N 
ATOM     13  H2  UNL     1      17.362  22.060  16.926  1.00  0.00     0.161 HD
BRANCH  12  14
HETATM   14  C8  UNL     1      16.280  20.964  18.245  1.00  0.00     0.083 C 
HETATM   15  C7  UNL     1      15.629  20.090  17.206  1.00  0.00     0.026 C 
HETATM   16  C6  UNL     1      14.896  18.989  18.021  1.00  0.00     0.016 C 
HETATM   17  C5  UNL     1      13.774  19.748  18.722  1.00  0.00     0.078 C 
HETATM   18  C33 UNL     1      14.376  20.694  19.713  1.00  0.00     0.016 C 
HETATM   19  C32 UNL     1      15.151  21.754  18.921  1.00  0.00     0.026 C 
BRANCH  17  20
HETATM   20  C4  UNL     1      12.809  18.813  19.307  1.00  0.00     0.221 C 
HETATM   21  N1  UNL     1      12.909  17.427  19.038  1.00  0.00    -0.361 N 
ATOM     22  H1  UNL     1      13.656  17.082  18.436  1.00  0.00     0.162 HD
HETATM   23  O1  UNL     1      11.889  19.270  20.054  1.00  0.00    -0.273 OA
BRANCH  21  24
HETATM   24  C3  UNL     1      11.953  16.486  19.615  1.00  0.00     0.122 C 
BRANCH  24  25
HETATM   25  C2  UNL     1      10.860  16.173  18.606  1.00  0.00     0.015 C 
HETATM   26  C1  UNL     1      11.438  15.984  17.218  1.00  0.00     0.006 C 
ENDBRANCH  24  25
ENDBRANCH  21  24
ENDBRANCH  17  20
ENDBRANCH  12  14
ENDBRANCH   1  12
BRANCH  10  27
HETATM   27  N7  UNL     1      17.543  23.508  16.087  1.00  0.00    -0.377 N 
HETATM   28  C23 UNL     1      16.325  24.165  16.456  1.00  0.00     0.125 C 
HETATM   29  C24 UNL     1      15.183  24.103  15.529  1.00  0.00     0.051 C 
HETATM   30  C25 UNL     1      15.119  22.917  14.640  1.00  0.00     0.124 C 
HETATM   31  C29 UNL     1      16.438  22.498  14.088  1.00  0.00     0.051 C 
HETATM   32  C30 UNL     1      17.562  22.525  15.045  1.00  0.00     0.125 C 
BRANCH  30  33
HETATM   33  O3  UNL     1      14.613  21.852  15.384  1.00  0.00    -0.386 OA
BRANCH  33  34
HETATM   34  C26 UNL     1      13.245  21.690  15.202  1.00  0.00     0.167 C 
BRANCH  34  35
HETATM   35  C27 UNL     1      12.901  20.318  14.679  1.00  0.00     0.022 C 
HETATM   36  C28 UNL     1      11.877  19.681  15.591  1.00  0.00     0.007 C 
ENDBRANCH  34  35
ENDBRANCH  33  34
ENDBRANCH  30  33
ENDBRANCH  10  27
BRANCH   9  37
HETATM   37  N5  UNL     1      18.985  25.491  15.374  1.00  0.00    -0.388 N 
ATOM     38  H5  UNL     1      18.252  25.000  14.863  1.00  0.00     0.159 HD
BRANCH  37  39
HETATM   39  C15 UNL     1      19.360  26.775  14.862  1.00  0.00     0.121 C 
BRANCH  39  40
HETATM   40  C16 UNL     1      20.619  26.715  14.021  1.00  0.00     0.050 C 
BRANCH  40  41
HETATM   41  C17 UNL     1      21.290  28.040  13.888  1.00  0.00     0.274 C 
BRANCH  41  42
HETATM   42  N6  UNL     1      22.547  28.171  14.546  1.00  0.00     0.092 N 
HETATM   43  C18 UNL     1      22.451  28.898  15.772  1.00  0.00     0.298 C 
HETATM   44  C19 UNL     1      22.953  28.099  16.963  1.00  0.00     0.198 C 
HETATM   45  O2  UNL     1      24.240  27.625  16.738  1.00  0.00    -0.388 OA
HETATM   46  C20 UNL     1      24.377  26.907  15.578  1.00  0.00     0.198 C 
HETATM   47  C21 UNL     1      23.071  26.844  14.797  1.00  0.00     0.298 C 
ENDBRANCH  41  42
ENDBRANCH  40  41
ENDBRANCH  39  40
ENDBRANCH  37  39
ENDBRANCH   9  37
TORSDOF 14
ENDMDL
MODEL 4
REMARK VINA RESULT: -8.379132784      1.842      3.164
REMARK  14 active torsions:
REMARK  status: ('A' for Active; 'I' for Inactive)
REMARK    1  A    between atoms: C2_2  and  C3_3 
REMARK    2  A    between atoms: C3_3  and  N1_4 
REMARK       I    between atoms: N1_4  and  C4_6 
REMARK    3  A    between atoms: C4_6  and  C5_8 
REMARK    4  A    between atoms: C8_11  and  N2_12 
REMARK    5  A    between atoms: N2_12  and  C9_14 
REMARK    6  A    between atoms: C14_22  and  N5_23 
REMARK    7  A    between atoms: N5_23  and  C15_25 
REMARK    8  A    between atoms: C15_25  and  C16_26 
REMARK    9  A    between atoms: C16_26  and  C17_27 
REMARK   10  A    between atoms: C17_27  and  N6_28 
REMARK   11  A    between atoms: C22_34  and  N7_35 
REMARK   12  A    between atoms: C25_38  and  O3_39 
REMARK   13  A    between atoms: O3_39  and  C26_40 
REMARK   14  A    between atoms: C26_40  and  C27_41 
ROOT
HETATM    1  C9  UNL     1      12.586  19.925  17.459  1.00  0.00     0.131 A 
HETATM    2  N3  UNL     1      12.469  19.615  18.774  1.00  0.00    -0.349 N 
ATOM      3  H3  UNL     1      13.024  20.106  19.475  1.00  0.00     0.167 HD
HETATM    4  C10 UNL     1      11.611  18.652  19.136  1.00  0.00     0.107 A 
HETATM    5  C11 UNL     1      10.868  17.995  18.195  1.00  0.00     0.114 A 
HETATM    6  N4  UNL     1      10.974  18.292  16.890  1.00  0.00    -0.326 N 
HETATM    7  C12 UNL     1      10.215  17.602  15.996  1.00  0.00     0.099 A 
HETATM    8  C13 UNL     1      10.342  17.915  14.666  1.00  0.00     0.049 A 
HETATM    9  C14 UNL     1      11.182  18.872  14.203  1.00  0.00     0.058 A 
HETATM   10  C22 UNL     1      11.966  19.584  15.150  1.00  0.00     0.088 A 
HETATM   11  C31 UNL     1      11.822  19.252  16.472  1.00  0.00     0.111 A 
ENDROOT
BRANCH   1  12
HETATM   12  N2  UNL     1      13.375  20.795  17.047  1.00  0.00    -0.370 N 
ATOM     13  H2  UNL     1      13.029  21.304  16.233  1.00  0.00     0.161 HD
BRANCH  12  14
HETATM   14  C8  UNL     1      14.635  21.218  17.468  1.00  0.00     0.083 C 
HETATM   15  C7  UNL     1      15.697  20.175  17.695  1.00  0.00     0.026 C 
HETATM   16  C6  UNL     1      17.040  20.933  17.504  1.00  0.00     0.016 C 
HETATM   17  C5  UNL     1      17.092  21.878  18.700  1.00  0.00     0.078 C 
HETATM   18  C33 UNL     1      15.998  22.890  18.563  1.00  0.00     0.016 C 
HETATM   19  C32 UNL     1      14.665  22.144  18.692  1.00  0.00     0.026 C 
BRANCH  17  20
HETATM   20  C4  UNL     1      18.428  22.464  18.833  1.00  0.00     0.221 C 
HETATM   21  N1  UNL     1      18.579  23.864  18.979  1.00  0.00    -0.361 N 
ATOM     22  H1  UNL     1      17.754  24.463  18.991  1.00  0.00     0.162 HD
HETATM   23  O1  UNL     1      19.439  21.695  18.815  1.00  0.00    -0.273 OA
BRANCH  21  24
HETATM   24  C3  UNL     1      19.906  24.459  19.112  1.00  0.00     0.122 C 
BRANCH  24  25
HETATM   25  C2  UNL     1      20.084  25.022  20.513  1.00  0.00     0.015 C 
HETATM   26  C1  UNL     1      21.217  26.027  20.556  1.00  0.00     0.006 C 
ENDBRANCH  24  25
ENDBRANCH  21  24
ENDBRANCH  17  20
ENDBRANCH  12  14
ENDBRANCH   1  12
BRANCH  10  27
HETATM   27  N7  UNL     1      12.806  20.576  14.570  1.00  0.00    -0.377 N 
HETATM   28  C23 UNL     1      14.119  20.184  14.156  1.00  0.00     0.125 C 
HETATM   29  C24 UNL     1      14.904  21.117  13.330  1.00  0.00     0.051 C 
HETATM   30  C25 UNL     1      14.604  22.560  13.498  1.00  0.00     0.124 C 
HETATM   31  C29 UNL     1      13.153  22.867  13.639  1.00  0.00     0.051 C 
HETATM   32  C30 UNL     1      12.392  21.946  14.506  1.00  0.00     0.125 C 
BRANCH  30  33
HETATM   33  O3  UNL     1      15.244  22.998  14.657  1.00  0.00    -0.386 OA
BRANCH  33  34
HETATM   34  C26 UNL     1      16.627  22.912  14.553  1.00  0.00     0.167 C 
BRANCH  34  35
HETATM   35  C27 UNL     1      17.320  24.057  15.248  1.00  0.00     0.022 C 
HETATM   36  C28 UNL     1      18.770  23.696  15.476  1.00  0.00     0.007 C 
ENDBRANCH  34  35
ENDBRANCH  33  34
ENDBRANCH  30  33
ENDBRANCH  10  27
BRANCH   9  37
HETATM   37  N5  UNL     1      11.350  19.205  12.982  1.00  0.00    -0.388 N 
ATOM     38  H5  UNL     1      11.373  20.206  12.788  1.00  0.00     0.159 HD
BRANCH  37  39
HETATM   39  C15 UNL     1      11.509  18.340  11.851  1.00  0.00     0.121 C 
BRANCH  39  40
HETATM   40  C16 UNL     1      12.805  17.555  11.904  1.00  0.00     0.050 C 
BRANCH  40  41
HETATM   41  C17 UNL     1      12.593  16.083  11.802  1.00  0.00     0.274 C 
BRANCH  41  42
HETATM   42  N6  UNL     1      11.305  15.611  12.184  1.00  0.00     0.092 N 
HETATM   43  C18 UNL     1      10.699  14.794  11.179  1.00  0.00     0.298 C 
HETATM   44  C19 UNL     1      10.344  13.409  11.693  1.00  0.00     0.198 C 
HETATM   45  O2  UNL     1       9.561  13.488  12.839  1.00  0.00    -0.388 OA
HETATM   46  C20 UNL     1      10.110  14.250  13.839  1.00  0.00     0.198 C 
HETATM   47  C21 UNL     1      11.440  14.860  13.416  1.00  0.00     0.298 C 
ENDBRANCH  41  42
ENDBRANCH  40  41
ENDBRANCH  39  40
ENDBRANCH  37  39
ENDBRANCH   9  37
TORSDOF 14
ENDMDL
MODEL 5
REMARK VINA RESULT: -8.329398890      3.773     11.221
REMARK  14 active torsions:
REMARK  status: ('A' for Active; 'I' for Inactive)
REMARK    1  A    between atoms: C2_2  and  C3_3 
REMARK    2  A    between atoms: C3_3  and  N1_4 
REMARK       I    between atoms: N1_4  and  C4_6 
REMARK    3  A    between atoms: C4_6  and  C5_8 
REMARK    4  A    between atoms: C8_11  and  N2_12 
REMARK    5  A    between atoms: N2_12  and  C9_14 
REMARK    6  A    between atoms: C14_22  and  N5_23 
REMARK    7  A    between atoms: N5_23  and  C15_25 
REMARK    8  A    between atoms: C15_25  and  C16_26 
REMARK    9  A    between atoms: C16_26  and  C17_27 
REMARK   10  A    between atoms: C17_27  and  N6_28 
REMARK   11  A    between atoms: C22_34  and  N7_35 
REMARK   12  A    between atoms: C25_38  and  O3_39 
REMARK   13  A    between atoms: O3_39  and  C26_40 
REMARK   14  A    between atoms: C26_40  and  C27_41 
ROOT
HETATM    1  C9  UNL     1      20.721  26.960  16.743  1.00  0.00     0.131 A 
HETATM    2  N3  UNL     1      20.494  27.764  15.674  1.00  0.00    -0.349 N 
ATOM      3  H3  UNL     1      19.590  27.759  15.203  1.00  0.00     0.167 HD
HETATM    4  C10 UNL     1      21.480  28.564  15.248  1.00  0.00     0.107 A 
HETATM    5  C11 UNL     1      22.693  28.569  15.880  1.00  0.00     0.114 A 
HETATM    6  N4  UNL     1      22.930  27.779  16.940  1.00  0.00    -0.326 N 
HETATM    7  C12 UNL     1      24.157  27.820  17.527  1.00  0.00     0.099 A 
HETATM    8  C13 UNL     1      24.383  27.000  18.604  1.00  0.00     0.049 A 
HETATM    9  C14 UNL     1      23.450  26.157  19.108  1.00  0.00     0.058 A 
HETATM   10  C22 UNL     1      22.174  26.129  18.483  1.00  0.00     0.088 A 
HETATM   11  C31 UNL     1      21.973  26.955  17.409  1.00  0.00     0.111 A 
ENDROOT
BRANCH   1  12
HETATM   12  N2  UNL     1      19.859  26.178  17.183  1.00  0.00    -0.370 N 
ATOM     13  H2  UNL     1      19.711  26.262  18.189  1.00  0.00     0.161 HD
BRANCH  12  14
HETATM   14  C8  UNL     1      19.053  25.211  16.585  1.00  0.00     0.083 C 
HETATM   15  C7  UNL     1      19.699  24.227  15.646  1.00  0.00     0.026 C 
HETATM   16  C6  UNL     1      18.771  22.981  15.682  1.00  0.00     0.016 C 
HETATM   17  C5  UNL     1      17.495  23.464  15.000  1.00  0.00     0.078 C 
HETATM   18  C33 UNL     1      16.854  24.509  15.859  1.00  0.00     0.016 C 
HETATM   19  C32 UNL     1      17.790  25.724  15.878  1.00  0.00     0.026 C 
BRANCH  17  20
HETATM   20  C4  UNL     1      16.618  22.332  14.690  1.00  0.00     0.221 C 
HETATM   21  N1  UNL     1      15.820  22.349  13.521  1.00  0.00    -0.361 N 
ATOM     22  H1  UNL     1      15.859  23.153  12.896  1.00  0.00     0.162 HD
HETATM   23  O1  UNL     1      16.590  21.343  15.487  1.00  0.00    -0.273 OA
BRANCH  21  24
HETATM   24  C3  UNL     1      14.942  21.227  13.203  1.00  0.00     0.122 C 
BRANCH  24  25
HETATM   25  C2  UNL     1      13.495  21.608  13.473  1.00  0.00     0.015 C 
HETATM   26  C1  UNL     1      13.339  23.110  13.586  1.00  0.00     0.006 C 
ENDBRANCH  24  25
ENDBRANCH  21  24
ENDBRANCH  17  20
ENDBRANCH  12  14
ENDBRANCH   1  12
BRANCH  10  27
HETATM   27  N7  UNL     1      21.259  25.223  19.090  1.00  0.00    -0.377 N 
HETATM   28  C23 UNL     1      21.323  23.845  18.705  1.00  0.00     0.125 C 
HETATM   29  C24 UNL     1      20.570  22.858  19.496  1.00  0.00     0.051 C 
HETATM   30  C25 UNL     1      19.356  23.355  20.189  1.00  0.00     0.124 C 
HETATM   31  C29 UNL     1      19.513  24.705  20.799  1.00  0.00     0.051 C 
HETATM   32  C30 UNL     1      20.232  25.694  19.972  1.00  0.00     0.125 C 
BRANCH  30  33
HETATM   33  O3  UNL     1      18.329  23.432  19.248  1.00  0.00    -0.386 OA
BRANCH  33  34
HETATM   34  C26 UNL     1      17.683  22.213  19.079  1.00  0.00     0.167 C 
BRANCH  34  35
HETATM   35  C27 UNL     1      16.210  22.383  18.808  1.00  0.00     0.022 C 
HETATM   36  C28 UNL     1      15.427  21.477  19.731  1.00  0.00     0.007 C 
ENDBRANCH  34  35
ENDBRANCH  33  34
ENDBRANCH  30  33
ENDBRANCH  10  27
BRANCH   9  37
HETATM   37  N5  UNL     1      23.599  25.368  20.100  1.00  0.00    -0.388 N 
ATOM     38  H5  UNL     1      22.817  25.312  20.752  1.00  0.00     0.159 HD
BRANCH  37  39
HETATM   39  C15 UNL     1      24.736  24.551  20.407  1.00  0.00     0.121 C 
BRANCH  39  40
HETATM   40  C16 UNL     1      24.934  23.437  19.400  1.00  0.00     0.050 C 
BRANCH  40  41
HETATM   41  C17 UNL     1      26.237  23.532  18.681  1.00  0.00     0.274 C 
BRANCH  41  42
HETATM   42  N6  UNL     1      26.882  22.294  18.394  1.00  0.00     0.092 N 
HETATM   43  C18 UNL     1      27.929  21.993  19.320  1.00  0.00     0.298 C 
HETATM   44  C19 UNL     1      27.718  20.663  20.023  1.00  0.00     0.198 C 
HETATM   45  O2  UNL     1      27.526  19.638  19.103  1.00  0.00    -0.388 OA
HETATM   46  C20 UNL     1      26.520  19.876  18.202  1.00  0.00     0.198 C 
HETATM   47  C21 UNL     1      25.884  21.244  18.417  1.00  0.00     0.298 C 
ENDBRANCH  41  42
ENDBRANCH  40  41
ENDBRANCH  39  40
ENDBRANCH  37  39
ENDBRANCH   9  37
TORSDOF 14
ENDMDL
