MODEL 1
REMARK VINA RESULT: -7.630934766      0.000      0.000
REMARK  9 active torsions:
REMARK  status: ('A' for Active; 'I' for Inactive)
REMARK    1  A    between atoms: C1_2  and  C2_4 
REMARK    2  A    between atoms: C3_6  and  O4_7 
REMARK    3  A    between atoms: O4_7  and  C4_8 
REMARK    4  A    between atoms: C6_11  and  C7_12 
REMARK    5  A    between atoms: C7_12  and  C8_13 
REMARK    6  A    between atoms: C14_19  and  O6_20 
REMARK    7  A    between atoms: C15_22  and  O7_23 
REMARK    8  A    between atoms: C16_25  and  O8_26 
REMARK    9  A    between atoms: C17_28  and  O9_29 
ROOT
HETATM    1  C2  UNL     1      30.515  -2.095 162.364  1.00  0.00     0.256 C 
HETATM    2  O3  UNL     1      30.737  -0.826 162.881  1.00  0.00    -0.340 OA
HETATM    3  C3  UNL     1      29.788  -0.439 163.804  1.00  0.00     0.292 C 
HETATM    4  C15 UNL     1      28.443  -1.037 163.623  1.00  0.00     0.204 C 
HETATM    5  C16 UNL     1      28.143  -1.628 162.302  1.00  0.00     0.183 C 
HETATM    6  C17 UNL     1      29.323  -1.922 161.440  1.00  0.00     0.189 C 
ENDROOT
BRANCH   3   7
HETATM    7  O4  UNL     1      30.254  -0.727 165.062  1.00  0.00    -0.348 OA
BRANCH   7   8
HETATM    8  C4  UNL     1      29.943   0.143 166.048  1.00  0.00     0.179 C 
HETATM    9  C5  UNL     1      29.161  -0.426 167.203  1.00  0.00     0.203 C 
HETATM   10  O5  UNL     1      29.118   0.716 168.034  1.00  0.00    -0.381 OA
HETATM   11  C6  UNL     1      30.385   1.232 168.058  1.00  0.00     0.153 C 
HETATM   12  C14 UNL     1      31.070   0.795 166.762  1.00  0.00     0.178 C 
BRANCH  11  13
HETATM   13  C7  UNL     1      30.293   2.740 168.118  1.00  0.00     0.039 C 
BRANCH  13  14
HETATM   14  C8  UNL     1      30.560   3.230 169.499  1.00  0.00    -0.012 C 
HETATM   15  C9  UNL     1      30.072   2.341 170.612  1.00  0.00     0.005 C 
HETATM   16  C10 UNL     1      29.680   3.173 171.824  1.00  0.00     0.000 C 
HETATM   17  C11 UNL     1      30.546   4.374 171.994  1.00  0.00     0.000 C 
HETATM   18  C12 UNL     1      30.628   5.286 170.809  1.00  0.00     0.000 C 
HETATM   19  C13 UNL     1      29.942   4.627 169.636  1.00  0.00     0.005 C 
ENDBRANCH  13  14
ENDBRANCH  11  13
BRANCH  12  20
HETATM   20  O6  UNL     1      31.564   1.920 166.108  1.00  0.00    -0.390 OA
ATOM     21  H6  UNL     1      32.513   1.960 166.087  1.00  0.00     0.210 HD
ENDBRANCH  12  20
ENDBRANCH   7   8
ENDBRANCH   3   7
BRANCH   4  22
HETATM   22  O7  UNL     1      27.433  -0.085 163.905  1.00  0.00    -0.388 OA
ATOM     23  H7  UNL     1      27.158   0.355 163.108  1.00  0.00     0.210 HD
ENDBRANCH   4  22
BRANCH   1  24
HETATM   24  C1  UNL     1      31.719  -2.558 161.671  1.00  0.00     0.206 C 
HETATM   25  O1  UNL     1      31.750  -2.673 160.428  1.00  0.00    -0.646 OA
HETATM   26  O2  UNL     1      32.852  -2.877 162.402  1.00  0.00    -0.646 OA
ENDBRANCH   1  24
BRANCH   5  27
HETATM   27  O8  UNL     1      27.421  -2.839 162.436  1.00  0.00    -0.390 OA
ATOM     28  H8  UNL     1      27.509  -3.378 161.659  1.00  0.00     0.210 HD
ENDBRANCH   5  27
BRANCH   6  29
HETATM   29  O9  UNL     1      29.104  -3.063 160.678  1.00  0.00    -0.390 OA
ATOM     30  H9  UNL     1      28.192  -3.325 160.701  1.00  0.00     0.210 HD
ENDBRANCH   6  29
TORSDOF 9
ENDMDL
MODEL 2
REMARK VINA RESULT: -7.565726091      1.312      2.051
REMARK  9 active torsions:
REMARK  status: ('A' for Active; 'I' for Inactive)
REMARK    1  A    between atoms: C1_2  and  C2_4 
REMARK    2  A    between atoms: C3_6  and  O4_7 
REMARK    3  A    between atoms: O4_7  and  C4_8 
REMARK    4  A    between atoms: C6_11  and  C7_12 
REMARK    5  A    between atoms: C7_12  and  C8_13 
REMARK    6  A    between atoms: C14_19  and  O6_20 
REMARK    7  A    between atoms: C15_22  and  O7_23 
REMARK    8  A    between atoms: C16_25  and  O8_26 
REMARK    9  A    between atoms: C17_28  and  O9_29 
ROOT
HETATM    1  C2  UNL     1      28.647  -1.752 162.354  1.00  0.00     0.256 C 
HETATM    2  O3  UNL     1      30.010  -1.585 162.562  1.00  0.00    -0.340 OA
HETATM    3  C3  UNL     1      30.314  -0.480 163.328  1.00  0.00     0.292 C 
HETATM    4  C15 UNL     1      29.344   0.640 163.244  1.00  0.00     0.204 C 
HETATM    5  C16 UNL     1      28.419   0.641 162.092  1.00  0.00     0.183 C 
HETATM    6  C17 UNL     1      28.279  -0.656 161.371  1.00  0.00     0.189 C 
ENDROOT
BRANCH   3   7
HETATM    7  O4  UNL     1      30.449  -0.874 164.636  1.00  0.00    -0.348 OA
BRANCH   7   8
HETATM    8  C4  UNL     1      30.060   0.004 165.587  1.00  0.00     0.179 C 
HETATM    9  C5  UNL     1      29.120  -0.536 166.633  1.00  0.00     0.203 C 
HETATM   10  O5  UNL     1      29.028   0.602 167.465  1.00  0.00    -0.381 OA
HETATM   11  C6  UNL     1      30.304   1.060 167.647  1.00  0.00     0.153 C 
HETATM   12  C14 UNL     1      31.120   0.600 166.438  1.00  0.00     0.178 C 
BRANCH  11  13
HETATM   13  C7  UNL     1      30.272   2.570 167.713  1.00  0.00     0.039 C 
BRANCH  13  14
HETATM   14  C8  UNL     1      30.573   3.044 169.092  1.00  0.00    -0.012 C 
HETATM   15  C9  UNL     1      30.108   2.145 170.206  1.00  0.00     0.005 C 
HETATM   16  C10 UNL     1      29.747   2.967 171.436  1.00  0.00     0.000 C 
HETATM   17  C11 UNL     1      30.621   4.162 171.599  1.00  0.00     0.000 C 
HETATM   18  C12 UNL     1      30.679   5.086 170.421  1.00  0.00     0.000 C 
HETATM   19  C13 UNL     1      29.964   4.442 169.258  1.00  0.00     0.005 C 
ENDBRANCH  13  14
ENDBRANCH  11  13
BRANCH  12  20
HETATM   20  O6  UNL     1      31.740   1.704 165.861  1.00  0.00    -0.390 OA
ATOM     21  H6  UNL     1      32.688   1.660 165.880  1.00  0.00     0.210 HD
ENDBRANCH  12  20
ENDBRANCH   7   8
ENDBRANCH   3   7
BRANCH   4  22
HETATM   22  O7  UNL     1      30.020   1.885 163.251  1.00  0.00    -0.388 OA
ATOM     23  H7  UNL     1      29.887   2.341 162.427  1.00  0.00     0.210 HD
ENDBRANCH   4  22
BRANCH   1  24
HETATM   24  C1  UNL     1      28.393  -3.099 161.839  1.00  0.00     0.206 C 
HETATM   25  O1  UNL     1      29.322  -3.825 161.431  1.00  0.00    -0.646 OA
HETATM   26  O2  UNL     1      27.096  -3.585 161.800  1.00  0.00    -0.646 OA
ENDBRANCH   1  24
BRANCH   5  27
HETATM   27  O8  UNL     1      27.117   1.036 162.482  1.00  0.00    -0.390 OA
ATOM     28  H8  UNL     1      26.621   1.364 161.741  1.00  0.00     0.210 HD
ENDBRANCH   5  27
BRANCH   6  29
HETATM   29  O9  UNL     1      26.983  -0.818 160.896  1.00  0.00    -0.390 OA
ATOM     30  H9  UNL     1      26.485  -0.013 160.967  1.00  0.00     0.210 HD
ENDBRANCH   6  29
TORSDOF 9
ENDMDL
MODEL 3
REMARK VINA RESULT: -7.438834122      1.825      3.131
REMARK  9 active torsions:
REMARK  status: ('A' for Active; 'I' for Inactive)
REMARK    1  A    between atoms: C1_2  and  C2_4 
REMARK    2  A    between atoms: C3_6  and  O4_7 
REMARK    3  A    between atoms: O4_7  and  C4_8 
REMARK    4  A    between atoms: C6_11  and  C7_12 
REMARK    5  A    between atoms: C7_12  and  C8_13 
REMARK    6  A    between atoms: C14_19  and  O6_20 
REMARK    7  A    between atoms: C15_22  and  O7_23 
REMARK    8  A    between atoms: C16_25  and  O8_26 
REMARK    9  A    between atoms: C17_28  and  O9_29 
ROOT
HETATM    1  C2  UNL     1      27.064  -2.265 164.171  1.00  0.00     0.256 C 
HETATM    2  O3  UNL     1      28.302  -2.882 164.064  1.00  0.00    -0.340 OA
HETATM    3  C3  UNL     1      29.361  -2.003 164.149  1.00  0.00     0.292 C 
HETATM    4  C15 UNL     1      29.080  -0.622 163.685  1.00  0.00     0.204 C 
HETATM    5  C16 UNL     1      27.890  -0.431 162.829  1.00  0.00     0.183 C 
HETATM    6  C17 UNL     1      26.891  -1.536 162.851  1.00  0.00     0.189 C 
ENDROOT
BRANCH   3   7
HETATM    7  O4  UNL     1      29.804  -1.970 165.447  1.00  0.00    -0.348 OA
BRANCH   7   8
HETATM    8  C4  UNL     1      29.562  -0.843 166.153  1.00  0.00     0.179 C 
HETATM    9  C5  UNL     1      28.394  -0.901 167.103  1.00  0.00     0.203 C 
HETATM   10  O5  UNL     1      28.521   0.373 167.698  1.00  0.00    -0.381 OA
HETATM   11  C6  UNL     1      29.844   0.532 168.010  1.00  0.00     0.153 C 
HETATM   12  C14 UNL     1      30.638  -0.360 167.054  1.00  0.00     0.178 C 
BRANCH  11  13
HETATM   13  C7  UNL     1      30.220   1.982 167.807  1.00  0.00     0.039 C 
BRANCH  13  14
HETATM   14  C8  UNL     1      30.551   2.628 169.107  1.00  0.00    -0.012 C 
HETATM   15  C9  UNL     1      30.050   1.916 170.335  1.00  0.00     0.005 C 
HETATM   16  C10 UNL     1      29.737   2.916 171.438  1.00  0.00     0.000 C 
HETATM   17  C11 UNL     1      30.668   4.079 171.434  1.00  0.00     0.000 C 
HETATM   18  C12 UNL     1      30.764   4.827 170.140  1.00  0.00     0.000 C 
HETATM   19  C13 UNL     1      30.012   4.063 169.076  1.00  0.00     0.005 C 
ENDBRANCH  13  14
ENDBRANCH  11  13
BRANCH  12  20
HETATM   20  O6  UNL     1      31.599   0.411 166.407  1.00  0.00    -0.390 OA
ATOM     21  H6  UNL     1      32.459   0.008 166.391  1.00  0.00     0.210 HD
ENDBRANCH  12  20
ENDBRANCH   7   8
ENDBRANCH   3   7
BRANCH   4  22
HETATM   22  O7  UNL     1      30.195  -0.094 162.990  1.00  0.00    -0.388 OA
ATOM     23  H7  UNL     1      30.016  -0.045 162.058  1.00  0.00     0.210 HD
ENDBRANCH   4  22
BRANCH   1  24
HETATM   24  C1  UNL     1      26.032  -3.275 164.411  1.00  0.00     0.206 C 
HETATM   25  O1  UNL     1      26.280  -4.494 164.311  1.00  0.00    -0.646 OA
HETATM   26  O2  UNL     1      24.750  -2.879 164.758  1.00  0.00    -0.646 OA
ENDBRANCH   1  24
BRANCH   5  27
HETATM   27  O8  UNL     1      27.198   0.756 163.174  1.00  0.00    -0.390 OA
ATOM     28  H8  UNL     1      26.266   0.667 163.013  1.00  0.00     0.210 HD
ENDBRANCH   5  27
BRANCH   6  29
HETATM   29  O9  UNL     1      25.601  -1.037 162.714  1.00  0.00    -0.390 OA
ATOM     30  H9  UNL     1      25.325  -1.038 161.805  1.00  0.00     0.210 HD
ENDBRANCH   6  29
TORSDOF 9
ENDMDL
MODEL 4
REMARK VINA RESULT: -7.215695300      9.026     13.920
REMARK  9 active torsions:
REMARK  status: ('A' for Active; 'I' for Inactive)
REMARK    1  A    between atoms: C1_2  and  C2_4 
REMARK    2  A    between atoms: C3_6  and  O4_7 
REMARK    3  A    between atoms: O4_7  and  C4_8 
REMARK    4  A    between atoms: C6_11  and  C7_12 
REMARK    5  A    between atoms: C7_12  and  C8_13 
REMARK    6  A    between atoms: C14_19  and  O6_20 
REMARK    7  A    between atoms: C15_22  and  O7_23 
REMARK    8  A    between atoms: C16_25  and  O8_26 
REMARK    9  A    between atoms: C17_28  and  O9_29 
ROOT
HETATM    1  C2  UNL     1      34.075   7.529 177.870  1.00  0.00     0.256 C 
HETATM    2  O3  UNL     1      32.997   8.395 177.991  1.00  0.00    -0.340 OA
HETATM    3  C3  UNL     1      32.357   8.642 176.794  1.00  0.00     0.292 C 
HETATM    4  C15 UNL     1      33.210   8.544 175.585  1.00  0.00     0.204 C 
HETATM    5  C16 UNL     1      34.673   8.604 175.788  1.00  0.00     0.183 C 
HETATM    6  C17 UNL     1      35.145   8.355 177.178  1.00  0.00     0.189 C 
ENDROOT
BRANCH   3   7
HETATM    7  O4  UNL     1      31.293   7.783 176.678  1.00  0.00    -0.348 OA
BRANCH   7   8
HETATM    8  C4  UNL     1      31.276   6.965 175.602  1.00  0.00     0.179 C 
HETATM    9  C5  UNL     1      31.652   5.530 175.862  1.00  0.00     0.203 C 
HETATM   10  O5  UNL     1      31.429   4.999 174.572  1.00  0.00    -0.381 OA
HETATM   11  C6  UNL     1      30.220   5.482 174.151  1.00  0.00     0.153 C 
HETATM   12  C14 UNL     1      29.981   6.797 174.896  1.00  0.00     0.178 C 
BRANCH  11  13
HETATM   13  C7  UNL     1      30.288   5.729 172.661  1.00  0.00     0.039 C 
BRANCH  13  14
HETATM   14  C8  UNL     1      29.901   4.505 171.906  1.00  0.00    -0.012 C 
HETATM   15  C9  UNL     1      29.471   3.331 172.744  1.00  0.00     0.005 C 
HETATM   16  C10 UNL     1      29.839   2.024 172.055  1.00  0.00     0.000 C 
HETATM   17  C11 UNL     1      29.732   2.112 170.572  1.00  0.00     0.000 C 
HETATM   18  C12 UNL     1      30.518   3.215 169.931  1.00  0.00     0.000 C 
HETATM   19  C13 UNL     1      31.081   4.106 171.011  1.00  0.00     0.005 C 
ENDBRANCH  13  14
ENDBRANCH  11  13
BRANCH  12  20
HETATM   20  O6  UNL     1      29.719   7.802 173.970  1.00  0.00    -0.390 OA
ATOM     21  H6  UNL     1      29.241   8.537 174.334  1.00  0.00     0.210 HD
ENDBRANCH  12  20
ENDBRANCH   7   8
ENDBRANCH   3   7
BRANCH   4  22
HETATM   22  O7  UNL     1      32.866   9.551 174.650  1.00  0.00    -0.388 OA
ATOM     23  H7  UNL     1      33.632   9.825 174.158  1.00  0.00     0.210 HD
ENDBRANCH   4  22
BRANCH   1  24
HETATM   24  C1  UNL     1      34.476   7.060 179.197  1.00  0.00     0.206 C 
HETATM   25  O1  UNL     1      35.081   7.805 179.995  1.00  0.00    -0.646 OA
HETATM   26  O2  UNL     1      34.182   5.762 179.584  1.00  0.00    -0.646 OA
ENDBRANCH   1  24
BRANCH   5  27
HETATM   27  O8  UNL     1      35.343   7.677 174.954  1.00  0.00    -0.390 OA
ATOM     28  H8  UNL     1      36.286   7.772 175.025  1.00  0.00     0.210 HD
ENDBRANCH   5  27
BRANCH   6  29
HETATM   29  O9  UNL     1      36.368   7.694 177.173  1.00  0.00    -0.390 OA
ATOM     30  H9  UNL     1      36.312   6.867 176.710  1.00  0.00     0.210 HD
ENDBRANCH   6  29
TORSDOF 9
ENDMDL
MODEL 5
REMARK VINA RESULT: -7.111690806      4.786     10.418
REMARK  9 active torsions:
REMARK  status: ('A' for Active; 'I' for Inactive)
REMARK    1  A    between atoms: C1_2  and  C2_4 
REMARK    2  A    between atoms: C3_6  and  O4_7 
REMARK    3  A    between atoms: O4_7  and  C4_8 
REMARK    4  A    between atoms: C6_11  and  C7_12 
REMARK    5  A    between atoms: C7_12  and  C8_13 
REMARK    6  A    between atoms: C14_19  and  O6_20 
REMARK    7  A    between atoms: C15_22  and  O7_23 
REMARK    8  A    between atoms: C16_25  and  O8_26 
REMARK    9  A    between atoms: C17_28  and  O9_29 
ROOT
HETATM    1  C2  UNL     1      30.474   4.791 173.977  1.00  0.00     0.256 C 
HETATM    2  O3  UNL     1      29.576   4.479 172.966  1.00  0.00    -0.340 OA
HETATM    3  C3  UNL     1      29.208   5.570 172.206  1.00  0.00     0.292 C 
HETATM    4  C15 UNL     1      29.245   6.876 172.908  1.00  0.00     0.204 C 
HETATM    5  C16 UNL     1      29.263   6.844 174.386  1.00  0.00     0.183 C 
HETATM    6  C17 UNL     1      29.642   5.541 175.002  1.00  0.00     0.189 C 
ENDROOT
BRANCH   3   7
HETATM    7  O4  UNL     1      30.009   5.622 171.094  1.00  0.00    -0.348 OA
BRANCH   7   8
HETATM    8  C4  UNL     1      29.857   4.640 170.178  1.00  0.00     0.179 C 
HETATM    9  C5  UNL     1      30.002   5.057 168.738  1.00  0.00     0.203 C 
HETATM   10  O5  UNL     1      29.878   3.792 168.121  1.00  0.00    -0.381 OA
HETATM   11  C6  UNL     1      30.676   2.932 168.825  1.00  0.00     0.153 C 
HETATM   12  C14 UNL     1      30.804   3.498 170.240  1.00  0.00     0.178 C 
BRANCH  11  13
HETATM   13  C7  UNL     1      30.011   1.575 168.862  1.00  0.00     0.039 C 
BRANCH  13  14
HETATM   14  C8  UNL     1      29.844   1.032 167.486  1.00  0.00    -0.012 C 
HETATM   15  C9  UNL     1      29.070  -0.256 167.382  1.00  0.00     0.005 C 
HETATM   16  C10 UNL     1      29.576  -1.087 166.213  1.00  0.00     0.000 C 
HETATM   17  C11 UNL     1      30.011  -0.247 165.062  1.00  0.00     0.000 C 
HETATM   18  C12 UNL     1      31.042   0.794 165.375  1.00  0.00     0.000 C 
HETATM   19  C13 UNL     1      31.238   0.856 166.871  1.00  0.00     0.005 C 
ENDBRANCH  13  14
ENDBRANCH  11  13
BRANCH  12  20
HETATM   20  O6  UNL     1      30.433   2.519 171.156  1.00  0.00    -0.390 OA
ATOM     21  H6  UNL     1      31.098   2.341 171.810  1.00  0.00     0.210 HD
ENDBRANCH  12  20
ENDBRANCH   7   8
ENDBRANCH   3   7
BRANCH   4  22
HETATM   22  O7  UNL     1      28.153   7.686 172.511  1.00  0.00    -0.388 OA
ATOM     23  H7  UNL     1      28.023   8.396 173.129  1.00  0.00     0.210 HD
ENDBRANCH   4  22
BRANCH   1  24
HETATM   24  C1  UNL     1      31.064   3.559 174.504  1.00  0.00     0.206 C 
HETATM   25  O1  UNL     1      32.094   3.582 175.209  1.00  0.00    -0.646 OA
HETATM   26  O2  UNL     1      30.474   2.338 174.220  1.00  0.00    -0.646 OA
ENDBRANCH   1  24
BRANCH   5  27
HETATM   27  O8  UNL     1      30.148   7.818 174.908  1.00  0.00    -0.390 OA
ATOM     28  H8  UNL     1      29.965   7.991 175.824  1.00  0.00     0.210 HD
ENDBRANCH   5  27
BRANCH   6  29
HETATM   29  O9  UNL     1      30.351   5.741 176.180  1.00  0.00    -0.390 OA
ATOM     30  H9  UNL     1      30.847   6.550 176.152  1.00  0.00     0.210 HD
ENDBRANCH   6  29
TORSDOF 9
ENDMDL
