MODEL 1
REMARK VINA RESULT: -7.147480123      0.000      0.000
REMARK  9 active torsions:
REMARK  status: ('A' for Active; 'I' for Inactive)
REMARK    1  A    between atoms: N1_2  and  C2_5 
REMARK    2  A    between atoms: C3_6  and  O1_7 
REMARK    3  A    between atoms: C4_9  and  O2_10 
REMARK    4  A    between atoms: O2_10  and  C5_11 
REMARK    5  A    between atoms: C8_15  and  O4_16 
REMARK    6  A    between atoms: C9_18  and  O5_19 
REMARK    7  A    between atoms: C10_21  and  O6_22 
REMARK    8  A    between atoms: C11_25  and  C12_26 
REMARK    9  A    between atoms: C16_30  and  O8_31 
ROOT
HETATM    1  C2  UNL     1      30.122   0.337 167.724  1.00  0.00     0.250 C 
HETATM    2  C3  UNL     1      29.328  -0.131 166.516  1.00  0.00     0.206 C 
HETATM    3  C4  UNL     1      30.063   0.273 165.255  1.00  0.00     0.294 C 
HETATM    4  O7  UNL     1      31.444   0.319 165.567  1.00  0.00    -0.347 OA
HETATM    5  C11 UNL     1      31.771   1.427 166.314  1.00  0.00     0.178 C 
HETATM    6  C16 UNL     1      30.787   1.679 167.442  1.00  0.00     0.186 C 
ENDROOT
BRANCH   3   7
HETATM    7  O2  UNL     1      29.922  -0.734 164.337  1.00  0.00    -0.326 OA
BRANCH   7   8
HETATM    8  C5  UNL     1      29.293  -0.421 163.176  1.00  0.00     0.294 C 
HETATM    9  O3  UNL     1      29.793  -1.066 162.055  1.00  0.00    -0.351 OA
HETATM   10  C6  UNL     1      29.311  -0.525 160.887  1.00  0.00     0.152 C 
HETATM   11  C7  UNL     1      30.066   0.705 160.449  1.00  0.00     0.042 C 
HETATM   12  C8  UNL     1      27.807  -0.243 160.958  1.00  0.00     0.178 C 
HETATM   13  C9  UNL     1      27.254  -1.215 161.983  1.00  0.00     0.183 C 
HETATM   14  C10 UNL     1      27.831  -0.795 163.322  1.00  0.00     0.204 C 
BRANCH  12  15
HETATM   15  O4  UNL     1      27.210  -0.412 159.735  1.00  0.00    -0.390 OA
ATOM     16  H4  UNL     1      26.446  -0.973 159.799  1.00  0.00     0.210 HD
ENDBRANCH  12  15
BRANCH  13  17
HETATM   17  O5  UNL     1      25.877  -1.215 162.019  1.00  0.00    -0.390 OA
ATOM     18  H5  UNL     1      25.531  -1.822 162.663  1.00  0.00     0.210 HD
ENDBRANCH  13  17
BRANCH  14  19
HETATM   19  O6  UNL     1      27.167   0.350 163.771  1.00  0.00    -0.388 OA
ATOM     20  H6  UNL     1      26.594   0.627 163.064  1.00  0.00     0.210 HD
ENDBRANCH  14  19
ENDBRANCH   7   8
ENDBRANCH   3   7
BRANCH   2  21
HETATM   21  O1  UNL     1      28.026   0.374 166.556  1.00  0.00    -0.388 OA
ATOM     22  H1  UNL     1      27.431  -0.195 166.081  1.00  0.00     0.210 HD
ENDBRANCH   2  21
BRANCH   1  23
HETATM   23  N1  UNL     1      29.344   0.396 168.918  1.00  0.00    -0.070 N 
HETATM   24  C1  UNL     1      29.345  -0.908 169.553  1.00  0.00     0.267 C 
ATOM     25  H12 UNL     1      28.400   0.744 168.749  1.00  0.00     0.277 HD
ATOM     26  H11 UNL     1      29.658   1.134 169.549  1.00  0.00     0.277 HD
ENDBRANCH   1  23
BRANCH   5  27
HETATM   27  C12 UNL     1      33.123   1.177 166.920  1.00  0.00     0.009 C 
HETATM   28  C13 UNL     1      34.211   1.746 166.435  1.00  0.00    -0.089 C 
HETATM   29  C14 UNL     1      35.516   1.462 167.075  1.00  0.00     0.042 C 
HETATM   30  C15 UNL     1      34.125   2.651 165.273  1.00  0.00     0.042 C 
ENDBRANCH   5  27
BRANCH   6  31
HETATM   31  O8  UNL     1      29.859   2.632 167.095  1.00  0.00    -0.386 OA
HETATM   32  C17 UNL     1      29.935   3.766 167.903  1.00  0.00     0.202 C 
ENDBRANCH   6  31
TORSDOF 9
ENDMDL
MODEL 2
REMARK VINA RESULT: -7.141558293      0.839      1.933
REMARK  9 active torsions:
REMARK  status: ('A' for Active; 'I' for Inactive)
REMARK    1  A    between atoms: N1_2  and  C2_5 
REMARK    2  A    between atoms: C3_6  and  O1_7 
REMARK    3  A    between atoms: C4_9  and  O2_10 
REMARK    4  A    between atoms: O2_10  and  C5_11 
REMARK    5  A    between atoms: C8_15  and  O4_16 
REMARK    6  A    between atoms: C9_18  and  O5_19 
REMARK    7  A    between atoms: C10_21  and  O6_22 
REMARK    8  A    between atoms: C11_25  and  C12_26 
REMARK    9  A    between atoms: C16_30  and  O8_31 
ROOT
HETATM    1  C2  UNL     1      30.209   0.489 168.022  1.00  0.00     0.250 C 
HETATM    2  C3  UNL     1      29.417  -0.149 166.893  1.00  0.00     0.206 C 
HETATM    3  C4  UNL     1      30.141   0.091 165.585  1.00  0.00     0.294 C 
HETATM    4  O7  UNL     1      31.522   0.200 165.878  1.00  0.00    -0.347 OA
HETATM    5  C11 UNL     1      31.836   1.402 166.467  1.00  0.00     0.178 C 
HETATM    6  C16 UNL     1      30.852   1.790 167.557  1.00  0.00     0.186 C 
ENDROOT
BRANCH   3   7
HETATM    7  O2  UNL     1      30.011  -1.032 164.811  1.00  0.00    -0.326 OA
BRANCH   7   8
HETATM    8  C5  UNL     1      29.238  -0.926 163.701  1.00  0.00     0.294 C 
HETATM    9  O3  UNL     1      28.084  -0.175 163.870  1.00  0.00    -0.351 OA
HETATM   10  C6  UNL     1      27.215  -0.316 162.814  1.00  0.00     0.152 C 
HETATM   11  C7  UNL     1      26.359  -1.554 162.914  1.00  0.00     0.042 C 
HETATM   12  C8  UNL     1      27.933  -0.259 161.462  1.00  0.00     0.178 C 
HETATM   13  C9  UNL     1      29.190   0.556 161.698  1.00  0.00     0.183 C 
HETATM   14  C10 UNL     1      30.070  -0.274 162.615  1.00  0.00     0.204 C 
BRANCH  12  15
HETATM   15  O4  UNL     1      27.140   0.312 160.500  1.00  0.00    -0.390 OA
ATOM     16  H4  UNL     1      26.251  -0.020 160.545  1.00  0.00     0.210 HD
ENDBRANCH  12  15
BRANCH  13  17
HETATM   17  O5  UNL     1      29.849   0.860 160.527  1.00  0.00    -0.390 OA
ATOM     18  H5  UNL     1      30.663   1.326 160.678  1.00  0.00     0.210 HD
ENDBRANCH  13  17
BRANCH  14  19
HETATM   19  O6  UNL     1      30.652  -1.309 161.879  1.00  0.00    -0.388 OA
ATOM     20  H6  UNL     1      30.146  -2.093 162.063  1.00  0.00     0.210 HD
ENDBRANCH  14  19
ENDBRANCH   7   8
ENDBRANCH   3   7
BRANCH   2  21
HETATM   21  O1  UNL     1      28.108   0.338 166.872  1.00  0.00    -0.388 OA
ATOM     22  H1  UNL     1      27.580  -0.146 166.247  1.00  0.00     0.210 HD
ENDBRANCH   2  21
BRANCH   1  23
HETATM   23  N1  UNL     1      29.435   0.698 169.202  1.00  0.00    -0.070 N 
HETATM   24  C1  UNL     1      29.388  -0.534 169.965  1.00  0.00     0.267 C 
ATOM     25  H12 UNL     1      28.504   1.062 168.996  1.00  0.00     0.277 HD
ATOM     26  H11 UNL     1      29.776   1.484 169.755  1.00  0.00     0.277 HD
ENDBRANCH   1  23
BRANCH   5  27
HETATM   27  C12 UNL     1      33.193   1.257 167.093  1.00  0.00     0.009 C 
HETATM   28  C13 UNL     1      34.268   1.786 166.539  1.00  0.00    -0.089 C 
HETATM   29  C14 UNL     1      35.580   1.610 167.203  1.00  0.00     0.042 C 
HETATM   30  C15 UNL     1      34.160   2.544 165.277  1.00  0.00     0.042 C 
ENDBRANCH   5  27
BRANCH   6  31
HETATM   31  O8  UNL     1      29.909   2.674 167.090  1.00  0.00    -0.386 OA
HETATM   32  C17 UNL     1      29.872   3.854 167.834  1.00  0.00     0.202 C 
ENDBRANCH   6  31
TORSDOF 9
ENDMDL
MODEL 3
REMARK VINA RESULT: -6.401821434      3.599      6.788
REMARK  9 active torsions:
REMARK  status: ('A' for Active; 'I' for Inactive)
REMARK    1  A    between atoms: N1_2  and  C2_5 
REMARK    2  A    between atoms: C3_6  and  O1_7 
REMARK    3  A    between atoms: C4_9  and  O2_10 
REMARK    4  A    between atoms: O2_10  and  C5_11 
REMARK    5  A    between atoms: C8_15  and  O4_16 
REMARK    6  A    between atoms: C9_18  and  O5_19 
REMARK    7  A    between atoms: C10_21  and  O6_22 
REMARK    8  A    between atoms: C11_25  and  C12_26 
REMARK    9  A    between atoms: C16_30  and  O8_31 
ROOT
HETATM    1  C2  UNL     1      29.612  -2.516 161.608  1.00  0.00     0.250 C 
HETATM    2  C3  UNL     1      30.299  -2.283 162.943  1.00  0.00     0.206 C 
HETATM    3  C4  UNL     1      30.696  -0.825 163.047  1.00  0.00     0.294 C 
HETATM    4  O7  UNL     1      29.775  -0.079 162.272  1.00  0.00    -0.347 OA
HETATM    5  C11 UNL     1      29.999  -0.218 160.922  1.00  0.00     0.178 C 
HETATM    6  C16 UNL     1      30.251  -1.661 160.520  1.00  0.00     0.186 C 
ENDROOT
BRANCH   3   7
HETATM    7  O2  UNL     1      30.505  -0.422 164.343  1.00  0.00    -0.326 OA
BRANCH   7   8
HETATM    8  C5  UNL     1      29.640  -1.152 165.091  1.00  0.00     0.294 C 
HETATM    9  O3  UNL     1      30.197  -1.726 166.224  1.00  0.00    -0.351 OA
HETATM   10  C6  UNL     1      29.366  -2.659 166.796  1.00  0.00     0.152 C 
HETATM   11  C7  UNL     1      29.451  -4.012 166.134  1.00  0.00     0.042 C 
HETATM   12  C8  UNL     1      27.913  -2.176 166.860  1.00  0.00     0.178 C 
HETATM   13  C9  UNL     1      27.984  -0.661 166.887  1.00  0.00     0.183 C 
HETATM   14  C10 UNL     1      28.516  -0.235 165.532  1.00  0.00     0.204 C 
BRANCH  12  15
HETATM   15  O4  UNL     1      27.273  -2.667 167.969  1.00  0.00    -0.390 OA
ATOM     16  H4  UNL     1      27.493  -2.166 168.744  1.00  0.00     0.210 HD
ENDBRANCH  12  15
BRANCH  13  17
HETATM   17  O5  UNL     1      26.760  -0.081 167.140  1.00  0.00    -0.390 OA
ATOM     18  H5  UNL     1      26.812   0.866 167.198  1.00  0.00     0.210 HD
ENDBRANCH  13  17
BRANCH  14  19
HETATM   19  O6  UNL     1      27.501  -0.359 164.579  1.00  0.00    -0.388 OA
ATOM     20  H6  UNL     1      27.304   0.520 164.275  1.00  0.00     0.210 HD
ENDBRANCH  14  19
ENDBRANCH   7   8
ENDBRANCH   3   7
BRANCH   2  21
HETATM   21  O1  UNL     1      31.391  -3.142 163.093  1.00  0.00    -0.388 OA
ATOM     22  H1  UNL     1      31.587  -3.278 164.013  1.00  0.00     0.210 HD
ENDBRANCH   2  21
BRANCH   1  23
HETATM   23  N1  UNL     1      29.584  -3.889 161.223  1.00  0.00    -0.070 N 
HETATM   24  C1  UNL     1      28.385  -4.508 161.756  1.00  0.00     0.267 C 
ATOM     25  H12 UNL     1      30.431  -4.386 161.497  1.00  0.00     0.277 HD
ATOM     26  H11 UNL     1      29.667  -4.010 160.214  1.00  0.00     0.277 HD
ENDBRANCH   1  23
BRANCH   5  27
HETATM   27  C12 UNL     1      28.765   0.257 160.209  1.00  0.00     0.009 C 
HETATM   28  C13 UNL     1      28.828   0.793 159.005  1.00  0.00    -0.089 C 
HETATM   29  C14 UNL     1      27.578   1.243 158.352  1.00  0.00     0.042 C 
HETATM   30  C15 UNL     1      30.128   0.940 158.322  1.00  0.00     0.042 C 
ENDBRANCH   5  27
BRANCH   6  31
HETATM   31  O8  UNL     1      31.596  -1.922 160.406  1.00  0.00    -0.386 OA
HETATM   32  C17 UNL     1      31.965  -2.243 159.099  1.00  0.00     0.202 C 
ENDBRANCH   6  31
TORSDOF 9
ENDMDL
MODEL 4
REMARK VINA RESULT: -6.277148789      2.416      3.464
REMARK  9 active torsions:
REMARK  status: ('A' for Active; 'I' for Inactive)
REMARK    1  A    between atoms: N1_2  and  C2_5 
REMARK    2  A    between atoms: C3_6  and  O1_7 
REMARK    3  A    between atoms: C4_9  and  O2_10 
REMARK    4  A    between atoms: O2_10  and  C5_11 
REMARK    5  A    between atoms: C8_15  and  O4_16 
REMARK    6  A    between atoms: C9_18  and  O5_19 
REMARK    7  A    between atoms: C10_21  and  O6_22 
REMARK    8  A    between atoms: C11_25  and  C12_26 
REMARK    9  A    between atoms: C16_30  and  O8_31 
ROOT
HETATM    1  C2  UNL     1      30.168   0.474 168.024  1.00  0.00     0.250 C 
HETATM    2  C3  UNL     1      29.319  -0.093 166.898  1.00  0.00     0.206 C 
HETATM    3  C4  UNL     1      30.010   0.172 165.577  1.00  0.00     0.294 C 
HETATM    4  O7  UNL     1      31.403   0.221 165.830  1.00  0.00    -0.347 OA
HETATM    5  C11 UNL     1      31.778   1.389 166.452  1.00  0.00     0.178 C 
HETATM    6  C16 UNL     1      30.843   1.768 167.587  1.00  0.00     0.186 C 
ENDROOT
BRANCH   3   7
HETATM    7  O2  UNL     1      29.816  -0.917 164.767  1.00  0.00    -0.326 OA
BRANCH   7   8
HETATM    8  C5  UNL     1      29.033  -1.911 165.255  1.00  0.00     0.294 C 
HETATM    9  O3  UNL     1      27.767  -1.978 164.694  1.00  0.00    -0.351 OA
HETATM   10  C6  UNL     1      26.932  -2.815 165.395  1.00  0.00     0.152 C 
HETATM   11  C7  UNL     1      26.305  -2.154 166.597  1.00  0.00     0.042 C 
HETATM   12  C8  UNL     1      27.625  -4.122 165.793  1.00  0.00     0.178 C 
HETATM   13  C9  UNL     1      28.721  -4.335 164.768  1.00  0.00     0.183 C 
HETATM   14  C10 UNL     1      29.735  -3.229 164.992  1.00  0.00     0.204 C 
BRANCH  12  15
HETATM   15  O4  UNL     1      26.741  -5.171 165.807  1.00  0.00    -0.390 OA
ATOM     16  H4  UNL     1      26.984  -5.818 166.458  1.00  0.00     0.210 HD
ENDBRANCH  12  15
BRANCH  13  17
HETATM   17  O5  UNL     1      29.313  -5.575 164.879  1.00  0.00    -0.390 OA
ATOM     18  H5  UNL     1      30.130  -5.545 165.363  1.00  0.00     0.210 HD
ENDBRANCH  13  17
BRANCH  14  19
HETATM   19  O6  UNL     1      30.487  -3.518 166.134  1.00  0.00    -0.388 OA
ATOM     20  H6  UNL     1      31.191  -2.881 166.165  1.00  0.00     0.210 HD
ENDBRANCH  14  19
ENDBRANCH   7   8
ENDBRANCH   3   7
BRANCH   2  21
HETATM   21  O1  UNL     1      28.028   0.439 166.937  1.00  0.00    -0.388 OA
ATOM     22  H1  UNL     1      27.976   1.231 166.414  1.00  0.00     0.210 HD
ENDBRANCH   2  21
BRANCH   1  23
HETATM   23  N1  UNL     1      29.439   0.665 169.235  1.00  0.00    -0.070 N 
HETATM   24  C1  UNL     1      29.359  -0.597 169.946  1.00  0.00     0.267 C 
ATOM     25  H12 UNL     1      28.520   1.077 169.073  1.00  0.00     0.277 HD
ATOM     26  H11 UNL     1      29.831   1.410 169.810  1.00  0.00     0.277 HD
ENDBRANCH   1  23
BRANCH   5  27
HETATM   27  C12 UNL     1      33.148   1.172 167.028  1.00  0.00     0.009 C 
HETATM   28  C13 UNL     1      34.217   1.732 166.493  1.00  0.00    -0.089 C 
HETATM   29  C14 UNL     1      35.542   1.482 167.105  1.00  0.00     0.042 C 
HETATM   30  C15 UNL     1      34.089   2.595 165.303  1.00  0.00     0.042 C 
ENDBRANCH   5  27
BRANCH   6  31
HETATM   31  O8  UNL     1      29.918   2.702 167.183  1.00  0.00    -0.386 OA
HETATM   32  C17 UNL     1      29.957   3.859 167.961  1.00  0.00     0.202 C 
ENDBRANCH   6  31
TORSDOF 9
ENDMDL
MODEL 5
REMARK VINA RESULT: -6.141253169      3.296      7.292
REMARK  9 active torsions:
REMARK  status: ('A' for Active; 'I' for Inactive)
REMARK    1  A    between atoms: N1_2  and  C2_5 
REMARK    2  A    between atoms: C3_6  and  O1_7 
REMARK    3  A    between atoms: C4_9  and  O2_10 
REMARK    4  A    between atoms: O2_10  and  C5_11 
REMARK    5  A    between atoms: C8_15  and  O4_16 
REMARK    6  A    between atoms: C9_18  and  O5_19 
REMARK    7  A    between atoms: C10_21  and  O6_22 
REMARK    8  A    between atoms: C11_25  and  C12_26 
REMARK    9  A    between atoms: C16_30  and  O8_31 
ROOT
HETATM    1  C2  UNL     1      30.148   0.260 165.948  1.00  0.00     0.250 C 
HETATM    2  C3  UNL     1      29.742  -0.987 166.714  1.00  0.00     0.206 C 
HETATM    3  C4  UNL     1      29.786  -0.690 168.199  1.00  0.00     0.294 C 
HETATM    4  O7  UNL     1      29.527   0.693 168.362  1.00  0.00    -0.347 OA
HETATM    5  C11 UNL     1      30.604   1.469 168.004  1.00  0.00     0.178 C 
HETATM    6  C16 UNL     1      31.235   1.021 166.697  1.00  0.00     0.186 C 
ENDROOT
BRANCH   3   7
HETATM    7  O2  UNL     1      28.737  -1.339 168.796  1.00  0.00    -0.326 OA
BRANCH   7   8
HETATM    8  C5  UNL     1      28.829  -1.550 170.133  1.00  0.00     0.294 C 
HETATM    9  O3  UNL     1      27.828  -0.951 170.883  1.00  0.00    -0.351 OA
HETATM   10  C6  UNL     1      28.107  -0.967 172.229  1.00  0.00     0.152 C 
HETATM   11  C7  UNL     1      29.023   0.152 172.657  1.00  0.00     0.042 C 
HETATM   12  C8  UNL     1      28.653  -2.323 172.689  1.00  0.00     0.178 C 
HETATM   13  C9  UNL     1      28.107  -3.342 171.708  1.00  0.00     0.183 C 
HETATM   14  C10 UNL     1      28.767  -3.045 170.374  1.00  0.00     0.204 C 
BRANCH  12  15
HETATM   15  O4  UNL     1      28.266  -2.606 173.974  1.00  0.00    -0.390 OA
ATOM     16  H4  UNL     1      27.741  -1.904 174.338  1.00  0.00     0.210 HD
ENDBRANCH  12  15
BRANCH  13  17
HETATM   17  O5  UNL     1      28.354  -4.639 172.102  1.00  0.00    -0.390 OA
ATOM     18  H5  UNL     1      27.728  -5.254 171.739  1.00  0.00     0.210 HD
ENDBRANCH  13  17
BRANCH  14  19
HETATM   19  O6  UNL     1      30.087  -3.502 170.403  1.00  0.00    -0.388 OA
ATOM     20  H6  UNL     1      30.595  -2.902 169.868  1.00  0.00     0.210 HD
ENDBRANCH  14  19
ENDBRANCH   7   8
ENDBRANCH   3   7
BRANCH   2  21
HETATM   21  O1  UNL     1      30.556  -2.068 166.366  1.00  0.00    -0.388 OA
ATOM     22  H1  UNL     1      31.262  -1.786 165.795  1.00  0.00     0.210 HD
ENDBRANCH   2  21
BRANCH   1  23
HETATM   23  N1  UNL     1      30.552  -0.012 164.607  1.00  0.00    -0.070 N 
HETATM   24  C1  UNL     1      29.372  -0.159 163.775  1.00  0.00     0.267 C 
ATOM     25  H12 UNL     1      31.173  -0.819 164.545  1.00  0.00     0.277 HD
ATOM     26  H11 UNL     1      31.195   0.692 164.245  1.00  0.00     0.277 HD
ENDBRANCH   1  23
BRANCH   5  27
HETATM   27  C12 UNL     1      30.106   2.875 167.824  1.00  0.00     0.009 C 
HETATM   28  C13 UNL     1      30.178   3.762 168.799  1.00  0.00    -0.089 C 
HETATM   29  C14 UNL     1      29.671   5.133 168.563  1.00  0.00     0.042 C 
HETATM   30  C15 UNL     1      30.758   3.389 170.104  1.00  0.00     0.042 C 
ENDBRANCH   5  27
BRANCH   6  31
HETATM   31  O8  UNL     1      32.337   0.229 166.918  1.00  0.00    -0.386 OA
HETATM   32  C17 UNL     1      33.520   0.967 166.970  1.00  0.00     0.202 C 
ENDBRANCH   6  31
TORSDOF 9
ENDMDL
