MODEL 1
REMARK VINA RESULT: -6.461125556      0.000      0.000
REMARK  10 active torsions:
REMARK  status: ('A' for Active; 'I' for Inactive)
REMARK    1  A    between atoms: O1_2  and  C2_3 
REMARK    2  A    between atoms: C3_5  and  C4_6 
REMARK    3  A    between atoms: C4_6  and  O3_7 
REMARK    4  A    between atoms: O3_7  and  S1_8 
REMARK    5  A    between atoms: S1_8  and  N1_9 
REMARK    6  A    between atoms: C5_14  and  O6_15 
REMARK    7  A    between atoms: O6_15  and  C6_16 
REMARK       I    between atoms: C6_16  and  N2_18 
REMARK    8  A    between atoms: N2_18  and  C7_20 
REMARK    9  A    between atoms: C11_24  and  O8_25 
REMARK   10  A    between atoms: C12_27  and  O9_28 
ROOT
HETATM    1  C2  UNL     1      30.196  -1.640 167.177  1.00  0.00     0.290 C 
HETATM    2  O2  UNL     1      31.207  -0.791 167.531  1.00  0.00    -0.348 OA
HETATM    3  C3  UNL     1      31.247   0.296 166.673  1.00  0.00     0.182 C 
HETATM    4  C5  UNL     1      29.929   1.015 166.542  1.00  0.00     0.196 C 
HETATM    5  C11 UNL     1      29.005   0.090 165.782  1.00  0.00     0.183 C 
HETATM    6  C12 UNL     1      29.528  -1.329 165.853  1.00  0.00     0.204 C 
ENDROOT
BRANCH   4   7
HETATM    7  O6  UNL     1      29.410   1.523 167.709  1.00  0.00    -0.293 OA
BRANCH   7   8
HETATM    8  C6  UNL     1      29.810   2.649 168.395  1.00  0.00     0.361 C 
HETATM    9  O7  UNL     1      29.907   3.686 167.701  1.00  0.00    -0.238 OA
HETATM   10  N2  UNL     1      30.078   2.571 169.786  1.00  0.00    -0.329 N 
ATOM     11  H2  UNL     1      29.968   1.674 170.257  1.00  0.00     0.165 HD
BRANCH  10  12
HETATM   12  C7  UNL     1      30.502   3.721 170.564  1.00  0.00     0.024 C 
HETATM   13  C8  UNL     1      31.987   3.924 170.328  1.00  0.00     0.037 C 
HETATM   14  C9  UNL     1      29.809   4.983 170.106  1.00  0.00     0.037 C 
HETATM   15  C10 UNL     1      30.198   3.543 172.030  1.00  0.00     0.037 C 
ENDBRANCH  10  12
ENDBRANCH   7   8
ENDBRANCH   4   7
BRANCH   3  16
HETATM   16  C4  UNL     1      32.391   1.234 166.984  1.00  0.00     0.226 C 
BRANCH  16  17
HETATM   17  O3  UNL     1      33.573   0.567 166.744  1.00  0.00    -0.257 OA
BRANCH  17  18
HETATM   18  S1  UNL     1      34.572   1.597 165.855  1.00  0.00     0.355 S 
HETATM   19  O4  UNL     1      33.818   2.710 165.230  1.00  0.00    -0.176 OA
HETATM   20  O5  UNL     1      35.353   0.844 164.823  1.00  0.00    -0.176 OA
BRANCH  18  21
HETATM   21  N1  UNL     1      35.687   2.300 167.001  1.00  0.00    -0.306 N 
ATOM     22  H12 UNL     1      35.473   3.034 167.677  1.00  0.00     0.171 HD
ATOM     23  H11 UNL     1      36.580   1.830 166.854  1.00  0.00     0.171 HD
ENDBRANCH  18  21
ENDBRANCH  17  18
ENDBRANCH  16  17
ENDBRANCH   3  16
BRANCH   5  24
HETATM   24  O8  UNL     1      27.713   0.088 166.282  1.00  0.00    -0.390 OA
ATOM     25  H8  UNL     1      27.105   0.580 165.742  1.00  0.00     0.210 HD
ENDBRANCH   5  24
BRANCH   6  26
HETATM   26  O9  UNL     1      28.427  -2.189 165.655  1.00  0.00    -0.388 OA
ATOM     27  H9  UNL     1      28.065  -2.058 164.787  1.00  0.00     0.210 HD
ENDBRANCH   6  26
BRANCH   1  28
HETATM   28  O1  UNL     1      29.254  -1.842 168.164  1.00  0.00    -0.363 OA
HETATM   29  C1  UNL     1      29.797  -2.647 169.154  1.00  0.00     0.204 C 
ENDBRANCH   1  28
TORSDOF 10
ENDMDL
MODEL 2
REMARK VINA RESULT: -6.351060268      2.791      5.232
REMARK  10 active torsions:
REMARK  status: ('A' for Active; 'I' for Inactive)
REMARK    1  A    between atoms: O1_2  and  C2_3 
REMARK    2  A    between atoms: C3_5  and  C4_6 
REMARK    3  A    between atoms: C4_6  and  O3_7 
REMARK    4  A    between atoms: O3_7  and  S1_8 
REMARK    5  A    between atoms: S1_8  and  N1_9 
REMARK    6  A    between atoms: C5_14  and  O6_15 
REMARK    7  A    between atoms: O6_15  and  C6_16 
REMARK       I    between atoms: C6_16  and  N2_18 
REMARK    8  A    between atoms: N2_18  and  C7_20 
REMARK    9  A    between atoms: C11_24  and  O8_25 
REMARK   10  A    between atoms: C12_27  and  O9_28 
ROOT
HETATM    1  C2  UNL     1      32.106   1.635 166.068  1.00  0.00     0.290 C 
HETATM    2  O2  UNL     1      31.645   2.485 167.034  1.00  0.00    -0.348 OA
HETATM    3  C3  UNL     1      30.269   2.383 167.150  1.00  0.00     0.182 C 
HETATM    4  C5  UNL     1      29.780   0.974 167.363  1.00  0.00     0.196 C 
HETATM    5  C11 UNL     1      30.009   0.236 166.064  1.00  0.00     0.183 C 
HETATM    6  C12 UNL     1      31.032   0.973 165.228  1.00  0.00     0.204 C 
ENDROOT
BRANCH   4   7
HETATM    7  O6  UNL     1      30.264   0.340 168.483  1.00  0.00    -0.293 OA
BRANCH   7   8
HETATM    8  C6  UNL     1      29.579  -0.474 169.358  1.00  0.00     0.361 C 
HETATM    9  O7  UNL     1      29.531  -0.062 170.539  1.00  0.00    -0.238 OA
HETATM   10  N2  UNL     1      28.994  -1.679 168.891  1.00  0.00    -0.329 N 
ATOM     11  H2  UNL     1      29.092  -1.923 167.906  1.00  0.00     0.165 HD
BRANCH  10  12
HETATM   12  C7  UNL     1      28.260  -2.579 169.762  1.00  0.00     0.024 C 
HETATM   13  C8  UNL     1      27.784  -3.754 168.927  1.00  0.00     0.037 C 
HETATM   14  C9  UNL     1      29.147  -3.143 170.846  1.00  0.00     0.037 C 
HETATM   15  C10 UNL     1      27.106  -1.883 170.437  1.00  0.00     0.037 C 
ENDBRANCH  10  12
ENDBRANCH   7   8
ENDBRANCH   4   7
BRANCH   3  16
HETATM   16  C4  UNL     1      29.702   3.353 168.163  1.00  0.00     0.226 C 
BRANCH  16  17
HETATM   17  O3  UNL     1      30.722   4.173 168.592  1.00  0.00    -0.257 OA
BRANCH  17  18
HETATM   18  S1  UNL     1      30.692   4.188 170.280  1.00  0.00     0.355 S 
HETATM   19  O4  UNL     1      29.919   5.332 170.818  1.00  0.00    -0.176 OA
HETATM   20  O5  UNL     1      32.077   4.172 170.851  1.00  0.00    -0.176 OA
BRANCH  18  21
HETATM   21  N1  UNL     1      29.868   2.726 170.764  1.00  0.00    -0.306 N 
ATOM     22  H12 UNL     1      29.041   2.670 171.358  1.00  0.00     0.171 HD
ATOM     23  H11 UNL     1      30.381   1.956 170.335  1.00  0.00     0.171 HD
ENDBRANCH  18  21
ENDBRANCH  17  18
ENDBRANCH  16  17
ENDBRANCH   3  16
BRANCH   5  24
HETATM   24  O8  UNL     1      30.472  -1.057 166.251  1.00  0.00    -0.390 OA
ATOM     25  H8  UNL     1      31.405  -1.143 166.095  1.00  0.00     0.210 HD
ENDBRANCH   5  24
BRANCH   6  26
HETATM   26  O9  UNL     1      31.617   0.030 164.356  1.00  0.00    -0.388 OA
ATOM     27  H9  UNL     1      32.512  -0.143 164.620  1.00  0.00     0.210 HD
ENDBRANCH   6  26
BRANCH   1  28
HETATM   28  O1  UNL     1      33.016   0.703 166.522  1.00  0.00    -0.363 OA
HETATM   29  C1  UNL     1      34.110   1.360 167.062  1.00  0.00     0.204 C 
ENDBRANCH   1  28
TORSDOF 10
ENDMDL
MODEL 3
REMARK VINA RESULT: -6.340852891      6.143      9.632
REMARK  10 active torsions:
REMARK  status: ('A' for Active; 'I' for Inactive)
REMARK    1  A    between atoms: O1_2  and  C2_3 
REMARK    2  A    between atoms: C3_5  and  C4_6 
REMARK    3  A    between atoms: C4_6  and  O3_7 
REMARK    4  A    between atoms: O3_7  and  S1_8 
REMARK    5  A    between atoms: S1_8  and  N1_9 
REMARK    6  A    between atoms: C5_14  and  O6_15 
REMARK    7  A    between atoms: O6_15  and  C6_16 
REMARK       I    between atoms: C6_16  and  N2_18 
REMARK    8  A    between atoms: N2_18  and  C7_20 
REMARK    9  A    between atoms: C11_24  and  O8_25 
REMARK   10  A    between atoms: C12_27  and  O9_28 
ROOT
HETATM    1  C2  UNL     1      29.189   7.946 175.544  1.00  0.00     0.290 C 
HETATM    2  O2  UNL     1      29.683   6.794 176.089  1.00  0.00    -0.348 OA
HETATM    3  C3  UNL     1      28.973   5.698 175.627  1.00  0.00     0.182 C 
HETATM    4  C5  UNL     1      28.889   5.618 174.125  1.00  0.00     0.196 C 
HETATM    5  C11 UNL     1      27.986   6.746 173.681  1.00  0.00     0.183 C 
HETATM    6  C12 UNL     1      27.893   7.789 174.774  1.00  0.00     0.204 C 
ENDROOT
BRANCH   4   7
HETATM    7  O6  UNL     1      30.093   5.545 173.466  1.00  0.00    -0.293 OA
BRANCH   7   8
HETATM    8  C6  UNL     1      30.474   4.644 172.495  1.00  0.00     0.361 C 
HETATM    9  O7  UNL     1      31.137   3.666 172.909  1.00  0.00    -0.238 OA
HETATM   10  N2  UNL     1      30.110   4.867 171.142  1.00  0.00    -0.329 N 
ATOM     11  H2  UNL     1      29.568   5.699 170.911  1.00  0.00     0.165 HD
BRANCH  10  12
HETATM   12  C7  UNL     1      30.480   3.957 170.075  1.00  0.00     0.024 C 
HETATM   13  C8  UNL     1      29.950   4.524 168.771  1.00  0.00     0.037 C 
HETATM   14  C9  UNL     1      31.981   3.858 169.930  1.00  0.00     0.037 C 
HETATM   15  C10 UNL     1      29.956   2.565 170.322  1.00  0.00     0.037 C 
ENDBRANCH  10  12
ENDBRANCH   7   8
ENDBRANCH   4   7
BRANCH   3  16
HETATM   16  C4  UNL     1      29.440   4.403 176.253  1.00  0.00     0.226 C 
BRANCH  16  17
HETATM   17  O3  UNL     1      28.528   3.420 175.939  1.00  0.00    -0.257 OA
BRANCH  17  18
HETATM   18  S1  UNL     1      29.392   2.010 175.598  1.00  0.00     0.355 S 
HETATM   19  O4  UNL     1      28.919   0.854 176.397  1.00  0.00    -0.176 OA
HETATM   20  O5  UNL     1      30.864   2.213 175.783  1.00  0.00    -0.176 OA
BRANCH  18  21
HETATM   21  N1  UNL     1      29.082   1.645 173.918  1.00  0.00    -0.306 N 
ATOM     22  H12 UNL     1      28.357   1.022 173.561  1.00  0.00     0.171 HD
ATOM     23  H11 UNL     1      29.766   2.177 173.381  1.00  0.00     0.171 HD
ENDBRANCH  18  21
ENDBRANCH  17  18
ENDBRANCH  16  17
ENDBRANCH   3  16
BRANCH   5  24
HETATM   24  O8  UNL     1      28.437   7.379 172.533  1.00  0.00    -0.390 OA
ATOM     25  H8  UNL     1      27.873   7.232 171.783  1.00  0.00     0.210 HD
ENDBRANCH   5  24
BRANCH   6  26
HETATM   26  O9  UNL     1      27.549   9.011 174.156  1.00  0.00    -0.388 OA
ATOM     27  H9  UNL     1      26.618   9.030 173.973  1.00  0.00     0.210 HD
ENDBRANCH   6  26
BRANCH   1  28
HETATM   28  O1  UNL     1      30.109   8.666 174.811  1.00  0.00    -0.363 OA
HETATM   29  C1  UNL     1      31.384   8.384 175.277  1.00  0.00     0.204 C 
ENDBRANCH   1  28
TORSDOF 10
ENDMDL
MODEL 4
REMARK VINA RESULT: -6.189797448      2.541      5.522
REMARK  10 active torsions:
REMARK  status: ('A' for Active; 'I' for Inactive)
REMARK    1  A    between atoms: O1_2  and  C2_3 
REMARK    2  A    between atoms: C3_5  and  C4_6 
REMARK    3  A    between atoms: C4_6  and  O3_7 
REMARK    4  A    between atoms: O3_7  and  S1_8 
REMARK    5  A    between atoms: S1_8  and  N1_9 
REMARK    6  A    between atoms: C5_14  and  O6_15 
REMARK    7  A    between atoms: O6_15  and  C6_16 
REMARK       I    between atoms: C6_16  and  N2_18 
REMARK    8  A    between atoms: N2_18  and  C7_20 
REMARK    9  A    between atoms: C11_24  and  O8_25 
REMARK   10  A    between atoms: C12_27  and  O9_28 
ROOT
HETATM    1  C2  UNL     1      30.731   2.809 167.951  1.00  0.00     0.290 C 
HETATM    2  O2  UNL     1      31.461   2.644 166.807  1.00  0.00    -0.348 OA
HETATM    3  C3  UNL     1      31.780   1.308 166.626  1.00  0.00     0.182 C 
HETATM    4  C5  UNL     1      30.588   0.388 166.669  1.00  0.00     0.196 C 
HETATM    5  C11 UNL     1      30.106   0.372 168.101  1.00  0.00     0.183 C 
HETATM    6  C12 UNL     1      30.638   1.583 168.836  1.00  0.00     0.204 C 
ENDROOT
BRANCH   4   7
HETATM    7  O6  UNL     1      29.613   0.634 165.731  1.00  0.00    -0.293 OA
BRANCH   7   8
HETATM    8  C6  UNL     1      29.321  -0.097 164.601  1.00  0.00     0.361 C 
HETATM    9  O7  UNL     1      28.889  -1.252 164.813  1.00  0.00    -0.238 OA
HETATM   10  N2  UNL     1      29.518   0.476 163.318  1.00  0.00    -0.329 N 
ATOM     11  H2  UNL     1      29.876   1.429 163.256  1.00  0.00     0.165 HD
BRANCH  10  12
HETATM   12  C7  UNL     1      29.229  -0.241 162.090  1.00  0.00     0.024 C 
HETATM   13  C8  UNL     1      27.725  -0.418 161.994  1.00  0.00     0.037 C 
HETATM   14  C9  UNL     1      29.656   0.549 160.876  1.00  0.00     0.037 C 
HETATM   15  C10 UNL     1      29.942  -1.569 162.040  1.00  0.00     0.037 C 
ENDBRANCH  10  12
ENDBRANCH   7   8
ENDBRANCH   4   7
BRANCH   3  16
HETATM   16  C4  UNL     1      32.645   1.082 165.406  1.00  0.00     0.226 C 
BRANCH  16  17
HETATM   17  O3  UNL     1      33.294   2.261 165.113  1.00  0.00    -0.257 OA
BRANCH  17  18
HETATM   18  S1  UNL     1      34.951   1.937 165.069  1.00  0.00     0.355 S 
HETATM   19  O4  UNL     1      35.651   2.731 164.032  1.00  0.00    -0.176 OA
HETATM   20  O5  UNL     1      35.216   0.475 164.884  1.00  0.00    -0.176 OA
BRANCH  18  21
HETATM   21  N1  UNL     1      35.584   2.431 166.620  1.00  0.00    -0.306 N 
ATOM     22  H12 UNL     1      35.088   2.975 167.327  1.00  0.00     0.171 HD
ATOM     23  H11 UNL     1      36.535   2.068 166.667  1.00  0.00     0.171 HD
ENDBRANCH  18  21
ENDBRANCH  17  18
ENDBRANCH  16  17
ENDBRANCH   3  16
BRANCH   5  24
HETATM   24  O8  UNL     1      28.724   0.389 168.206  1.00  0.00    -0.390 OA
ATOM     25  H8  UNL     1      28.416   0.859 168.972  1.00  0.00     0.210 HD
ENDBRANCH   5  24
BRANCH   6  26
HETATM   26  O9  UNL     1      29.763   1.834 169.914  1.00  0.00    -0.388 OA
ATOM     27  H9  UNL     1      29.319   1.033 170.165  1.00  0.00     0.210 HD
ENDBRANCH   6  26
BRANCH   1  28
HETATM   28  O1  UNL     1      29.485   3.365 167.751  1.00  0.00    -0.363 OA
HETATM   29  C1  UNL     1      29.523   4.706 168.099  1.00  0.00     0.204 C 
ENDBRANCH   1  28
TORSDOF 10
ENDMDL
MODEL 5
REMARK VINA RESULT: -6.157653586      7.519     10.397
REMARK  10 active torsions:
REMARK  status: ('A' for Active; 'I' for Inactive)
REMARK    1  A    between atoms: O1_2  and  C2_3 
REMARK    2  A    between atoms: C3_5  and  C4_6 
REMARK    3  A    between atoms: C4_6  and  O3_7 
REMARK    4  A    between atoms: O3_7  and  S1_8 
REMARK    5  A    between atoms: S1_8  and  N1_9 
REMARK    6  A    between atoms: C5_14  and  O6_15 
REMARK    7  A    between atoms: O6_15  and  C6_16 
REMARK       I    between atoms: C6_16  and  N2_18 
REMARK    8  A    between atoms: N2_18  and  C7_20 
REMARK    9  A    between atoms: C11_24  and  O8_25 
REMARK   10  A    between atoms: C12_27  and  O9_28 
ROOT
HETATM    1  C2  UNL     1      29.584   3.579 174.751  1.00  0.00     0.290 C 
HETATM    2  O2  UNL     1      28.974   4.788 174.935  1.00  0.00    -0.348 OA
HETATM    3  C3  UNL     1      29.329   5.326 176.160  1.00  0.00     0.182 C 
HETATM    4  C5  UNL     1      30.817   5.409 176.378  1.00  0.00     0.196 C 
HETATM    5  C11 UNL     1      31.311   3.989 176.540  1.00  0.00     0.183 C 
HETATM    6  C12 UNL     1      30.295   3.025 175.968  1.00  0.00     0.204 C 
ENDROOT
BRANCH   4   7
HETATM    7  O6  UNL     1      31.511   6.164 175.462  1.00  0.00    -0.293 OA
BRANCH   7   8
HETATM    8  C6  UNL     1      32.352   7.228 175.704  1.00  0.00     0.361 C 
HETATM    9  O7  UNL     1      32.287   8.156 174.866  1.00  0.00    -0.238 OA
HETATM   10  N2  UNL     1      33.205   7.212 176.837  1.00  0.00    -0.329 N 
ATOM     11  H2  UNL     1      33.180   6.404 177.458  1.00  0.00     0.165 HD
BRANCH  10  12
HETATM   12  C7  UNL     1      34.111   8.302 177.146  1.00  0.00     0.024 C 
HETATM   13  C8  UNL     1      34.968   7.878 178.325  1.00  0.00     0.037 C 
HETATM   14  C9  UNL     1      35.053   8.579 175.998  1.00  0.00     0.037 C 
HETATM   15  C10 UNL     1      33.367   9.580 177.441  1.00  0.00     0.037 C 
ENDBRANCH  10  12
ENDBRANCH   7   8
ENDBRANCH   4   7
BRANCH   3  16
HETATM   16  C4  UNL     1      28.628   6.636 176.440  1.00  0.00     0.226 C 
BRANCH  16  17
HETATM   17  O3  UNL     1      27.792   6.913 175.380  1.00  0.00    -0.257 OA
BRANCH  17  18
HETATM   18  S1  UNL     1      28.464   8.201 174.520  1.00  0.00     0.355 S 
HETATM   19  O4  UNL     1      29.220   9.128 175.396  1.00  0.00    -0.176 OA
HETATM   20  O5  UNL     1      27.420   8.943 173.743  1.00  0.00    -0.176 OA
BRANCH  18  21
HETATM   21  N1  UNL     1      29.604   7.496 173.400  1.00  0.00    -0.306 N 
ATOM     22  H12 UNL     1      29.463   6.647 172.853  1.00  0.00     0.171 HD
ATOM     23  H11 UNL     1      30.424   8.102 173.410  1.00  0.00     0.171 HD
ENDBRANCH  18  21
ENDBRANCH  17  18
ENDBRANCH  16  17
ENDBRANCH   3  16
BRANCH   5  24
HETATM   24  O8  UNL     1      32.517   3.760 175.897  1.00  0.00    -0.390 OA
ATOM     25  H8  UNL     1      33.179   3.390 176.470  1.00  0.00     0.210 HD
ENDBRANCH   5  24
BRANCH   6  26
HETATM   26  O9  UNL     1      30.987   1.844 175.626  1.00  0.00    -0.388 OA
ATOM     27  H9  UNL     1      30.583   1.096 176.050  1.00  0.00     0.210 HD
ENDBRANCH   6  26
BRANCH   1  28
HETATM   28  O1  UNL     1      30.399   3.519 173.639  1.00  0.00    -0.363 OA
HETATM   29  C1  UNL     1      29.707   4.006 172.540  1.00  0.00     0.204 C 
ENDBRANCH   1  28
TORSDOF 10
ENDMDL
