MODEL 1
REMARK VINA RESULT: -6.742344482      0.000      0.000
REMARK  8 active torsions:
REMARK  status: ('A' for Active; 'I' for Inactive)
REMARK    1  A    between atoms: C2_2  and  O1_3 
REMARK    2  A    between atoms: O1_3  and  C3_4 
REMARK    3  A    between atoms: C4_6  and  O3_7 
REMARK    4  A    between atoms: C7_11  and  O4_12 
REMARK    5  A    between atoms: O4_12  and  C8_13 
REMARK    6  A    between atoms: C8_13  and  N2_17 
REMARK    7  A    between atoms: N2_17  and  N3_19 
REMARK       I    between atoms: N3_19  and  C9_21 
REMARK    8  A    between atoms: C12_26  and  N5_27 
ROOT
HETATM    1  C3  UNL     1      29.581  -1.158 165.092  1.00  0.00     0.270 C 
HETATM    2  O2  UNL     1      30.411  -2.104 165.695  1.00  0.00    -0.323 OA
HETATM    3  C4  UNL     1      29.740  -2.943 166.584  1.00  0.00     0.185 C 
HETATM    4  C5  UNL     1      29.964  -2.627 168.017  1.00  0.00     0.073 C 
HETATM    5  C6  UNL     1      29.737  -1.187 168.426  1.00  0.00     0.038 C 
HETATM    6  C7  UNL     1      29.677  -0.234 167.307  1.00  0.00     0.141 C 
HETATM    7  C10 UNL     1      28.705  -0.633 166.205  1.00  0.00     0.073 C 
HETATM    8  C11 UNL     1      27.694  -1.672 166.642  1.00  0.00     0.043 C 
HETATM    9  C12 UNL     1      28.245  -2.994 166.257  1.00  0.00     0.149 C 
ENDROOT
BRANCH   6  10
HETATM   10  O4  UNL     1      29.456   1.078 167.697  1.00  0.00    -0.315 OA
BRANCH  10  11
HETATM   11  C8  UNL     1      30.143   2.228 167.289  1.00  0.00     0.232 C 
HETATM   12  N1  UNL     1      29.772   3.348 167.518  1.00  0.00    -0.364 N 
ATOM     13  H12 UNL     1      28.903   3.468 168.039  1.00  0.00     0.159 HD
ATOM     14  H11 UNL     1      30.273   4.186 167.221  1.00  0.00     0.159 HD
BRANCH  11  15
HETATM   15  N2  UNL     1      31.376   2.057 166.549  1.00  0.00    -0.262 N 
ATOM     16  H2  UNL     1      31.371   2.060 165.528  1.00  0.00     0.190 HD
BRANCH  15  17
HETATM   17  N3  UNL     1      32.552   1.891 167.238  1.00  0.00    -0.251 N 
HETATM   18  C9  UNL     1      33.699   1.302 166.656  1.00  0.00     0.347 C 
HETATM   19  N4  UNL     1      34.894   1.134 167.371  1.00  0.00    -0.038 NA
HETATM   20  O5  UNL     1      33.652   0.908 165.447  1.00  0.00    -0.249 OA
ATOM     21  H3  UNL     1      32.600   2.205 168.206  1.00  0.00     0.191 HD
ENDBRANCH  15  17
ENDBRANCH  11  15
ENDBRANCH  10  11
ENDBRANCH   6  10
BRANCH   1  22
HETATM   22  O1  UNL     1      30.439  -0.070 164.782  1.00  0.00    -0.361 OA
BRANCH  22  23
HETATM   23  C2  UNL     1      30.070   0.468 163.560  1.00  0.00     0.166 C 
HETATM   24  C1  UNL     1      30.033  -0.684 162.570  1.00  0.00     0.033 C 
ENDBRANCH  22  23
ENDBRANCH   1  22
BRANCH   3  25
HETATM   25  O3  UNL     1      30.286  -4.228 166.374  1.00  0.00    -0.364 OA
ATOM     26  H3  UNL     1      30.206  -4.387 165.441  1.00  0.00     0.213 HD
ENDBRANCH   3  25
BRANCH   9  27
HETATM   27  N5  UNL     1      27.611  -4.166 166.679  1.00  0.00    -0.344 N 
HETATM   28  C13 UNL     1      26.639  -4.208 167.790  1.00  0.00     0.146 C 
HETATM   29  C14 UNL     1      27.031  -5.569 168.391  1.00  0.00     0.142 C 
HETATM   30  N6  UNL     1      27.364  -6.309 167.208  1.00  0.00    -0.363 N 
HETATM   31  C15 UNL     1      27.689  -5.503 166.257  1.00  0.00     0.186 C 
ATOM     32  H6  UNL     1      27.346  -7.326 167.131  1.00  0.00     0.162 HD
HETATM   33  N7  UNL     1      28.073  -5.910 164.969  1.00  0.00    -0.064 NA
ENDBRANCH   9  27
TORSDOF 8
ENDMDL
MODEL 2
REMARK VINA RESULT: -6.602527412      2.084      3.566
REMARK  8 active torsions:
REMARK  status: ('A' for Active; 'I' for Inactive)
REMARK    1  A    between atoms: C2_2  and  O1_3 
REMARK    2  A    between atoms: O1_3  and  C3_4 
REMARK    3  A    between atoms: C4_6  and  O3_7 
REMARK    4  A    between atoms: C7_11  and  O4_12 
REMARK    5  A    between atoms: O4_12  and  C8_13 
REMARK    6  A    between atoms: C8_13  and  N2_17 
REMARK    7  A    between atoms: N2_17  and  N3_19 
REMARK       I    between atoms: N3_19  and  C9_21 
REMARK    8  A    between atoms: C12_26  and  N5_27 
ROOT
HETATM    1  C3  UNL     1      29.828   0.568 168.085  1.00  0.00     0.270 C 
HETATM    2  O2  UNL     1      28.589   0.674 167.452  1.00  0.00    -0.323 OA
HETATM    3  C4  UNL     1      28.100  -0.546 166.983  1.00  0.00     0.185 C 
HETATM    4  C5  UNL     1      28.228  -0.736 165.515  1.00  0.00     0.073 C 
HETATM    5  C6  UNL     1      29.602  -0.492 164.928  1.00  0.00     0.038 C 
HETATM    6  C7  UNL     1      30.525   0.237 165.810  1.00  0.00     0.141 C 
HETATM    7  C10 UNL     1      30.643  -0.354 167.208  1.00  0.00     0.073 C 
HETATM    8  C11 UNL     1      30.145  -1.781 167.302  1.00  0.00     0.043 C 
HETATM    9  C12 UNL     1      28.731  -1.712 167.748  1.00  0.00     0.149 C 
ENDROOT
BRANCH   6  10
HETATM   10  O4  UNL     1      31.783   0.442 165.262  1.00  0.00    -0.315 OA
BRANCH  10  11
HETATM   11  C8  UNL     1      32.613   1.561 165.400  1.00  0.00     0.232 C 
HETATM   12  N1  UNL     1      32.230   2.637 165.776  1.00  0.00    -0.364 N 
ATOM     13  H12 UNL     1      31.242   2.741 166.006  1.00  0.00     0.159 HD
ATOM     14  H11 UNL     1      32.835   3.453 165.877  1.00  0.00     0.159 HD
BRANCH  11  15
HETATM   15  N2  UNL     1      34.016   1.413 165.073  1.00  0.00    -0.262 N 
ATOM     16  H2  UNL     1      34.318   0.709 164.399  1.00  0.00     0.190 HD
BRANCH  15  17
HETATM   17  N3  UNL     1      34.934   2.233 165.681  1.00  0.00    -0.251 N 
HETATM   18  C9  UNL     1      35.441   1.979 166.977  1.00  0.00     0.347 C 
HETATM   19  N4  UNL     1      36.376   2.826 167.590  1.00  0.00    -0.038 NA
HETATM   20  O5  UNL     1      35.039   0.953 167.614  1.00  0.00    -0.249 OA
ATOM     21  H3  UNL     1      35.263   3.057 165.179  1.00  0.00     0.191 HD
ENDBRANCH  15  17
ENDBRANCH  11  15
ENDBRANCH  10  11
ENDBRANCH   6  10
BRANCH   1  22
HETATM   22  O1  UNL     1      30.433   1.841 167.909  1.00  0.00    -0.361 OA
BRANCH  22  23
HETATM   23  C2  UNL     1      30.377   2.540 169.104  1.00  0.00     0.166 C 
HETATM   24  C1  UNL     1      30.185   4.004 168.744  1.00  0.00     0.033 C 
ENDBRANCH  22  23
ENDBRANCH   1  22
BRANCH   3  25
HETATM   25  O3  UNL     1      26.716  -0.528 167.259  1.00  0.00    -0.364 OA
ATOM     26  H3  UNL     1      26.385  -1.362 166.949  1.00  0.00     0.213 HD
ENDBRANCH   3  25
BRANCH   9  27
HETATM   27  N5  UNL     1      27.947  -2.869 167.768  1.00  0.00    -0.344 N 
HETATM   28  C13 UNL     1      28.222  -4.049 166.925  1.00  0.00     0.146 C 
HETATM   29  C14 UNL     1      26.771  -4.455 166.611  1.00  0.00     0.142 C 
HETATM   30  N6  UNL     1      26.119  -4.127 167.845  1.00  0.00    -0.363 N 
HETATM   31  C15 UNL     1      26.794  -3.233 168.481  1.00  0.00     0.186 C 
ATOM     32  H6  UNL     1      25.246  -4.542 168.173  1.00  0.00     0.162 HD
HETATM   33  N7  UNL     1      26.422  -2.691 169.722  1.00  0.00    -0.064 NA
ENDBRANCH   9  27
TORSDOF 8
ENDMDL
MODEL 3
REMARK VINA RESULT: -6.559659620      2.774      3.379
REMARK  8 active torsions:
REMARK  status: ('A' for Active; 'I' for Inactive)
REMARK    1  A    between atoms: C2_2  and  O1_3 
REMARK    2  A    between atoms: O1_3  and  C3_4 
REMARK    3  A    between atoms: C4_6  and  O3_7 
REMARK    4  A    between atoms: C7_11  and  O4_12 
REMARK    5  A    between atoms: O4_12  and  C8_13 
REMARK    6  A    between atoms: C8_13  and  N2_17 
REMARK    7  A    between atoms: N2_17  and  N3_19 
REMARK       I    between atoms: N3_19  and  C9_21 
REMARK    8  A    between atoms: C12_26  and  N5_27 
ROOT
HETATM    1  C3  UNL     1      29.174  -2.324 167.641  1.00  0.00     0.270 C 
HETATM    2  O2  UNL     1      29.839  -2.566 168.843  1.00  0.00    -0.323 OA
HETATM    3  C4  UNL     1      29.038  -2.367 169.969  1.00  0.00     0.185 C 
HETATM    4  C5  UNL     1      29.306  -1.101 170.698  1.00  0.00     0.073 C 
HETATM    5  C6  UNL     1      29.314   0.161 169.864  1.00  0.00     0.038 C 
HETATM    6  C7  UNL     1      29.412  -0.063 168.413  1.00  0.00     0.141 C 
HETATM    7  C10 UNL     1      28.391  -1.053 167.869  1.00  0.00     0.073 C 
HETATM    8  C11 UNL     1      27.224  -1.290 168.804  1.00  0.00     0.043 C 
HETATM    9  C12 UNL     1      27.556  -2.492 169.607  1.00  0.00     0.149 C 
ENDROOT
BRANCH   6  10
HETATM   10  O4  UNL     1      29.404   1.103 167.662  1.00  0.00    -0.315 OA
BRANCH  10  11
HETATM   11  C8  UNL     1      30.487   1.735 167.039  1.00  0.00     0.232 C 
HETATM   12  N1  UNL     1      30.591   2.928 166.921  1.00  0.00    -0.364 N 
ATOM     13  H12 UNL     1      29.844   3.513 167.296  1.00  0.00     0.159 HD
ATOM     14  H11 UNL     1      31.380   3.388 166.468  1.00  0.00     0.159 HD
BRANCH  11  15
HETATM   15  N2  UNL     1      31.547   0.904 166.507  1.00  0.00    -0.262 N 
ATOM     16  H2  UNL     1      31.598  -0.086 166.748  1.00  0.00     0.190 HD
BRANCH  15  17
HETATM   17  N3  UNL     1      32.483   1.466 165.675  1.00  0.00    -0.251 N 
HETATM   18  C9  UNL     1      33.861   1.505 165.994  1.00  0.00     0.347 C 
HETATM   19  N4  UNL     1      34.808   2.084 165.137  1.00  0.00    -0.038 NA
HETATM   20  O5  UNL     1      34.261   1.002 167.093  1.00  0.00    -0.249 OA
ATOM     21  H3  UNL     1      32.174   1.870 164.791  1.00  0.00     0.191 HD
ENDBRANCH  15  17
ENDBRANCH  11  15
ENDBRANCH  10  11
ENDBRANCH   6  10
BRANCH   1  22
HETATM   22  O1  UNL     1      30.199  -1.945 166.733  1.00  0.00    -0.361 OA
BRANCH  22  23
HETATM   23  C2  UNL     1      29.804  -2.261 165.443  1.00  0.00     0.166 C 
HETATM   24  C1  UNL     1      29.545  -3.758 165.420  1.00  0.00     0.033 C 
ENDBRANCH  22  23
ENDBRANCH   1  22
BRANCH   3  25
HETATM   25  O3  UNL     1      29.371  -3.412 170.857  1.00  0.00    -0.364 OA
ATOM     26  H3  UNL     1      28.626  -3.496 171.440  1.00  0.00     0.213 HD
ENDBRANCH   3  25
BRANCH   9  27
HETATM   27  N5  UNL     1      26.740  -2.865 170.678  1.00  0.00    -0.344 N 
HETATM   28  C13 UNL     1      25.822  -1.932 171.361  1.00  0.00     0.146 C 
HETATM   29  C14 UNL     1      25.987  -2.454 172.800  1.00  0.00     0.142 C 
HETATM   30  N6  UNL     1      26.134  -3.862 172.569  1.00  0.00    -0.363 N 
HETATM   31  C15 UNL     1      26.560  -4.073 171.371  1.00  0.00     0.186 C 
ATOM     32  H6  UNL     1      25.932  -4.591 173.253  1.00  0.00     0.162 HD
HETATM   33  N7  UNL     1      26.813  -5.345 170.832  1.00  0.00    -0.064 NA
ENDBRANCH   9  27
TORSDOF 8
ENDMDL
MODEL 4
REMARK VINA RESULT: -6.553309356      1.905      3.861
REMARK  8 active torsions:
REMARK  status: ('A' for Active; 'I' for Inactive)
REMARK    1  A    between atoms: C2_2  and  O1_3 
REMARK    2  A    between atoms: O1_3  and  C3_4 
REMARK    3  A    between atoms: C4_6  and  O3_7 
REMARK    4  A    between atoms: C7_11  and  O4_12 
REMARK    5  A    between atoms: O4_12  and  C8_13 
REMARK    6  A    between atoms: C8_13  and  N2_17 
REMARK    7  A    between atoms: N2_17  and  N3_19 
REMARK       I    between atoms: N3_19  and  C9_21 
REMARK    8  A    between atoms: C12_26  and  N5_27 
ROOT
HETATM    1  C3  UNL     1      28.828  -0.642 168.558  1.00  0.00     0.270 C 
HETATM    2  O2  UNL     1      27.680  -0.455 167.787  1.00  0.00    -0.323 OA
HETATM    3  C4  UNL     1      27.418  -1.514 166.917  1.00  0.00     0.185 C 
HETATM    4  C5  UNL     1      27.761  -1.243 165.498  1.00  0.00     0.073 C 
HETATM    5  C6  UNL     1      29.157  -0.720 165.237  1.00  0.00     0.038 C 
HETATM    6  C7  UNL     1      29.855  -0.215 166.429  1.00  0.00     0.141 C 
HETATM    7  C10 UNL     1      29.862  -1.186 167.602  1.00  0.00     0.073 C 
HETATM    8  C11 UNL     1      29.543  -2.612 167.203  1.00  0.00     0.043 C 
HETATM    9  C12 UNL     1      28.086  -2.799 167.412  1.00  0.00     0.149 C 
ENDROOT
BRANCH   6  10
HETATM   10  O4  UNL     1      31.138   0.249 166.176  1.00  0.00    -0.315 OA
BRANCH  10  11
HETATM   11  C8  UNL     1      31.593   1.574 166.182  1.00  0.00     0.232 C 
HETATM   12  N1  UNL     1      32.679   1.911 165.789  1.00  0.00    -0.364 N 
ATOM     13  H12 UNL     1      33.305   1.189 165.433  1.00  0.00     0.159 HD
ATOM     14  H11 UNL     1      33.010   2.876 165.794  1.00  0.00     0.159 HD
BRANCH  11  15
HETATM   15  N2  UNL     1      30.704   2.598 166.689  1.00  0.00    -0.262 N 
ATOM     16  H2  UNL     1      29.956   2.969 166.103  1.00  0.00     0.190 HD
BRANCH  15  17
HETATM   17  N3  UNL     1      30.879   3.062 167.970  1.00  0.00    -0.251 N 
HETATM   18  C9  UNL     1      30.107   4.117 168.510  1.00  0.00     0.347 C 
HETATM   19  N4  UNL     1      30.297   4.585 169.818  1.00  0.00    -0.038 NA
HETATM   20  O5  UNL     1      29.210   4.664 167.791  1.00  0.00    -0.249 OA
ATOM     21  H3  UNL     1      31.594   2.629 168.554  1.00  0.00     0.191 HD
ENDBRANCH  15  17
ENDBRANCH  11  15
ENDBRANCH  10  11
ENDBRANCH   6  10
BRANCH   1  22
HETATM   22  O1  UNL     1      29.282   0.671 168.853  1.00  0.00    -0.361 OA
BRANCH  22  23
HETATM   23  C2  UNL     1      29.667   0.732 170.183  1.00  0.00     0.166 C 
HETATM   24  C1  UNL     1      29.138  -0.528 170.848  1.00  0.00     0.033 C 
ENDBRANCH  22  23
ENDBRANCH   1  22
BRANCH   3  25
HETATM   25  O3  UNL     1      26.018  -1.695 166.957  1.00  0.00    -0.364 OA
ATOM     26  H3  UNL     1      25.821  -1.950 167.850  1.00  0.00     0.213 HD
ENDBRANCH   3  25
BRANCH   9  27
HETATM   27  N5  UNL     1      27.461  -3.969 166.974  1.00  0.00    -0.344 N 
HETATM   28  C13 UNL     1      28.025  -4.847 165.929  1.00  0.00     0.146 C 
HETATM   29  C14 UNL     1      26.713  -5.253 165.234  1.00  0.00     0.142 C 
HETATM   30  N6  UNL     1      25.819  -5.329 166.352  1.00  0.00    -0.363 N 
HETATM   31  C15 UNL     1      26.256  -4.600 167.321  1.00  0.00     0.186 C 
ATOM     32  H6  UNL     1      24.961  -5.881 166.378  1.00  0.00     0.162 HD
HETATM   33  N7  UNL     1      25.608  -4.452 168.558  1.00  0.00    -0.064 NA
ENDBRANCH   9  27
TORSDOF 8
ENDMDL
MODEL 5
REMARK VINA RESULT: -6.537118903      2.512      3.945
REMARK  8 active torsions:
REMARK  status: ('A' for Active; 'I' for Inactive)
REMARK    1  A    between atoms: C2_2  and  O1_3 
REMARK    2  A    between atoms: O1_3  and  C3_4 
REMARK    3  A    between atoms: C4_6  and  O3_7 
REMARK    4  A    between atoms: C7_11  and  O4_12 
REMARK    5  A    between atoms: O4_12  and  C8_13 
REMARK    6  A    between atoms: C8_13  and  N2_17 
REMARK    7  A    between atoms: N2_17  and  N3_19 
REMARK       I    between atoms: N3_19  and  C9_21 
REMARK    8  A    between atoms: C12_26  and  N5_27 
ROOT
HETATM    1  C3  UNL     1      31.193   0.438 166.730  1.00  0.00     0.270 C 
HETATM    2  O2  UNL     1      31.474  -0.763 167.383  1.00  0.00    -0.323 OA
HETATM    3  C4  UNL     1      30.369  -1.608 167.489  1.00  0.00     0.185 C 
HETATM    4  C5  UNL     1      29.750  -1.643 168.838  1.00  0.00     0.073 C 
HETATM    5  C6  UNL     1      29.411  -0.302 169.453  1.00  0.00     0.038 C 
HETATM    6  C7  UNL     1      30.055   0.850 168.805  1.00  0.00     0.141 C 
HETATM    7  C10 UNL     1      29.869   0.895 167.294  1.00  0.00     0.073 C 
HETATM    8  C11 UNL     1      28.734   0.023 166.802  1.00  0.00     0.043 C 
HETATM    9  C12 UNL     1      29.331  -1.279 166.414  1.00  0.00     0.149 C 
ENDROOT
BRANCH   6  10
HETATM   10  O4  UNL     1      29.725   2.072 169.371  1.00  0.00    -0.315 OA
BRANCH  10  11
HETATM   11  C8  UNL     1      30.179   3.344 169.004  1.00  0.00     0.232 C 
HETATM   12  N1  UNL     1      29.982   3.842 167.927  1.00  0.00    -0.364 N 
ATOM     13  H12 UNL     1      29.456   3.304 167.239  1.00  0.00     0.159 HD
ATOM     14  H11 UNL     1      30.313   4.769 167.660  1.00  0.00     0.159 HD
BRANCH  11  15
HETATM   15  N2  UNL     1      30.928   4.108 169.980  1.00  0.00    -0.262 N 
ATOM     16  H2  UNL     1      31.850   3.795 170.285  1.00  0.00     0.190 HD
BRANCH  15  17
HETATM   17  N3  UNL     1      30.381   5.259 170.491  1.00  0.00    -0.251 N 
HETATM   18  C9  UNL     1      29.723   5.299 171.743  1.00  0.00     0.347 C 
HETATM   19  N4  UNL     1      29.165   6.481 172.253  1.00  0.00    -0.038 NA
HETATM   20  O5  UNL     1      29.630   4.234 172.433  1.00  0.00    -0.249 OA
ATOM     21  H3  UNL     1      30.451   6.118 169.947  1.00  0.00     0.191 HD
ENDBRANCH  15  17
ENDBRANCH  11  15
ENDBRANCH  10  11
ENDBRANCH   6  10
BRANCH   1  22
HETATM   22  O1  UNL     1      32.134   1.363 167.255  1.00  0.00    -0.361 OA
BRANCH  22  23
HETATM   23  C2  UNL     1      33.180   1.507 166.358  1.00  0.00     0.166 C 
HETATM   24  C1  UNL     1      34.454   1.590 167.182  1.00  0.00     0.033 C 
ENDBRANCH  22  23
ENDBRANCH   1  22
BRANCH   3  25
HETATM   25  O3  UNL     1      30.865  -2.907 167.248  1.00  0.00    -0.364 OA
ATOM     26  H3  UNL     1      30.569  -3.431 167.983  1.00  0.00     0.213 HD
ENDBRANCH   3  25
BRANCH   9  27
HETATM   27  N5  UNL     1      28.505  -2.354 166.073  1.00  0.00    -0.344 N 
HETATM   28  C13 UNL     1      27.104  -2.474 166.523  1.00  0.00     0.146 C 
HETATM   29  C14 UNL     1      27.059  -3.997 166.740  1.00  0.00     0.142 C 
HETATM   30  N6  UNL     1      27.903  -4.454 165.675  1.00  0.00    -0.363 N 
HETATM   31  C15 UNL     1      28.711  -3.517 165.314  1.00  0.00     0.186 C 
ATOM     32  H6  UNL     1      27.869  -5.387 165.262  1.00  0.00     0.162 HD
HETATM   33  N7  UNL     1      29.671  -3.645 164.298  1.00  0.00    -0.064 NA
ENDBRANCH   9  27
TORSDOF 8
ENDMDL
