MODEL 1
REMARK VINA RESULT: -7.742651017      0.000      0.000
REMARK  11 active torsions:
REMARK  status: ('A' for Active; 'I' for Inactive)
REMARK       I    between atoms: N1_2  and  C2_4 
REMARK    1  A    between atoms: C2_4  and  O2_6 
REMARK    2  A    between atoms: O2_6  and  C3_7 
REMARK    3  A    between atoms: C4_8  and  O3_9 
REMARK    4  A    between atoms: C5_11  and  N2_12 
REMARK    5  A    between atoms: C7_17  and  N3_18 
REMARK    6  A    between atoms: C8_22  and  O4_23 
REMARK    7  A    between atoms: O4_23  and  C9_24 
REMARK    8  A    between atoms: C9_24  and  C10_26 
REMARK    9  A    between atoms: C10_26  and  N4_27 
REMARK   10  A    between atoms: C10_26  and  C11_31 
REMARK   11  A    between atoms: C11_31  and  C12_32 
ROOT
HETATM    1  C3  UNL     1      31.524   1.429 165.765  1.00  0.00     0.196 C 
HETATM    2  C4  UNL     1      30.788   0.629 164.719  1.00  0.00     0.180 C 
HETATM    3  C5  UNL     1      29.875  -0.401 165.315  1.00  0.00     0.216 C 
HETATM    4  C6  UNL     1      30.351  -0.824 166.699  1.00  0.00     0.071 C 
HETATM    5  C7  UNL     1      30.332   0.329 167.677  1.00  0.00     0.217 C 
HETATM    6  C8  UNL     1      30.645   1.631 166.981  1.00  0.00     0.194 C 
ENDROOT
BRANCH   6   7
HETATM    7  O4  UNL     1      31.090   2.637 167.830  1.00  0.00    -0.309 OA
BRANCH   7   8
HETATM    8  C9  UNL     1      30.275   3.526 168.484  1.00  0.00     0.290 C 
HETATM    9  O5  UNL     1      29.421   4.114 167.752  1.00  0.00    -0.263 OA
BRANCH   8  10
HETATM   10  C10 UNL     1      30.372   3.791 169.948  1.00  0.00     0.282 C 
BRANCH  10  11
HETATM   11  N4  UNL     1      31.775   4.003 170.307  1.00  0.00    -0.066 N 
ATOM     12  H43 UNL     1      31.954   3.820 171.295  1.00  0.00     0.275 HD
ATOM     13  H42 UNL     1      32.388   3.287 169.914  1.00  0.00     0.275 HD
ATOM     14  H41 UNL     1      32.054   4.944 170.031  1.00  0.00     0.275 HD
ENDBRANCH  10  11
BRANCH  10  15
HETATM   15  C11 UNL     1      29.895   2.607 170.749  1.00  0.00     0.048 C 
BRANCH  15  16
HETATM   16  C12 UNL     1      30.105   2.854 172.201  1.00  0.00    -0.012 C 
HETATM   17  C13 UNL     1      29.426   1.796 173.066  1.00  0.00     0.005 C 
HETATM   18  C14 UNL     1      29.376   2.253 174.512  1.00  0.00     0.000 C 
HETATM   19  C15 UNL     1      30.413   3.317 174.791  1.00  0.00     0.000 C 
HETATM   20  C16 UNL     1      30.288   4.541 173.949  1.00  0.00     0.000 C 
HETATM   21  C17 UNL     1      29.555   4.170 172.670  1.00  0.00     0.005 C 
ENDBRANCH  15  16
ENDBRANCH  10  15
ENDBRANCH   8  10
ENDBRANCH   7   8
ENDBRANCH   6   7
BRANCH   1  22
HETATM   22  O2  UNL     1      32.729   0.811 166.030  1.00  0.00    -0.293 OA
BRANCH  22  23
HETATM   23  C2  UNL     1      33.886   1.566 166.145  1.00  0.00     0.360 C 
HETATM   24  N1  UNL     1      34.623   1.616 167.360  1.00  0.00    -0.341 N 
HETATM   25  C1  UNL     1      35.829   2.425 167.425  1.00  0.00     0.151 C 
ATOM     26  H1  UNL     1      34.309   1.090 168.176  1.00  0.00     0.164 HD
HETATM   27  O1  UNL     1      34.287   2.227 165.127  1.00  0.00    -0.239 OA
ENDBRANCH  22  23
ENDBRANCH   1  22
BRANCH   5  28
HETATM   28  N3  UNL     1      29.018   0.331 168.299  1.00  0.00    -0.072 N 
ATOM     29  H33 UNL     1      28.564  -0.582 168.280  1.00  0.00     0.274 HD
ATOM     30  H32 UNL     1      29.054   0.437 169.313  1.00  0.00     0.274 HD
ATOM     31  H31 UNL     1      28.474   1.060 167.838  1.00  0.00     0.274 HD
ENDBRANCH   5  28
BRANCH   2  32
HETATM   32  O3  UNL     1      30.072   1.458 163.830  1.00  0.00    -0.391 OA
ATOM     33  H3  UNL     1      29.529   0.953 163.235  1.00  0.00     0.210 HD
ENDBRANCH   2  32
BRANCH   3  34
HETATM   34  N2  UNL     1      28.491   0.028 165.333  1.00  0.00    -0.072 N 
ATOM     35  H23 UNL     1      28.359   0.815 165.969  1.00  0.00     0.274 HD
ATOM     36  H22 UNL     1      28.235   0.482 164.456  1.00  0.00     0.274 HD
ATOM     37  H21 UNL     1      27.848  -0.733 165.553  1.00  0.00     0.274 HD
ENDBRANCH   3  34
TORSDOF 11
ENDMDL
MODEL 2
REMARK VINA RESULT: -7.595089968      0.707      1.288
REMARK  11 active torsions:
REMARK  status: ('A' for Active; 'I' for Inactive)
REMARK       I    between atoms: N1_2  and  C2_4 
REMARK    1  A    between atoms: C2_4  and  O2_6 
REMARK    2  A    between atoms: O2_6  and  C3_7 
REMARK    3  A    between atoms: C4_8  and  O3_9 
REMARK    4  A    between atoms: C5_11  and  N2_12 
REMARK    5  A    between atoms: C7_17  and  N3_18 
REMARK    6  A    between atoms: C8_22  and  O4_23 
REMARK    7  A    between atoms: O4_23  and  C9_24 
REMARK    8  A    between atoms: C9_24  and  C10_26 
REMARK    9  A    between atoms: C10_26  and  N4_27 
REMARK   10  A    between atoms: C10_26  and  C11_31 
REMARK   11  A    between atoms: C11_31  and  C12_32 
ROOT
HETATM    1  C3  UNL     1      31.536   1.499 165.553  1.00  0.00     0.196 C 
HETATM    2  C4  UNL     1      30.781   0.577 164.628  1.00  0.00     0.180 C 
HETATM    3  C5  UNL     1      29.898  -0.385 165.363  1.00  0.00     0.216 C 
HETATM    4  C6  UNL     1      30.416  -0.642 166.772  1.00  0.00     0.071 C 
HETATM    5  C7  UNL     1      30.410   0.616 167.611  1.00  0.00     0.217 C 
HETATM    6  C8  UNL     1      30.688   1.832 166.762  1.00  0.00     0.194 C 
ENDROOT
BRANCH   6   7
HETATM    7  O4  UNL     1      31.144   2.933 167.478  1.00  0.00    -0.309 OA
BRANCH   7   8
HETATM    8  C9  UNL     1      30.374   3.686 168.328  1.00  0.00     0.290 C 
HETATM    9  O5  UNL     1      29.281   4.105 167.838  1.00  0.00    -0.263 OA
BRANCH   8  10
HETATM   10  C10 UNL     1      30.780   3.998 169.728  1.00  0.00     0.282 C 
BRANCH  10  11
HETATM   11  N4  UNL     1      32.214   3.751 169.881  1.00  0.00    -0.066 N 
ATOM     12  H43 UNL     1      32.709   3.775 168.989  1.00  0.00     0.275 HD
ATOM     13  H42 UNL     1      32.695   4.528 170.334  1.00  0.00     0.275 HD
ATOM     14  H41 UNL     1      32.352   2.869 170.376  1.00  0.00     0.275 HD
ENDBRANCH  10  11
BRANCH  10  15
HETATM   15  C11 UNL     1      30.079   3.098 170.711  1.00  0.00     0.048 C 
BRANCH  15  16
HETATM   16  C12 UNL     1      29.714   3.862 171.934  1.00  0.00    -0.012 C 
HETATM   17  C13 UNL     1      29.840   5.368 171.727  1.00  0.00     0.005 C 
HETATM   18  C14 UNL     1      29.785   6.089 173.062  1.00  0.00     0.000 C 
HETATM   19  C15 UNL     1      29.130   5.235 174.123  1.00  0.00     0.000 C 
HETATM   20  C16 UNL     1      29.801   3.925 174.368  1.00  0.00     0.000 C 
HETATM   21  C17 UNL     1      30.579   3.545 173.119  1.00  0.00     0.005 C 
ENDBRANCH  15  16
ENDBRANCH  10  15
ENDBRANCH   8  10
ENDBRANCH   7   8
ENDBRANCH   6   7
BRANCH   1  22
HETATM   22  O2  UNL     1      32.756   0.926 165.853  1.00  0.00    -0.293 OA
BRANCH  22  23
HETATM   23  C2  UNL     1      33.868   1.728 166.057  1.00  0.00     0.360 C 
HETATM   24  N1  UNL     1      34.654   1.621 167.238  1.00  0.00    -0.341 N 
HETATM   25  C1  UNL     1      35.809   2.488 167.400  1.00  0.00     0.151 C 
ATOM     26  H1  UNL     1      34.410   0.944 167.960  1.00  0.00     0.164 HD
HETATM   27  O1  UNL     1      34.181   2.578 165.156  1.00  0.00    -0.239 OA
ENDBRANCH  22  23
ENDBRANCH   1  22
BRANCH   5  28
HETATM   28  N3  UNL     1      29.113   0.678 168.266  1.00  0.00    -0.072 N 
ATOM     29  H33 UNL     1      28.816   1.630 168.479  1.00  0.00     0.274 HD
ATOM     30  H32 UNL     1      28.339   0.436 167.647  1.00  0.00     0.274 HD
ATOM     31  H31 UNL     1      29.169   0.081 169.091  1.00  0.00     0.274 HD
ENDBRANCH   5  28
BRANCH   2  32
HETATM   32  O3  UNL     1      30.033   1.292 163.669  1.00  0.00    -0.391 OA
ATOM     33  H3  UNL     1      29.300   1.752 164.063  1.00  0.00     0.210 HD
ENDBRANCH   2  32
BRANCH   3  34
HETATM   34  N2  UNL     1      28.509   0.031 165.370  1.00  0.00    -0.072 N 
ATOM     35  H23 UNL     1      28.404   0.951 165.800  1.00  0.00     0.274 HD
ATOM     36  H22 UNL     1      28.187   0.253 164.428  1.00  0.00     0.274 HD
ATOM     37  H21 UNL     1      27.898  -0.653 165.816  1.00  0.00     0.274 HD
ENDBRANCH   3  34
TORSDOF 11
ENDMDL
MODEL 3
REMARK VINA RESULT: -7.354608653      2.893      4.561
REMARK  11 active torsions:
REMARK  status: ('A' for Active; 'I' for Inactive)
REMARK       I    between atoms: N1_2  and  C2_4 
REMARK    1  A    between atoms: C2_4  and  O2_6 
REMARK    2  A    between atoms: O2_6  and  C3_7 
REMARK    3  A    between atoms: C4_8  and  O3_9 
REMARK    4  A    between atoms: C5_11  and  N2_12 
REMARK    5  A    between atoms: C7_17  and  N3_18 
REMARK    6  A    between atoms: C8_22  and  O4_23 
REMARK    7  A    between atoms: O4_23  and  C9_24 
REMARK    8  A    between atoms: C9_24  and  C10_26 
REMARK    9  A    between atoms: C10_26  and  N4_27 
REMARK   10  A    between atoms: C10_26  and  C11_31 
REMARK   11  A    between atoms: C11_31  and  C12_32 
ROOT
HETATM    1  C3  UNL     1      30.526  -0.733 162.814  1.00  0.00     0.196 C 
HETATM    2  C4  UNL     1      29.409  -0.495 161.829  1.00  0.00     0.180 C 
HETATM    3  C5  UNL     1      28.051  -0.614 162.453  1.00  0.00     0.216 C 
HETATM    4  C6  UNL     1      28.086  -1.523 163.676  1.00  0.00     0.071 C 
HETATM    5  C7  UNL     1      28.971  -0.964 164.767  1.00  0.00     0.217 C 
HETATM    6  C8  UNL     1      30.137  -0.208 164.180  1.00  0.00     0.194 C 
ENDROOT
BRANCH   6   7
HETATM    7  O4  UNL     1      31.213  -0.058 165.048  1.00  0.00    -0.309 OA
BRANCH   7   8
HETATM    8  C9  UNL     1      31.475   1.072 165.780  1.00  0.00     0.290 C 
HETATM    9  O5  UNL     1      31.880   2.068 165.107  1.00  0.00    -0.263 OA
BRANCH   8  10
HETATM   10  C10 UNL     1      31.302   1.138 167.259  1.00  0.00     0.282 C 
BRANCH  10  11
HETATM   11  N4  UNL     1      30.894  -0.176 167.757  1.00  0.00    -0.066 N 
ATOM     12  H43 UNL     1      30.146  -0.587 167.196  1.00  0.00     0.275 HD
ATOM     13  H42 UNL     1      31.605  -0.890 167.594  1.00  0.00     0.275 HD
ATOM     14  H41 UNL     1      30.641  -0.099 168.742  1.00  0.00     0.275 HD
ENDBRANCH  10  11
BRANCH  10  15
HETATM   15  C11 UNL     1      30.208   2.102 167.637  1.00  0.00     0.048 C 
BRANCH  15  16
HETATM   16  C12 UNL     1      30.502   2.717 168.959  1.00  0.00    -0.012 C 
HETATM   17  C13 UNL     1      29.842   1.955 170.105  1.00  0.00     0.005 C 
HETATM   18  C14 UNL     1      29.883   2.780 171.378  1.00  0.00     0.000 C 
HETATM   19  C15 UNL     1      30.962   3.837 171.315  1.00  0.00     0.000 C 
HETATM   20  C16 UNL     1      30.824   4.799 170.183  1.00  0.00     0.000 C 
HETATM   21  C17 UNL     1      30.014   4.131 169.084  1.00  0.00     0.005 C 
ENDBRANCH  15  16
ENDBRANCH  10  15
ENDBRANCH   8  10
ENDBRANCH   7   8
ENDBRANCH   6   7
BRANCH   1  22
HETATM   22  O2  UNL     1      30.859  -2.072 162.793  1.00  0.00    -0.293 OA
BRANCH  22  23
HETATM   23  C2  UNL     1      31.813  -2.537 161.901  1.00  0.00     0.360 C 
HETATM   24  N1  UNL     1      31.543  -2.631 160.508  1.00  0.00    -0.341 N 
HETATM   25  C1  UNL     1      32.580  -3.125 159.617  1.00  0.00     0.151 C 
ATOM     26  H1  UNL     1      30.633  -2.354 160.139  1.00  0.00     0.164 HD
HETATM   27  O1  UNL     1      32.956  -2.883 162.355  1.00  0.00    -0.239 OA
ENDBRANCH  22  23
ENDBRANCH   1  22
BRANCH   5  28
HETATM   28  N3  UNL     1      28.128  -0.126 165.605  1.00  0.00    -0.072 N 
ATOM     29  H33 UNL     1      27.142  -0.385 165.568  1.00  0.00     0.274 HD
ATOM     30  H32 UNL     1      28.267  -0.287 166.603  1.00  0.00     0.274 HD
ATOM     31  H31 UNL     1      28.301   0.840 165.326  1.00  0.00     0.274 HD
ENDBRANCH   5  28
BRANCH   2  32
HETATM   32  O3  UNL     1      29.538   0.749 161.178  1.00  0.00    -0.391 OA
ATOM     33  H3  UNL     1      28.706   1.203 161.111  1.00  0.00     0.210 HD
ENDBRANCH   2  32
BRANCH   3  34
HETATM   34  N2  UNL     1      27.466   0.676 162.761  1.00  0.00    -0.072 N 
ATOM     35  H23 UNL     1      28.182   1.402 162.805  1.00  0.00     0.274 HD
ATOM     36  H22 UNL     1      26.922   1.029 161.974  1.00  0.00     0.274 HD
ATOM     37  H21 UNL     1      26.909   0.659 163.615  1.00  0.00     0.274 HD
ENDBRANCH   3  34
TORSDOF 11
ENDMDL
MODEL 4
REMARK VINA RESULT: -7.198666456      2.427      4.800
REMARK  11 active torsions:
REMARK  status: ('A' for Active; 'I' for Inactive)
REMARK       I    between atoms: N1_2  and  C2_4 
REMARK    1  A    between atoms: C2_4  and  O2_6 
REMARK    2  A    between atoms: O2_6  and  C3_7 
REMARK    3  A    between atoms: C4_8  and  O3_9 
REMARK    4  A    between atoms: C5_11  and  N2_12 
REMARK    5  A    between atoms: C7_17  and  N3_18 
REMARK    6  A    between atoms: C8_22  and  O4_23 
REMARK    7  A    between atoms: O4_23  and  C9_24 
REMARK    8  A    between atoms: C9_24  and  C10_26 
REMARK    9  A    between atoms: C10_26  and  N4_27 
REMARK   10  A    between atoms: C10_26  and  C11_31 
REMARK   11  A    between atoms: C11_31  and  C12_32 
ROOT
HETATM    1  C3  UNL     1      29.463  -0.827 165.145  1.00  0.00     0.196 C 
HETATM    2  C4  UNL     1      29.316  -2.243 164.645  1.00  0.00     0.180 C 
HETATM    3  C5  UNL     1      29.007  -2.310 163.180  1.00  0.00     0.216 C 
HETATM    4  C6  UNL     1      28.315  -1.040 162.704  1.00  0.00     0.071 C 
HETATM    5  C7  UNL     1      29.199   0.176 162.862  1.00  0.00     0.217 C 
HETATM    6  C8  UNL     1      30.089   0.041 164.074  1.00  0.00     0.194 C 
ENDROOT
BRANCH   6   7
HETATM    7  O4  UNL     1      30.585   1.248 164.553  1.00  0.00    -0.309 OA
BRANCH   7   8
HETATM    8  C9  UNL     1      31.673   1.374 165.379  1.00  0.00     0.290 C 
HETATM    9  O5  UNL     1      32.688   0.693 165.040  1.00  0.00    -0.263 OA
BRANCH   8  10
HETATM   10  C10 UNL     1      31.676   2.243 166.590  1.00  0.00     0.282 C 
BRANCH  10  11
HETATM   11  N4  UNL     1      32.855   1.935 167.401  1.00  0.00    -0.066 N 
ATOM     12  H43 UNL     1      33.726   2.123 166.904  1.00  0.00     0.275 HD
ATOM     13  H42 UNL     1      32.980   2.597 168.168  1.00  0.00     0.275 HD
ATOM     14  H41 UNL     1      32.795   0.971 167.728  1.00  0.00     0.275 HD
ENDBRANCH  10  11
BRANCH  10  15
HETATM   15  C11 UNL     1      30.473   1.974 167.456  1.00  0.00     0.048 C 
BRANCH  15  16
HETATM   16  C12 UNL     1      30.626   2.656 168.769  1.00  0.00    -0.012 C 
HETATM   17  C13 UNL     1      29.976   1.868 169.903  1.00  0.00     0.005 C 
HETATM   18  C14 UNL     1      29.860   2.733 171.145  1.00  0.00     0.000 C 
HETATM   19  C15 UNL     1      30.833   3.889 171.105  1.00  0.00     0.000 C 
HETATM   20  C16 UNL     1      30.671   4.796 169.932  1.00  0.00     0.000 C 
HETATM   21  C17 UNL     1      29.997   4.018 168.814  1.00  0.00     0.005 C 
ENDBRANCH  15  16
ENDBRANCH  10  15
ENDBRANCH   8  10
ENDBRANCH   7   8
ENDBRANCH   6   7
BRANCH   1  22
HETATM   22  O2  UNL     1      28.235  -0.384 165.591  1.00  0.00    -0.293 OA
BRANCH  22  23
HETATM   23  C2  UNL     1      27.854  -0.603 166.906  1.00  0.00     0.360 C 
HETATM   24  N1  UNL     1      28.755  -1.154 167.858  1.00  0.00    -0.341 N 
HETATM   25  C1  UNL     1      28.302  -1.364 169.223  1.00  0.00     0.151 C 
ATOM     26  H1  UNL     1      29.707  -1.399 167.586  1.00  0.00     0.164 HD
HETATM   27  O1  UNL     1      26.663  -0.297 167.256  1.00  0.00    -0.239 OA
ENDBRANCH  22  23
ENDBRANCH   1  22
BRANCH   5  28
HETATM   28  N3  UNL     1      29.955   0.311 161.628  1.00  0.00    -0.072 N 
ATOM     29  H33 UNL     1      29.380   0.590 160.833  1.00  0.00     0.274 HD
ATOM     30  H32 UNL     1      30.580   1.117 161.625  1.00  0.00     0.274 HD
ATOM     31  H31 UNL     1      30.440  -0.574 161.480  1.00  0.00     0.274 HD
ENDBRANCH   5  28
BRANCH   2  32
HETATM   32  O3  UNL     1      30.451  -3.026 164.941  1.00  0.00    -0.391 OA
ATOM     33  H3  UNL     1      31.227  -2.709 164.492  1.00  0.00     0.210 HD
ENDBRANCH   2  32
BRANCH   3  34
HETATM   34  N2  UNL     1      30.178  -2.614 162.379  1.00  0.00    -0.072 N 
ATOM     35  H23 UNL     1      30.969  -2.873 162.969  1.00  0.00     0.274 HD
ATOM     36  H22 UNL     1      30.058  -3.490 161.871  1.00  0.00     0.274 HD
ATOM     37  H21 UNL     1      30.426  -1.854 161.746  1.00  0.00     0.274 HD
ENDBRANCH   3  34
TORSDOF 11
ENDMDL
MODEL 5
REMARK VINA RESULT: -7.154824902      3.172      5.015
REMARK  11 active torsions:
REMARK  status: ('A' for Active; 'I' for Inactive)
REMARK       I    between atoms: N1_2  and  C2_4 
REMARK    1  A    between atoms: C2_4  and  O2_6 
REMARK    2  A    between atoms: O2_6  and  C3_7 
REMARK    3  A    between atoms: C4_8  and  O3_9 
REMARK    4  A    between atoms: C5_11  and  N2_12 
REMARK    5  A    between atoms: C7_17  and  N3_18 
REMARK    6  A    between atoms: C8_22  and  O4_23 
REMARK    7  A    between atoms: O4_23  and  C9_24 
REMARK    8  A    between atoms: C9_24  and  C10_26 
REMARK    9  A    between atoms: C10_26  and  N4_27 
REMARK   10  A    between atoms: C10_26  and  C11_31 
REMARK   11  A    between atoms: C11_31  and  C12_32 
ROOT
HETATM    1  C3  UNL     1      30.453  -0.689 163.155  1.00  0.00     0.196 C 
HETATM    2  C4  UNL     1      29.455  -0.455 162.049  1.00  0.00     0.180 C 
HETATM    3  C5  UNL     1      28.038  -0.653 162.496  1.00  0.00     0.216 C 
HETATM    4  C6  UNL     1      27.963  -1.608 163.680  1.00  0.00     0.071 C 
HETATM    5  C7  UNL     1      28.683  -1.060 164.892  1.00  0.00     0.217 C 
HETATM    6  C8  UNL     1      29.878  -0.236 164.480  1.00  0.00     0.194 C 
ENDROOT
BRANCH   6   7
HETATM    7  O4  UNL     1      30.832  -0.080 165.479  1.00  0.00    -0.309 OA
BRANCH   7   8
HETATM    8  C9  UNL     1      31.013   1.063 166.216  1.00  0.00     0.290 C 
HETATM    9  O5  UNL     1      32.103   1.676 166.001  1.00  0.00    -0.263 OA
BRANCH   8  10
HETATM   10  C10 UNL     1      30.011   1.561 167.201  1.00  0.00     0.282 C 
BRANCH  10  11
HETATM   11  N4  UNL     1      29.961   3.022 167.141  1.00  0.00    -0.066 N 
ATOM     12  H43 UNL     1      30.889   3.444 167.180  1.00  0.00     0.275 HD
ATOM     13  H42 UNL     1      29.686   3.363 166.219  1.00  0.00     0.275 HD
ATOM     14  H41 UNL     1      29.347   3.368 167.879  1.00  0.00     0.275 HD
ENDBRANCH  10  11
BRANCH  10  15
HETATM   15  C11 UNL     1      30.406   1.200 168.609  1.00  0.00     0.048 C 
BRANCH  15  16
HETATM   16  C12 UNL     1      29.455   0.201 169.167  1.00  0.00    -0.012 C 
HETATM   17  C13 UNL     1      29.490   0.166 170.692  1.00  0.00     0.005 C 
HETATM   18  C14 UNL     1      28.771  -1.067 171.206  1.00  0.00     0.000 C 
HETATM   19  C15 UNL     1      27.814  -1.618 170.174  1.00  0.00     0.000 C 
HETATM   20  C16 UNL     1      28.449  -1.999 168.879  1.00  0.00     0.000 C 
HETATM   21  C17 UNL     1      29.737  -1.206 168.726  1.00  0.00     0.005 C 
ENDBRANCH  15  16
ENDBRANCH  10  15
ENDBRANCH   8  10
ENDBRANCH   7   8
ENDBRANCH   6   7
BRANCH   1  22
HETATM   22  O2  UNL     1      30.845  -2.012 163.128  1.00  0.00    -0.293 OA
BRANCH  22  23
HETATM   23  C2  UNL     1      31.675  -2.469 162.116  1.00  0.00     0.360 C 
HETATM   24  N1  UNL     1      31.200  -2.641 160.787  1.00  0.00    -0.341 N 
HETATM   25  C1  UNL     1      32.114  -3.124 159.765  1.00  0.00     0.151 C 
ATOM     26  H1  UNL     1      30.230  -2.427 160.553  1.00  0.00     0.164 HD
HETATM   27  O1  UNL     1      32.892  -2.738 162.399  1.00  0.00    -0.239 OA
ENDBRANCH  22  23
ENDBRANCH   1  22
BRANCH   5  28
HETATM   28  N3  UNL     1      27.709  -0.291 165.649  1.00  0.00    -0.072 N 
ATOM     29  H33 UNL     1      27.918   0.706 165.675  1.00  0.00     0.274 HD
ATOM     30  H32 UNL     1      26.803  -0.222 165.184  1.00  0.00     0.274 HD
ATOM     31  H31 UNL     1      27.653  -0.715 166.575  1.00  0.00     0.274 HD
ENDBRANCH   5  28
BRANCH   2  32
HETATM   32  O3  UNL     1      29.608   0.819 161.463  1.00  0.00    -0.391 OA
ATOM     33  H3  UNL     1      30.427   0.894 160.987  1.00  0.00     0.210 HD
ENDBRANCH   2  32
BRANCH   3  34
HETATM   34  N2  UNL     1      27.364   0.600 162.775  1.00  0.00    -0.072 N 
ATOM     35  H23 UNL     1      27.555   0.916 163.726  1.00  0.00     0.274 HD
ATOM     36  H22 UNL     1      27.789   1.369 162.258  1.00  0.00     0.274 HD
ATOM     37  H21 UNL     1      26.360   0.551 162.601  1.00  0.00     0.274 HD
ENDBRANCH   3  34
TORSDOF 11
ENDMDL
