MODEL 1
REMARK VINA RESULT: -6.823159281      0.000      0.000
REMARK  9 active torsions:
REMARK  status: ('A' for Active; 'I' for Inactive)
REMARK    1  A    between atoms: C2_2  and  C3_3 
REMARK    2  A    between atoms: C4_5  and  O2_6 
REMARK    3  A    between atoms: O2_6  and  C5_7 
REMARK    4  A    between atoms: C7_10  and  O4_11 
REMARK    5  A    between atoms: C8_13  and  O5_14 
REMARK    6  A    between atoms: C9_16  and  O6_17 
REMARK    7  A    between atoms: C10_19  and  O7_20 
REMARK    8  A    between atoms: C11_22  and  N1_23 
REMARK       I    between atoms: N1_23  and  C12_25 
REMARK    9  A    between atoms: C12_25  and  C13_27 
ROOT
HETATM    1  C3  UNL     1       9.763  -5.220   5.281  1.00  0.00     0.172 C 
HETATM    2  O1  UNL     1       9.123  -6.256   4.648  1.00  0.00    -0.347 OA
HETATM    3  C4  UNL     1       9.378  -7.420   5.348  1.00  0.00     0.294 C 
HETATM    4  C10 UNL     1      10.705  -7.274   6.008  1.00  0.00     0.199 C 
HETATM    5  C11 UNL     1      10.874  -5.789   6.119  1.00  0.00     0.151 C 
ENDROOT
BRANCH   3   6
HETATM    6  O2  UNL     1       9.283  -8.555   4.548  1.00  0.00    -0.326 OA
BRANCH   6   7
HETATM    7  C5  UNL     1       8.844  -9.657   5.249  1.00  0.00     0.294 C 
HETATM    8  O3  UNL     1       7.567 -10.062   4.883  1.00  0.00    -0.356 OA
HETATM    9  C6  UNL     1       7.573 -11.123   3.980  1.00  0.00     0.205 C 
HETATM   10  C7  UNL     1       7.994 -12.420   4.644  1.00  0.00     0.173 C 
HETATM   11  C8  UNL     1       9.004 -12.035   5.719  1.00  0.00     0.182 C 
HETATM   12  C9  UNL     1       9.773 -10.838   5.140  1.00  0.00     0.204 C 
BRANCH  10  13
HETATM   13  O4  UNL     1       8.595 -13.280   3.755  1.00  0.00    -0.391 OA
ATOM     14  H4  UNL     1       8.875 -14.085   4.174  1.00  0.00     0.210 HD
ENDBRANCH  10  13
BRANCH  11  15
HETATM   15  O5  UNL     1       8.262 -11.524   6.785  1.00  0.00    -0.390 OA
ATOM     16  H5  UNL     1       8.661 -11.870   7.575  1.00  0.00     0.210 HD
ENDBRANCH  11  15
BRANCH  12  17
HETATM   17  O6  UNL     1      10.931 -10.702   5.875  1.00  0.00    -0.388 OA
ATOM     18  H6  UNL     1      11.184 -11.491   6.339  1.00  0.00     0.210 HD
ENDBRANCH  12  17
ENDBRANCH   6   7
ENDBRANCH   3   6
BRANCH   4  19
HETATM   19  O7  UNL     1      11.763  -7.792   5.278  1.00  0.00    -0.388 OA
ATOM     20  H7  UNL     1      12.246  -8.478   5.725  1.00  0.00     0.210 HD
ENDBRANCH   4  19
BRANCH   1  21
HETATM   21  C2  UNL     1       8.838  -4.372   6.081  1.00  0.00    -0.003 C 
HETATM   22  C1  UNL     1       7.939  -3.571   5.524  1.00  0.00     0.009 C 
ENDBRANCH   1  21
BRANCH   5  23
HETATM   23  N1  UNL     1      10.778  -5.419   7.501  1.00  0.00    -0.345 N 
HETATM   24  C12 UNL     1      11.944  -5.083   8.233  1.00  0.00     0.275 C 
HETATM   25  O8  UNL     1      13.059  -5.115   7.658  1.00  0.00    -0.265 OA
ATOM     26  H1  UNL     1       9.867  -5.397   7.959  1.00  0.00     0.163 HD
BRANCH  24  27
HETATM   27  C13 UNL     1      11.910  -4.700   9.640  1.00  0.00     0.142 A 
HETATM   28  C14 UNL     1      11.435  -3.473  10.104  1.00  0.00     0.045 A 
HETATM   29  C15 UNL     1      11.566  -3.485  11.476  1.00  0.00     0.027 A 
HETATM   30  C16 UNL     1      12.115  -4.718  11.791  1.00  0.00     0.143 A 
HETATM   31  O9  UNL     1      12.289  -5.371  10.683  1.00  0.00    -0.317 OA
ENDBRANCH  24  27
ENDBRANCH   5  23
TORSDOF 9
ENDMDL
MODEL 2
REMARK VINA RESULT: -6.587757307      1.157      1.589
REMARK  9 active torsions:
REMARK  status: ('A' for Active; 'I' for Inactive)
REMARK    1  A    between atoms: C2_2  and  C3_3 
REMARK    2  A    between atoms: C4_5  and  O2_6 
REMARK    3  A    between atoms: O2_6  and  C5_7 
REMARK    4  A    between atoms: C7_10  and  O4_11 
REMARK    5  A    between atoms: C8_13  and  O5_14 
REMARK    6  A    between atoms: C9_16  and  O6_17 
REMARK    7  A    between atoms: C10_19  and  O7_20 
REMARK    8  A    between atoms: C11_22  and  N1_23 
REMARK       I    between atoms: N1_23  and  C12_25 
REMARK    9  A    between atoms: C12_25  and  C13_27 
ROOT
HETATM    1  C3  UNL     1      10.487  -5.758   5.864  1.00  0.00     0.172 C 
HETATM    2  O1  UNL     1      10.076  -7.015   5.499  1.00  0.00    -0.347 OA
HETATM    3  C4  UNL     1      10.291  -7.871   6.562  1.00  0.00     0.294 C 
HETATM    4  C10 UNL     1      11.446  -7.348   7.343  1.00  0.00     0.199 C 
HETATM    5  C11 UNL     1      11.460  -5.888   7.003  1.00  0.00     0.151 C 
ENDROOT
BRANCH   3   6
HETATM    6  O2  UNL     1      10.453  -9.193   6.158  1.00  0.00    -0.326 OA
BRANCH   6   7
HETATM    7  C5  UNL     1       9.347  -9.681   5.496  1.00  0.00     0.294 C 
HETATM    8  O3  UNL     1       9.598  -9.982   4.164  1.00  0.00    -0.356 OA
HETATM    9  C6  UNL     1       9.841 -11.337   3.951  1.00  0.00     0.205 C 
HETATM   10  C7  UNL     1       8.574 -12.159   4.090  1.00  0.00     0.173 C 
HETATM   11  C8  UNL     1       7.733 -11.464   5.155  1.00  0.00     0.182 C 
HETATM   12  C9  UNL     1       8.746 -10.893   6.159  1.00  0.00     0.204 C 
BRANCH  10  13
HETATM   13  O4  UNL     1       8.840 -13.445   4.501  1.00  0.00    -0.391 OA
ATOM     14  H4  UNL     1       8.660 -13.566   5.426  1.00  0.00     0.210 HD
ENDBRANCH  10  13
BRANCH  11  15
HETATM   15  O5  UNL     1       7.157 -10.356   4.532  1.00  0.00    -0.390 OA
ATOM     16  H5  UNL     1       7.231  -9.638   5.150  1.00  0.00     0.210 HD
ENDBRANCH  11  15
BRANCH  12  17
HETATM   17  O6  UNL     1       8.057 -10.608   7.316  1.00  0.00    -0.388 OA
ATOM     18  H6  UNL     1       7.793 -11.379   7.805  1.00  0.00     0.210 HD
ENDBRANCH  12  17
ENDBRANCH   6   7
ENDBRANCH   3   6
BRANCH   4  19
HETATM   19  O7  UNL     1      12.668  -7.901   6.991  1.00  0.00    -0.388 OA
ATOM     20  H7  UNL     1      13.377  -7.272   6.930  1.00  0.00     0.210 HD
ENDBRANCH   4  19
BRANCH   1  21
HETATM   21  C2  UNL     1       9.354  -4.853   6.198  1.00  0.00    -0.003 C 
HETATM   22  C1  UNL     1       8.376  -4.584   5.343  1.00  0.00     0.009 C 
ENDBRANCH   1  21
BRANCH   5  23
HETATM   23  N1  UNL     1      11.064  -5.144   8.164  1.00  0.00    -0.345 N 
HETATM   24  C12 UNL     1      12.044  -4.606   9.035  1.00  0.00     0.275 C 
HETATM   25  O8  UNL     1      13.260  -4.788   8.778  1.00  0.00    -0.265 OA
ATOM     26  H1  UNL     1      10.075  -5.002   8.364  1.00  0.00     0.163 HD
BRANCH  24  27
HETATM   27  C13 UNL     1      11.705  -3.841  10.230  1.00  0.00     0.142 A 
HETATM   28  C14 UNL     1      10.802  -2.778  10.247  1.00  0.00     0.045 A 
HETATM   29  C15 UNL     1      10.750  -2.318  11.544  1.00  0.00     0.027 A 
HETATM   30  C16 UNL     1      11.622  -3.119  12.265  1.00  0.00     0.143 A 
HETATM   31  O9  UNL     1      12.140  -3.979  11.444  1.00  0.00    -0.317 OA
ENDBRANCH  24  27
ENDBRANCH   5  23
TORSDOF 9
ENDMDL
MODEL 3
REMARK VINA RESULT: -6.559706706      3.027      7.915
REMARK  9 active torsions:
REMARK  status: ('A' for Active; 'I' for Inactive)
REMARK    1  A    between atoms: C2_2  and  C3_3 
REMARK    2  A    between atoms: C4_5  and  O2_6 
REMARK    3  A    between atoms: O2_6  and  C5_7 
REMARK    4  A    between atoms: C7_10  and  O4_11 
REMARK    5  A    between atoms: C8_13  and  O5_14 
REMARK    6  A    between atoms: C9_16  and  O6_17 
REMARK    7  A    between atoms: C10_19  and  O7_20 
REMARK    8  A    between atoms: C11_22  and  N1_23 
REMARK       I    between atoms: N1_23  and  C12_25 
REMARK    9  A    between atoms: C12_25  and  C13_27 
ROOT
HETATM    1  C3  UNL     1       9.880  -5.830   6.934  1.00  0.00     0.172 C 
HETATM    2  O1  UNL     1      10.522  -5.405   8.069  1.00  0.00    -0.347 OA
HETATM    3  C4  UNL     1      11.885  -5.497   7.861  1.00  0.00     0.294 C 
HETATM    4  C10 UNL     1      12.125  -6.600   6.889  1.00  0.00     0.199 C 
HETATM    5  C11 UNL     1      10.825  -6.696   6.149  1.00  0.00     0.151 C 
ENDROOT
BRANCH   3   6
HETATM    6  O2  UNL     1      12.597  -5.645   9.048  1.00  0.00    -0.326 OA
BRANCH   6   7
HETATM    7  C5  UNL     1      12.770  -4.449   9.710  1.00  0.00     0.294 C 
HETATM    8  O3  UNL     1      12.122  -3.386   9.095  1.00  0.00    -0.356 OA
HETATM    9  C6  UNL     1      10.894  -3.088   9.681  1.00  0.00     0.205 C 
HETATM   10  C7  UNL     1      11.068  -2.435  11.040  1.00  0.00     0.173 C 
HETATM   11  C8  UNL     1      12.326  -3.047  11.644  1.00  0.00     0.182 C 
HETATM   12  C9  UNL     1      12.342  -4.503  11.154  1.00  0.00     0.204 C 
BRANCH  10  13
HETATM   13  O4  UNL     1      10.003  -2.691  11.872  1.00  0.00    -0.391 OA
ATOM     14  H4  UNL     1       9.734  -1.917  12.352  1.00  0.00     0.210 HD
ENDBRANCH  10  13
BRANCH  11  15
HETATM   15  O5  UNL     1      13.404  -2.426  11.010  1.00  0.00    -0.390 OA
ATOM     16  H5  UNL     1      14.156  -2.560  11.575  1.00  0.00     0.210 HD
ENDBRANCH  11  15
BRANCH  12  17
HETATM   17  O6  UNL     1      13.213  -5.197  11.964  1.00  0.00    -0.388 OA
ATOM     18  H6  UNL     1      14.037  -4.750  12.113  1.00  0.00     0.210 HD
ENDBRANCH  12  17
ENDBRANCH   6   7
ENDBRANCH   3   6
BRANCH   4  19
HETATM   19  O7  UNL     1      12.397  -7.826   7.477  1.00  0.00    -0.388 OA
ATOM     20  H7  UNL     1      13.317  -7.973   7.664  1.00  0.00     0.210 HD
ENDBRANCH   4  19
BRANCH   1  21
HETATM   21  C2  UNL     1       9.345  -4.706   6.118  1.00  0.00    -0.003 C 
HETATM   22  C1  UNL     1       8.925  -3.568   6.655  1.00  0.00     0.009 C 
ENDBRANCH   1  21
BRANCH   5  23
HETATM   23  N1  UNL     1      11.027  -6.231   4.807  1.00  0.00    -0.345 N 
HETATM   24  C12 UNL     1      10.311  -6.815   3.733  1.00  0.00     0.275 C 
HETATM   25  O8  UNL     1       9.499  -7.743   3.970  1.00  0.00    -0.265 OA
ATOM     26  H1  UNL     1      11.689  -5.477   4.625  1.00  0.00     0.163 HD
BRANCH  24  27
HETATM   27  C13 UNL     1      10.473  -6.386   2.348  1.00  0.00     0.142 A 
HETATM   28  C14 UNL     1      10.279  -5.076   1.909  1.00  0.00     0.045 A 
HETATM   29  C15 UNL     1      10.524  -5.068   0.553  1.00  0.00     0.027 A 
HETATM   30  C16 UNL     1      10.858  -6.372   0.222  1.00  0.00     0.143 A 
HETATM   31  O9  UNL     1      10.810  -7.082   1.307  1.00  0.00    -0.317 OA
ENDBRANCH  24  27
ENDBRANCH   5  23
TORSDOF 9
ENDMDL
MODEL 4
REMARK VINA RESULT: -6.498398136      3.535      6.066
REMARK  9 active torsions:
REMARK  status: ('A' for Active; 'I' for Inactive)
REMARK    1  A    between atoms: C2_2  and  C3_3 
REMARK    2  A    between atoms: C4_5  and  O2_6 
REMARK    3  A    between atoms: O2_6  and  C5_7 
REMARK    4  A    between atoms: C7_10  and  O4_11 
REMARK    5  A    between atoms: C8_13  and  O5_14 
REMARK    6  A    between atoms: C9_16  and  O6_17 
REMARK    7  A    between atoms: C10_19  and  O7_20 
REMARK    8  A    between atoms: C11_22  and  N1_23 
REMARK       I    between atoms: N1_23  and  C12_25 
REMARK    9  A    between atoms: C12_25  and  C13_27 
ROOT
HETATM    1  C3  UNL     1      11.701  -5.961   8.059  1.00  0.00     0.172 C 
HETATM    2  O1  UNL     1      12.972  -6.253   7.633  1.00  0.00    -0.347 OA
HETATM    3  C4  UNL     1      13.034  -6.053   6.268  1.00  0.00     0.294 C 
HETATM    4  C10 UNL     1      11.675  -6.299   5.709  1.00  0.00     0.199 C 
HETATM    5  C11 UNL     1      10.771  -6.060   6.881  1.00  0.00     0.151 C 
ENDROOT
BRANCH   3   6
HETATM    6  O2  UNL     1      14.025  -6.818   5.660  1.00  0.00    -0.326 OA
BRANCH   6   7
HETATM    7  C5  UNL     1      14.377  -7.917   6.413  1.00  0.00     0.294 C 
HETATM    8  O3  UNL     1      14.056  -9.122   5.801  1.00  0.00    -0.356 OA
HETATM    9  C6  UNL     1      15.141  -9.705   5.151  1.00  0.00     0.205 C 
HETATM   10  C7  UNL     1      16.149 -10.262   6.138  1.00  0.00     0.173 C 
HETATM   11  C8  UNL     1      16.106  -9.342   7.352  1.00  0.00     0.182 C 
HETATM   12  C9  UNL     1      15.836  -7.940   6.785  1.00  0.00     0.204 C 
BRANCH  10  13
HETATM   13  O4  UNL     1      17.425 -10.262   5.623  1.00  0.00    -0.391 OA
ATOM     14  H4  UNL     1      17.971  -9.600   6.030  1.00  0.00     0.210 HD
ENDBRANCH  10  13
BRANCH  11  15
HETATM   15  O5  UNL     1      14.955  -9.687   8.061  1.00  0.00    -0.390 OA
ATOM     16  H5  UNL     1      14.310  -9.941   7.411  1.00  0.00     0.210 HD
ENDBRANCH  11  15
BRANCH  12  17
HETATM   17  O6  UNL     1      16.173  -7.032   7.765  1.00  0.00    -0.388 OA
ATOM     18  H6  UNL     1      16.977  -7.244   8.223  1.00  0.00     0.210 HD
ENDBRANCH  12  17
ENDBRANCH   6   7
ENDBRANCH   3   6
BRANCH   4  19
HETATM   19  O7  UNL     1      11.476  -7.590   5.245  1.00  0.00    -0.388 OA
ATOM     20  H7  UNL     1      10.843  -7.658   4.541  1.00  0.00     0.210 HD
ENDBRANCH   4  19
BRANCH   1  21
HETATM   21  C2  UNL     1      11.607  -4.638   8.733  1.00  0.00    -0.003 C 
HETATM   22  C1  UNL     1      12.599  -4.129   9.453  1.00  0.00     0.009 C 
ENDBRANCH   1  21
BRANCH   5  23
HETATM   23  N1  UNL     1      10.031  -4.854   6.649  1.00  0.00    -0.345 N 
HETATM   24  C12 UNL     1       8.925  -4.855   5.764  1.00  0.00     0.275 C 
HETATM   25  O8  UNL     1       8.602  -5.921   5.185  1.00  0.00    -0.265 OA
ATOM     26  H1  UNL     1      10.301  -3.993   7.124  1.00  0.00     0.163 HD
BRANCH  24  27
HETATM   27  C13 UNL     1       8.133  -3.661   5.487  1.00  0.00     0.142 A 
HETATM   28  C14 UNL     1       7.407  -3.460   4.313  1.00  0.00     0.045 A 
HETATM   29  C15 UNL     1       6.798  -2.229   4.424  1.00  0.00     0.027 A 
HETATM   30  C16 UNL     1       7.177  -1.731   5.660  1.00  0.00     0.143 A 
HETATM   31  O9  UNL     1       7.949  -2.610   6.223  1.00  0.00    -0.317 OA
ENDBRANCH  24  27
ENDBRANCH   5  23
TORSDOF 9
ENDMDL
MODEL 5
REMARK VINA RESULT: -6.487118276      3.754      7.074
REMARK  9 active torsions:
REMARK  status: ('A' for Active; 'I' for Inactive)
REMARK    1  A    between atoms: C2_2  and  C3_3 
REMARK    2  A    between atoms: C4_5  and  O2_6 
REMARK    3  A    between atoms: O2_6  and  C5_7 
REMARK    4  A    between atoms: C7_10  and  O4_11 
REMARK    5  A    between atoms: C8_13  and  O5_14 
REMARK    6  A    between atoms: C9_16  and  O6_17 
REMARK    7  A    between atoms: C10_19  and  O7_20 
REMARK    8  A    between atoms: C11_22  and  N1_23 
REMARK       I    between atoms: N1_23  and  C12_25 
REMARK    9  A    between atoms: C12_25  and  C13_27 
ROOT
HETATM    1  C3  UNL     1       9.619  -5.766   3.111  1.00  0.00     0.172 C 
HETATM    2  O1  UNL     1       8.615  -4.844   2.952  1.00  0.00    -0.347 OA
HETATM    3  C4  UNL     1       8.420  -4.198   4.157  1.00  0.00     0.294 C 
HETATM    4  C10 UNL     1       8.793  -5.142   5.247  1.00  0.00     0.199 C 
HETATM    5  C11 UNL     1       9.740  -6.089   4.575  1.00  0.00     0.151 C 
ENDROOT
BRANCH   3   6
HETATM    6  O2  UNL     1       7.131  -3.689   4.287  1.00  0.00    -0.326 OA
BRANCH   6   7
HETATM    7  C5  UNL     1       7.115  -2.314   4.379  1.00  0.00     0.294 C 
HETATM    8  O3  UNL     1       6.196  -1.721   3.523  1.00  0.00    -0.356 OA
HETATM    9  C6  UNL     1       5.001  -1.390   4.157  1.00  0.00     0.205 C 
HETATM   10  C7  UNL     1       5.173  -0.206   5.090  1.00  0.00     0.173 C 
HETATM   11  C8  UNL     1       6.588  -0.309   5.646  1.00  0.00     0.182 C 
HETATM   12  C9  UNL     1       6.861  -1.816   5.777  1.00  0.00     0.204 C 
BRANCH  10  13
HETATM   13  O4  UNL     1       4.279  -0.242   6.135  1.00  0.00    -0.391 OA
ATOM     14  H4  UNL     1       4.719  -0.255   6.977  1.00  0.00     0.210 HD
ENDBRANCH  10  13
BRANCH  11  15
HETATM   15  O5  UNL     1       7.438   0.139   4.633  1.00  0.00    -0.390 OA
ATOM     16  H5  UNL     1       8.215  -0.407   4.679  1.00  0.00     0.210 HD
ENDBRANCH  11  15
BRANCH  12  17
HETATM   17  O6  UNL     1       7.939  -1.963   6.623  1.00  0.00    -0.388 OA
ATOM     18  H6  UNL     1       7.820  -2.639   7.279  1.00  0.00     0.210 HD
ENDBRANCH  12  17
ENDBRANCH   6   7
ENDBRANCH   3   6
BRANCH   4  19
HETATM   19  O7  UNL     1       7.728  -5.864   5.763  1.00  0.00    -0.388 OA
ATOM     20  H7  UNL     1       7.964  -6.721   6.098  1.00  0.00     0.210 HD
ENDBRANCH   4  19
BRANCH   1  21
HETATM   21  C2  UNL     1      10.913  -5.317   2.530  1.00  0.00    -0.003 C 
HETATM   22  C1  UNL     1      11.026  -4.886   1.280  1.00  0.00     0.009 C 
ENDBRANCH   1  21
BRANCH   5  23
HETATM   23  N1  UNL     1      11.058  -5.861   5.091  1.00  0.00    -0.345 N 
HETATM   24  C12 UNL     1      11.501  -6.549   6.248  1.00  0.00     0.275 C 
HETATM   25  O8  UNL     1      10.726  -7.359   6.814  1.00  0.00    -0.265 OA
ATOM     26  H1  UNL     1      11.680  -5.201   4.624  1.00  0.00     0.163 HD
BRANCH  24  27
HETATM   27  C13 UNL     1      12.829  -6.360   6.820  1.00  0.00     0.142 A 
HETATM   28  C14 UNL     1      13.170  -5.311   7.674  1.00  0.00     0.045 A 
HETATM   29  C15 UNL     1      14.499  -5.473   7.998  1.00  0.00     0.027 A 
HETATM   30  C16 UNL     1      14.914  -6.614   7.330  1.00  0.00     0.143 A 
HETATM   31  O9  UNL     1      13.899  -7.077   6.668  1.00  0.00    -0.317 OA
ENDBRANCH  24  27
ENDBRANCH   5  23
TORSDOF 9
ENDMDL
