MODEL 1
REMARK VINA RESULT: -6.173113156      0.000      0.000
REMARK  10 active torsions:
REMARK  status: ('A' for Active; 'I' for Inactive)
REMARK    1  A    between atoms: N1_2  and  N2_3 
REMARK       I    between atoms: N1_2  and  C2_6 
REMARK    2  A    between atoms: C2_6  and  C3_8 
REMARK    3  A    between atoms: C4_10  and  C5_11 
REMARK    4  A    between atoms: C5_11  and  N3_12 
REMARK    5  A    between atoms: N3_12  and  N4_14 
REMARK    6  A    between atoms: C6_19  and  O3_20 
REMARK    7  A    between atoms: C7_22  and  O4_23 
REMARK    8  A    between atoms: C8_25  and  S1_26 
REMARK    9  A    between atoms: S1_26  and  C9_27 
REMARK   10  A    between atoms: C11_32  and  N7_33 
ROOT
HETATM    1  C3  UNL     1      12.104  -5.249   7.961  1.00  0.00     0.232 C 
HETATM    2  O2  UNL     1      11.440  -4.434   8.829  1.00  0.00    -0.365 OA
HETATM    3  C4  UNL     1      11.968  -4.253  10.069  1.00  0.00     0.173 C 
HETATM    4  C6  UNL     1      13.371  -3.741  10.135  1.00  0.00     0.178 C 
HETATM    5  C7  UNL     1      14.088  -4.152   8.843  1.00  0.00     0.166 C 
HETATM    6  C8  UNL     1      13.545  -5.473   8.440  1.00  0.00     0.119 C 
ENDROOT
BRANCH   6   7
HETATM    7  S1  UNL     1      14.499  -6.426   7.293  1.00  0.00    -0.125 SA
BRANCH   7   8
HETATM    8  C9  UNL     1      14.331  -8.197   7.394  1.00  0.00     0.209 C 
HETATM    9  C10 UNL     1      13.912  -8.874   6.123  1.00  0.00     0.277 C 
HETATM   10  N6  UNL     1      14.911  -8.850   5.080  1.00  0.00    -0.041 N 
HETATM   11  C11 UNL     1      16.178  -9.379   5.535  1.00  0.00     0.403 C 
ATOM     12  H62 UNL     1      14.585  -9.335   4.244  1.00  0.00     0.279 HD
ATOM     13  H61 UNL     1      15.018  -7.914   4.691  1.00  0.00     0.279 HD
HETATM   14  C12 UNL     1      16.522  -8.700   6.814  1.00  0.00     0.231 C 
HETATM   15  O5  UNL     1      15.552  -8.750   7.783  1.00  0.00    -0.370 OA
BRANCH  11  16
HETATM   16  N7  UNL     1      16.148 -10.823   5.642  1.00  0.00    -0.048 N 
ATOM     17  H73 UNL     1      15.285 -11.207   5.257  1.00  0.00     0.276 HD
ATOM     18  H72 UNL     1      16.814 -11.257   5.004  1.00  0.00     0.276 HD
ATOM     19  H71 UNL     1      16.296 -11.133   6.602  1.00  0.00     0.276 HD
ENDBRANCH  11  16
ENDBRANCH   7   8
ENDBRANCH   6   7
BRANCH   1  20
HETATM   20  C2  UNL     1      11.440  -6.502   7.588  1.00  0.00     0.267 C 
HETATM   21  N1  UNL     1      10.857  -6.815   6.367  1.00  0.00    -0.270 N 
HETATM   22  C1  UNL     1      10.825  -5.927   5.238  1.00  0.00     0.180 C 
HETATM   23  O1  UNL     1      11.409  -7.391   8.512  1.00  0.00    -0.269 OA
BRANCH  21  24
HETATM   24  N2  UNL     1      10.248  -8.080   6.201  1.00  0.00    -0.341 N 
ATOM     25  H22 UNL     1       9.611  -8.225   5.418  1.00  0.00     0.177 HD
ATOM     26  H21 UNL     1      10.484  -8.798   6.886  1.00  0.00     0.177 HD
ENDBRANCH  21  24
ENDBRANCH   1  20
BRANCH   5  27
HETATM   27  O4  UNL     1      15.437  -4.163   9.177  1.00  0.00    -0.392 OA
ATOM     28  H4  UNL     1      15.886  -4.361   8.363  1.00  0.00     0.210 HD
ENDBRANCH   5  27
BRANCH   4  29
HETATM   29  O3  UNL     1      14.029  -4.439  11.168  1.00  0.00    -0.390 OA
ATOM     30  H3  UNL     1      14.962  -4.293  11.063  1.00  0.00     0.210 HD
ENDBRANCH   4  29
BRANCH   3  31
HETATM   31  C5  UNL     1      11.096  -3.203  10.769  1.00  0.00     0.175 C 
BRANCH  31  32
HETATM   32  N3  UNL     1      11.862  -2.571  11.845  1.00  0.00    -0.320 N 
ATOM     33  H3  UNL     1      12.854  -2.373  11.716  1.00  0.00     0.181 HD
BRANCH  32  34
HETATM   34  N4  UNL     1      11.311  -2.280  12.900  1.00  0.00    -0.254 N 
HETATM   35  N5  UNL     1      10.550  -1.651  13.652  1.00  0.00    -0.331 N 
ATOM     36  H52 UNL     1      10.165  -0.994  12.975  1.00  0.00     0.178 HD
ATOM     37  H51 UNL     1      10.091  -1.409  14.531  1.00  0.00     0.178 HD
ATOM     38  H4  UNL     1      11.723  -2.957  13.542  1.00  0.00     0.207 HD
ENDBRANCH  32  34
ENDBRANCH  31  32
ENDBRANCH   3  31
TORSDOF 10
ENDMDL
MODEL 2
REMARK VINA RESULT: -5.986245048      4.802      7.706
REMARK  10 active torsions:
REMARK  status: ('A' for Active; 'I' for Inactive)
REMARK    1  A    between atoms: N1_2  and  N2_3 
REMARK       I    between atoms: N1_2  and  C2_6 
REMARK    2  A    between atoms: C2_6  and  C3_8 
REMARK    3  A    between atoms: C4_10  and  C5_11 
REMARK    4  A    between atoms: C5_11  and  N3_12 
REMARK    5  A    between atoms: N3_12  and  N4_14 
REMARK    6  A    between atoms: C6_19  and  O3_20 
REMARK    7  A    between atoms: C7_22  and  O4_23 
REMARK    8  A    between atoms: C8_25  and  S1_26 
REMARK    9  A    between atoms: S1_26  and  C9_27 
REMARK   10  A    between atoms: C11_32  and  N7_33 
ROOT
HETATM    1  C3  UNL     1      10.167  -7.447   6.001  1.00  0.00     0.232 C 
HETATM    2  O2  UNL     1       9.368  -8.512   6.294  1.00  0.00    -0.365 OA
HETATM    3  C4  UNL     1       9.242  -9.492   5.360  1.00  0.00     0.173 C 
HETATM    4  C6  UNL     1      10.503 -10.138   4.887  1.00  0.00     0.178 C 
HETATM    5  C7  UNL     1      11.648  -9.135   5.065  1.00  0.00     0.166 C 
HETATM    6  C8  UNL     1      11.089  -7.782   4.820  1.00  0.00     0.119 C 
ENDROOT
BRANCH   6   7
HETATM    7  S1  UNL     1      12.236  -6.481   4.465  1.00  0.00    -0.125 SA
BRANCH   7   8
HETATM    8  C9  UNL     1      12.637  -6.216   2.750  1.00  0.00     0.209 C 
HETATM    9  C10 UNL     1      12.280  -7.344   1.827  1.00  0.00     0.277 C 
HETATM   10  N6  UNL     1      10.860  -7.538   1.649  1.00  0.00    -0.041 N 
HETATM   11  C11 UNL     1      10.197  -6.322   1.233  1.00  0.00     0.403 C 
ATOM     12  H62 UNL     1      10.669  -8.305   1.003  1.00  0.00     0.279 HD
ATOM     13  H61 UNL     1      10.431  -7.927   2.489  1.00  0.00     0.279 HD
HETATM   14  C12 UNL     1      10.617  -5.235   2.158  1.00  0.00     0.231 C 
HETATM   15  O5  UNL     1      11.973  -5.075   2.297  1.00  0.00    -0.370 OA
BRANCH  11  16
HETATM   16  N7  UNL     1      10.455  -6.022  -0.160  1.00  0.00    -0.048 N 
ATOM     17  H73 UNL     1      11.090  -6.703  -0.576  1.00  0.00     0.276 HD
ATOM     18  H72 UNL     1       9.633  -6.198  -0.737  1.00  0.00     0.276 HD
ATOM     19  H71 UNL     1      10.799  -5.070  -0.282  1.00  0.00     0.276 HD
ENDBRANCH  11  16
ENDBRANCH   7   8
ENDBRANCH   6   7
BRANCH   1  20
HETATM   20  C2  UNL     1       9.507  -6.147   5.841  1.00  0.00     0.267 C 
HETATM   21  N1  UNL     1       9.685  -5.010   6.619  1.00  0.00    -0.270 N 
HETATM   22  C1  UNL     1      10.587  -4.930   7.734  1.00  0.00     0.180 C 
HETATM   23  O1  UNL     1       8.677  -6.082   4.865  1.00  0.00    -0.269 OA
BRANCH  21  24
HETATM   24  N2  UNL     1       8.942  -3.847   6.314  1.00  0.00    -0.341 N 
ATOM     25  H22 UNL     1       9.439  -2.988   6.080  1.00  0.00     0.177 HD
ATOM     26  H21 UNL     1       7.925  -3.929   6.342  1.00  0.00     0.177 HD
ENDBRANCH  21  24
ENDBRANCH   1  20
BRANCH   5  27
HETATM   27  O4  UNL     1      12.612  -9.532   4.146  1.00  0.00    -0.392 OA
ATOM     28  H4  UNL     1      13.414  -9.599   4.651  1.00  0.00     0.210 HD
ENDBRANCH   5  27
BRANCH   4  29
HETATM   29  O3  UNL     1      10.385 -10.331   3.494  1.00  0.00    -0.390 OA
ATOM     30  H3  UNL     1      10.685 -11.211   3.301  1.00  0.00     0.210 HD
ENDBRANCH   4  29
BRANCH   3  31
HETATM   31  C5  UNL     1       8.405 -10.606   6.004  1.00  0.00     0.175 C 
BRANCH  31  32
HETATM   32  N3  UNL     1       8.278 -11.724   5.067  1.00  0.00    -0.320 N 
ATOM     33  H3  UNL     1       8.872 -12.547   5.172  1.00  0.00     0.181 HD
BRANCH  32  34
HETATM   34  N4  UNL     1       7.459 -11.671   4.156  1.00  0.00    -0.254 N 
HETATM   35  N5  UNL     1       6.741 -12.107   3.244  1.00  0.00    -0.331 N 
ATOM     36  H52 UNL     1       6.997 -13.093   3.298  1.00  0.00     0.178 HD
ATOM     37  H51 UNL     1       6.059 -12.063   2.486  1.00  0.00     0.178 HD
ATOM     38  H4  UNL     1       7.235 -10.676   4.138  1.00  0.00     0.207 HD
ENDBRANCH  32  34
ENDBRANCH  31  32
ENDBRANCH   3  31
TORSDOF 10
ENDMDL
MODEL 3
REMARK VINA RESULT: -5.950347789      5.946      7.780
REMARK  10 active torsions:
REMARK  status: ('A' for Active; 'I' for Inactive)
REMARK    1  A    between atoms: N1_2  and  N2_3 
REMARK       I    between atoms: N1_2  and  C2_6 
REMARK    2  A    between atoms: C2_6  and  C3_8 
REMARK    3  A    between atoms: C4_10  and  C5_11 
REMARK    4  A    between atoms: C5_11  and  N3_12 
REMARK    5  A    between atoms: N3_12  and  N4_14 
REMARK    6  A    between atoms: C6_19  and  O3_20 
REMARK    7  A    between atoms: C7_22  and  O4_23 
REMARK    8  A    between atoms: C8_25  and  S1_26 
REMARK    9  A    between atoms: S1_26  and  C9_27 
REMARK   10  A    between atoms: C11_32  and  N7_33 
ROOT
HETATM    1  C3  UNL     1      11.565  -7.874   4.593  1.00  0.00     0.232 C 
HETATM    2  O2  UNL     1      12.015  -6.924   3.724  1.00  0.00    -0.365 OA
HETATM    3  C4  UNL     1      11.105  -6.307   2.924  1.00  0.00     0.173 C 
HETATM    4  C6  UNL     1       9.962  -5.625   3.605  1.00  0.00     0.178 C 
HETATM    5  C7  UNL     1       9.731  -6.315   4.954  1.00  0.00     0.166 C 
HETATM    6  C8  UNL     1      10.044  -7.754   4.770  1.00  0.00     0.119 C 
ENDROOT
BRANCH   6   7
HETATM    7  S1  UNL     1       9.413  -8.883   5.979  1.00  0.00    -0.125 SA
BRANCH   7   8
HETATM    8  C9  UNL     1       8.169 -10.032   5.425  1.00  0.00     0.209 C 
HETATM    9  C10 UNL     1       8.330 -10.520   4.016  1.00  0.00     0.277 C 
HETATM   10  N6  UNL     1       9.470 -11.383   3.813  1.00  0.00    -0.041 N 
HETATM   11  C11 UNL     1       9.473 -12.499   4.733  1.00  0.00     0.403 C 
ATOM     12  H62 UNL     1       9.527 -11.699   2.845  1.00  0.00     0.279 HD
ATOM     13  H61 UNL     1      10.344 -10.860   3.862  1.00  0.00     0.279 HD
HETATM   14  C12 UNL     1       9.272 -11.959   6.105  1.00  0.00     0.231 C 
HETATM   15  O5  UNL     1       8.174 -11.149   6.261  1.00  0.00    -0.370 OA
BRANCH  11  16
HETATM   16  N7  UNL     1       8.494 -13.500   4.362  1.00  0.00    -0.048 N 
ATOM     17  H73 UNL     1       8.801 -14.037   3.550  1.00  0.00     0.276 HD
ATOM     18  H72 UNL     1       8.456 -14.254   5.047  1.00  0.00     0.276 HD
ATOM     19  H71 UNL     1       7.574 -13.089   4.209  1.00  0.00     0.276 HD
ENDBRANCH  11  16
ENDBRANCH   7   8
ENDBRANCH   6   7
BRANCH   1  20
HETATM   20  C2  UNL     1      11.989  -9.255   4.344  1.00  0.00     0.267 C 
HETATM   21  N1  UNL     1      12.689 -10.089   5.207  1.00  0.00    -0.270 N 
HETATM   22  C1  UNL     1      13.108  -9.713   6.528  1.00  0.00     0.180 C 
HETATM   23  O1  UNL     1      11.666  -9.719   3.193  1.00  0.00    -0.269 OA
BRANCH  21  24
HETATM   24  N2  UNL     1      13.023 -11.395   4.778  1.00  0.00    -0.341 N 
ATOM     25  H22 UNL     1      13.884 -11.537   4.250  1.00  0.00     0.177 HD
ATOM     26  H21 UNL     1      12.374 -12.141   5.027  1.00  0.00     0.177 HD
ENDBRANCH  21  24
ENDBRANCH   1  20
BRANCH   5  27
HETATM   27  O4  UNL     1       8.402  -6.052   5.263  1.00  0.00    -0.392 OA
ATOM     28  H4  UNL     1       8.101  -6.830   5.718  1.00  0.00     0.210 HD
ENDBRANCH   5  27
BRANCH   4  29
HETATM   29  O3  UNL     1       8.801  -5.883   2.847  1.00  0.00    -0.390 OA
ATOM     30  H3  UNL     1       8.473  -6.735   3.107  1.00  0.00     0.210 HD
ENDBRANCH   4  29
BRANCH   3  31
HETATM   31  C5  UNL     1      11.863  -5.214   2.160  1.00  0.00     0.175 C 
BRANCH  31  32
HETATM   32  N3  UNL     1      11.067  -4.781   1.010  1.00  0.00    -0.320 N 
ATOM     33  H3  UNL     1      10.960  -3.787   0.808  1.00  0.00     0.181 HD
BRANCH  32  34
HETATM   34  N4  UNL     1      10.527  -5.614   0.290  1.00  0.00    -0.254 N 
HETATM   35  N5  UNL     1      10.464  -6.507  -0.569  1.00  0.00    -0.331 N 
ATOM     36  H52 UNL     1      11.455  -6.575  -0.800  1.00  0.00     0.178 HD
ATOM     37  H51 UNL     1      10.015  -7.200  -1.168  1.00  0.00     0.178 HD
ATOM     38  H4  UNL     1       9.547  -5.511   0.553  1.00  0.00     0.207 HD
ENDBRANCH  32  34
ENDBRANCH  31  32
ENDBRANCH   3  31
TORSDOF 10
ENDMDL
MODEL 4
REMARK VINA RESULT: -5.938205070      3.105      4.423
REMARK  10 active torsions:
REMARK  status: ('A' for Active; 'I' for Inactive)
REMARK    1  A    between atoms: N1_2  and  N2_3 
REMARK       I    between atoms: N1_2  and  C2_6 
REMARK    2  A    between atoms: C2_6  and  C3_8 
REMARK    3  A    between atoms: C4_10  and  C5_11 
REMARK    4  A    between atoms: C5_11  and  N3_12 
REMARK    5  A    between atoms: N3_12  and  N4_14 
REMARK    6  A    between atoms: C6_19  and  O3_20 
REMARK    7  A    between atoms: C7_22  and  O4_23 
REMARK    8  A    between atoms: C8_25  and  S1_26 
REMARK    9  A    between atoms: S1_26  and  C9_27 
REMARK   10  A    between atoms: C11_32  and  N7_33 
ROOT
HETATM    1  C3  UNL     1      11.200  -7.593   6.952  1.00  0.00     0.232 C 
HETATM    2  O2  UNL     1      11.273  -6.783   8.046  1.00  0.00    -0.365 OA
HETATM    3  C4  UNL     1      12.497  -6.325   8.422  1.00  0.00     0.173 C 
HETATM    4  C6  UNL     1      13.278  -5.570   7.395  1.00  0.00     0.178 C 
HETATM    5  C7  UNL     1      12.821  -6.042   6.010  1.00  0.00     0.166 C 
HETATM    6  C8  UNL     1      12.489  -7.484   6.124  1.00  0.00     0.119 C 
ENDROOT
BRANCH   6   7
HETATM    7  S1  UNL     1      12.410  -8.420   4.623  1.00  0.00    -0.125 SA
BRANCH   7   8
HETATM    8  C9  UNL     1      11.021  -8.100   3.555  1.00  0.00     0.209 C 
HETATM    9  C10 UNL     1      10.502  -6.693   3.584  1.00  0.00     0.277 C 
HETATM   10  N6  UNL     1      11.397  -5.717   3.007  1.00  0.00    -0.041 N 
HETATM   11  C11 UNL     1      11.793  -6.077   1.663  1.00  0.00     0.403 C 
ATOM     12  H62 UNL     1      10.993  -4.781   3.037  1.00  0.00     0.279 HD
ATOM     13  H61 UNL     1      12.209  -5.560   3.604  1.00  0.00     0.279 HD
HETATM   14  C12 UNL     1      12.261  -7.489   1.689  1.00  0.00     0.231 C 
HETATM   15  O5  UNL     1      11.381  -8.388   2.238  1.00  0.00    -0.370 OA
BRANCH  11  16
HETATM   16  N7  UNL     1      10.728  -5.843   0.711  1.00  0.00    -0.048 N 
ATOM     17  H73 UNL     1      10.241  -6.709   0.477  1.00  0.00     0.276 HD
ATOM     18  H72 UNL     1       9.953  -5.335   1.137  1.00  0.00     0.276 HD
ATOM     19  H71 UNL     1      11.067  -5.371  -0.126  1.00  0.00     0.276 HD
ENDBRANCH  11  16
ENDBRANCH   7   8
ENDBRANCH   6   7
BRANCH   1  20
HETATM   20  C2  UNL     1      10.802  -8.985   7.181  1.00  0.00     0.267 C 
HETATM   21  N1  UNL     1       9.631  -9.605   6.765  1.00  0.00    -0.270 N 
HETATM   22  C1  UNL     1       8.598  -8.954   6.009  1.00  0.00     0.180 C 
HETATM   23  O1  UNL     1      11.649  -9.685   7.843  1.00  0.00    -0.269 OA
BRANCH  21  24
HETATM   24  N2  UNL     1       9.418 -10.963   7.098  1.00  0.00    -0.341 N 
ATOM     25  H22 UNL     1      10.078 -11.665   6.762  1.00  0.00     0.177 HD
ATOM     26  H21 UNL     1       8.601 -11.175   7.670  1.00  0.00     0.177 HD
ENDBRANCH  21  24
ENDBRANCH   1  20
BRANCH   5  27
HETATM   27  O4  UNL     1      13.894  -5.765   5.171  1.00  0.00    -0.392 OA
ATOM     28  H4  UNL     1      13.522  -5.757   4.297  1.00  0.00     0.210 HD
ENDBRANCH   5  27
BRANCH   4  29
HETATM   29  O3  UNL     1      14.625  -5.975   7.505  1.00  0.00    -0.390 OA
ATOM     30  H3  UNL     1      15.058  -5.750   6.690  1.00  0.00     0.210 HD
ENDBRANCH   4  29
BRANCH   3  31
HETATM   31  C5  UNL     1      12.262  -5.349   9.583  1.00  0.00     0.175 C 
BRANCH  31  32
HETATM   32  N3  UNL     1      13.343  -4.362   9.617  1.00  0.00    -0.320 N 
ATOM     33  H3  UNL     1      14.002  -4.300   8.842  1.00  0.00     0.181 HD
BRANCH  32  34
HETATM   34  N4  UNL     1      13.455  -3.610  10.579  1.00  0.00    -0.254 N 
HETATM   35  N5  UNL     1      13.070  -2.875  11.502  1.00  0.00    -0.331 N 
ATOM     36  H52 UNL     1      12.063  -2.959  11.361  1.00  0.00     0.178 HD
ATOM     37  H51 UNL     1      13.163  -2.249  12.302  1.00  0.00     0.178 HD
ATOM     38  H4  UNL     1      14.469  -3.556  10.682  1.00  0.00     0.207 HD
ENDBRANCH  32  34
ENDBRANCH  31  32
ENDBRANCH   3  31
TORSDOF 10
ENDMDL
MODEL 5
REMARK VINA RESULT: -5.911700727      4.781      7.430
REMARK  10 active torsions:
REMARK  status: ('A' for Active; 'I' for Inactive)
REMARK    1  A    between atoms: N1_2  and  N2_3 
REMARK       I    between atoms: N1_2  and  C2_6 
REMARK    2  A    between atoms: C2_6  and  C3_8 
REMARK    3  A    between atoms: C4_10  and  C5_11 
REMARK    4  A    between atoms: C5_11  and  N3_12 
REMARK    5  A    between atoms: N3_12  and  N4_14 
REMARK    6  A    between atoms: C6_19  and  O3_20 
REMARK    7  A    between atoms: C7_22  and  O4_23 
REMARK    8  A    between atoms: C8_25  and  S1_26 
REMARK    9  A    between atoms: S1_26  and  C9_27 
REMARK   10  A    between atoms: C11_32  and  N7_33 
ROOT
HETATM    1  C3  UNL     1      12.472  -6.475   4.958  1.00  0.00     0.232 C 
HETATM    2  O2  UNL     1      12.489  -5.734   3.814  1.00  0.00    -0.365 OA
HETATM    3  C4  UNL     1      11.536  -5.982   2.877  1.00  0.00     0.173 C 
HETATM    4  C6  UNL     1      10.112  -5.880   3.321  1.00  0.00     0.178 C 
HETATM    5  C7  UNL     1      10.063  -6.160   4.827  1.00  0.00     0.166 C 
HETATM    6  C8  UNL     1      11.111  -7.168   5.122  1.00  0.00     0.119 C 
ENDROOT
BRANCH   6   7
HETATM    7  S1  UNL     1      10.982  -8.052   6.650  1.00  0.00    -0.125 SA
BRANCH   7   8
HETATM    8  C9  UNL     1      10.568  -9.782   6.539  1.00  0.00     0.209 C 
HETATM    9  C10 UNL     1       9.099 -10.089   6.534  1.00  0.00     0.277 C 
HETATM   10  N6  UNL     1       8.407  -9.665   5.341  1.00  0.00    -0.041 N 
HETATM   11  C11 UNL     1       9.031 -10.182   4.143  1.00  0.00     0.403 C 
ATOM     12  H62 UNL     1       7.417  -9.910   5.380  1.00  0.00     0.279 HD
ATOM     13  H61 UNL     1       8.319  -8.649   5.304  1.00  0.00     0.279 HD
HETATM   14  C12 UNL     1      10.486  -9.882   4.221  1.00  0.00     0.231 C 
HETATM   15  O5  UNL     1      11.112 -10.307   5.366  1.00  0.00    -0.370 OA
BRANCH  11  16
HETATM   16  N7  UNL     1       8.745 -11.589   3.956  1.00  0.00    -0.048 N 
ATOM     17  H73 UNL     1       7.752 -11.788   4.080  1.00  0.00     0.276 HD
ATOM     18  H72 UNL     1       8.840 -11.862   2.978  1.00  0.00     0.276 HD
ATOM     19  H71 UNL     1       9.319 -12.175   4.562  1.00  0.00     0.276 HD
ENDBRANCH  11  16
ENDBRANCH   7   8
ENDBRANCH   6   7
BRANCH   1  20
HETATM   20  C2  UNL     1      13.594  -7.395   5.169  1.00  0.00     0.267 C 
HETATM   21  N1  UNL     1      14.508  -7.383   6.215  1.00  0.00    -0.270 N 
HETATM   22  C1  UNL     1      14.483  -6.437   7.296  1.00  0.00     0.180 C 
HETATM   23  O1  UNL     1      13.722  -8.303   4.271  1.00  0.00    -0.269 OA
BRANCH  21  24
HETATM   24  N2  UNL     1      15.538  -8.352   6.238  1.00  0.00    -0.341 N 
ATOM     25  H22 UNL     1      16.267  -8.317   5.525  1.00  0.00     0.177 HD
ATOM     26  H21 UNL     1      15.498  -9.048   6.982  1.00  0.00     0.177 HD
ENDBRANCH  21  24
ENDBRANCH   1  20
BRANCH   5  27
HETATM   27  O4  UNL     1       8.765  -6.597   5.063  1.00  0.00    -0.392 OA
ATOM     28  H4  UNL     1       8.305  -5.828   5.382  1.00  0.00     0.210 HD
ENDBRANCH   5  27
BRANCH   4  29
HETATM   29  O3  UNL     1       9.403  -6.939   2.718  1.00  0.00    -0.390 OA
ATOM     30  H3  UNL     1       9.826  -7.132   1.889  1.00  0.00     0.210 HD
ENDBRANCH   4  29
BRANCH   3  31
HETATM   31  C5  UNL     1      11.717  -4.927   1.777  1.00  0.00     0.175 C 
BRANCH  31  32
HETATM   32  N3  UNL     1      10.565  -4.961   0.874  1.00  0.00    -0.320 N 
ATOM     33  H3  UNL     1       9.800  -4.299   0.998  1.00  0.00     0.181 HD
BRANCH  32  34
HETATM   34  N4  UNL     1      10.521  -5.786  -0.032  1.00  0.00    -0.254 N 
HETATM   35  N5  UNL     1      10.189  -6.839  -0.599  1.00  0.00    -0.331 N 
ATOM     36  H52 UNL     1       9.613  -7.242   0.140  1.00  0.00     0.178 HD
ATOM     37  H51 UNL     1      10.152  -7.525  -1.353  1.00  0.00     0.178 HD
ATOM     38  H4  UNL     1      11.106  -5.345  -0.742  1.00  0.00     0.207 HD
ENDBRANCH  32  34
ENDBRANCH  31  32
ENDBRANCH   3  31
TORSDOF 10
ENDMDL
