MODEL 1
REMARK VINA RESULT: -7.133279403      0.000      0.000
REMARK  9 active torsions:
REMARK  status: ('A' for Active; 'I' for Inactive)
REMARK    1  A    between atoms: C1_2  and  C2_4 
REMARK    2  A    between atoms: C3_6  and  C4_7 
REMARK    3  A    between atoms: C4_7  and  O4_8 
REMARK    4  A    between atoms: O4_8  and  C5_9 
REMARK    5  A    between atoms: C7_11  and  N1_12 
REMARK    6  A    between atoms: C13_18  and  O5_19 
REMARK    7  A    between atoms: C14_22  and  O7_23 
REMARK    8  A    between atoms: C15_25  and  O8_26 
REMARK    9  A    between atoms: C16_28  and  O9_29 
ROOT
HETATM    1  C2  UNL     1       5.218   0.758   6.979  1.00  0.00     0.254 C 
HETATM    2  O3  UNL     1       5.383  -0.558   6.883  1.00  0.00    -0.362 OA
HETATM    3  C3  UNL     1       5.464  -1.226   5.704  1.00  0.00     0.178 C 
HETATM    4  C14 UNL     1       4.762  -0.571   4.544  1.00  0.00     0.180 C 
HETATM    5  C15 UNL     1       3.860   0.588   4.991  1.00  0.00     0.181 C 
HETATM    6  C16 UNL     1       4.709   1.525   5.817  1.00  0.00     0.189 C 
ENDROOT
BRANCH   3   7
HETATM    7  C4  UNL     1       6.907  -1.552   5.389  1.00  0.00     0.205 C 
BRANCH   7   8
HETATM    8  O4  UNL     1       7.084  -2.341   4.295  1.00  0.00    -0.358 OA
BRANCH   8   9
HETATM    9  C5  UNL     1       7.502  -3.622   4.472  1.00  0.00     0.265 C 
HETATM   10  C6  UNL     1       8.331  -4.153   3.315  1.00  0.00     0.090 C 
HETATM   11  C7  UNL     1       9.424  -4.899   4.009  1.00  0.00     0.138 C 
HETATM   12  C13 UNL     1       8.936  -5.037   5.406  1.00  0.00     0.282 C 
HETATM   13  O6  UNL     1       8.320  -3.777   5.604  1.00  0.00    -0.330 OA
BRANCH  11  14
HETATM   14  N1  UNL     1       9.853  -6.087   3.380  1.00  0.00    -0.403 N 
HETATM   15  C8  UNL     1       9.855  -6.009   1.957  1.00  0.00     0.117 C 
HETATM   16  C9  UNL     1      11.024  -5.177   1.477  1.00  0.00     0.019 C 
HETATM   17  C10 UNL     1      12.243  -5.605   2.233  1.00  0.00     0.003 C 
HETATM   18  C11 UNL     1      12.027  -6.949   2.935  1.00  0.00     0.019 C 
HETATM   19  C12 UNL     1      10.913  -6.798   3.980  1.00  0.00     0.117 C 
ENDBRANCH  11  14
BRANCH  12  20
HETATM   20  O5  UNL     1       8.005  -6.045   5.587  1.00  0.00    -0.369 OA
ATOM     21  H5  UNL     1       7.113  -5.795   5.375  1.00  0.00     0.212 HD
ENDBRANCH  12  20
ENDBRANCH   8   9
ENDBRANCH   7   8
ENDBRANCH   3   7
BRANCH   4  22
HETATM   22  O7  UNL     1       5.676  -0.114   3.582  1.00  0.00    -0.390 OA
ATOM     23  H7  UNL     1       5.827  -0.766   2.909  1.00  0.00     0.210 HD
ENDBRANCH   4  22
BRANCH   1  24
HETATM   24  C1  UNL     1       6.420   1.495   7.522  1.00  0.00     0.205 C 
HETATM   25  O1  UNL     1       7.509   0.898   7.746  1.00  0.00    -0.646 OA
HETATM   26  O2  UNL     1       6.374   2.845   7.794  1.00  0.00    -0.646 OA
ENDBRANCH   1  24
BRANCH   5  27
HETATM   27  O8  UNL     1       3.299   1.187   3.895  1.00  0.00    -0.390 OA
ATOM     28  H8  UNL     1       3.295   2.130   4.010  1.00  0.00     0.210 HD
ENDBRANCH   5  27
BRANCH   6  29
HETATM   29  O9  UNL     1       5.712   2.123   5.054  1.00  0.00    -0.390 OA
ATOM     30  H9  UNL     1       5.433   2.909   4.601  1.00  0.00     0.210 HD
ENDBRANCH   6  29
TORSDOF 9
ENDMDL
MODEL 2
REMARK VINA RESULT: -6.994750701      0.937      1.184
REMARK  9 active torsions:
REMARK  status: ('A' for Active; 'I' for Inactive)
REMARK    1  A    between atoms: C1_2  and  C2_4 
REMARK    2  A    between atoms: C3_6  and  C4_7 
REMARK    3  A    between atoms: C4_7  and  O4_8 
REMARK    4  A    between atoms: O4_8  and  C5_9 
REMARK    5  A    between atoms: C7_11  and  N1_12 
REMARK    6  A    between atoms: C13_18  and  O5_19 
REMARK    7  A    between atoms: C14_22  and  O7_23 
REMARK    8  A    between atoms: C15_25  and  O8_26 
REMARK    9  A    between atoms: C16_28  and  O9_29 
ROOT
HETATM    1  C2  UNL     1       4.711   0.336   6.962  1.00  0.00     0.254 C 
HETATM    2  O3  UNL     1       4.703  -0.832   6.327  1.00  0.00    -0.362 OA
HETATM    3  C3  UNL     1       5.373  -1.070   5.171  1.00  0.00     0.178 C 
HETATM    4  C14 UNL     1       5.614   0.139   4.307  1.00  0.00     0.180 C 
HETATM    5  C15 UNL     1       4.809   1.358   4.777  1.00  0.00     0.181 C 
HETATM    6  C16 UNL     1       5.121   1.564   6.241  1.00  0.00     0.189 C 
ENDROOT
BRANCH   3   7
HETATM    7  C4  UNL     1       6.650  -1.832   5.457  1.00  0.00     0.205 C 
BRANCH   7   8
HETATM    8  O4  UNL     1       7.179  -2.475   4.381  1.00  0.00    -0.358 OA
BRANCH   8   9
HETATM    9  C5  UNL     1       7.587  -3.763   4.524  1.00  0.00     0.265 C 
HETATM   10  C6  UNL     1       8.393  -4.276   3.343  1.00  0.00     0.090 C 
HETATM   11  C7  UNL     1       9.489  -5.048   4.005  1.00  0.00     0.138 C 
HETATM   12  C13 UNL     1       9.021  -5.211   5.406  1.00  0.00     0.282 C 
HETATM   13  O6  UNL     1       8.421  -3.950   5.640  1.00  0.00    -0.330 OA
BRANCH  11  14
HETATM   14  N1  UNL     1       9.897  -6.225   3.343  1.00  0.00    -0.403 N 
HETATM   15  C8  UNL     1       9.910  -6.106   1.923  1.00  0.00     0.117 C 
HETATM   16  C9  UNL     1      11.101  -5.285   1.476  1.00  0.00     0.019 C 
HETATM   17  C10 UNL     1      12.304  -5.762   2.226  1.00  0.00     0.003 C 
HETATM   18  C11 UNL     1      12.055  -7.121   2.886  1.00  0.00     0.019 C 
HETATM   19  C12 UNL     1      10.937  -6.977   3.929  1.00  0.00     0.117 C 
ENDBRANCH  11  14
BRANCH  12  20
HETATM   20  O5  UNL     1       8.082  -6.214   5.579  1.00  0.00    -0.369 OA
ATOM     21  H5  UNL     1       8.250  -6.998   5.069  1.00  0.00     0.212 HD
ENDBRANCH  12  20
ENDBRANCH   8   9
ENDBRANCH   7   8
ENDBRANCH   3   7
BRANCH   4  22
HETATM   22  O7  UNL     1       6.978   0.467   4.250  1.00  0.00    -0.390 OA
ATOM     23  H7  UNL     1       7.451   0.114   4.993  1.00  0.00     0.210 HD
ENDBRANCH   4  22
BRANCH   1  24
HETATM   24  C1  UNL     1       5.440   0.317   8.284  1.00  0.00     0.205 C 
HETATM   25  O1  UNL     1       4.845   0.578   9.366  1.00  0.00    -0.646 OA
HETATM   26  O2  UNL     1       6.783   0.014   8.361  1.00  0.00    -0.646 OA
ENDBRANCH   1  24
BRANCH   5  27
HETATM   27  O8  UNL     1       5.113   2.443   3.999  1.00  0.00    -0.390 OA
ATOM     28  H8  UNL     1       5.025   3.240   4.509  1.00  0.00     0.210 HD
ENDBRANCH   5  27
BRANCH   6  29
HETATM   29  O9  UNL     1       6.456   1.915   6.441  1.00  0.00    -0.390 OA
ATOM     30  H9  UNL     1       6.645   2.827   6.255  1.00  0.00     0.210 HD
ENDBRANCH   6  29
TORSDOF 9
ENDMDL
MODEL 3
REMARK VINA RESULT: -6.498678265      5.594      8.682
REMARK  9 active torsions:
REMARK  status: ('A' for Active; 'I' for Inactive)
REMARK    1  A    between atoms: C1_2  and  C2_4 
REMARK    2  A    between atoms: C3_6  and  C4_7 
REMARK    3  A    between atoms: C4_7  and  O4_8 
REMARK    4  A    between atoms: O4_8  and  C5_9 
REMARK    5  A    between atoms: C7_11  and  N1_12 
REMARK    6  A    between atoms: C13_18  and  O5_19 
REMARK    7  A    between atoms: C14_22  and  O7_23 
REMARK    8  A    between atoms: C15_25  and  O8_26 
REMARK    9  A    between atoms: C16_28  and  O9_29 
ROOT
HETATM    1  C2  UNL     1      11.046  -7.884   3.105  1.00  0.00     0.254 C 
HETATM    2  O3  UNL     1      11.180  -7.091   4.164  1.00  0.00    -0.362 OA
HETATM    3  C3  UNL     1      10.499  -5.929   4.330  1.00  0.00     0.178 C 
HETATM    4  C14 UNL     1      10.068  -5.249   3.057  1.00  0.00     0.180 C 
HETATM    5  C15 UNL     1      10.727  -5.868   1.817  1.00  0.00     0.181 C 
HETATM    6  C16 UNL     1      10.452  -7.353   1.856  1.00  0.00     0.189 C 
ENDROOT
BRANCH   3   7
HETATM    7  C4  UNL     1       9.344  -6.134   5.287  1.00  0.00     0.205 C 
BRANCH   7   8
HETATM    8  O4  UNL     1       9.434  -5.423   6.443  1.00  0.00    -0.358 OA
BRANCH   8   9
HETATM    9  C5  UNL     1      10.650  -5.289   7.037  1.00  0.00     0.265 C 
HETATM   10  C6  UNL     1      10.679  -4.226   8.121  1.00  0.00     0.090 C 
HETATM   11  C7  UNL     1      11.490  -4.875   9.195  1.00  0.00     0.138 C 
HETATM   12  C13 UNL     1      12.130  -6.031   8.516  1.00  0.00     0.282 C 
HETATM   13  O6  UNL     1      11.079  -6.467   7.673  1.00  0.00    -0.330 OA
BRANCH  11  14
HETATM   14  N1  UNL     1      12.352  -4.021   9.915  1.00  0.00    -0.403 N 
HETATM   15  C8  UNL     1      11.814  -2.721  10.134  1.00  0.00     0.117 C 
HETATM   16  C9  UNL     1      10.748  -2.766  11.208  1.00  0.00     0.019 C 
HETATM   17  C10 UNL     1      11.263  -3.593  12.342  1.00  0.00     0.003 C 
HETATM   18  C11 UNL     1      12.778  -3.798  12.247  1.00  0.00     0.019 C 
HETATM   19  C12 UNL     1      13.100  -4.586  10.970  1.00  0.00     0.117 C 
ENDBRANCH  11  14
BRANCH  12  20
HETATM   20  O5  UNL     1      13.236  -5.701   7.750  1.00  0.00    -0.369 OA
ATOM     21  H5  UNL     1      13.108  -5.805   6.815  1.00  0.00     0.212 HD
ENDBRANCH  12  20
ENDBRANCH   8   9
ENDBRANCH   7   8
ENDBRANCH   3   7
BRANCH   4  22
HETATM   22  O7  UNL     1       8.672  -5.270   2.910  1.00  0.00    -0.390 OA
ATOM     23  H7  UNL     1       8.250  -4.672   3.515  1.00  0.00     0.210 HD
ENDBRANCH   4  22
BRANCH   1  24
HETATM   24  C1  UNL     1      10.381  -9.207   3.402  1.00  0.00     0.205 C 
HETATM   25  O1  UNL     1      10.989 -10.300   3.232  1.00  0.00    -0.646 OA
HETATM   26  O2  UNL     1       9.085  -9.272   3.867  1.00  0.00    -0.646 OA
ENDBRANCH   1  24
BRANCH   5  27
HETATM   27  O8  UNL     1      10.253  -5.257   0.687  1.00  0.00    -0.390 OA
ATOM     28  H8  UNL     1       9.584  -5.799   0.285  1.00  0.00     0.210 HD
ENDBRANCH   5  27
BRANCH   6  29
HETATM   29  O9  UNL     1       9.091  -7.630   1.717  1.00  0.00    -0.390 OA
ATOM     30  H9  UNL     1       8.842  -7.898   0.841  1.00  0.00     0.210 HD
ENDBRANCH   6  29
TORSDOF 9
ENDMDL
MODEL 4
REMARK VINA RESULT: -6.467521078      1.128      2.604
REMARK  9 active torsions:
REMARK  status: ('A' for Active; 'I' for Inactive)
REMARK    1  A    between atoms: C1_2  and  C2_4 
REMARK    2  A    between atoms: C3_6  and  C4_7 
REMARK    3  A    between atoms: C4_7  and  O4_8 
REMARK    4  A    between atoms: O4_8  and  C5_9 
REMARK    5  A    between atoms: C7_11  and  N1_12 
REMARK    6  A    between atoms: C13_18  and  O5_19 
REMARK    7  A    between atoms: C14_22  and  O7_23 
REMARK    8  A    between atoms: C15_25  and  O8_26 
REMARK    9  A    between atoms: C16_28  and  O9_29 
ROOT
HETATM    1  C2  UNL     1       4.204   0.663   5.511  1.00  0.00     0.254 C 
HETATM    2  O3  UNL     1       5.030   0.354   4.516  1.00  0.00    -0.362 OA
HETATM    3  C3  UNL     1       6.214  -0.286   4.687  1.00  0.00     0.178 C 
HETATM    4  C14 UNL     1       6.860  -0.095   6.033  1.00  0.00     0.180 C 
HETATM    5  C15 UNL     1       6.181   1.012   6.851  1.00  0.00     0.181 C 
HETATM    6  C16 UNL     1       4.706   0.690   6.905  1.00  0.00     0.189 C 
ENDROOT
BRANCH   3   7
HETATM    7  C4  UNL     1       6.073  -1.749   4.323  1.00  0.00     0.205 C 
BRANCH   7   8
HETATM    8  O4  UNL     1       7.190  -2.310   3.787  1.00  0.00    -0.358 OA
BRANCH   8   9
HETATM    9  C5  UNL     1       7.536  -3.569   4.163  1.00  0.00     0.265 C 
HETATM   10  C6  UNL     1       8.458  -4.263   3.177  1.00  0.00     0.090 C 
HETATM   11  C7  UNL     1       9.442  -4.946   4.072  1.00  0.00     0.138 C 
HETATM   12  C13 UNL     1       8.806  -4.893   5.414  1.00  0.00     0.282 C 
HETATM   13  O6  UNL     1       8.224  -3.602   5.388  1.00  0.00    -0.330 OA
BRANCH  11  14
HETATM   14  N1  UNL     1       9.886  -6.214   3.642  1.00  0.00    -0.403 N 
HETATM   15  C8  UNL     1       9.927  -6.354   2.225  1.00  0.00     0.117 C 
HETATM   16  C9  UNL     1      11.111  -5.602   1.657  1.00  0.00     0.019 C 
HETATM   17  C10 UNL     1      12.307  -5.907   2.502  1.00  0.00     0.003 C 
HETATM   18  C11 UNL     1      12.070  -7.129   3.394  1.00  0.00     0.019 C 
HETATM   19  C12 UNL     1      10.927  -6.823   4.373  1.00  0.00     0.117 C 
ENDBRANCH  11  14
BRANCH  12  20
HETATM   20  O5  UNL     1       7.820  -5.845   5.614  1.00  0.00    -0.369 OA
ATOM     21  H5  UNL     1       7.262  -5.677   6.364  1.00  0.00     0.212 HD
ENDBRANCH  12  20
ENDBRANCH   8   9
ENDBRANCH   7   8
ENDBRANCH   3   7
BRANCH   4  22
HETATM   22  O7  UNL     1       6.870  -1.289   6.772  1.00  0.00    -0.390 OA
ATOM     23  H7  UNL     1       6.810  -1.121   7.705  1.00  0.00     0.210 HD
ENDBRANCH   4  22
BRANCH   1  24
HETATM   24  C1  UNL     1       2.910  -0.115   5.507  1.00  0.00     0.205 C 
HETATM   25  O1  UNL     1       2.600  -0.868   4.541  1.00  0.00    -0.646 OA
HETATM   26  O2  UNL     1       2.017  -0.035   6.554  1.00  0.00    -0.646 OA
ENDBRANCH   1  24
BRANCH   5  27
HETATM   27  O8  UNL     1       6.764   1.099   8.087  1.00  0.00    -0.390 OA
ATOM     28  H8  UNL     1       7.536   1.652   8.041  1.00  0.00     0.210 HD
ENDBRANCH   5  27
BRANCH   6  29
HETATM   29  O9  UNL     1       4.459  -0.485   7.616  1.00  0.00    -0.390 OA
ATOM     30  H9  UNL     1       4.670  -1.276   7.135  1.00  0.00     0.210 HD
ENDBRANCH   6  29
TORSDOF 9
ENDMDL
MODEL 5
REMARK VINA RESULT: -6.370397351      5.546      8.493
REMARK  9 active torsions:
REMARK  status: ('A' for Active; 'I' for Inactive)
REMARK    1  A    between atoms: C1_2  and  C2_4 
REMARK    2  A    between atoms: C3_6  and  C4_7 
REMARK    3  A    between atoms: C4_7  and  O4_8 
REMARK    4  A    between atoms: O4_8  and  C5_9 
REMARK    5  A    between atoms: C7_11  and  N1_12 
REMARK    6  A    between atoms: C13_18  and  O5_19 
REMARK    7  A    between atoms: C14_22  and  O7_23 
REMARK    8  A    between atoms: C15_25  and  O8_26 
REMARK    9  A    between atoms: C16_28  and  O9_29 
ROOT
HETATM    1  C2  UNL     1      10.727  -5.621   1.068  1.00  0.00     0.254 C 
HETATM    2  O3  UNL     1      11.819  -5.427   1.803  1.00  0.00    -0.362 OA
HETATM    3  C3  UNL     1      11.914  -5.756   3.116  1.00  0.00     0.178 C 
HETATM    4  C14 UNL     1      10.613  -5.765   3.873  1.00  0.00     0.180 C 
HETATM    5  C15 UNL     1       9.469  -5.132   3.069  1.00  0.00     0.181 C 
HETATM    6  C16 UNL     1       9.420  -5.833   1.732  1.00  0.00     0.189 C 
ENDROOT
BRANCH   3   7
HETATM    7  C4  UNL     1      12.677  -7.053   3.274  1.00  0.00     0.205 C 
BRANCH   7   8
HETATM    8  O4  UNL     1      13.798  -6.962   4.040  1.00  0.00    -0.358 OA
BRANCH   8   9
HETATM    9  C5  UNL     1      13.729  -7.325   5.348  1.00  0.00     0.265 C 
HETATM   10  C6  UNL     1      13.840  -6.153   6.307  1.00  0.00     0.090 C 
HETATM   11  C7  UNL     1      12.806  -6.474   7.339  1.00  0.00     0.138 C 
HETATM   12  C13 UNL     1      12.482  -7.903   7.092  1.00  0.00     0.282 C 
HETATM   13  O6  UNL     1      12.512  -7.948   5.677  1.00  0.00    -0.330 OA
BRANCH  11  14
HETATM   14  N1  UNL     1      13.136  -6.130   8.667  1.00  0.00    -0.403 N 
HETATM   15  C8  UNL     1      14.081  -5.069   8.763  1.00  0.00     0.117 C 
HETATM   16  C9  UNL     1      13.421  -3.745   8.445  1.00  0.00     0.019 C 
HETATM   17  C10 UNL     1      12.115  -3.688   9.173  1.00  0.00     0.003 C 
HETATM   18  C11 UNL     1      12.034  -4.755  10.268  1.00  0.00     0.019 C 
HETATM   19  C12 UNL     1      12.098  -6.146   9.622  1.00  0.00     0.117 C 
ENDBRANCH  11  14
BRANCH  12  20
HETATM   20  O5  UNL     1      13.408  -8.794   7.608  1.00  0.00    -0.369 OA
ATOM     21  H5  UNL     1      13.087  -9.683   7.697  1.00  0.00     0.212 HD
ENDBRANCH  12  20
ENDBRANCH   8   9
ENDBRANCH   7   8
ENDBRANCH   3   7
BRANCH   4  22
HETATM   22  O7  UNL     1      10.254  -7.066   4.261  1.00  0.00    -0.390 OA
ATOM     23  H7  UNL     1      10.180  -7.139   5.205  1.00  0.00     0.210 HD
ENDBRANCH   4  22
BRANCH   1  24
HETATM   24  C1  UNL     1      10.877  -6.682   0.004  1.00  0.00     0.205 C 
HETATM   25  O1  UNL     1       9.937  -6.947  -0.796  1.00  0.00    -0.646 OA
HETATM   26  O2  UNL     1      12.045  -7.402  -0.135  1.00  0.00    -0.646 OA
ENDBRANCH   1  24
BRANCH   5  27
HETATM   27  O8  UNL     1       8.299  -5.226   3.776  1.00  0.00    -0.390 OA
ATOM     28  H8  UNL     1       7.936  -4.358   3.912  1.00  0.00     0.210 HD
ENDBRANCH   5  27
BRANCH   6  29
HETATM   29  O9  UNL     1       9.066  -7.176   1.864  1.00  0.00    -0.390 OA
ATOM     30  H9  UNL     1       8.318  -7.322   2.430  1.00  0.00     0.210 HD
ENDBRANCH   6  29
TORSDOF 9
ENDMDL
