MODEL 1
REMARK VINA RESULT: -7.863031999      0.000      0.000
REMARK  4 active torsions:
REMARK  status: ('A' for Active; 'I' for Inactive)
REMARK    1  A    between atoms: N1_2  and  C3_4 
REMARK    2  A    between atoms: C5_6  and  N2_7 
REMARK    3  A    between atoms: C6_12  and  N4_13 
REMARK    4  A    between atoms: C8_17  and  N6_18 
ROOT
HETATM    1  C3  UNL     1     118.546  -4.473 -56.250  1.00  0.00     0.121 A 
HETATM    2  C4  UNL     1     117.462  -3.786 -56.751  1.00  0.00     0.097 A 
HETATM    3  C5  UNL     1     116.239  -4.019 -56.163  1.00  0.00     0.118 A 
HETATM    4  N3  UNL     1     116.153  -4.899 -55.133  1.00  0.00    -0.176 N 
ATOM      5  H3  UNL     1     115.239  -5.061 -54.708  1.00  0.00     0.186 HD
HETATM    6  C6  UNL     1     117.209  -5.568 -54.645  1.00  0.00     0.697 A 
HETATM    7  N8  UNL     1     118.404  -5.347 -55.213  1.00  0.00    -0.176 N 
ATOM      8  H8  UNL     1     119.224  -5.843 -54.862  1.00  0.00     0.186 HD
ENDROOT
BRANCH   6   9
HETATM    9  N4  UNL     1     117.062  -6.476 -53.535  1.00  0.00    -0.091 N 
HETATM   10  C7  UNL     1     116.115  -7.429 -53.642  1.00  0.00     0.229 A 
HETATM   11  N5  UNL     1     115.931  -8.295 -52.654  1.00  0.00    -0.187 N 
HETATM   12  C8  UNL     1     116.659  -8.274 -51.519  1.00  0.00     0.680 A 
ATOM     13  H5  UNL     1     115.207  -9.008 -52.756  1.00  0.00     0.185 HD
HETATM   14  N7  UNL     1     117.599  -7.321 -51.423  1.00  0.00    -0.141 N 
HETATM   15  C9  UNL     1     117.795  -6.426 -52.432  1.00  0.00     0.360 A 
ATOM     16  H7  UNL     1     118.175  -7.266 -50.584  1.00  0.00     0.189 HD
HETATM   17  O1  UNL     1     118.683  -5.538 -52.321  1.00  0.00    -0.245 OA
BRANCH  12  18
HETATM   18  N6  UNL     1     116.470  -9.127 -50.565  1.00  0.00    -0.234 N 
ATOM     19  H62 UNL     1     115.848  -9.927 -50.686  1.00  0.00     0.174 HD
ATOM     20  H61 UNL     1     116.928  -9.036 -49.659  1.00  0.00     0.174 HD
ENDBRANCH  12  18
ENDBRANCH   6   9
BRANCH   3  21
HETATM   21  N2  UNL     1     115.222  -3.376 -56.630  1.00  0.00    -0.385 N 
ATOM     22  H22 UNL     1     114.584  -3.768 -57.324  1.00  0.00     0.157 HD
ATOM     23  H21 UNL     1     115.060  -2.434 -56.278  1.00  0.00     0.157 HD
ENDBRANCH   3  21
BRANCH   1  24
HETATM   24  N1  UNL     1     119.818  -4.216 -56.834  1.00  0.00    -0.376 N 
HETATM   25  C1  UNL     1     120.161  -2.811 -57.108  1.00  0.00     0.150 C 
HETATM   26  C2  UNL     1     120.748  -5.255 -57.163  1.00  0.00     0.150 C 
ENDBRANCH   1  24
TORSDOF 4
ENDMDL
MODEL 2
REMARK VINA RESULT: -7.477696604      1.447      1.982
REMARK  4 active torsions:
REMARK  status: ('A' for Active; 'I' for Inactive)
REMARK    1  A    between atoms: N1_2  and  C3_4 
REMARK    2  A    between atoms: C5_6  and  N2_7 
REMARK    3  A    between atoms: C6_12  and  N4_13 
REMARK    4  A    between atoms: C8_17  and  N6_18 
ROOT
HETATM    1  C3  UNL     1     118.375  -5.351 -56.605  1.00  0.00     0.121 A 
HETATM    2  C4  UNL     1     117.657  -4.186 -56.755  1.00  0.00     0.097 A 
HETATM    3  C5  UNL     1     116.701  -3.905 -55.803  1.00  0.00     0.118 A 
HETATM    4  N3  UNL     1     116.512  -4.771 -54.775  1.00  0.00    -0.176 N 
ATOM      5  H3  UNL     1     115.801  -4.548 -54.078  1.00  0.00     0.186 HD
HETATM    6  C6  UNL     1     117.212  -5.907 -54.629  1.00  0.00     0.697 A 
HETATM    7  N8  UNL     1     118.144  -6.188 -55.553  1.00  0.00    -0.176 N 
ATOM      8  H8  UNL     1     118.691  -7.045 -55.467  1.00  0.00     0.186 HD
ENDROOT
BRANCH   6   9
HETATM    9  N4  UNL     1     116.983  -6.779 -53.505  1.00  0.00    -0.091 N 
HETATM   10  C7  UNL     1     117.732  -6.573 -52.404  1.00  0.00     0.229 A 
HETATM   11  N5  UNL     1     117.568  -7.342 -51.335  1.00  0.00    -0.187 N 
HETATM   12  C8  UNL     1     116.668  -8.345 -51.290  1.00  0.00     0.680 A 
ATOM     13  H5  UNL     1     118.147  -7.168 -50.514  1.00  0.00     0.185 HD
HETATM   14  N7  UNL     1     115.927  -8.542 -52.392  1.00  0.00    -0.141 N 
HETATM   15  C9  UNL     1     116.089  -7.757 -53.494  1.00  0.00     0.360 A 
ATOM     16  H7  UNL     1     115.233  -9.289 -52.404  1.00  0.00     0.189 HD
HETATM   17  O1  UNL     1     115.384  -7.960 -54.520  1.00  0.00    -0.245 OA
BRANCH  12  18
HETATM   18  N6  UNL     1     116.517  -9.087 -50.240  1.00  0.00    -0.234 N 
ATOM     19  H62 UNL     1     116.912  -8.814 -49.339  1.00  0.00     0.174 HD
ATOM     20  H61 UNL     1     116.003  -9.967 -50.268  1.00  0.00     0.174 HD
ENDBRANCH  12  18
ENDBRANCH   6   9
BRANCH   3  21
HETATM   21  N2  UNL     1     116.027  -2.814 -55.941  1.00  0.00    -0.385 N 
ATOM     22  H22 UNL     1     115.866  -2.368 -56.844  1.00  0.00     0.157 HD
ATOM     23  H21 UNL     1     115.642  -2.390 -55.098  1.00  0.00     0.157 HD
ENDBRANCH   3  21
BRANCH   1  24
HETATM   24  N1  UNL     1     119.384  -5.635 -57.569  1.00  0.00    -0.376 N 
HETATM   25  C1  UNL     1     119.969  -6.986 -57.551  1.00  0.00     0.150 C 
HETATM   26  C2  UNL     1     119.842  -4.670 -58.524  1.00  0.00     0.150 C 
ENDBRANCH   1  24
TORSDOF 4
ENDMDL
MODEL 3
REMARK VINA RESULT: -7.409462504      1.138      1.570
REMARK  4 active torsions:
REMARK  status: ('A' for Active; 'I' for Inactive)
REMARK    1  A    between atoms: N1_2  and  C3_4 
REMARK    2  A    between atoms: C5_6  and  N2_7 
REMARK    3  A    between atoms: C6_12  and  N4_13 
REMARK    4  A    between atoms: C8_17  and  N6_18 
ROOT
HETATM    1  C3  UNL     1     118.782  -4.764 -56.182  1.00  0.00     0.121 A 
HETATM    2  C4  UNL     1     117.853  -3.810 -56.535  1.00  0.00     0.097 A 
HETATM    3  C5  UNL     1     116.656  -3.811 -55.853  1.00  0.00     0.118 A 
HETATM    4  N3  UNL     1     116.447  -4.733 -54.878  1.00  0.00    -0.176 N 
ATOM      5  H3  UNL     1     115.555  -4.719 -54.382  1.00  0.00     0.186 HD
HETATM    6  C6  UNL     1     117.353  -5.661 -54.534  1.00  0.00     0.697 A 
HETATM    7  N8  UNL     1     118.521  -5.668 -55.195  1.00  0.00    -0.176 N 
ATOM      8  H8  UNL     1     119.227  -6.364 -54.955  1.00  0.00     0.186 HD
ENDROOT
BRANCH   6   9
HETATM    9  N4  UNL     1     117.084  -6.602 -53.477  1.00  0.00    -0.091 N 
HETATM   10  C7  UNL     1     117.792  -6.465 -52.338  1.00  0.00     0.229 A 
HETATM   11  N5  UNL     1     117.590  -7.301 -51.326  1.00  0.00    -0.187 N 
HETATM   12  C8  UNL     1     116.691  -8.304 -51.377  1.00  0.00     0.680 A 
ATOM     13  H5  UNL     1     118.138  -7.179 -50.475  1.00  0.00     0.185 HD
HETATM   14  N7  UNL     1     115.992  -8.431 -52.515  1.00  0.00    -0.141 N 
HETATM   15  C9  UNL     1     116.192  -7.579 -53.560  1.00  0.00     0.360 A 
ATOM     16  H7  UNL     1     115.300  -9.176 -52.600  1.00  0.00     0.189 HD
HETATM   17  O1  UNL     1     115.525  -7.717 -54.621  1.00  0.00    -0.245 OA
BRANCH  12  18
HETATM   18  N6  UNL     1     116.504  -9.110 -50.382  1.00  0.00    -0.234 N 
ATOM     19  H62 UNL     1     116.303  -8.756 -49.446  1.00  0.00     0.174 HD
ATOM     20  H61 UNL     1     116.549 -10.123 -50.490  1.00  0.00     0.174 HD
ENDBRANCH  12  18
ENDBRANCH   6   9
BRANCH   3  21
HETATM   21  N2  UNL     1     115.784  -2.919 -56.181  1.00  0.00    -0.385 N 
ATOM     22  H22 UNL     1     115.037  -2.613 -55.558  1.00  0.00     0.157 HD
ATOM     23  H21 UNL     1     115.860  -2.507 -57.111  1.00  0.00     0.157 HD
ENDBRANCH   3  21
BRANCH   1  24
HETATM   24  N1  UNL     1     120.032  -4.752 -56.863  1.00  0.00    -0.376 N 
HETATM   25  C1  UNL     1     120.509  -3.455 -57.371  1.00  0.00     0.150 C 
HETATM   26  C2  UNL     1     120.816  -5.933 -57.074  1.00  0.00     0.150 C 
ENDBRANCH   1  24
TORSDOF 4
ENDMDL
MODEL 4
REMARK VINA RESULT: -7.324314960      2.097      3.632
REMARK  4 active torsions:
REMARK  status: ('A' for Active; 'I' for Inactive)
REMARK    1  A    between atoms: N1_2  and  C3_4 
REMARK    2  A    between atoms: C5_6  and  N2_7 
REMARK    3  A    between atoms: C6_12  and  N4_13 
REMARK    4  A    between atoms: C8_17  and  N6_18 
ROOT
HETATM    1  C3  UNL     1     120.268  -4.261 -58.617  1.00  0.00     0.121 A 
HETATM    2  C4  UNL     1     120.686  -2.982 -58.324  1.00  0.00     0.097 A 
HETATM    3  C5  UNL     1     120.268  -2.439 -57.130  1.00  0.00     0.118 A 
HETATM    4  N3  UNL     1     119.477  -3.173 -56.305  1.00  0.00    -0.176 N 
ATOM      5  H3  UNL     1     119.176  -2.755 -55.423  1.00  0.00     0.186 HD
HETATM    6  C6  UNL     1     119.070  -4.419 -56.591  1.00  0.00     0.697 A 
HETATM    7  N8  UNL     1     119.472  -4.955 -57.753  1.00  0.00    -0.176 N 
ATOM      8  H8  UNL     1     119.176  -5.901 -57.997  1.00  0.00     0.186 HD
ENDROOT
BRANCH   6   9
HETATM    9  N4  UNL     1     118.247  -5.159 -55.668  1.00  0.00    -0.091 N 
HETATM   10  C7  UNL     1     118.556  -6.457 -55.475  1.00  0.00     0.229 A 
HETATM   11  N5  UNL     1     117.836  -7.192 -54.636  1.00  0.00    -0.187 N 
HETATM   12  C8  UNL     1     116.786  -6.699 -53.949  1.00  0.00     0.680 A 
ATOM     13  H5  UNL     1     118.088  -8.173 -54.506  1.00  0.00     0.185 HD
HETATM   14  N7  UNL     1     116.488  -5.406 -54.150  1.00  0.00    -0.141 N 
HETATM   15  C9  UNL     1     117.220  -4.643 -55.009  1.00  0.00     0.360 A 
ATOM     16  H7  UNL     1     115.701  -4.989 -53.652  1.00  0.00     0.189 HD
HETATM   17  O1  UNL     1     116.921  -3.430 -55.184  1.00  0.00    -0.245 OA
BRANCH  12  18
HETATM   18  N6  UNL     1     116.095  -7.428 -53.134  1.00  0.00    -0.234 N 
ATOM     19  H62 UNL     1     116.546  -8.099 -52.512  1.00  0.00     0.174 HD
ATOM     20  H61 UNL     1     115.079  -7.364 -53.079  1.00  0.00     0.174 HD
ENDBRANCH  12  18
ENDBRANCH   6   9
BRANCH   3  21
HETATM   21  N2  UNL     1     120.659  -1.241 -56.852  1.00  0.00    -0.385 N 
ATOM     22  H22 UNL     1     121.629  -0.936 -56.938  1.00  0.00     0.157 HD
ATOM     23  H21 UNL     1     119.953  -0.577 -56.535  1.00  0.00     0.157 HD
ENDBRANCH   3  21
BRANCH   1  24
HETATM   24  N1  UNL     1     120.718  -4.841 -59.837  1.00  0.00    -0.376 N 
HETATM   25  C1  UNL     1     120.925  -6.299 -59.852  1.00  0.00     0.150 C 
HETATM   26  C2  UNL     1     120.979  -4.070 -61.016  1.00  0.00     0.150 C 
ENDBRANCH   1  24
TORSDOF 4
ENDMDL
MODEL 5
REMARK VINA RESULT: -7.150316268      2.135      3.667
REMARK  4 active torsions:
REMARK  status: ('A' for Active; 'I' for Inactive)
REMARK    1  A    between atoms: N1_2  and  C3_4 
REMARK    2  A    between atoms: C5_6  and  N2_7 
REMARK    3  A    between atoms: C6_12  and  N4_13 
REMARK    4  A    between atoms: C8_17  and  N6_18 
ROOT
HETATM    1  C3  UNL     1     120.267  -4.282 -58.605  1.00  0.00     0.121 A 
HETATM    2  C4  UNL     1     120.668  -2.994 -58.329  1.00  0.00     0.097 A 
HETATM    3  C5  UNL     1     120.261  -2.448 -57.132  1.00  0.00     0.118 A 
HETATM    4  N3  UNL     1     119.496  -3.189 -56.289  1.00  0.00    -0.176 N 
ATOM      5  H3  UNL     1     119.203  -2.770 -55.405  1.00  0.00     0.186 HD
HETATM    6  C6  UNL     1     119.106  -4.444 -56.559  1.00  0.00     0.697 A 
HETATM    7  N8  UNL     1     119.498  -4.982 -57.724  1.00  0.00    -0.176 N 
ATOM      8  H8  UNL     1     119.215  -5.935 -57.956  1.00  0.00     0.186 HD
ENDROOT
BRANCH   6   9
HETATM    9  N4  UNL     1     118.311  -5.191 -55.617  1.00  0.00    -0.091 N 
HETATM   10  C7  UNL     1     117.489  -4.488 -54.813  1.00  0.00     0.229 A 
HETATM   11  N5  UNL     1     116.731  -5.118 -53.924  1.00  0.00    -0.187 N 
HETATM   12  C8  UNL     1     116.737  -6.458 -53.780  1.00  0.00     0.680 A 
ATOM     13  H5  UNL     1     116.118  -4.565 -53.325  1.00  0.00     0.185 HD
HETATM   14  N7  UNL     1     117.558  -7.149 -54.586  1.00  0.00    -0.141 N 
HETATM   15  C9  UNL     1     118.342  -6.511 -55.500  1.00  0.00     0.360 A 
ATOM     16  H7  UNL     1     117.597  -8.165 -54.513  1.00  0.00     0.189 HD
HETATM   17  O1  UNL     1     119.108  -7.179 -56.247  1.00  0.00    -0.245 OA
BRANCH  12  18
HETATM   18  N6  UNL     1     115.990  -7.059 -52.910  1.00  0.00    -0.234 N 
ATOM     19  H62 UNL     1     115.139  -7.546 -53.191  1.00  0.00     0.174 HD
ATOM     20  H61 UNL     1     116.219  -7.071 -51.917  1.00  0.00     0.174 HD
ENDBRANCH  12  18
ENDBRANCH   6   9
BRANCH   3  21
HETATM   21  N2  UNL     1     120.636  -1.242 -56.869  1.00  0.00    -0.385 N 
ATOM     22  H22 UNL     1     121.155  -0.989 -56.028  1.00  0.00     0.157 HD
ATOM     23  H21 UNL     1     120.397  -0.517 -57.546  1.00  0.00     0.157 HD
ENDBRANCH   3  21
BRANCH   1  24
HETATM   24  N1  UNL     1     120.708  -4.863 -59.828  1.00  0.00    -0.376 N 
HETATM   25  C1  UNL     1     120.890  -6.323 -59.851  1.00  0.00     0.150 C 
HETATM   26  C2  UNL     1     120.981  -4.090 -61.004  1.00  0.00     0.150 C 
ENDBRANCH   1  24
TORSDOF 4
ENDMDL
