MODEL 1
REMARK VINA RESULT: -7.194719523      0.000      0.000
REMARK  4 active torsions:
REMARK  status: ('A' for Active; 'I' for Inactive)
REMARK    1  A    between atoms: N1_1  and  C1_4 
REMARK    2  A    between atoms: C2_9  and  S1_10 
REMARK    3  A    between atoms: S1_10  and  C3_13 
REMARK    4  A    between atoms: C7_23  and  N7_24 
ROOT
HETATM    1  C1  UNL     1     119.611  -4.142 -57.876  1.00  0.00     0.158 A 
HETATM    2  N2  UNL     1     118.926  -5.222 -57.467  1.00  0.00    -0.281 N 
ATOM      3  H2  UNL     1     118.847  -6.023 -58.093  1.00  0.00     0.188 HD
HETATM    4  N3  UNL     1     118.345  -5.276 -56.263  1.00  0.00    -0.274 N 
ATOM      5  H3  UNL     1     117.834  -6.115 -55.988  1.00  0.00     0.189 HD
HETATM    6  C2  UNL     1     118.426  -4.240 -55.409  1.00  0.00     0.226 A 
HETATM    7  N6  UNL     1     119.109  -3.159 -55.816  1.00  0.00    -0.315 N 
ATOM      8  H6  UNL     1     119.181  -2.364 -55.182  1.00  0.00     0.169 HD
HETATM    9  C7  UNL     1     119.704  -3.071 -57.016  1.00  0.00     0.146 A 
ENDROOT
BRANCH   6  10
HETATM   10  S1  UNL     1     117.678  -4.279 -53.827  1.00  0.00     0.256 S 
HETATM   11  O1  UNL     1     118.512  -3.455 -52.882  1.00  0.00    -0.213 OA
HETATM   12  O2  UNL     1     116.326  -3.612 -53.932  1.00  0.00    -0.213 OA
BRANCH  10  13
HETATM   13  C3  UNL     1     117.449  -5.885 -53.252  1.00  0.00     0.151 A 
HETATM   14  C4  UNL     1     118.538  -6.683 -52.998  1.00  0.00     0.130 A 
HETATM   15  N4  UNL     1     118.427  -7.948 -52.546  1.00  0.00    -0.371 N 
HETATM   16  C5  UNL     1     117.179  -8.413 -52.346  1.00  0.00     0.104 A 
ATOM     17  H4  UNL     1     119.248  -8.526 -52.364  1.00  0.00     0.164 HD
HETATM   18  C6  UNL     1     116.046  -7.660 -52.583  1.00  0.00     0.106 A 
HETATM   19  N5  UNL     1     116.227  -6.388 -53.040  1.00  0.00    -0.354 N 
ATOM     20  H5  UNL     1     115.410  -5.805 -53.225  1.00  0.00     0.166 HD
ENDBRANCH  10  13
ENDBRANCH   6  10
BRANCH   9  21
HETATM   21  N7  UNL     1     120.366  -2.016 -57.399  1.00  0.00    -0.382 N 
ATOM     22  H72 UNL     1     120.293  -1.631 -58.340  1.00  0.00     0.157 HD
ATOM     23  H71 UNL     1     120.983  -1.555 -56.731  1.00  0.00     0.157 HD
ENDBRANCH   9  21
BRANCH   1  24
HETATM   24  N1  UNL     1     120.169  -4.101 -59.044  1.00  0.00    -0.381 N 
ATOM     25  H12 UNL     1     121.111  -4.465 -59.183  1.00  0.00     0.157 HD
ATOM     26  H11 UNL     1     119.683  -3.706 -59.850  1.00  0.00     0.157 HD
ENDBRANCH   1  24
TORSDOF 4
ENDMDL
MODEL 2
REMARK VINA RESULT: -7.038495739      0.664      1.602
REMARK  4 active torsions:
REMARK  status: ('A' for Active; 'I' for Inactive)
REMARK    1  A    between atoms: N1_1  and  C1_4 
REMARK    2  A    between atoms: C2_9  and  S1_10 
REMARK    3  A    between atoms: S1_10  and  C3_13 
REMARK    4  A    between atoms: C7_23  and  N7_24 
ROOT
HETATM    1  C1  UNL     1     119.589  -4.339 -57.929  1.00  0.00     0.158 A 
HETATM    2  N2  UNL     1     119.381  -3.188 -57.270  1.00  0.00    -0.281 N 
ATOM      3  H2  UNL     1     119.644  -2.308 -57.715  1.00  0.00     0.188 HD
HETATM    4  N3  UNL     1     118.839  -3.162 -56.046  1.00  0.00    -0.274 N 
ATOM      5  H3  UNL     1     118.697  -2.267 -55.578  1.00  0.00     0.189 HD
HETATM    6  C2  UNL     1     118.480  -4.300 -55.426  1.00  0.00     0.226 A 
HETATM    7  N6  UNL     1     118.687  -5.451 -56.083  1.00  0.00    -0.315 N 
ATOM      8  H6  UNL     1     118.421  -6.324 -55.627  1.00  0.00     0.169 HD
HETATM    9  C7  UNL     1     119.228  -5.513 -57.309  1.00  0.00     0.146 A 
ENDROOT
BRANCH   6  10
HETATM   10  S1  UNL     1     117.768  -4.301 -53.827  1.00  0.00     0.256 S 
HETATM   11  O1  UNL     1     118.653  -3.500 -52.907  1.00  0.00    -0.213 OA
HETATM   12  O2  UNL     1     116.439  -3.586 -53.905  1.00  0.00    -0.213 OA
BRANCH  10  13
HETATM   13  C3  UNL     1     117.496  -5.893 -53.233  1.00  0.00     0.151 A 
HETATM   14  C4  UNL     1     118.564  -6.699 -52.919  1.00  0.00     0.130 A 
HETATM   15  N4  UNL     1     118.417  -7.955 -52.450  1.00  0.00    -0.371 N 
HETATM   16  C5  UNL     1     117.157  -8.402 -52.296  1.00  0.00     0.104 A 
ATOM     17  H4  UNL     1     119.223  -8.538 -52.224  1.00  0.00     0.164 HD
HETATM   18  C6  UNL     1     116.044  -7.640 -52.594  1.00  0.00     0.106 A 
HETATM   19  N5  UNL     1     116.259  -6.378 -53.065  1.00  0.00    -0.354 N 
ATOM     20  H5  UNL     1     115.459  -5.790 -53.295  1.00  0.00     0.166 HD
ENDBRANCH  10  13
ENDBRANCH   6  10
BRANCH   9  21
HETATM   21  N7  UNL     1     119.424  -6.638 -57.937  1.00  0.00    -0.382 N 
ATOM     22  H72 UNL     1     118.662  -7.196 -58.321  1.00  0.00     0.157 HD
ATOM     23  H71 UNL     1     120.380  -6.976 -58.050  1.00  0.00     0.157 HD
ENDBRANCH   9  21
BRANCH   1  24
HETATM   24  N1  UNL     1     120.115  -4.351 -59.113  1.00  0.00    -0.381 N 
ATOM     25  H12 UNL     1     120.991  -4.844 -59.287  1.00  0.00     0.157 HD
ATOM     26  H11 UNL     1     119.670  -3.872 -59.895  1.00  0.00     0.157 HD
ENDBRANCH   1  24
TORSDOF 4
ENDMDL
MODEL 3
REMARK VINA RESULT: -6.905928359      2.256      5.681
REMARK  4 active torsions:
REMARK  status: ('A' for Active; 'I' for Inactive)
REMARK    1  A    between atoms: N1_1  and  C1_4 
REMARK    2  A    between atoms: C2_9  and  S1_10 
REMARK    3  A    between atoms: S1_10  and  C3_13 
REMARK    4  A    between atoms: C7_23  and  N7_24 
ROOT
HETATM    1  C1  UNL     1     117.038  -7.132 -52.406  1.00  0.00     0.158 A 
HETATM    2  N2  UNL     1     116.297  -6.092 -52.819  1.00  0.00    -0.281 N 
ATOM      3  H2  UNL     1     115.486  -5.812 -52.268  1.00  0.00     0.188 HD
HETATM    4  N3  UNL     1     116.593  -5.412 -53.934  1.00  0.00    -0.274 N 
ATOM      5  H3  UNL     1     116.006  -4.627 -54.215  1.00  0.00     0.189 HD
HETATM    6  C2  UNL     1     117.655  -5.750 -54.688  1.00  0.00     0.226 A 
HETATM    7  N6  UNL     1     118.396  -6.790 -54.277  1.00  0.00    -0.315 N 
ATOM      8  H6  UNL     1     119.204  -7.060 -54.837  1.00  0.00     0.169 HD
HETATM    9  C7  UNL     1     118.128  -7.493 -53.166  1.00  0.00     0.146 A 
ENDROOT
BRANCH   6  10
HETATM   10  S1  UNL     1     118.069  -4.882 -56.150  1.00  0.00     0.256 S 
HETATM   11  O1  UNL     1     116.804  -4.339 -56.761  1.00  0.00    -0.213 OA
HETATM   12  O2  UNL     1     118.926  -3.699 -55.765  1.00  0.00    -0.213 OA
BRANCH  10  13
HETATM   13  C3  UNL     1     118.954  -5.856 -57.261  1.00  0.00     0.151 A 
HETATM   14  C4  UNL     1     119.849  -5.270 -58.123  1.00  0.00     0.130 A 
HETATM   15  N4  UNL     1     120.572  -5.976 -59.015  1.00  0.00    -0.371 N 
HETATM   16  C5  UNL     1     120.383  -7.309 -59.031  1.00  0.00     0.104 A 
ATOM     17  H4  UNL     1     121.231  -5.522 -59.648  1.00  0.00     0.164 HD
HETATM   18  C6  UNL     1     119.498  -7.955 -58.190  1.00  0.00     0.106 A 
HETATM   19  N5  UNL     1     118.796  -7.184 -57.311  1.00  0.00    -0.354 N 
ATOM     20  H5  UNL     1     118.135  -7.631 -56.675  1.00  0.00     0.166 HD
ENDBRANCH  10  13
ENDBRANCH   6  10
BRANCH   9  21
HETATM   21  N7  UNL     1     118.856  -8.501 -52.776  1.00  0.00    -0.382 N 
ATOM     22  H72 UNL     1     118.905  -8.803 -51.803  1.00  0.00     0.157 HD
ATOM     23  H71 UNL     1     119.400  -9.011 -53.472  1.00  0.00     0.157 HD
ENDBRANCH   9  21
BRANCH   1  24
HETATM   24  N1  UNL     1     116.741  -7.783 -51.326  1.00  0.00    -0.381 N 
ATOM     25  H12 UNL     1     116.599  -7.289 -50.445  1.00  0.00     0.157 HD
ATOM     26  H11 UNL     1     116.643  -8.798 -51.329  1.00  0.00     0.157 HD
ENDBRANCH   1  24
TORSDOF 4
ENDMDL
MODEL 4
REMARK VINA RESULT: -6.900117982      1.321      1.958
REMARK  4 active torsions:
REMARK  status: ('A' for Active; 'I' for Inactive)
REMARK    1  A    between atoms: N1_1  and  C1_4 
REMARK    2  A    between atoms: C2_9  and  S1_10 
REMARK    3  A    between atoms: S1_10  and  C3_13 
REMARK    4  A    between atoms: C7_23  and  N7_24 
ROOT
HETATM    1  C1  UNL     1     120.678  -4.242 -57.220  1.00  0.00     0.158 A 
HETATM    2  N2  UNL     1     119.962  -3.132 -56.985  1.00  0.00    -0.281 N 
ATOM      3  H2  UNL     1     120.278  -2.246 -57.380  1.00  0.00     0.188 HD
HETATM    4  N3  UNL     1     118.844  -3.155 -56.248  1.00  0.00    -0.274 N 
ATOM      5  H3  UNL     1     118.327  -2.289 -56.092  1.00  0.00     0.189 HD
HETATM    6  C2  UNL     1     118.395  -4.303 -55.710  1.00  0.00     0.226 A 
HETATM    7  N6  UNL     1     119.110  -5.413 -55.944  1.00  0.00    -0.315 N 
ATOM      8  H6  UNL     1     118.784  -6.293 -55.543  1.00  0.00     0.169 HD
HETATM    9  C7  UNL     1     120.233  -5.427 -56.678  1.00  0.00     0.146 A 
ENDROOT
BRANCH   6  10
HETATM   10  S1  UNL     1     116.938  -4.367 -54.742  1.00  0.00     0.256 S 
HETATM   11  O1  UNL     1     116.813  -3.075 -53.977  1.00  0.00    -0.213 OA
HETATM   12  O2  UNL     1     115.756  -4.450 -55.679  1.00  0.00    -0.213 OA
BRANCH  10  13
HETATM   13  C3  UNL     1     116.905  -5.737 -53.700  1.00  0.00     0.151 A 
HETATM   14  C4  UNL     1     117.579  -5.704 -52.503  1.00  0.00     0.130 A 
HETATM   15  N4  UNL     1     117.592  -6.743 -51.644  1.00  0.00    -0.371 N 
HETATM   16  C5  UNL     1     116.903  -7.841 -52.009  1.00  0.00     0.104 A 
ATOM     17  H4  UNL     1     118.099  -6.700 -50.761  1.00  0.00     0.164 HD
HETATM   18  C6  UNL     1     116.207  -7.935 -53.198  1.00  0.00     0.106 A 
HETATM   19  N5  UNL     1     116.234  -6.849 -54.024  1.00  0.00    -0.354 N 
ATOM     20  H5  UNL     1     115.730  -6.886 -54.910  1.00  0.00     0.166 HD
ENDBRANCH  10  13
ENDBRANCH   6  10
BRANCH   9  21
HETATM   21  N7  UNL     1     120.919  -6.512 -56.898  1.00  0.00    -0.382 N 
ATOM     22  H72 UNL     1     121.033  -6.914 -57.828  1.00  0.00     0.157 HD
ATOM     23  H71 UNL     1     121.362  -6.981 -56.107  1.00  0.00     0.157 HD
ENDBRANCH   9  21
BRANCH   1  24
HETATM   24  N1  UNL     1     121.758  -4.208 -57.935  1.00  0.00    -0.381 N 
ATOM     25  H12 UNL     1     121.719  -3.958 -58.923  1.00  0.00     0.157 HD
ATOM     26  H11 UNL     1     122.668  -4.428 -57.531  1.00  0.00     0.157 HD
ENDBRANCH   1  24
TORSDOF 4
ENDMDL
MODEL 5
REMARK VINA RESULT: -6.871751666      0.982      5.642
REMARK  4 active torsions:
REMARK  status: ('A' for Active; 'I' for Inactive)
REMARK    1  A    between atoms: N1_1  and  C1_4 
REMARK    2  A    between atoms: C2_9  and  S1_10 
REMARK    3  A    between atoms: S1_10  and  C3_13 
REMARK    4  A    between atoms: C7_23  and  N7_24 
ROOT
HETATM    1  C1  UNL     1     116.906  -8.069 -52.305  1.00  0.00     0.158 A 
HETATM    2  N2  UNL     1     115.932  -7.149 -52.377  1.00  0.00    -0.281 N 
ATOM      3  H2  UNL     1     115.006  -7.378 -52.017  1.00  0.00     0.188 HD
HETATM    4  N3  UNL     1     116.142  -5.938 -52.908  1.00  0.00    -0.274 N 
ATOM      5  H3  UNL     1     115.377  -5.265 -52.945  1.00  0.00     0.189 HD
HETATM    6  C2  UNL     1     117.349  -5.597 -53.394  1.00  0.00     0.226 A 
HETATM    7  N6  UNL     1     118.324  -6.516 -53.323  1.00  0.00    -0.315 N 
ATOM      8  H6  UNL     1     119.245  -6.275 -53.686  1.00  0.00     0.169 HD
HETATM    9  C7  UNL     1     118.148  -7.738 -52.797  1.00  0.00     0.146 A 
ENDROOT
BRANCH   6  10
HETATM   10  S1  UNL     1     117.658  -4.023 -54.094  1.00  0.00     0.256 S 
HETATM   11  O1  UNL     1     116.353  -3.276 -54.191  1.00  0.00    -0.213 OA
HETATM   12  O2  UNL     1     118.546  -3.253 -53.144  1.00  0.00    -0.213 OA
BRANCH  10  13
HETATM   13  C3  UNL     1     118.454  -4.129 -55.617  1.00  0.00     0.151 A 
HETATM   14  C4  UNL     1     118.356  -5.279 -56.362  1.00  0.00     0.130 A 
HETATM   15  N4  UNL     1     118.955  -5.425 -57.561  1.00  0.00    -0.371 N 
HETATM   16  C5  UNL     1     119.668  -4.378 -58.015  1.00  0.00     0.104 A 
ATOM     17  H4  UNL     1     118.871  -6.288 -58.098  1.00  0.00     0.164 HD
HETATM   18  C6  UNL     1     119.804  -3.197 -57.313  1.00  0.00     0.106 A 
HETATM   19  N5  UNL     1     119.174  -3.112 -56.106  1.00  0.00    -0.354 N 
ATOM     20  H5  UNL     1     119.254  -2.253 -55.562  1.00  0.00     0.166 HD
ENDBRANCH  10  13
ENDBRANCH   6  10
BRANCH   9  21
HETATM   21  N7  UNL     1     119.102  -8.623 -52.733  1.00  0.00    -0.382 N 
ATOM     22  H72 UNL     1     120.025  -8.413 -52.354  1.00  0.00     0.157 HD
ATOM     23  H71 UNL     1     118.920  -9.566 -53.077  1.00  0.00     0.157 HD
ENDBRANCH   9  21
BRANCH   1  24
HETATM   24  N1  UNL     1     116.690  -9.238 -51.789  1.00  0.00    -0.381 N 
ATOM     25  H12 UNL     1     115.769  -9.673 -51.854  1.00  0.00     0.157 HD
ATOM     26  H11 UNL     1     117.429  -9.749 -51.307  1.00  0.00     0.157 HD
ENDBRANCH   1  24
TORSDOF 4
ENDMDL
