MODEL 1
REMARK VINA RESULT: -7.219035341      0.000      0.000
REMARK  2 active torsions:
REMARK  status: ('A' for Active; 'I' for Inactive)
REMARK    1  A    between atoms: N1_2  and  C3_4 
REMARK    2  A    between atoms: C5_10  and  N4_11 
ROOT
HETATM    1  C3  UNL     1     120.535  -5.134 -59.683  1.00  0.00     0.682 A 
HETATM    2  N2  UNL     1     120.249  -6.179 -58.886  1.00  0.00    -0.172 N 
ATOM      3  H2  UNL     1     120.541  -7.141 -59.051  1.00  0.00     0.186 HD
HETATM    4  C4  UNL     1     119.515  -5.758 -57.836  1.00  0.00     0.181 A 
HETATM    5  N3  UNL     1     118.876  -6.064 -56.698  1.00  0.00    -0.171 N 
ATOM      6  H3  UNL     1     118.819  -7.002 -56.301  1.00  0.00     0.186 HD
HETATM    7  C5  UNL     1     118.322  -4.972 -56.153  1.00  0.00     0.702 A 
HETATM    8  N8  UNL     1     118.622  -3.948 -56.969  1.00  0.00    -0.171 N 
ATOM      9  H8  UNL     1     118.337  -2.981 -56.818  1.00  0.00     0.186 HD
HETATM   10  C9  UNL     1     119.357  -4.382 -58.021  1.00  0.00     0.181 A 
HETATM   11  N9  UNL     1     119.989  -4.036 -59.150  1.00  0.00    -0.172 N 
ATOM     12  H9  UNL     1     120.044  -3.094 -59.538  1.00  0.00     0.186 HD
ENDROOT
BRANCH   7  13
HETATM   13  N4  UNL     1     117.561  -4.904 -54.931  1.00  0.00    -0.120 N 
HETATM   14  C6  UNL     1     117.566  -3.653 -54.190  1.00  0.00     0.188 C 
HETATM   15  C7  UNL     1     117.999  -4.008 -52.780  1.00  0.00     0.144 C 
HETATM   16  N5  UNL     1     117.147  -5.064 -52.292  1.00  0.00    -0.362 N 
HETATM   17  C8  UNL     1     116.634  -6.067 -53.149  1.00  0.00     0.203 C 
ATOM     18  H5  UNL     1     116.906  -5.088 -51.301  1.00  0.00     0.162 HD
HETATM   19  N6  UNL     1     115.895  -7.168 -52.611  1.00  0.00    -0.062 NA
HETATM   20  N7  UNL     1     116.843  -5.977 -54.440  1.00  0.00    -0.257 N 
ATOM     21  H7  UNL     1     116.481  -6.691 -55.073  1.00  0.00     0.190 HD
ENDBRANCH   7  13
BRANCH   1  22
HETATM   22  N1  UNL     1     121.268  -5.157 -60.885  1.00  0.00    -0.226 N 
HETATM   23  C1  UNL     1     121.393  -3.969 -61.677  1.00  0.00     0.168 C 
HETATM   24  C2  UNL     1     121.886  -6.378 -61.329  1.00  0.00     0.168 C 
ENDBRANCH   1  22
TORSDOF 2
ENDMDL
MODEL 2
REMARK VINA RESULT: -7.177706848      0.201      1.138
REMARK  2 active torsions:
REMARK  status: ('A' for Active; 'I' for Inactive)
REMARK    1  A    between atoms: N1_2  and  C3_4 
REMARK    2  A    between atoms: C5_10  and  N4_11 
ROOT
HETATM    1  C3  UNL     1     120.569  -5.120 -59.671  1.00  0.00     0.682 A 
HETATM    2  N2  UNL     1     119.971  -4.026 -59.167  1.00  0.00    -0.172 N 
ATOM      3  H2  UNL     1     120.023  -3.090 -59.568  1.00  0.00     0.186 HD
HETATM    4  C4  UNL     1     119.293  -4.355 -58.049  1.00  0.00     0.181 A 
HETATM    5  N3  UNL     1     118.511  -3.961 -57.034  1.00  0.00    -0.171 N 
ATOM      6  H3  UNL     1     118.187  -3.005 -56.891  1.00  0.00     0.186 HD
HETATM    7  C5  UNL     1     118.212  -4.994 -56.233  1.00  0.00     0.702 A 
HETATM    8  N8  UNL     1     118.821  -6.069 -56.759  1.00  0.00    -0.171 N 
ATOM      9  H8  UNL     1     118.779  -7.011 -56.370  1.00  0.00     0.186 HD
HETATM   10  C9  UNL     1     119.500  -5.727 -57.880  1.00  0.00     0.181 A 
HETATM   11  N9  UNL     1     120.277  -6.160 -58.882  1.00  0.00    -0.172 N 
ATOM     12  H9  UNL     1     120.593  -7.119 -59.019  1.00  0.00     0.186 HD
ENDROOT
BRANCH   7  13
HETATM   13  N4  UNL     1     117.394  -4.962 -55.047  1.00  0.00    -0.120 N 
HETATM   14  C6  UNL     1     117.243  -3.694 -54.354  1.00  0.00     0.188 C 
HETATM   15  C7  UNL     1     117.644  -3.958 -52.915  1.00  0.00     0.144 C 
HETATM   16  N5  UNL     1     116.878  -5.076 -52.424  1.00  0.00    -0.362 N 
HETATM   17  C8  UNL     1     116.506  -6.153 -53.264  1.00  0.00     0.203 C 
ATOM     18  H5  UNL     1     116.596  -5.092 -51.443  1.00  0.00     0.162 HD
HETATM   19  N6  UNL     1     115.854  -7.304 -52.717  1.00  0.00    -0.062 NA
HETATM   20  N7  UNL     1     116.763  -6.085 -54.548  1.00  0.00    -0.257 N 
ATOM     21  H7  UNL     1     116.502  -6.851 -55.169  1.00  0.00     0.190 HD
ENDBRANCH   7  13
BRANCH   1  22
HETATM   22  N1  UNL     1     121.378  -5.194 -60.820  1.00  0.00    -0.226 N 
HETATM   23  C1  UNL     1     121.438  -4.090 -61.734  1.00  0.00     0.168 C 
HETATM   24  C2  UNL     1     122.140  -6.384 -61.089  1.00  0.00     0.168 C 
ENDBRANCH   1  22
TORSDOF 2
ENDMDL
MODEL 3
REMARK VINA RESULT: -7.160714100      0.576      1.011
REMARK  2 active torsions:
REMARK  status: ('A' for Active; 'I' for Inactive)
REMARK    1  A    between atoms: N1_2  and  C3_4 
REMARK    2  A    between atoms: C5_10  and  N4_11 
ROOT
HETATM    1  C3  UNL     1     120.406  -4.594 -59.549  1.00  0.00     0.682 A 
HETATM    2  N2  UNL     1     120.144  -5.722 -58.867  1.00  0.00    -0.172 N 
ATOM      3  H2  UNL     1     120.389  -6.664 -59.172  1.00  0.00     0.186 HD
HETATM    4  C4  UNL     1     119.509  -5.419 -57.716  1.00  0.00     0.181 A 
HETATM    5  N3  UNL     1     118.949  -5.850 -56.578  1.00  0.00    -0.171 N 
ATOM      6  H3  UNL     1     118.890  -6.829 -56.296  1.00  0.00     0.186 HD
HETATM    7  C5  UNL     1     118.478  -4.821 -55.859  1.00  0.00     0.702 A 
HETATM    8  N8  UNL     1     118.751  -3.711 -56.563  1.00  0.00    -0.171 N 
ATOM      9  H8  UNL     1     118.513  -2.763 -56.271  1.00  0.00     0.186 HD
HETATM   10  C9  UNL     1     119.387  -4.027 -57.717  1.00  0.00     0.181 A 
HETATM   11  N9  UNL     1     119.942  -3.558 -58.842  1.00  0.00    -0.172 N 
ATOM     12  H9  UNL     1     120.000  -2.576 -59.113  1.00  0.00     0.186 HD
ENDROOT
BRANCH   7  13
HETATM   13  N4  UNL     1     117.816  -4.889 -54.580  1.00  0.00    -0.120 N 
HETATM   14  C6  UNL     1     118.182  -3.912 -53.568  1.00  0.00     0.188 C 
HETATM   15  C7  UNL     1     118.569  -4.712 -52.339  1.00  0.00     0.144 C 
HETATM   16  N5  UNL     1     117.492  -5.618 -52.026  1.00  0.00    -0.362 N 
HETATM   17  C8  UNL     1     116.697  -6.211 -53.036  1.00  0.00     0.203 C 
ATOM     18  H5  UNL     1     117.297  -5.839 -51.049  1.00  0.00     0.162 HD
HETATM   19  N6  UNL     1     115.719  -7.200 -52.698  1.00  0.00    -0.062 NA
HETATM   20  N7  UNL     1     116.865  -5.845 -54.284  1.00  0.00    -0.257 N 
ATOM     21  H7  UNL     1     116.300  -6.261 -55.025  1.00  0.00     0.190 HD
ENDBRANCH   7  13
BRANCH   1  22
HETATM   22  N1  UNL     1     121.043  -4.483 -60.799  1.00  0.00    -0.226 N 
HETATM   23  C1  UNL     1     121.691  -5.622 -61.382  1.00  0.00     0.168 C 
HETATM   24  C2  UNL     1     121.056  -3.223 -61.493  1.00  0.00     0.168 C 
ENDBRANCH   1  22
TORSDOF 2
ENDMDL
MODEL 4
REMARK VINA RESULT: -6.968931282      1.201      1.495
REMARK  2 active torsions:
REMARK  status: ('A' for Active; 'I' for Inactive)
REMARK    1  A    between atoms: N1_2  and  C3_4 
REMARK    2  A    between atoms: C5_10  and  N4_11 
ROOT
HETATM    1  C3  UNL     1     120.910  -5.833 -59.226  1.00  0.00     0.682 A 
HETATM    2  N2  UNL     1     120.907  -6.860 -58.358  1.00  0.00    -0.172 N 
ATOM      3  H2  UNL     1     121.518  -7.674 -58.409  1.00  0.00     0.186 HD
HETATM    4  C4  UNL     1     119.972  -6.647 -57.409  1.00  0.00     0.181 A 
HETATM    5  N3  UNL     1     119.359  -7.080 -56.299  1.00  0.00    -0.171 N 
ATOM      6  H3  UNL     1     119.577  -7.954 -55.821  1.00  0.00     0.186 HD
HETATM    7  C5  UNL     1     118.421  -6.208 -55.902  1.00  0.00     0.702 A 
HETATM    8  N8  UNL     1     118.446  -5.197 -56.786  1.00  0.00    -0.171 N 
ATOM      9  H8  UNL     1     117.842  -4.376 -56.748  1.00  0.00     0.186 HD
HETATM   10  C9  UNL     1     119.386  -5.421 -57.734  1.00  0.00     0.181 A 
HETATM   11  N9  UNL     1     119.979  -4.953 -58.841  1.00  0.00    -0.172 N 
ATOM     12  H9  UNL     1     119.757  -4.075 -59.310  1.00  0.00     0.186 HD
ENDROOT
BRANCH   7  13
HETATM   13  N4  UNL     1     117.560  -6.325 -54.752  1.00  0.00    -0.120 N 
HETATM   14  C6  UNL     1     116.893  -5.127 -54.271  1.00  0.00     0.188 C 
HETATM   15  C7  UNL     1     117.251  -5.015 -52.801  1.00  0.00     0.144 C 
HETATM   16  N5  UNL     1     116.922  -6.260 -52.154  1.00  0.00    -0.362 N 
HETATM   17  C8  UNL     1     117.045  -7.503 -52.819  1.00  0.00     0.203 C 
ATOM     18  H5  UNL     1     116.591  -6.246 -51.189  1.00  0.00     0.162 HD
HETATM   19  N6  UNL     1     116.829  -8.727 -52.109  1.00  0.00    -0.062 NA
HETATM   20  N7  UNL     1     117.357  -7.522 -54.093  1.00  0.00    -0.257 N 
ATOM     21  H7  UNL     1     117.449  -8.409 -54.589  1.00  0.00     0.190 HD
ENDBRANCH   7  13
BRANCH   1  22
HETATM   22  N1  UNL     1     121.727  -5.681 -60.362  1.00  0.00    -0.226 N 
HETATM   23  C1  UNL     1     122.882  -6.513 -60.536  1.00  0.00     0.168 C 
HETATM   24  C2  UNL     1     121.413  -4.681 -61.348  1.00  0.00     0.168 C 
ENDBRANCH   1  22
TORSDOF 2
ENDMDL
MODEL 5
REMARK VINA RESULT: -6.961974925      1.489      2.208
REMARK  2 active torsions:
REMARK  status: ('A' for Active; 'I' for Inactive)
REMARK    1  A    between atoms: N1_2  and  C3_4 
REMARK    2  A    between atoms: C5_10  and  N4_11 
ROOT
HETATM    1  C3  UNL     1     121.262  -4.989 -60.960  1.00  0.00     0.682 A 
HETATM    2  N2  UNL     1     121.108  -6.008 -60.095  1.00  0.00    -0.172 N 
ATOM      3  H2  UNL     1     121.455  -6.956 -60.236  1.00  0.00     0.186 HD
HETATM    4  C4  UNL     1     120.423  -5.583 -59.014  1.00  0.00     0.181 A 
HETATM    5  N3  UNL     1     119.889  -5.873 -57.819  1.00  0.00    -0.171 N 
ATOM      6  H3  UNL     1     119.927  -6.791 -57.375  1.00  0.00     0.186 HD
HETATM    7  C5  UNL     1     119.298  -4.794 -57.286  1.00  0.00     0.702 A 
HETATM    8  N8  UNL     1     119.467  -3.796 -58.169  1.00  0.00    -0.171 N 
ATOM      9  H8  UNL     1     119.125  -2.843 -58.043  1.00  0.00     0.186 HD
HETATM   10  C9  UNL     1     120.155  -4.233 -59.251  1.00  0.00     0.181 A 
HETATM   11  N9  UNL     1     120.678  -3.904 -60.439  1.00  0.00    -0.172 N 
ATOM     12  H9  UNL     1     120.639  -2.982 -60.873  1.00  0.00     0.186 HD
ENDROOT
BRANCH   7  13
HETATM   13  N4  UNL     1     118.623  -4.714 -56.015  1.00  0.00    -0.120 N 
HETATM   14  C6  UNL     1     118.693  -5.865 -55.130  1.00  0.00     0.188 C 
HETATM   15  C7  UNL     1     117.257  -6.216 -54.793  1.00  0.00     0.144 C 
HETATM   16  N5  UNL     1     116.601  -5.034 -54.292  1.00  0.00    -0.362 N 
HETATM   17  C8  UNL     1     116.919  -3.742 -54.775  1.00  0.00     0.203 C 
ATOM     18  H5  UNL     1     115.888  -5.131 -53.569  1.00  0.00     0.162 HD
HETATM   19  N6  UNL     1     116.164  -2.604 -54.346  1.00  0.00    -0.062 NA
HETATM   20  N7  UNL     1     117.913  -3.598 -55.619  1.00  0.00    -0.257 N 
ATOM     21  H7  UNL     1     118.157  -2.675 -55.977  1.00  0.00     0.190 HD
ENDBRANCH   7  13
BRANCH   1  22
HETATM   22  N1  UNL     1     121.908  -5.024 -62.210  1.00  0.00    -0.226 N 
HETATM   23  C1  UNL     1     122.144  -3.811 -62.935  1.00  0.00     0.168 C 
HETATM   24  C2  UNL     1     122.324  -6.283 -62.770  1.00  0.00     0.168 C 
ENDBRANCH   1  22
TORSDOF 2
ENDMDL
