MODEL 1
REMARK VINA RESULT: -7.459174789      0.000      0.000
REMARK  3 active torsions:
REMARK  status: ('A' for Active; 'I' for Inactive)
REMARK    1  A    between atoms: N1_1  and  C1_4 
REMARK    2  A    between atoms: C2_7  and  N3_8 
REMARK    3  A    between atoms: C5_13  and  N5_14 
ROOT
HETATM    1  N3  UNL     1     119.962  -5.048 -56.588  1.00  0.00    -0.125 N 
HETATM    2  C3  UNL     1     120.002  -3.753 -56.951  1.00  0.00     0.209 A 
HETATM    3  N4  UNL     1     118.943  -3.162 -56.366  1.00  0.00    -0.345 N 
ATOM      4  H4  UNL     1     118.696  -2.176 -56.450  1.00  0.00     0.167 HD
HETATM    5  C4  UNL     1     118.263  -4.076 -55.654  1.00  0.00     0.123 A 
HETATM    6  C5  UNL     1     117.128  -4.011 -54.880  1.00  0.00     0.134 A 
HETATM    7  N6  UNL     1     116.674  -5.139 -54.270  1.00  0.00    -0.293 N 
ATOM      8  H6  UNL     1     115.834  -5.114 -53.691  1.00  0.00     0.172 HD
HETATM    9  C6  UNL     1     117.350  -6.287 -54.444  1.00  0.00     0.327 A 
HETATM   10  O1  UNL     1     116.893  -7.309 -53.861  1.00  0.00    -0.247 OA
HETATM   11  N7  UNL     1     118.465  -6.395 -55.194  1.00  0.00    -0.291 N 
ATOM     12  H7  UNL     1     118.949  -7.287 -55.299  1.00  0.00     0.172 HD
HETATM   13  C7  UNL     1     118.914  -5.280 -55.796  1.00  0.00     0.164 A 
ENDROOT
BRANCH   1  14
HETATM   14  C2  UNL     1     120.929  -6.035 -57.005  1.00  0.00     0.706 A 
HETATM   15  N2  UNL     1     122.167  -6.079 -56.487  1.00  0.00    -0.022 N 
HETATM   16  C1  UNL     1     123.095  -6.966 -56.836  1.00  0.00     0.691 A 
ATOM     17  H2  UNL     1     122.412  -5.386 -55.779  1.00  0.00     0.203 HD
HETATM   18  N9  UNL     1     122.775  -7.881 -57.769  1.00  0.00    -0.187 N 
HETATM   19  C8  UNL     1     121.540  -7.873 -58.317  1.00  0.00     0.215 A 
ATOM     20  H9  UNL     1     123.462  -8.578 -58.061  1.00  0.00     0.185 HD
HETATM   21  N8  UNL     1     120.613  -6.950 -57.938  1.00  0.00    -0.186 N 
ATOM     22  H8  UNL     1     119.684  -6.954 -58.359  1.00  0.00     0.185 HD
BRANCH  16  23
HETATM   23  N1  UNL     1     124.288  -7.015 -56.343  1.00  0.00    -0.234 N 
ATOM     24  H12 UNL     1     125.062  -6.794 -56.970  1.00  0.00     0.174 HD
ATOM     25  H11 UNL     1     124.508  -7.258 -55.377  1.00  0.00     0.174 HD
ENDBRANCH  16  23
ENDBRANCH   1  14
BRANCH   6  26
HETATM   26  N5  UNL     1     116.510  -2.889 -54.739  1.00  0.00    -0.383 N 
ATOM     27  H52 UNL     1     117.022  -2.007 -54.727  1.00  0.00     0.157 HD
ATOM     28  H51 UNL     1     115.495  -2.877 -54.640  1.00  0.00     0.157 HD
ENDBRANCH   6  26
TORSDOF 3
ENDMDL
MODEL 2
REMARK VINA RESULT: -7.329735025      1.543      1.617
REMARK  3 active torsions:
REMARK  status: ('A' for Active; 'I' for Inactive)
REMARK    1  A    between atoms: N1_1  and  C1_4 
REMARK    2  A    between atoms: C2_7  and  N3_8 
REMARK    3  A    between atoms: C5_13  and  N5_14 
ROOT
HETATM    1  N3  UNL     1     119.392  -5.111 -56.873  1.00  0.00    -0.125 N 
HETATM    2  C3  UNL     1     119.709  -3.808 -56.980  1.00  0.00     0.209 A 
HETATM    3  N4  UNL     1     118.943  -3.156 -56.086  1.00  0.00    -0.345 N 
ATOM      4  H4  UNL     1     118.949  -2.148 -55.925  1.00  0.00     0.167 HD
HETATM    5  C4  UNL     1     118.168  -4.041 -55.437  1.00  0.00     0.123 A 
HETATM    6  C5  UNL     1     117.222  -3.915 -54.447  1.00  0.00     0.134 A 
HETATM    7  N6  UNL     1     116.591  -5.028 -53.984  1.00  0.00    -0.293 N 
ATOM      8  H6  UNL     1     115.887  -4.958 -53.250  1.00  0.00     0.172 HD
HETATM    9  C6  UNL     1     116.912  -6.221 -54.512  1.00  0.00     0.327 A 
HETATM   10  O1  UNL     1     116.302  -7.226 -54.054  1.00  0.00    -0.247 OA
HETATM   11  N7  UNL     1     117.831  -6.390 -55.483  1.00  0.00    -0.291 N 
ATOM     12  H7  UNL     1     118.045  -7.315 -55.856  1.00  0.00     0.172 HD
HETATM   13  C7  UNL     1     118.455  -5.289 -55.940  1.00  0.00     0.164 A 
ENDROOT
BRANCH   1  14
HETATM   14  C2  UNL     1     119.994  -6.159 -57.663  1.00  0.00     0.706 A 
HETATM   15  N2  UNL     1     120.217  -7.384 -57.163  1.00  0.00    -0.022 N 
HETATM   16  C1  UNL     1     120.768  -8.384 -57.847  1.00  0.00     0.691 A 
ATOM     17  H2  UNL     1     119.947  -7.561 -56.196  1.00  0.00     0.203 HD
HETATM   18  N9  UNL     1     121.126  -8.155 -59.124  1.00  0.00    -0.187 N 
HETATM   19  C8  UNL     1     120.919  -6.934 -59.667  1.00  0.00     0.215 A 
ATOM     20  H9  UNL     1     121.550  -8.898 -59.680  1.00  0.00     0.185 HD
HETATM   21  N8  UNL     1     120.353  -5.932 -58.939  1.00  0.00    -0.186 N 
ATOM     22  H8  UNL     1     120.202  -5.015 -59.359  1.00  0.00     0.185 HD
BRANCH  16  23
HETATM   23  N1  UNL     1     120.987  -9.566 -57.375  1.00  0.00    -0.234 N 
ATOM     24  H12 UNL     1     120.267 -10.272 -57.531  1.00  0.00     0.174 HD
ATOM     25  H11 UNL     1     121.823  -9.841 -56.860  1.00  0.00     0.174 HD
ENDBRANCH  16  23
ENDBRANCH   1  14
BRANCH   6  26
HETATM   26  N5  UNL     1     116.945  -2.751 -53.968  1.00  0.00    -0.383 N 
ATOM     27  H52 UNL     1     117.648  -2.212 -53.462  1.00  0.00     0.157 HD
ATOM     28  H51 UNL     1     116.012  -2.359 -54.094  1.00  0.00     0.157 HD
ENDBRANCH   6  26
TORSDOF 3
ENDMDL
MODEL 3
REMARK VINA RESULT: -7.280915057      0.582      1.545
REMARK  3 active torsions:
REMARK  status: ('A' for Active; 'I' for Inactive)
REMARK    1  A    between atoms: N1_1  and  C1_4 
REMARK    2  A    between atoms: C2_7  and  N3_8 
REMARK    3  A    between atoms: C5_13  and  N5_14 
ROOT
HETATM    1  N3  UNL     1     119.931  -5.103 -56.539  1.00  0.00    -0.125 N 
HETATM    2  C3  UNL     1     119.980  -3.815 -56.926  1.00  0.00     0.209 A 
HETATM    3  N4  UNL     1     118.937  -3.202 -56.336  1.00  0.00    -0.345 N 
ATOM      4  H4  UNL     1     118.700  -2.214 -56.434  1.00  0.00     0.167 HD
HETATM    5  C4  UNL     1     118.257  -4.094 -55.598  1.00  0.00     0.123 A 
HETATM    6  C5  UNL     1     117.135  -4.003 -54.808  1.00  0.00     0.134 A 
HETATM    7  N6  UNL     1     116.677  -5.114 -54.172  1.00  0.00    -0.293 N 
ATOM      8  H6  UNL     1     115.847  -5.069 -53.581  1.00  0.00     0.172 HD
HETATM    9  C6  UNL     1     117.337  -6.272 -54.335  1.00  0.00     0.327 A 
HETATM   10  O1  UNL     1     116.877  -7.279 -53.727  1.00  0.00    -0.247 OA
HETATM   11  N7  UNL     1     118.439  -6.408 -55.099  1.00  0.00    -0.291 N 
ATOM     12  H7  UNL     1     118.911  -7.307 -55.196  1.00  0.00     0.172 HD
HETATM   13  C7  UNL     1     118.892  -5.308 -55.728  1.00  0.00     0.164 A 
ENDROOT
BRANCH   1  14
HETATM   14  C2  UNL     1     120.880  -6.109 -56.953  1.00  0.00     0.706 A 
HETATM   15  N2  UNL     1     120.518  -7.153 -57.716  1.00  0.00    -0.022 N 
HETATM   16  C1  UNL     1     121.350  -8.107 -58.124  1.00  0.00     0.691 A 
ATOM     17  H2  UNL     1     119.540  -7.219 -58.001  1.00  0.00     0.203 HD
HETATM   18  N9  UNL     1     122.640  -8.024 -57.750  1.00  0.00    -0.187 N 
HETATM   19  C8  UNL     1     123.047  -6.989 -56.981  1.00  0.00     0.215 A 
ATOM     20  H9  UNL     1     123.307  -8.737 -58.045  1.00  0.00     0.185 HD
HETATM   21  N8  UNL     1     122.169  -6.029 -56.580  1.00  0.00    -0.186 N 
ATOM     22  H8  UNL     1     122.488  -5.252 -56.000  1.00  0.00     0.185 HD
BRANCH  16  23
HETATM   23  N1  UNL     1     121.011  -9.115 -58.857  1.00  0.00    -0.234 N 
ATOM     24  H12 UNL     1     121.470  -9.209 -59.764  1.00  0.00     0.174 HD
ATOM     25  H11 UNL     1     120.321  -9.819 -58.595  1.00  0.00     0.174 HD
ENDBRANCH  16  23
ENDBRANCH   1  14
BRANCH   6  26
HETATM   26  N5  UNL     1     116.532  -2.871 -54.678  1.00  0.00    -0.383 N 
ATOM     27  H52 UNL     1     116.656  -2.130 -55.368  1.00  0.00     0.157 HD
ATOM     28  H51 UNL     1     115.922  -2.709 -53.878  1.00  0.00     0.157 HD
ENDBRANCH   6  26
TORSDOF 3
ENDMDL
MODEL 4
REMARK VINA RESULT: -7.261701925      2.410      5.172
REMARK  3 active torsions:
REMARK  status: ('A' for Active; 'I' for Inactive)
REMARK    1  A    between atoms: N1_1  and  C1_4 
REMARK    2  A    between atoms: C2_7  and  N3_8 
REMARK    3  A    between atoms: C5_13  and  N5_14 
ROOT
HETATM    1  N3  UNL     1     118.831  -5.290 -55.809  1.00  0.00    -0.125 N 
HETATM    2  C3  UNL     1     118.783  -4.033 -56.286  1.00  0.00     0.209 A 
HETATM    3  N4  UNL     1     119.350  -4.068 -57.506  1.00  0.00    -0.345 N 
ATOM      4  H4  UNL     1     119.465  -3.266 -58.127  1.00  0.00     0.167 HD
HETATM    5  C4  UNL     1     119.741  -5.323 -57.777  1.00  0.00     0.123 A 
HETATM    6  C5  UNL     1     120.361  -5.903 -58.860  1.00  0.00     0.134 A 
HETATM    7  N6  UNL     1     120.634  -7.235 -58.835  1.00  0.00    -0.293 N 
ATOM      8  H6  UNL     1     121.092  -7.686 -59.627  1.00  0.00     0.172 HD
HETATM    9  C6  UNL     1     120.288  -7.947 -57.751  1.00  0.00     0.327 A 
HETATM   10  O1  UNL     1     120.560  -9.180 -57.770  1.00  0.00    -0.247 OA
HETATM   11  N7  UNL     1     119.679  -7.421 -56.669  1.00  0.00    -0.291 N 
ATOM     12  H7  UNL     1     119.433  -7.999 -55.865  1.00  0.00     0.172 HD
HETATM   13  C7  UNL     1     119.410  -6.104 -56.693  1.00  0.00     0.164 A 
ENDROOT
BRANCH   1  14
HETATM   14  C2  UNL     1     118.322  -5.686 -54.517  1.00  0.00     0.706 A 
HETATM   15  N2  UNL     1     118.408  -6.953 -54.080  1.00  0.00    -0.022 N 
HETATM   16  C1  UNL     1     117.955  -7.371 -52.901  1.00  0.00     0.691 A 
ATOM     17  H2  UNL     1     118.849  -7.639 -54.692  1.00  0.00     0.203 HD
HETATM   18  N9  UNL     1     117.373  -6.468 -52.091  1.00  0.00    -0.187 N 
HETATM   19  C8  UNL     1     117.266  -5.181 -52.492  1.00  0.00     0.215 A 
ATOM     20  H9  UNL     1     117.015  -6.752 -51.178  1.00  0.00     0.185 HD
HETATM   21  N8  UNL     1     117.739  -4.787 -53.706  1.00  0.00    -0.186 N 
ATOM     22  H8  UNL     1     117.652  -3.813 -53.998  1.00  0.00     0.185 HD
BRANCH  16  23
HETATM   23  N1  UNL     1     118.033  -8.587 -52.472  1.00  0.00    -0.234 N 
ATOM     24  H12 UNL     1     118.522  -9.260 -53.063  1.00  0.00     0.174 HD
ATOM     25  H11 UNL     1     117.643  -8.918 -51.590  1.00  0.00     0.174 HD
ENDBRANCH  16  23
ENDBRANCH   1  14
BRANCH   6  26
HETATM   26  N5  UNL     1     120.676  -5.182 -59.881  1.00  0.00    -0.383 N 
ATOM     27  H52 UNL     1     120.634  -5.565 -60.825  1.00  0.00     0.157 HD
ATOM     28  H51 UNL     1     120.972  -4.215 -59.749  1.00  0.00     0.157 HD
ENDBRANCH   6  26
TORSDOF 3
ENDMDL
MODEL 5
REMARK VINA RESULT: -7.179106662      2.579      3.618
REMARK  3 active torsions:
REMARK  status: ('A' for Active; 'I' for Inactive)
REMARK    1  A    between atoms: N1_1  and  C1_4 
REMARK    2  A    between atoms: C2_7  and  N3_8 
REMARK    3  A    between atoms: C5_13  and  N5_14 
ROOT
HETATM    1  N3  UNL     1     119.162  -5.406 -56.650  1.00  0.00    -0.125 N 
HETATM    2  C3  UNL     1     119.397  -6.730 -56.631  1.00  0.00     0.209 A 
HETATM    3  N4  UNL     1     118.621  -7.239 -55.656  1.00  0.00    -0.345 N 
ATOM      4  H4  UNL     1     118.573  -8.224 -55.393  1.00  0.00     0.167 HD
HETATM    5  C4  UNL     1     117.920  -6.247 -55.084  1.00  0.00     0.123 A 
HETATM    6  C5  UNL     1     117.000  -6.213 -54.062  1.00  0.00     0.134 A 
HETATM    7  N6  UNL     1     116.451  -5.022 -53.701  1.00  0.00    -0.293 N 
ATOM      8  H6  UNL     1     115.767  -4.973 -52.947  1.00  0.00     0.172 HD
HETATM    9  C6  UNL     1     116.826  -3.911 -54.356  1.00  0.00     0.327 A 
HETATM   10  O1  UNL     1     116.292  -2.828 -53.988  1.00  0.00    -0.247 OA
HETATM   11  N7  UNL     1     117.724  -3.898 -55.362  1.00  0.00    -0.291 N 
ATOM     12  H7  UNL     1     117.980  -3.031 -55.834  1.00  0.00     0.172 HD
HETATM   13  C7  UNL     1     118.266  -5.076 -55.718  1.00  0.00     0.164 A 
ENDROOT
BRANCH   1  14
HETATM   14  C2  UNL     1     119.800  -4.483 -57.559  1.00  0.00     0.706 A 
HETATM   15  N2  UNL     1     120.280  -3.299 -57.146  1.00  0.00    -0.022 N 
HETATM   16  C1  UNL     1     120.874  -2.413 -57.941  1.00  0.00     0.691 A 
ATOM     17  H2  UNL     1     120.182  -3.064 -56.159  1.00  0.00     0.203 HD
HETATM   18  N9  UNL     1     121.005  -2.721 -59.245  1.00  0.00    -0.187 N 
HETATM   19  C8  UNL     1     120.535  -3.903 -59.703  1.00  0.00     0.215 A 
ATOM     20  H9  UNL     1     121.457  -2.066 -59.884  1.00  0.00     0.185 HD
HETATM   21  N8  UNL     1     119.931  -4.787 -58.862  1.00  0.00    -0.186 N 
ATOM     22  H8  UNL     1     119.580  -5.676 -59.219  1.00  0.00     0.185 HD
BRANCH  16  23
HETATM   23  N1  UNL     1     121.339  -1.272 -57.553  1.00  0.00    -0.234 N 
ATOM     24  H12 UNL     1     122.216  -0.959 -57.970  1.00  0.00     0.174 HD
ATOM     25  H11 UNL     1     120.893  -0.667 -56.864  1.00  0.00     0.174 HD
ENDBRANCH  16  23
ENDBRANCH   1  14
BRANCH   6  26
HETATM   26  N5  UNL     1     116.668  -7.303 -53.460  1.00  0.00    -0.383 N 
ATOM     27  H52 UNL     1     115.688  -7.539 -53.307  1.00  0.00     0.157 HD
ATOM     28  H51 UNL     1     117.391  -7.942 -53.131  1.00  0.00     0.157 HD
ENDBRANCH   6  26
TORSDOF 3
ENDMDL
