MODEL 1
REMARK VINA RESULT: -8.432916196      0.000      0.000
REMARK  9 active torsions:
REMARK  status: ('A' for Active; 'I' for Inactive)
REMARK    1  A    between atoms: C2_2  and  C3_3 
REMARK    2  A    between atoms: C3_3  and  C10_10 
REMARK    3  A    between atoms: C4_4  and  C5_5 
REMARK    4  A    between atoms: C5_5  and  C6_6 
REMARK    5  A    between atoms: C13_13  and  O1_14 
REMARK    6  A    between atoms: C17_19  and  C18_20 
REMARK    7  A    between atoms: C19_21  and  C20_22 
REMARK    8  A    between atoms: C21_23  and  C23_25 
REMARK    9  A    between atoms: C24_26  and  C25_27 
ROOT
HETATM    1  C10 UNL     1      -7.799  16.617 -10.132  1.00  0.00     0.027 C 
HETATM    2  C11 UNL     1      -7.722  17.238 -11.499  1.00  0.00     0.017 C 
HETATM    3  C12 UNL     1      -8.614  18.457 -11.441  1.00  0.00     0.020 C 
HETATM    4  C13 UNL     1      -9.778  18.516 -12.363  1.00  0.00     0.126 C 
HETATM    5  C14 UNL     1     -10.726  18.128 -11.224  1.00  0.00     0.016 C 
HETATM    6  C15 UNL     1     -11.785  19.201 -11.040  1.00  0.00     0.013 C 
HETATM    7  C16 UNL     1      -9.572  18.235 -10.291  1.00  0.00     0.006 C 
HETATM    8  C17 UNL     1      -9.131  16.977  -9.572  1.00  0.00     0.021 C 
ENDROOT
BRANCH   8   9
HETATM    9  C18 UNL     1      -8.978  17.376  -8.121  1.00  0.00    -0.021 C 
HETATM   10  C19 UNL     1      -8.951  16.493  -7.151  1.00  0.00    -0.003 C 
BRANCH  10  11
HETATM   11  C20 UNL     1      -8.804  16.916  -5.790  1.00  0.00     0.006 C 
HETATM   12  C21 UNL     1      -7.701  16.848  -5.037  1.00  0.00    -0.062 C 
HETATM   13  C22 UNL     1      -6.466  16.287  -5.612  1.00  0.00     0.048 C 
BRANCH  12  14
HETATM   14  C23 UNL     1      -7.783  17.329  -3.668  1.00  0.00     0.003 C 
HETATM   15  C24 UNL     1      -8.331  16.826  -2.623  1.00  0.00    -0.022 C 
BRANCH  15  16
HETATM   16  C25 UNL     1      -9.076  15.611  -2.350  1.00  0.00    -0.000 C 
HETATM   17  C26 UNL     1      -8.075  14.426  -2.484  1.00  0.00     0.013 C 
HETATM   18  C27 UNL     1      -9.420  15.596  -0.848  1.00  0.00     0.013 C 
ENDBRANCH  15  16
ENDBRANCH  12  14
ENDBRANCH  10  11
ENDBRANCH   8   9
BRANCH   1  19
HETATM   19  C3  UNL     1      -7.450  15.169 -10.096  1.00  0.00    -0.058 C 
HETATM   20  C4  UNL     1      -8.395  14.338  -9.725  1.00  0.00    -0.015 C 
BRANCH  19  21
HETATM   21  C2  UNL     1      -6.142  14.665 -10.436  1.00  0.00    -0.003 C 
HETATM   22  C1  UNL     1      -5.073  14.626  -9.690  1.00  0.00     0.012 C 
ENDBRANCH  19  21
BRANCH  20  23
HETATM   23  C5  UNL     1      -8.276  12.903  -9.612  1.00  0.00     0.055 C 
BRANCH  23  24
HETATM   24  C6  UNL     1      -8.978  12.378  -8.387  1.00  0.00    -0.021 C 
HETATM   25  C7  UNL     1      -8.371  12.425  -7.234  1.00  0.00    -0.091 C 
HETATM   26  C8  UNL     1      -7.011  12.985  -7.117  1.00  0.00     0.042 C 
HETATM   27  C9  UNL     1      -9.042  11.910  -6.003  1.00  0.00     0.042 C 
ENDBRANCH  23  24
ENDBRANCH  20  23
ENDBRANCH   1  19
BRANCH   4  28
HETATM   28  O1  UNL     1      -9.865  17.609 -13.387  1.00  0.00    -0.395 OA
ATOM     29  H1  UNL     1     -10.393  17.820 -14.149  1.00  0.00     0.210 HD
ENDBRANCH   4  28
TORSDOF 9
ENDMDL
MODEL 2
REMARK VINA RESULT: -7.308582364      2.588      5.372
REMARK  9 active torsions:
REMARK  status: ('A' for Active; 'I' for Inactive)
REMARK    1  A    between atoms: C2_2  and  C3_3 
REMARK    2  A    between atoms: C3_3  and  C10_10 
REMARK    3  A    between atoms: C4_4  and  C5_5 
REMARK    4  A    between atoms: C5_5  and  C6_6 
REMARK    5  A    between atoms: C13_13  and  O1_14 
REMARK    6  A    between atoms: C17_19  and  C18_20 
REMARK    7  A    between atoms: C19_21  and  C20_22 
REMARK    8  A    between atoms: C21_23  and  C23_25 
REMARK    9  A    between atoms: C24_26  and  C25_27 
ROOT
HETATM    1  C10 UNL     1      -8.855  18.698  -8.220  1.00  0.00     0.027 C 
HETATM    2  C11 UNL     1      -9.755  19.869  -8.502  1.00  0.00     0.017 C 
HETATM    3  C12 UNL     1     -10.797  19.357  -9.470  1.00  0.00     0.020 C 
HETATM    4  C13 UNL     1     -10.884  19.998 -10.808  1.00  0.00     0.126 C 
HETATM    5  C14 UNL     1     -10.135  18.823 -11.444  1.00  0.00     0.016 C 
HETATM    6  C15 UNL     1     -10.986  18.192 -12.532  1.00  0.00     0.013 C 
HETATM    7  C16 UNL     1     -10.204  18.129 -10.129  1.00  0.00     0.006 C 
HETATM    8  C17 UNL     1      -8.898  17.825  -9.426  1.00  0.00     0.021 C 
ENDROOT
BRANCH   8   9
HETATM    9  C18 UNL     1      -8.999  16.378  -8.998  1.00  0.00    -0.021 C 
HETATM   10  C19 UNL     1      -9.077  16.023  -7.737  1.00  0.00    -0.003 C 
BRANCH  10  11
HETATM   11  C20 UNL     1      -9.171  14.641  -7.377  1.00  0.00     0.006 C 
HETATM   12  C21 UNL     1      -8.272  13.920  -6.699  1.00  0.00    -0.062 C 
HETATM   13  C22 UNL     1      -7.026  14.560  -6.242  1.00  0.00     0.048 C 
BRANCH  12  14
HETATM   14  C23 UNL     1      -8.572  12.519  -6.452  1.00  0.00     0.003 C 
HETATM   15  C24 UNL     1      -8.998  11.593  -7.230  1.00  0.00    -0.022 C 
BRANCH  15  16
HETATM   16  C25 UNL     1      -9.353  11.528  -8.636  1.00  0.00    -0.000 C 
HETATM   17  C26 UNL     1      -8.140  12.090  -9.436  1.00  0.00     0.013 C 
HETATM   18  C27 UNL     1      -9.372  10.044  -9.050  1.00  0.00     0.013 C 
ENDBRANCH  15  16
ENDBRANCH  12  14
ENDBRANCH  10  11
ENDBRANCH   8   9
BRANCH   1  19
HETATM   19  C3  UNL     1      -7.496  19.072  -7.738  1.00  0.00    -0.058 C 
HETATM   20  C4  UNL     1      -6.475  18.638  -8.440  1.00  0.00    -0.015 C 
BRANCH  19  21
HETATM   21  C2  UNL     1      -7.269  19.864  -6.554  1.00  0.00    -0.003 C 
HETATM   22  C1  UNL     1      -7.878  19.786  -5.402  1.00  0.00     0.012 C 
ENDBRANCH  19  21
BRANCH  20  23
HETATM   23  C5  UNL     1      -5.079  18.873  -8.153  1.00  0.00     0.055 C 
BRANCH  23  24
HETATM   24  C6  UNL     1      -4.278  17.598  -8.193  1.00  0.00    -0.021 C 
HETATM   25  C7  UNL     1      -3.174  17.560  -8.887  1.00  0.00    -0.091 C 
HETATM   26  C8  UNL     1      -2.704  18.745  -9.628  1.00  0.00     0.042 C 
HETATM   27  C9  UNL     1      -2.361  16.308  -8.947  1.00  0.00     0.042 C 
ENDBRANCH  23  24
ENDBRANCH  20  23
ENDBRANCH   1  19
BRANCH   4  28
HETATM   28  O1  UNL     1     -10.210  21.171 -11.031  1.00  0.00    -0.395 OA
ATOM     29  H1  UNL     1     -10.503  21.963 -10.594  1.00  0.00     0.210 HD
ENDBRANCH   4  28
TORSDOF 9
ENDMDL
MODEL 3
REMARK VINA RESULT: -7.261629088      1.444      2.769
REMARK  9 active torsions:
REMARK  status: ('A' for Active; 'I' for Inactive)
REMARK    1  A    between atoms: C2_2  and  C3_3 
REMARK    2  A    between atoms: C3_3  and  C10_10 
REMARK    3  A    between atoms: C4_4  and  C5_5 
REMARK    4  A    between atoms: C5_5  and  C6_6 
REMARK    5  A    between atoms: C13_13  and  O1_14 
REMARK    6  A    between atoms: C17_19  and  C18_20 
REMARK    7  A    between atoms: C19_21  and  C20_22 
REMARK    8  A    between atoms: C21_23  and  C23_25 
REMARK    9  A    between atoms: C24_26  and  C25_27 
ROOT
HETATM    1  C10 UNL     1      -8.149  16.457  -9.712  1.00  0.00     0.027 C 
HETATM    2  C11 UNL     1      -7.858  17.189 -10.993  1.00  0.00     0.017 C 
HETATM    3  C12 UNL     1      -8.668  18.463 -10.925  1.00  0.00     0.020 C 
HETATM    4  C13 UNL     1      -9.699  18.692 -11.971  1.00  0.00     0.126 C 
HETATM    5  C14 UNL     1     -10.808  18.280 -10.997  1.00  0.00     0.016 C 
HETATM    6  C15 UNL     1     -11.808  19.411 -10.839  1.00  0.00     0.013 C 
HETATM    7  C16 UNL     1      -9.777  18.214  -9.926  1.00  0.00     0.006 C 
HETATM    8  C17 UNL     1      -9.515  16.869  -9.284  1.00  0.00     0.021 C 
ENDROOT
BRANCH   8   9
HETATM    9  C18 UNL     1      -9.522  17.125  -7.794  1.00  0.00    -0.021 C 
HETATM   10  C19 UNL     1      -8.425  17.386  -7.122  1.00  0.00    -0.003 C 
BRANCH  10  11
HETATM   11  C20 UNL     1      -8.479  17.622  -5.710  1.00  0.00     0.006 C 
HETATM   12  C21 UNL     1      -7.649  17.140  -4.779  1.00  0.00    -0.062 C 
HETATM   13  C22 UNL     1      -6.536  16.263  -5.184  1.00  0.00     0.048 C 
BRANCH  12  14
HETATM   14  C23 UNL     1      -7.899  17.504  -3.394  1.00  0.00     0.003 C 
HETATM   15  C24 UNL     1      -8.469  16.866  -2.438  1.00  0.00    -0.022 C 
BRANCH  15  16
HETATM   16  C25 UNL     1      -9.088  15.559  -2.314  1.00  0.00    -0.000 C 
HETATM   17  C26 UNL     1      -7.962  14.504  -2.523  1.00  0.00     0.013 C 
HETATM   18  C27 UNL     1      -9.471  15.357  -0.835  1.00  0.00     0.013 C 
ENDBRANCH  15  16
ENDBRANCH  12  14
ENDBRANCH  10  11
ENDBRANCH   8   9
BRANCH   1  19
HETATM   19  C3  UNL     1      -7.903  14.989  -9.774  1.00  0.00    -0.058 C 
HETATM   20  C4  UNL     1      -6.799  14.594 -10.363  1.00  0.00    -0.015 C 
BRANCH  19  21
HETATM   21  C2  UNL     1      -8.818  14.014  -9.232  1.00  0.00    -0.003 C 
HETATM   22  C1  UNL     1      -8.867  13.541  -8.017  1.00  0.00     0.012 C 
ENDBRANCH  19  21
BRANCH  20  23
HETATM   23  C5  UNL     1      -6.367  13.227 -10.541  1.00  0.00     0.055 C 
BRANCH  23  24
HETATM   24  C6  UNL     1      -5.071  13.146 -11.303  1.00  0.00    -0.021 C 
HETATM   25  C7  UNL     1      -4.973  12.321 -12.309  1.00  0.00    -0.091 C 
HETATM   26  C8  UNL     1      -6.112  11.474 -12.707  1.00  0.00     0.042 C 
HETATM   27  C9  UNL     1      -3.698  12.218 -13.082  1.00  0.00     0.042 C 
ENDBRANCH  23  24
ENDBRANCH  20  23
ENDBRANCH   1  19
BRANCH   4  28
HETATM   28  O1  UNL     1      -9.715  17.887 -13.081  1.00  0.00    -0.395 OA
ATOM     29  H1  UNL     1      -9.416  18.240 -13.911  1.00  0.00     0.210 HD
ENDBRANCH   4  28
TORSDOF 9
ENDMDL
MODEL 4
REMARK VINA RESULT: -7.174022196      1.951      5.092
REMARK  9 active torsions:
REMARK  status: ('A' for Active; 'I' for Inactive)
REMARK    1  A    between atoms: C2_2  and  C3_3 
REMARK    2  A    between atoms: C3_3  and  C10_10 
REMARK    3  A    between atoms: C4_4  and  C5_5 
REMARK    4  A    between atoms: C5_5  and  C6_6 
REMARK    5  A    between atoms: C13_13  and  O1_14 
REMARK    6  A    between atoms: C17_19  and  C18_20 
REMARK    7  A    between atoms: C19_21  and  C20_22 
REMARK    8  A    between atoms: C21_23  and  C23_25 
REMARK    9  A    between atoms: C24_26  and  C25_27 
ROOT
HETATM    1  C10 UNL     1      -8.368  14.998  -9.059  1.00  0.00     0.027 C 
HETATM    2  C11 UNL     1      -7.970  13.888  -9.991  1.00  0.00     0.017 C 
HETATM    3  C12 UNL     1      -6.689  13.320  -9.423  1.00  0.00     0.020 C 
HETATM    4  C13 UNL     1      -5.465  13.378 -10.264  1.00  0.00     0.126 C 
HETATM    5  C14 UNL     1      -4.947  14.578  -9.463  1.00  0.00     0.016 C 
HETATM    6  C15 UNL     1      -3.595  14.252  -8.855  1.00  0.00     0.013 C 
HETATM    7  C16 UNL     1      -6.098  14.397  -8.538  1.00  0.00     0.006 C 
HETATM    8  C17 UNL     1      -7.112  15.518  -8.450  1.00  0.00     0.021 C 
ENDROOT
BRANCH   8   9
HETATM    9  C18 UNL     1      -7.327  15.753  -6.972  1.00  0.00    -0.021 C 
HETATM   10  C19 UNL     1      -6.681  16.681  -6.308  1.00  0.00    -0.003 C 
BRANCH  10  11
HETATM   11  C20 UNL     1      -6.915  16.868  -4.908  1.00  0.00     0.006 C 
HETATM   12  C21 UNL     1      -7.896  17.577  -4.341  1.00  0.00    -0.062 C 
HETATM   13  C22 UNL     1      -8.879  18.267  -5.196  1.00  0.00     0.048 C 
BRANCH  12  14
HETATM   14  C23 UNL     1      -7.938  17.639  -2.889  1.00  0.00     0.003 C 
HETATM   15  C24 UNL     1      -8.433  16.838  -2.019  1.00  0.00    -0.022 C 
BRANCH  15  16
HETATM   16  C25 UNL     1      -9.138  15.571  -2.087  1.00  0.00    -0.000 C 
HETATM   17  C26 UNL     1      -8.097  14.496  -2.515  1.00  0.00     0.013 C 
HETATM   18  C27 UNL     1      -9.489  15.148  -0.648  1.00  0.00     0.013 C 
ENDBRANCH  15  16
ENDBRANCH  12  14
ENDBRANCH  10  11
ENDBRANCH   8   9
BRANCH   1  19
HETATM   19  C3  UNL     1      -9.265  16.020  -9.670  1.00  0.00    -0.058 C 
HETATM   20  C4  UNL     1     -10.394  15.591 -10.183  1.00  0.00    -0.015 C 
BRANCH  19  21
HETATM   21  C2  UNL     1      -8.938  17.424  -9.723  1.00  0.00    -0.003 C 
HETATM   22  C1  UNL     1      -9.240  18.356  -8.862  1.00  0.00     0.012 C 
ENDBRANCH  19  21
BRANCH  20  23
HETATM   23  C5  UNL     1     -11.402  16.401 -10.827  1.00  0.00     0.055 C 
BRANCH  23  24
HETATM   24  C6  UNL     1     -10.960  16.862 -12.191  1.00  0.00    -0.021 C 
HETATM   25  C7  UNL     1     -11.101  18.118 -12.516  1.00  0.00    -0.091 C 
HETATM   26  C8  UNL     1     -11.683  19.085 -11.567  1.00  0.00     0.042 C 
HETATM   27  C9  UNL     1     -10.673  18.604 -13.863  1.00  0.00     0.042 C 
ENDBRANCH  23  24
ENDBRANCH  20  23
ENDBRANCH   1  19
BRANCH   4  28
HETATM   28  O1  UNL     1      -5.582  13.703 -11.590  1.00  0.00    -0.395 OA
ATOM     29  H1  UNL     1      -6.078  13.131 -12.165  1.00  0.00     0.210 HD
ENDBRANCH   4  28
TORSDOF 9
ENDMDL
MODEL 5
REMARK VINA RESULT: -7.102776882      2.017      5.143
REMARK  9 active torsions:
REMARK  status: ('A' for Active; 'I' for Inactive)
REMARK    1  A    between atoms: C2_2  and  C3_3 
REMARK    2  A    between atoms: C3_3  and  C10_10 
REMARK    3  A    between atoms: C4_4  and  C5_5 
REMARK    4  A    between atoms: C5_5  and  C6_6 
REMARK    5  A    between atoms: C13_13  and  O1_14 
REMARK    6  A    between atoms: C17_19  and  C18_20 
REMARK    7  A    between atoms: C19_21  and  C20_22 
REMARK    8  A    between atoms: C21_23  and  C23_25 
REMARK    9  A    between atoms: C24_26  and  C25_27 
ROOT
HETATM    1  C10 UNL     1      -7.721  15.048  -9.200  1.00  0.00     0.027 C 
HETATM    2  C11 UNL     1      -7.238  13.830  -9.937  1.00  0.00     0.017 C 
HETATM    3  C12 UNL     1      -5.876  13.520  -9.362  1.00  0.00     0.020 C 
HETATM    4  C13 UNL     1      -4.707  13.547 -10.279  1.00  0.00     0.126 C 
HETATM    5  C14 UNL     1      -4.296  14.925  -9.749  1.00  0.00     0.016 C 
HETATM    6  C15 UNL     1      -2.888  14.865  -9.183  1.00  0.00     0.013 C 
HETATM    7  C16 UNL     1      -5.374  14.802  -8.731  1.00  0.00     0.006 C 
HETATM    8  C17 UNL     1      -6.507  15.805  -8.782  1.00  0.00     0.021 C 
ENDROOT
BRANCH   8   9
HETATM    9  C18 UNL     1      -6.680  16.291  -7.361  1.00  0.00    -0.021 C 
HETATM   10  C19 UNL     1      -7.187  15.534  -6.417  1.00  0.00    -0.003 C 
BRANCH  10  11
HETATM   11  C20 UNL     1      -7.333  16.036  -5.084  1.00  0.00     0.006 C 
HETATM   12  C21 UNL     1      -8.108  17.049  -4.682  1.00  0.00    -0.062 C 
HETATM   13  C22 UNL     1      -8.929  17.769  -5.672  1.00  0.00     0.048 C 
BRANCH  12  14
HETATM   14  C23 UNL     1      -8.092  17.398  -3.271  1.00  0.00     0.003 C 
HETATM   15  C24 UNL     1      -8.522  16.772  -2.237  1.00  0.00    -0.022 C 
BRANCH  15  16
HETATM   16  C25 UNL     1      -9.183  15.498  -2.020  1.00  0.00    -0.000 C 
HETATM   17  C26 UNL     1      -8.095  14.393  -2.164  1.00  0.00     0.013 C 
HETATM   18  C27 UNL     1      -9.561  15.410  -0.529  1.00  0.00     0.013 C 
ENDBRANCH  15  16
ENDBRANCH  12  14
ENDBRANCH  10  11
ENDBRANCH   8   9
BRANCH   1  19
HETATM   19  C3  UNL     1      -8.757  15.835  -9.925  1.00  0.00    -0.058 C 
HETATM   20  C4  UNL     1      -8.342  16.614 -10.896  1.00  0.00    -0.015 C 
BRANCH  19  21
HETATM   21  C2  UNL     1     -10.161  15.777  -9.601  1.00  0.00    -0.003 C 
HETATM   22  C1  UNL     1     -10.717  15.389  -8.486  1.00  0.00     0.012 C 
ENDBRANCH  19  21
BRANCH  20  23
HETATM   23  C5  UNL     1      -9.167  17.465 -11.721  1.00  0.00     0.055 C 
BRANCH  23  24
HETATM   24  C6  UNL     1      -9.565  18.727 -11.002  1.00  0.00    -0.021 C 
HETATM   25  C7  UNL     1     -10.809  19.117 -11.037  1.00  0.00    -0.091 C 
HETATM   26  C8  UNL     1     -11.825  18.338 -11.769  1.00  0.00     0.042 C 
HETATM   27  C9  UNL     1     -11.232  20.365 -10.334  1.00  0.00     0.042 C 
ENDBRANCH  23  24
ENDBRANCH  20  23
ENDBRANCH   1  19
BRANCH   4  28
HETATM   28  O1  UNL     1      -4.921  13.600 -11.632  1.00  0.00    -0.395 OA
ATOM     29  H1  UNL     1      -4.688  14.390 -12.107  1.00  0.00     0.210 HD
ENDBRANCH   4  28
TORSDOF 9
ENDMDL
