MODEL 1
REMARK VINA RESULT: -7.493294319      0.000      0.000
REMARK  8 active torsions:
REMARK  status: ('A' for Active; 'I' for Inactive)
REMARK    1  A    between atoms: C4_4  and  C5_5 
REMARK    2  A    between atoms: C5_5  and  C6_6 
REMARK    3  A    between atoms: C6_6  and  C7_7 
REMARK    4  A    between atoms: C7_7  and  C9_9 
REMARK    5  A    between atoms: C10_10  and  C11_11 
REMARK    6  A    between atoms: C13_13  and  C14_14 
REMARK    7  A    between atoms: C15_15  and  C16_16 
REMARK    8  A    between atoms: C22_22  and  C23_23 
ROOT
HETATM    1  C14 UNL     1      -9.498  18.868  -8.127  1.00  0.00    -0.003 C 
HETATM    2  C15 UNL     1      -9.710  17.841  -8.937  1.00  0.00    -0.014 C 
ENDROOT
BRANCH   1   3
HETATM    3  C13 UNL     1      -9.277  18.700  -6.728  1.00  0.00     0.006 C 
HETATM    4  C11 UNL     1      -8.096  18.859  -6.105  1.00  0.00    -0.062 C 
HETATM    5  C12 UNL     1      -6.918  19.234  -6.893  1.00  0.00     0.048 C 
BRANCH   4   6
HETATM    6  C10 UNL     1      -8.012  18.656  -4.680  1.00  0.00     0.003 C 
HETATM    7  C9  UNL     1      -7.809  17.642  -3.929  1.00  0.00    -0.022 C 
BRANCH   7   8
HETATM    8  C7  UNL     1      -7.568  16.224  -4.154  1.00  0.00     0.004 C 
HETATM    9  C8  UNL     1      -8.118  15.458  -2.938  1.00  0.00     0.014 C 
BRANCH   8  10
HETATM   10  C6  UNL     1      -8.297  15.705  -5.391  1.00  0.00     0.012 C 
BRANCH  10  11
HETATM   11  C5  UNL     1      -7.262  14.886  -6.173  1.00  0.00     0.028 C 
BRANCH  11  12
HETATM   12  C4  UNL     1      -6.088  15.761  -6.499  1.00  0.00    -0.025 C 
HETATM   13  C2  UNL     1      -5.528  15.755  -7.701  1.00  0.00    -0.091 C 
HETATM   14  C1  UNL     1      -6.072  14.857  -8.764  1.00  0.00     0.042 C 
HETATM   15  C3  UNL     1      -4.372  16.641  -7.961  1.00  0.00     0.042 C 
ENDBRANCH  11  12
ENDBRANCH  10  11
ENDBRANCH   8  10
ENDBRANCH   7   8
ENDBRANCH   4   6
ENDBRANCH   1   3
BRANCH   2  16
HETATM   16  C16 UNL     1      -9.946  17.907 -10.377  1.00  0.00     0.018 A 
HETATM   17  C17 UNL     1     -10.737  19.050 -10.972  1.00  0.00    -0.017 A 
HETATM   18  C18 UNL     1     -10.533  20.356 -10.265  1.00  0.00     0.020 C 
HETATM   19  C19 UNL     1     -12.227  18.774 -10.979  1.00  0.00     0.020 C 
HETATM   20  C20 UNL     1     -10.230  19.214 -12.363  1.00  0.00    -0.019 A 
HETATM   21  C21 UNL     1      -9.251  18.391 -12.621  1.00  0.00    -0.007 A 
HETATM   22  C22 UNL     1      -8.976  17.560 -11.417  1.00  0.00     0.086 A 
HETATM   23  C24 UNL     1     -10.027  16.587 -11.053  1.00  0.00    -0.012 A 
HETATM   24  C25 UNL     1     -11.076  16.223 -12.039  1.00  0.00     0.018 C 
HETATM   25  C26 UNL     1      -9.488  15.380 -10.268  1.00  0.00     0.018 C 
BRANCH  22  26
HETATM   26  C23 UNL     1      -7.558  17.294 -11.197  1.00  0.00     0.187 C 
HETATM   27  O1  UNL     1      -6.951  16.404 -11.839  1.00  0.00    -0.647 OA
HETATM   28  O2  UNL     1      -6.848  18.026 -10.263  1.00  0.00    -0.647 OA
ENDBRANCH  22  26
ENDBRANCH   2  16
TORSDOF 8
ENDMDL
MODEL 2
REMARK VINA RESULT: -7.287951154      1.097      1.704
REMARK  8 active torsions:
REMARK  status: ('A' for Active; 'I' for Inactive)
REMARK    1  A    between atoms: C4_4  and  C5_5 
REMARK    2  A    between atoms: C5_5  and  C6_6 
REMARK    3  A    between atoms: C6_6  and  C7_7 
REMARK    4  A    between atoms: C7_7  and  C9_9 
REMARK    5  A    between atoms: C10_10  and  C11_11 
REMARK    6  A    between atoms: C13_13  and  C14_14 
REMARK    7  A    between atoms: C15_15  and  C16_16 
REMARK    8  A    between atoms: C22_22  and  C23_23 
ROOT
HETATM    1  C14 UNL     1      -9.487  18.812  -8.002  1.00  0.00    -0.003 C 
HETATM    2  C15 UNL     1      -9.747  17.813  -8.834  1.00  0.00    -0.014 C 
ENDROOT
BRANCH   1   3
HETATM    3  C13 UNL     1      -9.297  18.609  -6.604  1.00  0.00     0.006 C 
HETATM    4  C11 UNL     1      -8.114  18.659  -5.967  1.00  0.00    -0.062 C 
HETATM    5  C12 UNL     1      -6.900  18.942  -6.737  1.00  0.00     0.048 C 
BRANCH   4   6
HETATM    6  C10 UNL     1      -8.064  18.432  -4.544  1.00  0.00     0.003 C 
HETATM    7  C9  UNL     1      -7.844  17.411  -3.806  1.00  0.00    -0.022 C 
BRANCH   7   8
HETATM    8  C7  UNL     1      -7.543  16.008  -4.049  1.00  0.00     0.004 C 
HETATM    9  C8  UNL     1      -8.141  15.194  -2.889  1.00  0.00     0.014 C 
BRANCH   8  10
HETATM   10  C6  UNL     1      -8.178  15.499  -5.342  1.00  0.00     0.012 C 
BRANCH  10  11
HETATM   11  C5  UNL     1      -7.359  14.268  -5.751  1.00  0.00     0.028 C 
BRANCH  11  12
HETATM   12  C4  UNL     1      -8.290  13.197  -6.237  1.00  0.00    -0.025 C 
HETATM   13  C2  UNL     1      -8.187  12.685  -7.456  1.00  0.00    -0.091 C 
HETATM   14  C1  UNL     1      -7.120  13.181  -8.376  1.00  0.00     0.042 C 
HETATM   15  C3  UNL     1      -9.137  11.631  -7.876  1.00  0.00     0.042 C 
ENDBRANCH  11  12
ENDBRANCH  10  11
ENDBRANCH   8  10
ENDBRANCH   7   8
ENDBRANCH   4   6
ENDBRANCH   1   3
BRANCH   2  16
HETATM   16  C16 UNL     1      -9.957  17.917 -10.275  1.00  0.00     0.018 A 
HETATM   17  C17 UNL     1     -10.704  19.095 -10.858  1.00  0.00    -0.017 A 
HETATM   18  C18 UNL     1     -10.472  20.380 -10.119  1.00  0.00     0.020 C 
HETATM   19  C19 UNL     1     -12.201  18.865 -10.894  1.00  0.00     0.020 C 
HETATM   20  C20 UNL     1     -10.169  19.274 -12.236  1.00  0.00    -0.019 A 
HETATM   21  C21 UNL     1      -9.211  18.428 -12.497  1.00  0.00    -0.007 A 
HETATM   22  C22 UNL     1      -8.981  17.563 -11.307  1.00  0.00     0.086 A 
HETATM   23  C24 UNL     1     -10.066  16.615 -10.981  1.00  0.00    -0.012 A 
HETATM   24  C25 UNL     1     -11.109  16.303 -11.991  1.00  0.00     0.018 C 
HETATM   25  C26 UNL     1      -9.577  15.376 -10.213  1.00  0.00     0.018 C 
BRANCH  22  26
HETATM   26  C23 UNL     1      -7.575  17.249 -11.070  1.00  0.00     0.187 C 
HETATM   27  O1  UNL     1      -7.028  16.254 -11.602  1.00  0.00    -0.647 OA
HETATM   28  O2  UNL     1      -6.811  18.053 -10.245  1.00  0.00    -0.647 OA
ENDBRANCH  22  26
ENDBRANCH   2  16
TORSDOF 8
ENDMDL
MODEL 3
REMARK VINA RESULT: -7.223946232      1.810      3.078
REMARK  8 active torsions:
REMARK  status: ('A' for Active; 'I' for Inactive)
REMARK    1  A    between atoms: C4_4  and  C5_5 
REMARK    2  A    between atoms: C5_5  and  C6_6 
REMARK    3  A    between atoms: C6_6  and  C7_7 
REMARK    4  A    between atoms: C7_7  and  C9_9 
REMARK    5  A    between atoms: C10_10  and  C11_11 
REMARK    6  A    between atoms: C13_13  and  C14_14 
REMARK    7  A    between atoms: C15_15  and  C16_16 
REMARK    8  A    between atoms: C22_22  and  C23_23 
ROOT
HETATM    1  C14 UNL     1      -8.683  17.611  -7.340  1.00  0.00    -0.003 C 
HETATM    2  C15 UNL     1      -8.070  16.642  -8.006  1.00  0.00    -0.014 C 
ENDROOT
BRANCH   1   3
HETATM    3  C13 UNL     1      -8.954  17.520  -5.943  1.00  0.00     0.006 C 
HETATM    4  C11 UNL     1      -8.033  17.315  -4.985  1.00  0.00    -0.062 C 
HETATM    5  C12 UNL     1      -6.626  17.166  -5.369  1.00  0.00     0.048 C 
BRANCH   4   6
HETATM    6  C10 UNL     1      -8.447  17.243  -3.606  1.00  0.00     0.003 C 
HETATM    7  C9  UNL     1      -8.450  16.324  -2.717  1.00  0.00    -0.022 C 
BRANCH   7   8
HETATM    8  C7  UNL     1      -8.042  14.927  -2.677  1.00  0.00     0.004 C 
HETATM    9  C8  UNL     1      -8.426  14.368  -1.296  1.00  0.00     0.014 C 
BRANCH   8  10
HETATM   10  C6  UNL     1      -8.762  14.086  -3.729  1.00  0.00     0.012 C 
BRANCH  10  11
HETATM   11  C5  UNL     1      -7.717  13.793  -4.814  1.00  0.00     0.028 C 
BRANCH  11  12
HETATM   12  C4  UNL     1      -8.420  13.487  -6.103  1.00  0.00    -0.025 C 
HETATM   13  C2  UNL     1      -7.778  12.963  -7.139  1.00  0.00    -0.091 C 
HETATM   14  C1  UNL     1      -6.319  12.668  -7.029  1.00  0.00     0.042 C 
HETATM   15  C3  UNL     1      -8.528  12.684  -8.384  1.00  0.00     0.042 C 
ENDBRANCH  11  12
ENDBRANCH  10  11
ENDBRANCH   8  10
ENDBRANCH   7   8
ENDBRANCH   4   6
ENDBRANCH   1   3
BRANCH   2  16
HETATM   16  C16 UNL     1      -7.748  16.639  -9.430  1.00  0.00     0.018 A 
HETATM   17  C17 UNL     1      -8.846  16.727 -10.465  1.00  0.00    -0.017 A 
HETATM   18  C18 UNL     1     -10.006  17.578 -10.041  1.00  0.00     0.020 C 
HETATM   19  C19 UNL     1      -9.402  15.365 -10.829  1.00  0.00     0.020 C 
HETATM   20  C20 UNL     1      -8.232  17.376 -11.656  1.00  0.00    -0.019 A 
HETATM   21  C21 UNL     1      -6.991  17.714 -11.437  1.00  0.00    -0.007 A 
HETATM   22  C22 UNL     1      -6.614  17.328 -10.049  1.00  0.00     0.086 A 
HETATM   23  C24 UNL     1      -6.525  15.877  -9.787  1.00  0.00    -0.012 A 
HETATM   24  C25 UNL     1      -6.443  14.920 -10.920  1.00  0.00     0.018 C 
HETATM   25  C26 UNL     1      -5.572  15.528  -8.631  1.00  0.00     0.018 C 
BRANCH  22  26
HETATM   26  C23 UNL     1      -5.745  18.295  -9.385  1.00  0.00     0.187 C 
HETATM   27  O1  UNL     1      -6.190  19.093  -8.526  1.00  0.00    -0.647 OA
HETATM   28  O2  UNL     1      -4.399  18.349  -9.694  1.00  0.00    -0.647 OA
ENDBRANCH  22  26
ENDBRANCH   2  16
TORSDOF 8
ENDMDL
MODEL 4
REMARK VINA RESULT: -6.984903789      2.049      4.339
REMARK  8 active torsions:
REMARK  status: ('A' for Active; 'I' for Inactive)
REMARK    1  A    between atoms: C4_4  and  C5_5 
REMARK    2  A    between atoms: C5_5  and  C6_6 
REMARK    3  A    between atoms: C6_6  and  C7_7 
REMARK    4  A    between atoms: C7_7  and  C9_9 
REMARK    5  A    between atoms: C10_10  and  C11_11 
REMARK    6  A    between atoms: C13_13  and  C14_14 
REMARK    7  A    between atoms: C15_15  and  C16_16 
REMARK    8  A    between atoms: C22_22  and  C23_23 
ROOT
HETATM    1  C14 UNL     1      -7.771  14.629  -7.150  1.00  0.00    -0.003 C 
HETATM    2  C15 UNL     1      -7.398  15.733  -7.782  1.00  0.00    -0.014 C 
ENDROOT
BRANCH   1   3
HETATM    3  C13 UNL     1      -7.808  14.542  -5.728  1.00  0.00     0.006 C 
HETATM    4  C11 UNL     1      -8.365  13.539  -5.026  1.00  0.00    -0.062 C 
HETATM    5  C12 UNL     1      -8.994  12.429  -5.746  1.00  0.00     0.048 C 
BRANCH   4   6
HETATM    6  C10 UNL     1      -8.333  13.578  -3.585  1.00  0.00     0.003 C 
HETATM    7  C9  UNL     1      -8.463  14.501  -2.710  1.00  0.00    -0.022 C 
BRANCH   7   8
HETATM    8  C7  UNL     1      -8.704  15.935  -2.752  1.00  0.00     0.004 C 
HETATM    9  C8  UNL     1      -9.065  16.391  -1.328  1.00  0.00     0.014 C 
BRANCH   8  10
HETATM   10  C6  UNL     1      -7.463  16.715  -3.182  1.00  0.00     0.012 C 
BRANCH  10  11
HETATM   11  C5  UNL     1      -7.976  18.075  -3.675  1.00  0.00     0.028 C 
BRANCH  11  12
HETATM   12  C4  UNL     1      -8.751  17.877  -4.944  1.00  0.00    -0.025 C 
HETATM   13  C2  UNL     1      -8.865  18.841  -5.847  1.00  0.00    -0.091 C 
HETATM   14  C1  UNL     1      -8.210  20.161  -5.605  1.00  0.00     0.042 C 
HETATM   15  C3  UNL     1      -9.644  18.584  -7.079  1.00  0.00     0.042 C 
ENDBRANCH  11  12
ENDBRANCH  10  11
ENDBRANCH   8  10
ENDBRANCH   7   8
ENDBRANCH   4   6
ENDBRANCH   1   3
BRANCH   2  16
HETATM   16  C16 UNL     1      -7.326  15.922  -9.228  1.00  0.00     0.018 A 
HETATM   17  C17 UNL     1      -8.561  15.762 -10.084  1.00  0.00    -0.017 A 
HETATM   18  C18 UNL     1      -9.823  16.213  -9.410  1.00  0.00     0.020 C 
HETATM   19  C19 UNL     1      -8.776  14.327 -10.520  1.00  0.00     0.020 C 
HETATM   20  C20 UNL     1      -8.352  16.642 -11.267  1.00  0.00    -0.019 A 
HETATM   21  C21 UNL     1      -7.233  17.307 -11.185  1.00  0.00    -0.007 A 
HETATM   22  C22 UNL     1      -6.541  16.950  -9.916  1.00  0.00     0.086 A 
HETATM   23  C24 UNL     1      -6.017  15.570  -9.835  1.00  0.00    -0.012 A 
HETATM   24  C25 UNL     1      -5.866  14.759 -11.070  1.00  0.00     0.018 C 
HETATM   25  C26 UNL     1      -4.829  15.431  -8.869  1.00  0.00     0.018 C 
BRANCH  22  26
HETATM   26  C23 UNL     1      -5.873  18.076  -9.272  1.00  0.00     0.187 C 
HETATM   27  O1  UNL     1      -6.424  18.727  -8.353  1.00  0.00    -0.647 OA
HETATM   28  O2  UNL     1      -4.602  18.452  -9.670  1.00  0.00    -0.647 OA
ENDBRANCH  22  26
ENDBRANCH   2  16
TORSDOF 8
ENDMDL
MODEL 5
REMARK VINA RESULT: -6.982032011      1.975      3.912
REMARK  8 active torsions:
REMARK  status: ('A' for Active; 'I' for Inactive)
REMARK    1  A    between atoms: C4_4  and  C5_5 
REMARK    2  A    between atoms: C5_5  and  C6_6 
REMARK    3  A    between atoms: C6_6  and  C7_7 
REMARK    4  A    between atoms: C7_7  and  C9_9 
REMARK    5  A    between atoms: C10_10  and  C11_11 
REMARK    6  A    between atoms: C13_13  and  C14_14 
REMARK    7  A    between atoms: C15_15  and  C16_16 
REMARK    8  A    between atoms: C22_22  and  C23_23 
ROOT
HETATM    1  C14 UNL     1      -7.229  15.228  -7.035  1.00  0.00    -0.003 C 
HETATM    2  C15 UNL     1      -8.077  16.057  -7.627  1.00  0.00    -0.014 C 
ENDROOT
BRANCH   1   3
HETATM    3  C13 UNL     1      -7.264  14.980  -5.631  1.00  0.00     0.006 C 
HETATM    4  C11 UNL     1      -7.900  13.953  -5.040  1.00  0.00    -0.062 C 
HETATM    5  C12 UNL     1      -8.629  12.992  -5.872  1.00  0.00     0.048 C 
BRANCH   4   6
HETATM    6  C10 UNL     1      -7.854  13.821  -3.605  1.00  0.00     0.003 C 
HETATM    7  C9  UNL     1      -8.275  14.527  -2.626  1.00  0.00    -0.022 C 
BRANCH   7   8
HETATM    8  C7  UNL     1      -8.994  15.786  -2.496  1.00  0.00     0.004 C 
HETATM    9  C8  UNL     1      -9.368  15.960  -1.014  1.00  0.00     0.014 C 
BRANCH   8  10
HETATM   10  C6  UNL     1      -8.135  16.984  -2.896  1.00  0.00     0.012 C 
BRANCH  10  11
HETATM   11  C5  UNL     1      -8.761  17.534  -4.184  1.00  0.00     0.028 C 
BRANCH  11  12
HETATM   12  C4  UNL     1      -7.878  18.611  -4.739  1.00  0.00    -0.025 C 
HETATM   13  C2  UNL     1      -8.273  19.392  -5.736  1.00  0.00    -0.091 C 
HETATM   14  C1  UNL     1      -9.631  19.200  -6.328  1.00  0.00     0.042 C 
HETATM   15  C3  UNL     1      -7.355  20.437  -6.239  1.00  0.00     0.042 C 
ENDBRANCH  11  12
ENDBRANCH  10  11
ENDBRANCH   8  10
ENDBRANCH   7   8
ENDBRANCH   4   6
ENDBRANCH   1   3
BRANCH   2  16
HETATM   16  C16 UNL     1      -8.123  16.378  -9.051  1.00  0.00     0.018 A 
HETATM   17  C17 UNL     1      -7.615  17.710  -9.554  1.00  0.00    -0.017 A 
HETATM   18  C18 UNL     1      -6.439  18.234  -8.786  1.00  0.00     0.020 C 
HETATM   19  C19 UNL     1      -8.685  18.782  -9.519  1.00  0.00     0.020 C 
HETATM   20  C20 UNL     1      -7.162  17.470 -10.952  1.00  0.00    -0.019 A 
HETATM   21  C21 UNL     1      -7.280  16.216 -11.291  1.00  0.00    -0.007 A 
HETATM   22  C22 UNL     1      -7.837  15.447 -10.144  1.00  0.00     0.086 A 
HETATM   23  C24 UNL     1      -9.241  15.742  -9.793  1.00  0.00    -0.012 A 
HETATM   24  C25 UNL     1     -10.113  16.461 -10.757  1.00  0.00     0.018 C 
HETATM   25  C26 UNL     1      -9.950  14.570  -9.094  1.00  0.00     0.018 C 
BRANCH  22  26
HETATM   26  C23 UNL     1      -7.259  14.115  -9.993  1.00  0.00     0.187 C 
HETATM   27  O1  UNL     1      -7.968  13.083 -10.056  1.00  0.00    -0.647 OA
HETATM   28  O2  UNL     1      -5.902  13.965  -9.774  1.00  0.00    -0.647 OA
ENDBRANCH  22  26
ENDBRANCH   2  16
TORSDOF 8
ENDMDL
