MODEL 1
REMARK VINA RESULT: -7.855611751      0.000      0.000
REMARK  11 active torsions:
REMARK  status: ('A' for Active; 'I' for Inactive)
REMARK    1  A    between atoms: C2_2  and  C13_16 
REMARK    2  A    between atoms: C3_3  and  C4_4 
REMARK    3  A    between atoms: C4_4  and  C5_5 
REMARK    4  A    between atoms: C5_5  and  C6_6 
REMARK    5  A    between atoms: C6_6  and  C8_8 
REMARK    6  A    between atoms: C8_8  and  N1_9 
REMARK    7  A    between atoms: N1_9  and  C9_12 
REMARK    8  A    between atoms: C9_12  and  C10_13 
REMARK    9  A    between atoms: C13_16  and  C14_17 
REMARK   10  A    between atoms: C14_17  and  C15_18 
REMARK   11  A    between atoms: C15_18  and  C16_19 
ROOT
HETATM    1  C1  UNL     1      -6.110  18.524  -8.459  1.00  0.00     0.048 C 
HETATM    2  C2  UNL     1      -7.202  18.238  -9.452  1.00  0.00    -0.062 C 
HETATM    3  C3  UNL     1      -8.549  18.569  -9.216  1.00  0.00     0.007 C 
ENDROOT
BRANCH   2   4
HETATM    4  C13 UNL     1      -6.824  17.652 -10.599  1.00  0.00     0.006 C 
BRANCH   4   5
HETATM    5  C14 UNL     1      -7.541  16.618 -11.273  1.00  0.00    -0.003 C 
BRANCH   5   6
HETATM    6  C15 UNL     1      -7.723  15.404 -10.733  1.00  0.00    -0.021 C 
BRANCH   6   7
HETATM    7  C16 UNL     1      -7.224  15.027  -9.427  1.00  0.00     0.022 C 
HETATM    8  C17 UNL     1      -8.160  14.217  -8.546  1.00  0.00     0.010 C 
HETATM    9  C18 UNL     1      -8.080  12.805  -8.902  1.00  0.00    -0.038 C 
HETATM   10  C25 UNL     1      -7.256  13.981  -7.361  1.00  0.00    -0.038 C 
HETATM   11  C19 UNL     1      -8.057  12.101 -10.193  1.00  0.00     0.015 C 
HETATM   12  C20 UNL     1      -9.095  12.118  -8.057  1.00  0.00     0.015 C 
HETATM   13  C21 UNL     1      -6.652  13.098  -8.409  1.00  0.00     0.010 C 
HETATM   14  C22 UNL     1      -6.055  14.080  -9.375  1.00  0.00    -0.035 C 
HETATM   15  C23 UNL     1      -4.819  14.667  -8.681  1.00  0.00     0.016 C 
HETATM   16  C24 UNL     1      -5.577  13.623 -10.689  1.00  0.00     0.016 C 
HETATM   17  C26 UNL     1      -7.499  13.079  -6.206  1.00  0.00     0.015 C 
HETATM   18  C27 UNL     1      -6.794  15.223  -6.785  1.00  0.00     0.015 C 
ENDBRANCH   6   7
ENDBRANCH   5   6
ENDBRANCH   4   5
ENDBRANCH   2   4
BRANCH   3  19
HETATM   19  C4  UNL     1      -9.163  19.114  -8.235  1.00  0.00     0.001 C 
BRANCH  19  20
HETATM   20  C5  UNL     1      -9.611  18.546  -7.002  1.00  0.00     0.004 C 
BRANCH  20  21
HETATM   21  C6  UNL     1      -8.858  18.679  -5.874  1.00  0.00    -0.059 C 
HETATM   22  C7  UNL     1      -8.126  19.944  -5.663  1.00  0.00     0.045 C 
BRANCH  21  23
HETATM   23  C8  UNL     1      -8.791  17.581  -4.899  1.00  0.00     0.266 C 
BRANCH  23  24
HETATM   24  N1  UNL     1      -7.897  17.866  -3.811  1.00  0.00    -0.071 N 
ATOM     25  H12 UNL     1      -7.062  18.346  -4.146  1.00  0.00     0.277 HD
ATOM     26  H11 UNL     1      -8.281  18.594  -3.210  1.00  0.00     0.277 HD
BRANCH  24  27
HETATM   27  C9  UNL     1      -7.542  16.712  -3.046  1.00  0.00     0.236 C 
BRANCH  27  28
HETATM   28  C10 UNL     1      -8.747  15.928  -2.581  1.00  0.00     0.003 C 
HETATM   29  C11 UNL     1      -8.352  14.448  -2.612  1.00  0.00     0.011 C 
HETATM   30  C12 UNL     1      -9.163  16.304  -1.180  1.00  0.00     0.011 C 
ENDBRANCH  27  28
ENDBRANCH  24  27
ENDBRANCH  23  24
ENDBRANCH  21  23
ENDBRANCH  20  21
ENDBRANCH  19  20
ENDBRANCH   3  19
TORSDOF 11
ENDMDL
MODEL 2
REMARK VINA RESULT: -7.666164519      0.724      1.336
REMARK  11 active torsions:
REMARK  status: ('A' for Active; 'I' for Inactive)
REMARK    1  A    between atoms: C2_2  and  C13_16 
REMARK    2  A    between atoms: C3_3  and  C4_4 
REMARK    3  A    between atoms: C4_4  and  C5_5 
REMARK    4  A    between atoms: C5_5  and  C6_6 
REMARK    5  A    between atoms: C6_6  and  C8_8 
REMARK    6  A    between atoms: C8_8  and  N1_9 
REMARK    7  A    between atoms: N1_9  and  C9_12 
REMARK    8  A    between atoms: C9_12  and  C10_13 
REMARK    9  A    between atoms: C13_16  and  C14_17 
REMARK   10  A    between atoms: C14_17  and  C15_18 
REMARK   11  A    between atoms: C15_18  and  C16_19 
ROOT
HETATM    1  C1  UNL     1      -9.554  19.101  -8.972  1.00  0.00     0.048 C 
HETATM    2  C2  UNL     1      -8.345  18.358  -9.472  1.00  0.00    -0.062 C 
HETATM    3  C3  UNL     1      -7.116  18.359  -8.787  1.00  0.00     0.007 C 
ENDROOT
BRANCH   2   4
HETATM    4  C13 UNL     1      -8.499  17.673 -10.615  1.00  0.00     0.006 C 
BRANCH   4   5
HETATM    5  C14 UNL     1      -7.593  16.690 -11.118  1.00  0.00    -0.003 C 
BRANCH   5   6
HETATM    6  C15 UNL     1      -7.635  15.409 -10.723  1.00  0.00    -0.021 C 
BRANCH   6   7
HETATM    7  C16 UNL     1      -7.089  14.942  -9.465  1.00  0.00     0.022 C 
HETATM    8  C17 UNL     1      -8.023  14.149  -8.568  1.00  0.00     0.010 C 
HETATM    9  C18 UNL     1      -8.051  12.753  -8.989  1.00  0.00    -0.038 C 
HETATM   10  C25 UNL     1      -7.071  13.804  -7.448  1.00  0.00    -0.038 C 
HETATM   11  C19 UNL     1      -8.143  12.111 -10.308  1.00  0.00     0.015 C 
HETATM   12  C20 UNL     1      -9.058  12.089  -8.117  1.00  0.00     0.015 C 
HETATM   13  C21 UNL     1      -6.582  12.937  -8.567  1.00  0.00     0.010 C 
HETATM   14  C22 UNL     1      -5.980  13.926  -9.522  1.00  0.00    -0.035 C 
HETATM   15  C23 UNL     1      -4.673  14.405  -8.877  1.00  0.00     0.016 C 
HETATM   16  C24 UNL     1      -5.605  13.504 -10.880  1.00  0.00     0.016 C 
HETATM   17  C26 UNL     1      -7.306  12.865  -6.321  1.00  0.00     0.015 C 
HETATM   18  C27 UNL     1      -6.502  14.988  -6.847  1.00  0.00     0.015 C 
ENDBRANCH   6   7
ENDBRANCH   5   6
ENDBRANCH   4   5
ENDBRANCH   2   4
BRANCH   3  19
HETATM   19  C4  UNL     1      -6.710  18.914  -7.708  1.00  0.00     0.001 C 
BRANCH  19  20
HETATM   20  C5  UNL     1      -6.865  18.502  -6.348  1.00  0.00     0.004 C 
BRANCH  20  21
HETATM   21  C6  UNL     1      -7.997  18.823  -5.661  1.00  0.00    -0.059 C 
HETATM   22  C7  UNL     1      -8.384  20.245  -5.568  1.00  0.00     0.045 C 
BRANCH  21  23
HETATM   23  C8  UNL     1      -8.805  17.765  -5.037  1.00  0.00     0.266 C 
BRANCH  23  24
HETATM   24  N1  UNL     1      -8.022  16.896  -4.202  1.00  0.00    -0.071 N 
ATOM     25  H12 UNL     1      -7.975  15.959  -4.600  1.00  0.00     0.277 HD
ATOM     26  H11 UNL     1      -7.035  17.148  -4.245  1.00  0.00     0.277 HD
BRANCH  24  27
HETATM   27  C9  UNL     1      -8.473  16.847  -2.847  1.00  0.00     0.236 C 
BRANCH  27  28
HETATM   28  C10 UNL     1      -8.290  15.485  -2.220  1.00  0.00     0.003 C 
HETATM   29  C11 UNL     1      -9.373  15.342  -1.146  1.00  0.00     0.011 C 
HETATM   30  C12 UNL     1      -8.438  14.372  -3.229  1.00  0.00     0.011 C 
ENDBRANCH  27  28
ENDBRANCH  24  27
ENDBRANCH  23  24
ENDBRANCH  21  23
ENDBRANCH  20  21
ENDBRANCH  19  20
ENDBRANCH   3  19
TORSDOF 11
ENDMDL
MODEL 3
REMARK VINA RESULT: -7.602674411      0.904      1.292
REMARK  11 active torsions:
REMARK  status: ('A' for Active; 'I' for Inactive)
REMARK    1  A    between atoms: C2_2  and  C13_16 
REMARK    2  A    between atoms: C3_3  and  C4_4 
REMARK    3  A    between atoms: C4_4  and  C5_5 
REMARK    4  A    between atoms: C5_5  and  C6_6 
REMARK    5  A    between atoms: C6_6  and  C8_8 
REMARK    6  A    between atoms: C8_8  and  N1_9 
REMARK    7  A    between atoms: N1_9  and  C9_12 
REMARK    8  A    between atoms: C9_12  and  C10_13 
REMARK    9  A    between atoms: C13_16  and  C14_17 
REMARK   10  A    between atoms: C14_17  and  C15_18 
REMARK   11  A    between atoms: C15_18  and  C16_19 
ROOT
HETATM    1  C1  UNL     1     -10.530  19.246 -10.842  1.00  0.00     0.048 C 
HETATM    2  C2  UNL     1      -9.388  18.368 -10.407  1.00  0.00    -0.062 C 
HETATM    3  C3  UNL     1      -8.902  18.353  -9.088  1.00  0.00     0.007 C 
ENDROOT
BRANCH   2   4
HETATM    4  C13 UNL     1      -8.853  17.579 -11.351  1.00  0.00     0.006 C 
BRANCH   4   5
HETATM    5  C14 UNL     1      -7.548  17.001 -11.302  1.00  0.00    -0.003 C 
BRANCH   5   6
HETATM    6  C15 UNL     1      -7.334  15.752 -10.860  1.00  0.00    -0.021 C 
BRANCH   6   7
HETATM    7  C16 UNL     1      -6.879  15.446  -9.520  1.00  0.00     0.022 C 
HETATM    8  C17 UNL     1      -7.901  14.837  -8.575  1.00  0.00     0.010 C 
HETATM    9  C18 UNL     1      -7.986  13.398  -8.796  1.00  0.00    -0.038 C 
HETATM   10  C25 UNL     1      -7.028  14.611  -7.365  1.00  0.00    -0.038 C 
HETATM   11  C19 UNL     1      -8.047  12.577 -10.014  1.00  0.00     0.015 C 
HETATM   12  C20 UNL     1      -9.072  12.916  -7.899  1.00  0.00     0.015 C 
HETATM   13  C21 UNL     1      -6.532  13.569  -8.320  1.00  0.00     0.010 C 
HETATM   14  C22 UNL     1      -5.828  14.379  -9.368  1.00  0.00    -0.035 C 
HETATM   15  C23 UNL     1      -4.531  14.882  -8.722  1.00  0.00     0.016 C 
HETATM   16  C24 UNL     1      -5.409  13.748 -10.629  1.00  0.00     0.016 C 
HETATM   17  C26 UNL     1      -7.372  13.857  -6.132  1.00  0.00     0.015 C 
HETATM   18  C27 UNL     1      -6.424  15.840  -6.904  1.00  0.00     0.015 C 
ENDBRANCH   6   7
ENDBRANCH   5   6
ENDBRANCH   4   5
ENDBRANCH   2   4
BRANCH   3  19
HETATM   19  C4  UNL     1      -9.221  18.989  -8.024  1.00  0.00     0.001 C 
BRANCH  19  20
HETATM   20  C5  UNL     1      -9.161  18.578  -6.656  1.00  0.00     0.004 C 
BRANCH  20  21
HETATM   21  C6  UNL     1      -8.176  19.050  -5.842  1.00  0.00    -0.059 C 
HETATM   22  C7  UNL     1      -7.272  20.095  -6.365  1.00  0.00     0.045 C 
BRANCH  21  23
HETATM   23  C8  UNL     1      -8.032  18.524  -4.477  1.00  0.00     0.266 C 
BRANCH  23  24
HETATM   24  N1  UNL     1      -8.560  17.195  -4.342  1.00  0.00    -0.071 N 
ATOM     25  H12 UNL     1      -9.560  17.223  -4.143  1.00  0.00     0.277 HD
ATOM     26  H11 UNL     1      -8.581  16.722  -5.245  1.00  0.00     0.277 HD
BRANCH  24  27
HETATM   27  C9  UNL     1      -7.873  16.403  -3.372  1.00  0.00     0.236 C 
BRANCH  27  28
HETATM   28  C10 UNL     1      -8.812  15.591  -2.511  1.00  0.00     0.003 C 
HETATM   29  C11 UNL     1      -8.087  14.283  -2.176  1.00  0.00     0.011 C 
HETATM   30  C12 UNL     1      -9.169  16.306  -1.230  1.00  0.00     0.011 C 
ENDBRANCH  27  28
ENDBRANCH  24  27
ENDBRANCH  23  24
ENDBRANCH  21  23
ENDBRANCH  20  21
ENDBRANCH  19  20
ENDBRANCH   3  19
TORSDOF 11
ENDMDL
MODEL 4
REMARK VINA RESULT: -7.439869348      1.691      4.861
REMARK  11 active torsions:
REMARK  status: ('A' for Active; 'I' for Inactive)
REMARK    1  A    between atoms: C2_2  and  C13_16 
REMARK    2  A    between atoms: C3_3  and  C4_4 
REMARK    3  A    between atoms: C4_4  and  C5_5 
REMARK    4  A    between atoms: C5_5  and  C6_6 
REMARK    5  A    between atoms: C6_6  and  C8_8 
REMARK    6  A    between atoms: C8_8  and  N1_9 
REMARK    7  A    between atoms: N1_9  and  C9_12 
REMARK    8  A    between atoms: C9_12  and  C10_13 
REMARK    9  A    between atoms: C13_16  and  C14_17 
REMARK   10  A    between atoms: C14_17  and  C15_18 
REMARK   11  A    between atoms: C15_18  and  C16_19 
ROOT
HETATM    1  C1  UNL     1      -5.507  16.181  -6.652  1.00  0.00     0.048 C 
HETATM    2  C2  UNL     1      -5.369  15.999  -8.139  1.00  0.00    -0.062 C 
HETATM    3  C3  UNL     1      -5.718  14.804  -8.794  1.00  0.00     0.007 C 
ENDROOT
BRANCH   2   4
HETATM    4  C13 UNL     1      -4.900  17.053  -8.825  1.00  0.00     0.006 C 
BRANCH   4   5
HETATM    5  C14 UNL     1      -5.691  17.952  -9.602  1.00  0.00    -0.003 C 
BRANCH   5   6
HETATM    6  C15 UNL     1      -6.893  18.385  -9.193  1.00  0.00    -0.021 C 
BRANCH   6   7
HETATM    7  C16 UNL     1      -8.097  18.274  -9.991  1.00  0.00     0.022 C 
HETATM    8  C17 UNL     1      -8.482  16.880 -10.455  1.00  0.00     0.010 C 
HETATM    9  C18 UNL     1      -9.208  16.187  -9.397  1.00  0.00    -0.038 C 
HETATM   10  C25 UNL     1      -9.781  17.194 -11.157  1.00  0.00    -0.038 C 
HETATM   11  C19 UNL     1      -8.986  16.065  -7.949  1.00  0.00     0.015 C 
HETATM   12  C20 UNL     1      -9.453  14.811  -9.911  1.00  0.00     0.015 C 
HETATM   13  C21 UNL     1     -10.143  17.368  -9.715  1.00  0.00     0.010 C 
HETATM   14  C22 UNL     1      -9.405  18.617  -9.329  1.00  0.00    -0.035 C 
HETATM   15  C23 UNL     1     -10.147  19.779 -10.002  1.00  0.00     0.016 C 
HETATM   16  C24 UNL     1      -9.293  19.000  -7.914  1.00  0.00     0.016 C 
HETATM   17  C26 UNL     1     -10.780  16.227 -11.680  1.00  0.00     0.015 C 
HETATM   18  C27 UNL     1      -9.597  18.162 -12.213  1.00  0.00     0.015 C 
ENDBRANCH   6   7
ENDBRANCH   5   6
ENDBRANCH   4   5
ENDBRANCH   2   4
BRANCH   3  19
HETATM   19  C4  UNL     1      -6.175  13.679  -8.389  1.00  0.00     0.001 C 
BRANCH  19  20
HETATM   20  C5  UNL     1      -6.473  13.232  -7.065  1.00  0.00     0.004 C 
BRANCH  20  21
HETATM   21  C6  UNL     1      -7.742  12.859  -6.738  1.00  0.00    -0.059 C 
HETATM   22  C7  UNL     1      -8.562  12.184  -7.764  1.00  0.00     0.045 C 
BRANCH  21  23
HETATM   23  C8  UNL     1      -8.265  13.125  -5.390  1.00  0.00     0.266 C 
BRANCH  23  24
HETATM   24  N1  UNL     1      -8.077  14.492  -4.988  1.00  0.00    -0.071 N 
ATOM     25  H12 UNL     1      -7.189  14.851  -5.336  1.00  0.00     0.277 HD
ATOM     26  H11 UNL     1      -8.717  15.106  -5.491  1.00  0.00     0.277 HD
BRANCH  24  27
HETATM   27  C9  UNL     1      -8.187  14.693  -3.578  1.00  0.00     0.236 C 
BRANCH  27  28
HETATM   28  C10 UNL     1      -8.012  16.139  -3.180  1.00  0.00     0.003 C 
HETATM   29  C11 UNL     1      -8.388  16.984  -4.402  1.00  0.00     0.011 C 
HETATM   30  C12 UNL     1      -8.898  16.520  -2.019  1.00  0.00     0.011 C 
ENDBRANCH  27  28
ENDBRANCH  24  27
ENDBRANCH  23  24
ENDBRANCH  21  23
ENDBRANCH  20  21
ENDBRANCH  19  20
ENDBRANCH   3  19
TORSDOF 11
ENDMDL
MODEL 5
REMARK VINA RESULT: -7.438668885      1.899      3.653
REMARK  11 active torsions:
REMARK  status: ('A' for Active; 'I' for Inactive)
REMARK    1  A    between atoms: C2_2  and  C13_16 
REMARK    2  A    between atoms: C3_3  and  C4_4 
REMARK    3  A    between atoms: C4_4  and  C5_5 
REMARK    4  A    between atoms: C5_5  and  C6_6 
REMARK    5  A    between atoms: C6_6  and  C8_8 
REMARK    6  A    between atoms: C8_8  and  N1_9 
REMARK    7  A    between atoms: N1_9  and  C9_12 
REMARK    8  A    between atoms: C9_12  and  C10_13 
REMARK    9  A    between atoms: C13_16  and  C14_17 
REMARK   10  A    between atoms: C14_17  and  C15_18 
REMARK   11  A    between atoms: C15_18  and  C16_19 
ROOT
HETATM    1  C1  UNL     1     -10.304  19.106 -11.528  1.00  0.00     0.048 C 
HETATM    2  C2  UNL     1      -9.277  18.261 -10.825  1.00  0.00    -0.062 C 
HETATM    3  C3  UNL     1      -9.029  18.359  -9.444  1.00  0.00     0.007 C 
ENDROOT
BRANCH   2   4
HETATM    4  C13 UNL     1      -8.604  17.386 -11.588  1.00  0.00     0.006 C 
BRANCH   4   5
HETATM    5  C14 UNL     1      -7.362  16.773 -11.242  1.00  0.00    -0.003 C 
BRANCH   5   6
HETATM    6  C15 UNL     1      -7.276  15.487 -10.871  1.00  0.00    -0.021 C 
BRANCH   6   7
HETATM    7  C16 UNL     1      -6.806  15.061  -9.568  1.00  0.00     0.022 C 
HETATM    8  C17 UNL     1      -7.844  14.472  -8.628  1.00  0.00     0.010 C 
HETATM    9  C18 UNL     1      -8.049  13.061  -8.934  1.00  0.00    -0.038 C 
HETATM   10  C25 UNL     1      -6.955  14.103  -7.465  1.00  0.00    -0.038 C 
HETATM   11  C19 UNL     1      -8.212  12.327 -10.197  1.00  0.00     0.015 C 
HETATM   12  C20 UNL     1      -9.141  12.607  -8.030  1.00  0.00     0.015 C 
HETATM   13  C21 UNL     1      -6.572  13.090  -8.499  1.00  0.00     0.010 C 
HETATM   14  C22 UNL     1      -5.838  13.909  -9.520  1.00  0.00    -0.035 C 
HETATM   15  C23 UNL     1      -4.487  14.269  -8.891  1.00  0.00     0.016 C 
HETATM   16  C24 UNL     1      -5.509  13.330 -10.832  1.00  0.00     0.016 C 
HETATM   17  C26 UNL     1      -7.319  13.299  -6.270  1.00  0.00     0.015 C 
HETATM   18  C27 UNL     1      -6.242  15.250  -6.951  1.00  0.00     0.015 C 
ENDBRANCH   6   7
ENDBRANCH   5   6
ENDBRANCH   4   5
ENDBRANCH   2   4
BRANCH   3  19
HETATM   19  C4  UNL     1      -9.513  19.091  -8.512  1.00  0.00     0.001 C 
BRANCH  19  20
HETATM   20  C5  UNL     1      -8.877  19.653  -7.363  1.00  0.00     0.004 C 
BRANCH  20  21
HETATM   21  C6  UNL     1      -7.962  18.926  -6.662  1.00  0.00    -0.059 C 
HETATM   22  C7  UNL     1      -8.449  17.849  -5.777  1.00  0.00     0.045 C 
BRANCH  21  23
HETATM   23  C8  UNL     1      -6.528  19.217  -6.800  1.00  0.00     0.266 C 
BRANCH  23  24
HETATM   24  N1  UNL     1      -5.965  18.652  -7.995  1.00  0.00    -0.071 N 
ATOM     25  H12 UNL     1      -6.036  17.635  -7.982  1.00  0.00     0.277 HD
ATOM     26  H11 UNL     1      -6.556  18.852  -8.802  1.00  0.00     0.277 HD
BRANCH  24  27
HETATM   27  C9  UNL     1      -4.618  19.061  -8.241  1.00  0.00     0.236 C 
BRANCH  27  28
HETATM   28  C10 UNL     1      -3.783  17.971  -8.869  1.00  0.00     0.003 C 
HETATM   29  C11 UNL     1      -2.764  18.662  -9.782  1.00  0.00     0.011 C 
HETATM   30  C12 UNL     1      -3.050  17.151  -7.835  1.00  0.00     0.011 C 
ENDBRANCH  27  28
ENDBRANCH  24  27
ENDBRANCH  23  24
ENDBRANCH  21  23
ENDBRANCH  20  21
ENDBRANCH  19  20
ENDBRANCH   3  19
TORSDOF 11
ENDMDL
