MODEL 1
REMARK VINA RESULT: -7.627056005      0.000      0.000
REMARK  12 active torsions:
REMARK  status: ('A' for Active; 'I' for Inactive)
REMARK    1  A    between atoms: C2_2  and  C21_21 
REMARK    2  A    between atoms: C3_3  and  C4_4 
REMARK    3  A    between atoms: C5_5  and  C6_6 
REMARK    4  A    between atoms: C6_6  and  C7_7 
REMARK    5  A    between atoms: C7_7  and  C8_8 
REMARK    6  A    between atoms: C8_8  and  C10_10 
REMARK    7  A    between atoms: C10_10  and  C11_11 
REMARK    8  A    between atoms: C11_11  and  C12_12 
REMARK    9  A    between atoms: C21_21  and  C22_22 
REMARK   10  A    between atoms: C22_22  and  C23_23 
REMARK   11  A    between atoms: C23_23  and  C24_24 
REMARK       I    between atoms: C24_24  and  N1_26 
REMARK   12  A    between atoms: N1_26  and  C25_28 
ROOT
HETATM    1  C4  UNL     1      -5.891  18.577  -7.735  1.00  0.00     0.001 C 
HETATM    2  C5  UNL     1      -4.977  18.674  -8.824  1.00  0.00     0.000 C 
ENDROOT
BRANCH   2   3
HETATM    3  C6  UNL     1      -3.654  18.489  -8.669  1.00  0.00     0.001 C 
BRANCH   3   4
HETATM    4  C7  UNL     1      -3.117  17.264  -8.196  1.00  0.00     0.007 C 
BRANCH   4   5
HETATM    5  C8  UNL     1      -3.033  16.084  -8.898  1.00  0.00    -0.062 C 
HETATM    6  C9  UNL     1      -1.698  15.948  -9.554  1.00  0.00     0.048 C 
BRANCH   5   7
HETATM    7  C10 UNL     1      -4.132  15.211  -8.896  1.00  0.00     0.007 C 
BRANCH   7   8
HETATM    8  C11 UNL     1      -5.359  14.966  -9.074  1.00  0.00     0.009 C 
BRANCH   8   9
HETATM    9  C12 UNL     1      -6.708  15.018  -8.599  1.00  0.00    -0.048 C 
HETATM   10  C13 UNL     1      -7.591  15.651  -9.409  1.00  0.00    -0.077 C 
HETATM   11  C14 UNL     1      -7.208  16.263 -10.712  1.00  0.00     0.044 C 
HETATM   12  C15 UNL     1      -9.017  15.763  -9.024  1.00  0.00     0.034 C 
HETATM   13  C16 UNL     1      -9.361  14.384  -8.439  1.00  0.00     0.005 C 
HETATM   14  C17 UNL     1      -8.664  14.419  -7.106  1.00  0.00     0.014 C 
HETATM   15  C18 UNL     1      -7.142  14.441  -7.318  1.00  0.00    -0.020 C 
HETATM   16  C19 UNL     1      -6.722  13.031  -7.053  1.00  0.00     0.020 C 
HETATM   17  C20 UNL     1      -6.587  15.345  -6.199  1.00  0.00     0.020 C 
ENDBRANCH   8   9
ENDBRANCH   7   8
ENDBRANCH   5   7
ENDBRANCH   4   5
ENDBRANCH   3   4
ENDBRANCH   2   3
BRANCH   1  18
HETATM   18  C3  UNL     1      -7.169  18.707  -7.699  1.00  0.00     0.007 C 
HETATM   19  C2  UNL     1      -8.069  18.700  -6.588  1.00  0.00    -0.054 C 
HETATM   20  C1  UNL     1      -7.693  18.608  -5.181  1.00  0.00     0.049 C 
BRANCH  19  21
HETATM   21  C21 UNL     1      -9.379  18.838  -6.905  1.00  0.00     0.062 C 
BRANCH  21  22
HETATM   22  C22 UNL     1      -9.735  19.461  -8.169  1.00  0.00    -0.122 C 
BRANCH  22  23
HETATM   23  C23 UNL     1     -10.027  19.951  -9.170  1.00  0.00     0.129 C 
BRANCH  23  24
HETATM   24  C24 UNL     1     -10.724  19.518 -10.377  1.00  0.00     0.249 C 
HETATM   25  O1  UNL     1     -11.751  20.172 -10.778  1.00  0.00    -0.268 OA
HETATM   26  N1  UNL     1     -10.337  18.408 -11.130  1.00  0.00    -0.353 N 
ATOM     27  H1  UNL     1      -9.532  17.842 -10.863  1.00  0.00     0.163 HD
BRANCH  26  28
HETATM   28  C25 UNL     1     -11.137  18.081 -12.331  1.00  0.00     0.076 C 
HETATM   29  C26 UNL     1     -11.364  16.546 -12.234  1.00  0.00     0.032 C 
HETATM   30  C27 UNL     1     -10.416  18.392 -13.593  1.00  0.00     0.032 C 
ENDBRANCH  26  28
ENDBRANCH  23  24
ENDBRANCH  22  23
ENDBRANCH  21  22
ENDBRANCH  19  21
ENDBRANCH   1  18
TORSDOF 12
ENDMDL
MODEL 2
REMARK VINA RESULT: -7.528033521      1.828      4.115
REMARK  12 active torsions:
REMARK  status: ('A' for Active; 'I' for Inactive)
REMARK    1  A    between atoms: C2_2  and  C21_21 
REMARK    2  A    between atoms: C3_3  and  C4_4 
REMARK    3  A    between atoms: C5_5  and  C6_6 
REMARK    4  A    between atoms: C6_6  and  C7_7 
REMARK    5  A    between atoms: C7_7  and  C8_8 
REMARK    6  A    between atoms: C8_8  and  C10_10 
REMARK    7  A    between atoms: C10_10  and  C11_11 
REMARK    8  A    between atoms: C11_11  and  C12_12 
REMARK    9  A    between atoms: C21_21  and  C22_22 
REMARK   10  A    between atoms: C22_22  and  C23_23 
REMARK   11  A    between atoms: C23_23  and  C24_24 
REMARK       I    between atoms: C24_24  and  N1_26 
REMARK   12  A    between atoms: N1_26  and  C25_28 
ROOT
HETATM    1  C4  UNL     1      -6.870  17.699  -5.925  1.00  0.00     0.001 C 
HETATM    2  C5  UNL     1      -8.035  18.081  -5.197  1.00  0.00     0.000 C 
ENDROOT
BRANCH   2   3
HETATM    3  C6  UNL     1      -8.267  17.658  -3.942  1.00  0.00     0.001 C 
BRANCH   3   4
HETATM    4  C7  UNL     1      -7.631  16.508  -3.407  1.00  0.00     0.007 C 
BRANCH   4   5
HETATM    5  C8  UNL     1      -8.052  15.205  -3.541  1.00  0.00    -0.062 C 
HETATM    6  C9  UNL     1      -8.434  14.629  -2.217  1.00  0.00     0.048 C 
BRANCH   5   7
HETATM    7  C10 UNL     1      -8.080  14.627  -4.820  1.00  0.00     0.007 C 
BRANCH   7   8
HETATM    8  C11 UNL     1      -8.541  14.542  -5.993  1.00  0.00     0.009 C 
BRANCH   8   9
HETATM    9  C12 UNL     1      -8.355  14.198  -7.370  1.00  0.00    -0.048 C 
HETATM   10  C13 UNL     1      -8.889  15.061  -8.267  1.00  0.00    -0.077 C 
HETATM   11  C14 UNL     1      -9.627  16.294  -7.873  1.00  0.00     0.044 C 
HETATM   12  C15 UNL     1      -8.755  14.811  -9.721  1.00  0.00     0.034 C 
HETATM   13  C16 UNL     1      -7.309  14.322  -9.890  1.00  0.00     0.005 C 
HETATM   14  C17 UNL     1      -7.376  12.927  -9.328  1.00  0.00     0.014 C 
HETATM   15  C18 UNL     1      -7.646  12.991  -7.817  1.00  0.00    -0.020 C 
HETATM   16  C19 UNL     1      -6.305  12.746  -7.202  1.00  0.00     0.020 C 
HETATM   17  C20 UNL     1      -8.559  11.785  -7.515  1.00  0.00     0.020 C 
ENDBRANCH   8   9
ENDBRANCH   7   8
ENDBRANCH   5   7
ENDBRANCH   4   5
ENDBRANCH   3   4
ENDBRANCH   2   3
BRANCH   1  18
HETATM   18  C3  UNL     1      -6.482  18.011  -7.110  1.00  0.00     0.007 C 
HETATM   19  C2  UNL     1      -5.545  17.368  -7.977  1.00  0.00    -0.054 C 
HETATM   20  C1  UNL     1      -4.850  16.114  -7.706  1.00  0.00     0.049 C 
BRANCH  19  21
HETATM   21  C21 UNL     1      -5.342  17.982  -9.167  1.00  0.00     0.062 C 
BRANCH  21  22
HETATM   22  C22 UNL     1      -6.380  17.908 -10.182  1.00  0.00    -0.122 C 
BRANCH  22  23
HETATM   23  C23 UNL     1      -7.210  17.855 -10.980  1.00  0.00     0.129 C 
BRANCH  23  24
HETATM   24  C24 UNL     1      -8.640  18.143 -11.015  1.00  0.00     0.249 C 
HETATM   25  O1  UNL     1      -9.127  19.006 -10.202  1.00  0.00    -0.268 OA
HETATM   26  N1  UNL     1      -9.528  17.518 -11.893  1.00  0.00    -0.353 N 
ATOM     27  H1  UNL     1      -9.206  16.819 -12.562  1.00  0.00     0.163 HD
BRANCH  26  28
HETATM   28  C25 UNL     1     -10.954  17.906 -11.818  1.00  0.00     0.076 C 
HETATM   29  C26 UNL     1     -11.696  16.577 -11.503  1.00  0.00     0.032 C 
HETATM   30  C27 UNL     1     -11.458  18.456 -13.103  1.00  0.00     0.032 C 
ENDBRANCH  26  28
ENDBRANCH  23  24
ENDBRANCH  22  23
ENDBRANCH  21  22
ENDBRANCH  19  21
ENDBRANCH   1  18
TORSDOF 12
ENDMDL
MODEL 3
REMARK VINA RESULT: -7.478626327      0.631      1.776
REMARK  12 active torsions:
REMARK  status: ('A' for Active; 'I' for Inactive)
REMARK    1  A    between atoms: C2_2  and  C21_21 
REMARK    2  A    between atoms: C3_3  and  C4_4 
REMARK    3  A    between atoms: C5_5  and  C6_6 
REMARK    4  A    between atoms: C6_6  and  C7_7 
REMARK    5  A    between atoms: C7_7  and  C8_8 
REMARK    6  A    between atoms: C8_8  and  C10_10 
REMARK    7  A    between atoms: C10_10  and  C11_11 
REMARK    8  A    between atoms: C11_11  and  C12_12 
REMARK    9  A    between atoms: C21_21  and  C22_22 
REMARK   10  A    between atoms: C22_22  and  C23_23 
REMARK   11  A    between atoms: C23_23  and  C24_24 
REMARK       I    between atoms: C24_24  and  N1_26 
REMARK   12  A    between atoms: N1_26  and  C25_28 
ROOT
HETATM    1  C4  UNL     1      -5.905  18.555  -7.832  1.00  0.00     0.001 C 
HETATM    2  C5  UNL     1      -5.008  18.685  -8.932  1.00  0.00     0.000 C 
ENDROOT
BRANCH   2   3
HETATM    3  C6  UNL     1      -3.684  18.490  -8.805  1.00  0.00     0.001 C 
BRANCH   3   4
HETATM    4  C7  UNL     1      -3.150  17.313  -8.220  1.00  0.00     0.007 C 
BRANCH   4   5
HETATM    5  C8  UNL     1      -3.128  16.059  -8.784  1.00  0.00    -0.062 C 
HETATM    6  C9  UNL     1      -1.836  15.816  -9.493  1.00  0.00     0.048 C 
BRANCH   5   7
HETATM    7  C10 UNL     1      -4.240  15.219  -8.620  1.00  0.00     0.007 C 
BRANCH   7   8
HETATM    8  C11 UNL     1      -5.417  14.997  -8.218  1.00  0.00     0.009 C 
BRANCH   8   9
HETATM    9  C12 UNL     1      -6.822  14.934  -8.487  1.00  0.00    -0.048 C 
HETATM   10  C13 UNL     1      -7.630  15.011  -7.403  1.00  0.00    -0.077 C 
HETATM   11  C14 UNL     1      -7.117  15.152  -6.011  1.00  0.00     0.044 C 
HETATM   12  C15 UNL     1      -9.103  14.962  -7.558  1.00  0.00     0.034 C 
HETATM   13  C16 UNL     1      -9.383  15.835  -8.791  1.00  0.00     0.005 C 
HETATM   14  C17 UNL     1      -8.910  14.957  -9.919  1.00  0.00     0.014 C 
HETATM   15  C18 UNL     1      -7.385  14.786  -9.837  1.00  0.00    -0.020 C 
HETATM   16  C19 UNL     1      -6.862  15.724 -10.877  1.00  0.00     0.020 C 
HETATM   17  C20 UNL     1      -7.112  13.337 -10.290  1.00  0.00     0.020 C 
ENDBRANCH   8   9
ENDBRANCH   7   8
ENDBRANCH   5   7
ENDBRANCH   4   5
ENDBRANCH   3   4
ENDBRANCH   2   3
BRANCH   1  18
HETATM   18  C3  UNL     1      -7.182  18.689  -7.771  1.00  0.00     0.007 C 
HETATM   19  C2  UNL     1      -8.055  18.726  -6.640  1.00  0.00    -0.054 C 
HETATM   20  C1  UNL     1      -7.646  18.688  -5.240  1.00  0.00     0.049 C 
BRANCH  19  21
HETATM   21  C21 UNL     1      -9.372  18.853  -6.931  1.00  0.00     0.062 C 
BRANCH  21  22
HETATM   22  C22 UNL     1      -9.758  19.486  -8.181  1.00  0.00    -0.122 C 
BRANCH  22  23
HETATM   23  C23 UNL     1     -10.072  19.982  -9.174  1.00  0.00     0.129 C 
BRANCH  23  24
HETATM   24  C24 UNL     1     -10.758  19.542 -10.384  1.00  0.00     0.249 C 
HETATM   25  O1  UNL     1     -11.799  20.177 -10.782  1.00  0.00    -0.268 OA
HETATM   26  N1  UNL     1     -10.347  18.447 -11.146  1.00  0.00    -0.353 N 
ATOM     27  H1  UNL     1      -9.530  17.897 -10.881  1.00  0.00     0.163 HD
BRANCH  26  28
HETATM   28  C25 UNL     1     -11.138  18.112 -12.350  1.00  0.00     0.076 C 
HETATM   29  C26 UNL     1     -11.389  16.583 -12.231  1.00  0.00     0.032 C 
HETATM   30  C27 UNL     1     -10.398  18.391 -13.608  1.00  0.00     0.032 C 
ENDBRANCH  26  28
ENDBRANCH  23  24
ENDBRANCH  22  23
ENDBRANCH  21  22
ENDBRANCH  19  21
ENDBRANCH   1  18
TORSDOF 12
ENDMDL
MODEL 4
REMARK VINA RESULT: -7.259465276      1.289      3.989
REMARK  12 active torsions:
REMARK  status: ('A' for Active; 'I' for Inactive)
REMARK    1  A    between atoms: C2_2  and  C21_21 
REMARK    2  A    between atoms: C3_3  and  C4_4 
REMARK    3  A    between atoms: C5_5  and  C6_6 
REMARK    4  A    between atoms: C6_6  and  C7_7 
REMARK    5  A    between atoms: C7_7  and  C8_8 
REMARK    6  A    between atoms: C8_8  and  C10_10 
REMARK    7  A    between atoms: C10_10  and  C11_11 
REMARK    8  A    between atoms: C11_11  and  C12_12 
REMARK    9  A    between atoms: C21_21  and  C22_22 
REMARK   10  A    between atoms: C22_22  and  C23_23 
REMARK   11  A    between atoms: C23_23  and  C24_24 
REMARK       I    between atoms: C24_24  and  N1_26 
REMARK   12  A    between atoms: N1_26  and  C25_28 
ROOT
HETATM    1  C4  UNL     1      -8.623  15.241  -6.700  1.00  0.00     0.001 C 
HETATM    2  C5  UNL     1      -7.482  14.523  -6.238  1.00  0.00     0.000 C 
ENDROOT
BRANCH   2   3
HETATM    3  C6  UNL     1      -7.339  13.200  -6.432  1.00  0.00     0.001 C 
BRANCH   3   4
HETATM    4  C7  UNL     1      -6.568  12.677  -7.501  1.00  0.00     0.007 C 
BRANCH   4   5
HETATM    5  C8  UNL     1      -6.373  13.261  -8.731  1.00  0.00    -0.062 C 
HETATM    6  C9  UNL     1      -7.580  13.098  -9.596  1.00  0.00     0.048 C 
BRANCH   5   7
HETATM    7  C10 UNL     1      -5.154  13.905  -8.993  1.00  0.00     0.007 C 
BRANCH   7   8
HETATM    8  C11 UNL     1      -4.354  14.873  -8.852  1.00  0.00     0.009 C 
BRANCH   8   9
HETATM    9  C12 UNL     1      -4.129  16.283  -8.745  1.00  0.00    -0.048 C 
HETATM   10  C13 UNL     1      -2.871  16.699  -9.027  1.00  0.00    -0.077 C 
HETATM   11  C14 UNL     1      -1.775  15.772  -9.422  1.00  0.00     0.044 C 
HETATM   12  C15 UNL     1      -2.521  18.137  -8.954  1.00  0.00     0.034 C 
HETATM   13  C16 UNL     1      -3.728  18.852  -9.582  1.00  0.00     0.005 C 
HETATM   14  C17 UNL     1      -4.773  18.720  -8.507  1.00  0.00     0.014 C 
HETATM   15  C18 UNL     1      -5.169  17.243  -8.350  1.00  0.00    -0.020 C 
HETATM   16  C19 UNL     1      -6.473  17.142  -9.075  1.00  0.00     0.020 C 
HETATM   17  C20 UNL     1      -5.422  17.048  -6.841  1.00  0.00     0.020 C 
ENDBRANCH   8   9
ENDBRANCH   7   8
ENDBRANCH   5   7
ENDBRANCH   4   5
ENDBRANCH   3   4
ENDBRANCH   2   3
BRANCH   1  18
HETATM   18  C3  UNL     1      -8.918  16.489  -6.617  1.00  0.00     0.007 C 
HETATM   19  C2  UNL     1      -8.804  17.396  -5.517  1.00  0.00    -0.054 C 
HETATM   20  C1  UNL     1      -8.232  17.089  -4.210  1.00  0.00     0.049 C 
BRANCH  19  21
HETATM   21  C21 UNL     1      -9.235  18.657  -5.761  1.00  0.00     0.062 C 
BRANCH  21  22
HETATM   22  C22 UNL     1      -9.232  19.148  -7.129  1.00  0.00    -0.122 C 
BRANCH  22  23
HETATM   23  C23 UNL     1      -9.232  19.548  -8.210  1.00  0.00     0.129 C 
BRANCH  23  24
HETATM   24  C24 UNL     1     -10.009  19.284  -9.417  1.00  0.00     0.249 C 
HETATM   25  O1  UNL     1     -10.906  20.123  -9.783  1.00  0.00    -0.268 OA
HETATM   26  N1  UNL     1      -9.835  18.146 -10.209  1.00  0.00    -0.353 N 
ATOM     27  H1  UNL     1      -9.141  17.438  -9.970  1.00  0.00     0.163 HD
BRANCH  26  28
HETATM   28  C25 UNL     1     -10.693  18.006 -11.405  1.00  0.00     0.076 C 
HETATM   29  C26 UNL     1     -11.067  16.497 -11.433  1.00  0.00     0.032 C 
HETATM   30  C27 UNL     1      -9.977  18.358 -12.659  1.00  0.00     0.032 C 
ENDBRANCH  26  28
ENDBRANCH  23  24
ENDBRANCH  22  23
ENDBRANCH  21  22
ENDBRANCH  19  21
ENDBRANCH   1  18
TORSDOF 12
ENDMDL
MODEL 5
REMARK VINA RESULT: -7.175225233      2.407      5.778
REMARK  12 active torsions:
REMARK  status: ('A' for Active; 'I' for Inactive)
REMARK    1  A    between atoms: C2_2  and  C21_21 
REMARK    2  A    between atoms: C3_3  and  C4_4 
REMARK    3  A    between atoms: C5_5  and  C6_6 
REMARK    4  A    between atoms: C6_6  and  C7_7 
REMARK    5  A    between atoms: C7_7  and  C8_8 
REMARK    6  A    between atoms: C8_8  and  C10_10 
REMARK    7  A    between atoms: C10_10  and  C11_11 
REMARK    8  A    between atoms: C11_11  and  C12_12 
REMARK    9  A    between atoms: C21_21  and  C22_22 
REMARK   10  A    between atoms: C22_22  and  C23_23 
REMARK   11  A    between atoms: C23_23  and  C24_24 
REMARK       I    between atoms: C24_24  and  N1_26 
REMARK   12  A    between atoms: N1_26  and  C25_28 
ROOT
HETATM    1  C4  UNL     1      -9.663  14.629  -8.624  1.00  0.00     0.001 C 
HETATM    2  C5  UNL     1     -10.317  15.819  -9.056  1.00  0.00     0.000 C 
ENDROOT
BRANCH   2   3
HETATM    3  C6  UNL     1     -10.947  15.902 -10.242  1.00  0.00     0.001 C 
BRANCH   3   4
HETATM    4  C7  UNL     1     -10.314  16.439 -11.393  1.00  0.00     0.007 C 
BRANCH   4   5
HETATM    5  C8  UNL     1      -9.289  17.355 -11.408  1.00  0.00    -0.062 C 
HETATM    6  C9  UNL     1      -9.820  18.750 -11.472  1.00  0.00     0.048 C 
BRANCH   5   7
HETATM    7  C10 UNL     1      -7.964  16.895 -11.351  1.00  0.00     0.007 C 
BRANCH   7   8
HETATM    8  C11 UNL     1      -7.110  15.984 -11.162  1.00  0.00     0.009 C 
BRANCH   8   9
HETATM    9  C12 UNL     1      -6.280  15.237 -10.267  1.00  0.00    -0.048 C 
HETATM   10  C13 UNL     1      -5.637  15.962  -9.320  1.00  0.00    -0.077 C 
HETATM   11  C14 UNL     1      -5.767  17.441  -9.198  1.00  0.00     0.044 C 
HETATM   12  C15 UNL     1      -4.754  15.297  -8.334  1.00  0.00     0.034 C 
HETATM   13  C16 UNL     1      -5.517  14.023  -7.941  1.00  0.00     0.005 C 
HETATM   14  C17 UNL     1      -5.347  13.158  -9.162  1.00  0.00     0.014 C 
HETATM   15  C18 UNL     1      -6.106  13.779 -10.345  1.00  0.00    -0.020 C 
HETATM   16  C19 UNL     1      -7.358  12.967 -10.435  1.00  0.00     0.020 C 
HETATM   17  C20 UNL     1      -5.235  13.489 -11.584  1.00  0.00     0.020 C 
ENDBRANCH   8   9
ENDBRANCH   7   8
ENDBRANCH   5   7
ENDBRANCH   4   5
ENDBRANCH   3   4
ENDBRANCH   2   3
BRANCH   1  18
HETATM   18  C3  UNL     1      -9.033  14.367  -7.535  1.00  0.00     0.007 C 
HETATM   19  C2  UNL     1      -8.753  13.115  -6.906  1.00  0.00    -0.054 C 
HETATM   20  C1  UNL     1      -9.085  11.797  -7.437  1.00  0.00     0.049 C 
BRANCH  19  21
HETATM   21  C21 UNL     1      -8.079  13.194  -5.734  1.00  0.00     0.062 C 
BRANCH  21  22
HETATM   22  C22 UNL     1      -7.926  14.493  -5.098  1.00  0.00    -0.122 C 
BRANCH  22  23
HETATM   23  C23 UNL     1      -7.807  15.527  -4.603  1.00  0.00     0.129 C 
BRANCH  23  24
HETATM   24  C24 UNL     1      -8.190  16.893  -4.944  1.00  0.00     0.249 C 
HETATM   25  O1  UNL     1      -8.826  17.600  -4.085  1.00  0.00    -0.268 OA
HETATM   26  N1  UNL     1      -7.905  17.486  -6.176  1.00  0.00    -0.353 N 
ATOM     27  H1  UNL     1      -7.405  16.976  -6.905  1.00  0.00     0.163 HD
BRANCH  26  28
HETATM   28  C25 UNL     1      -8.354  18.880  -6.387  1.00  0.00     0.076 C 
HETATM   29  C26 UNL     1      -8.940  18.879  -7.827  1.00  0.00     0.032 C 
HETATM   30  C27 UNL     1      -7.232  19.852  -6.314  1.00  0.00     0.032 C 
ENDBRANCH  26  28
ENDBRANCH  23  24
ENDBRANCH  22  23
ENDBRANCH  21  22
ENDBRANCH  19  21
ENDBRANCH   1  18
TORSDOF 12
ENDMDL
