MODEL 1
REMARK VINA RESULT: -7.515637386      0.000      0.000
REMARK  5 active torsions:
REMARK  status: ('A' for Active; 'I' for Inactive)
REMARK    1  A    between atoms: C2_2  and  C4_5 
REMARK    2  A    between atoms: C16_19  and  O3_20 
REMARK    3  A    between atoms: O3_20  and  C17_21 
REMARK    4  A    between atoms: C21_25  and  C22_26 
REMARK    5  A    between atoms: C22_26  and  O4_29 
ROOT
HETATM    1  C1  UNL     1      20.797  -2.672   8.088  1.00  0.00     0.026 C 
HETATM    2  C2  UNL     1      19.427  -3.312   7.759  1.00  0.00     0.095 C 
HETATM    3  C3  UNL     1      19.255  -3.218   6.350  1.00  0.00     0.064 C 
HETATM    4  N1  UNL     1      19.116  -3.164   5.210  1.00  0.00    -0.197 NA
ENDROOT
BRANCH   2   5
HETATM    5  C4  UNL     1      19.436  -4.637   8.405  1.00  0.00     0.033 C 
HETATM    6  C5  UNL     1      20.587  -4.614   9.413  1.00  0.00     0.009 C 
HETATM    7  C6  UNL     1      20.177  -4.108  10.757  1.00  0.00     0.013 C 
HETATM    8  C7  UNL     1      18.795  -4.374  11.196  1.00  0.00    -0.002 C 
HETATM    9  C8  UNL     1      17.963  -3.095  11.036  1.00  0.00     0.019 C 
HETATM   10  C9  UNL     1      18.805  -4.615  12.681  1.00  0.00     0.206 C 
HETATM   11  C14 UNL     1      18.185  -5.492  10.436  1.00  0.00    -0.007 C 
HETATM   12  O1  UNL     1      19.001  -5.851  13.192  1.00  0.00    -0.231 OA
HETATM   13  C10 UNL     1      17.454  -4.848  13.238  1.00  0.00     0.122 C 
HETATM   14  O2  UNL     1      17.913  -6.032  13.868  1.00  0.00    -0.227 OA
HETATM   15  C11 UNL     1      16.992  -3.907  14.321  1.00  0.00     0.052 C 
HETATM   16  C12 UNL     1      16.397  -5.169  12.256  1.00  0.00     0.044 C 
HETATM   17  C13 UNL     1      16.791  -5.726  10.946  1.00  0.00     0.016 C 
HETATM   18  C15 UNL     1      18.982  -6.755  10.692  1.00  0.00     0.019 C 
HETATM   19  C16 UNL     1      18.193  -5.276   8.913  1.00  0.00     0.137 C 
BRANCH  19  20
HETATM   20  O3  UNL     1      18.063  -6.519   8.409  1.00  0.00    -0.374 OA
BRANCH  20  21
HETATM   21  C17 UNL     1      17.112  -7.148   7.818  1.00  0.00     0.058 C 
HETATM   22  C18 UNL     1      16.798  -8.598   8.009  1.00  0.00     0.046 C 
HETATM   23  C19 UNL     1      15.768  -6.415   7.930  1.00  0.00     0.038 C 
HETATM   24  C20 UNL     1      14.952  -6.512   6.667  1.00  0.00     0.010 C 
HETATM   25  C21 UNL     1      15.534  -5.737   5.522  1.00  0.00     0.019 C 
HETATM   26  C25 UNL     1      17.034  -5.682   5.766  1.00  0.00     0.010 C 
HETATM   27  C26 UNL     1      17.392  -7.064   6.284  1.00  0.00     0.038 C 
BRANCH  25  28
HETATM   28  C22 UNL     1      14.913  -4.402   5.284  1.00  0.00     0.054 C 
HETATM   29  C23 UNL     1      14.193  -3.827   6.458  1.00  0.00     0.045 C 
HETATM   30  C24 UNL     1      13.987  -4.540   4.088  1.00  0.00     0.045 C 
BRANCH  28  31
HETATM   31  O4  UNL     1      15.918  -3.513   4.904  1.00  0.00    -0.390 OA
ATOM     32  H4  UNL     1      15.728  -2.666   5.290  1.00  0.00     0.210 HD
ENDBRANCH  28  31
ENDBRANCH  25  28
ENDBRANCH  20  21
ENDBRANCH  19  20
ENDBRANCH   2   5
TORSDOF 5
ENDMDL
MODEL 2
REMARK VINA RESULT: -7.365128221      4.295      6.911
REMARK  5 active torsions:
REMARK  status: ('A' for Active; 'I' for Inactive)
REMARK    1  A    between atoms: C2_2  and  C4_5 
REMARK    2  A    between atoms: C16_19  and  O3_20 
REMARK    3  A    between atoms: O3_20  and  C17_21 
REMARK    4  A    between atoms: C21_25  and  C22_26 
REMARK    5  A    between atoms: C22_26  and  O4_29 
ROOT
HETATM    1  C1  UNL     1      24.297   0.709   3.956  1.00  0.00     0.026 C 
HETATM    2  C2  UNL     1      23.643   0.308   5.300  1.00  0.00     0.095 C 
HETATM    3  C3  UNL     1      22.483   1.117   5.454  1.00  0.00     0.064 C 
HETATM    4  N1  UNL     1      21.533   1.752   5.575  1.00  0.00    -0.197 NA
ENDROOT
BRANCH   2   5
HETATM    5  C4  UNL     1      23.509  -1.160   5.262  1.00  0.00     0.033 C 
HETATM    6  C5  UNL     1      24.874  -1.703   4.832  1.00  0.00     0.009 C 
HETATM    7  C6  UNL     1      25.793  -1.950   5.984  1.00  0.00     0.013 C 
HETATM    8  C7  UNL     1      25.188  -2.355   7.266  1.00  0.00    -0.002 C 
HETATM    9  C8  UNL     1      25.168  -1.148   8.214  1.00  0.00     0.019 C 
HETATM   10  C9  UNL     1      26.114  -3.329   7.943  1.00  0.00     0.206 C 
HETATM   11  C14 UNL     1      23.819  -2.896   7.081  1.00  0.00    -0.007 C 
HETATM   12  O1  UNL     1      26.033  -4.658   7.706  1.00  0.00    -0.231 OA
HETATM   13  C10 UNL     1      25.624  -3.768   9.269  1.00  0.00     0.122 C 
HETATM   14  O2  UNL     1      25.797  -5.122   8.890  1.00  0.00    -0.227 OA
HETATM   15  C11 UNL     1      26.524  -3.506  10.448  1.00  0.00     0.052 C 
HETATM   16  C12 UNL     1      24.198  -3.495   9.553  1.00  0.00     0.044 C 
HETATM   17  C13 UNL     1      23.272  -3.309   8.417  1.00  0.00     0.016 C 
HETATM   18  C15 UNL     1      23.894  -4.137   6.215  1.00  0.00     0.019 C 
HETATM   19  C16 UNL     1      22.867  -1.924   6.364  1.00  0.00     0.137 C 
BRANCH  19  20
HETATM   20  O3  UNL     1      21.895  -2.722   5.880  1.00  0.00    -0.374 OA
BRANCH  20  21
HETATM   21  C17 UNL     1      20.660  -2.541   5.577  1.00  0.00     0.058 C 
HETATM   22  C18 UNL     1      20.172  -1.680   4.455  1.00  0.00     0.046 C 
HETATM   23  C19 UNL     1      19.888  -3.861   5.453  1.00  0.00     0.038 C 
HETATM   24  C20 UNL     1      18.486  -3.762   5.998  1.00  0.00     0.010 C 
HETATM   25  C21 UNL     1      18.438  -3.615   7.491  1.00  0.00     0.019 C 
HETATM   26  C25 UNL     1      19.740  -2.938   7.893  1.00  0.00     0.010 C 
HETATM   27  C26 UNL     1      19.976  -1.888   6.821  1.00  0.00     0.038 C 
BRANCH  25  28
HETATM   28  C22 UNL     1      18.156  -4.874   8.239  1.00  0.00     0.054 C 
HETATM   29  C23 UNL     1      17.548  -5.965   7.424  1.00  0.00     0.045 C 
HETATM   30  C24 UNL     1      17.270  -4.512   9.418  1.00  0.00     0.045 C 
BRANCH  28  31
HETATM   31  O4  UNL     1      19.356  -5.342   8.777  1.00  0.00    -0.390 OA
ATOM     32  H4  UNL     1      19.227  -5.496   9.705  1.00  0.00     0.210 HD
ENDBRANCH  28  31
ENDBRANCH  25  28
ENDBRANCH  20  21
ENDBRANCH  19  20
ENDBRANCH   2   5
TORSDOF 5
ENDMDL
MODEL 3
REMARK VINA RESULT: -7.215964563      2.732      3.931
REMARK  5 active torsions:
REMARK  status: ('A' for Active; 'I' for Inactive)
REMARK    1  A    between atoms: C2_2  and  C4_5 
REMARK    2  A    between atoms: C16_19  and  O3_20 
REMARK    3  A    between atoms: O3_20  and  C17_21 
REMARK    4  A    between atoms: C21_25  and  C22_26 
REMARK    5  A    between atoms: C22_26  and  O4_29 
ROOT
HETATM    1  C1  UNL     1      18.677  -3.716   8.539  1.00  0.00     0.026 C 
HETATM    2  C2  UNL     1      18.955  -3.758  10.061  1.00  0.00     0.095 C 
HETATM    3  C3  UNL     1      17.692  -3.704  10.714  1.00  0.00     0.064 C 
HETATM    4  N1  UNL     1      16.675  -3.681  11.249  1.00  0.00    -0.197 NA
ENDROOT
BRANCH   2   5
HETATM    5  C4  UNL     1      19.839  -4.917  10.278  1.00  0.00     0.033 C 
HETATM    6  C5  UNL     1      21.269  -4.374  10.263  1.00  0.00     0.009 C 
HETATM    7  C6  UNL     1      21.739  -3.932  11.611  1.00  0.00     0.013 C 
HETATM    8  C7  UNL     1      21.216  -4.649  12.787  1.00  0.00    -0.002 C 
HETATM    9  C8  UNL     1      20.135  -3.792  13.458  1.00  0.00     0.019 C 
HETATM   10  C9  UNL     1      22.306  -4.728  13.821  1.00  0.00     0.206 C 
HETATM   11  C14 UNL     1      20.674  -5.981  12.420  1.00  0.00    -0.007 C 
HETATM   12  O1  UNL     1      23.193  -5.749  13.832  1.00  0.00    -0.231 OA
HETATM   13  C10 UNL     1      21.873  -5.393  15.070  1.00  0.00     0.122 C 
HETATM   14  O2  UNL     1      22.994  -6.257  15.005  1.00  0.00    -0.227 OA
HETATM   15  C11 UNL     1      21.987  -4.594  16.342  1.00  0.00     0.052 C 
HETATM   16  C12 UNL     1      20.620  -6.175  14.984  1.00  0.00     0.044 C 
HETATM   17  C13 UNL     1      20.180  -6.666  13.663  1.00  0.00     0.016 C 
HETATM   18  C15 UNL     1      21.792  -6.827  11.846  1.00  0.00     0.019 C 
HETATM   19  C16 UNL     1      19.578  -5.922  11.343  1.00  0.00     0.137 C 
BRANCH  19  20
HETATM   20  O3  UNL     1      19.567  -7.166  10.825  1.00  0.00    -0.374 OA
BRANCH  20  21
HETATM   21  C17 UNL     1      18.680  -8.091  10.747  1.00  0.00     0.058 C 
HETATM   22  C18 UNL     1      18.468  -9.160  11.773  1.00  0.00     0.046 C 
HETATM   23  C19 UNL     1      17.284  -7.541  10.428  1.00  0.00     0.038 C 
HETATM   24  C20 UNL     1      16.512  -8.433   9.491  1.00  0.00     0.010 C 
HETATM   25  C21 UNL     1      17.068  -8.454   8.097  1.00  0.00     0.019 C 
HETATM   26  C25 UNL     1      18.553  -8.152   8.227  1.00  0.00     0.010 C 
HETATM   27  C26 UNL     1      18.996  -8.920   9.460  1.00  0.00     0.038 C 
BRANCH  25  28
HETATM   28  C22 UNL     1      16.357  -7.577   7.122  1.00  0.00     0.054 C 
HETATM   29  C23 UNL     1      15.941  -8.253   5.859  1.00  0.00     0.045 C 
HETATM   30  C24 UNL     1      17.261  -6.391   6.836  1.00  0.00     0.045 C 
BRANCH  28  31
HETATM   31  O4  UNL     1      15.218  -7.064   7.744  1.00  0.00    -0.390 OA
ATOM     32  H4  UNL     1      14.497  -7.662   7.585  1.00  0.00     0.210 HD
ENDBRANCH  28  31
ENDBRANCH  25  28
ENDBRANCH  20  21
ENDBRANCH  19  20
ENDBRANCH   2   5
TORSDOF 5
ENDMDL
MODEL 4
REMARK VINA RESULT: -7.196492757      1.784      2.430
REMARK  5 active torsions:
REMARK  status: ('A' for Active; 'I' for Inactive)
REMARK    1  A    between atoms: C2_2  and  C4_5 
REMARK    2  A    between atoms: C16_19  and  O3_20 
REMARK    3  A    between atoms: O3_20  and  C17_21 
REMARK    4  A    between atoms: C21_25  and  C22_26 
REMARK    5  A    between atoms: C22_26  and  O4_29 
ROOT
HETATM    1  C1  UNL     1      20.855  -3.387   8.613  1.00  0.00     0.026 C 
HETATM    2  C2  UNL     1      19.512  -3.817   9.251  1.00  0.00     0.095 C 
HETATM    3  C3  UNL     1      18.581  -3.975   8.187  1.00  0.00     0.064 C 
HETATM    4  N1  UNL     1      17.828  -4.125   7.332  1.00  0.00    -0.197 NA
ENDROOT
BRANCH   2   5
HETATM    5  C4  UNL     1      19.828  -4.964  10.120  1.00  0.00     0.033 C 
HETATM    6  C5  UNL     1      20.922  -4.487  11.079  1.00  0.00     0.009 C 
HETATM    7  C6  UNL     1      20.377  -3.864  12.322  1.00  0.00     0.013 C 
HETATM    8  C7  UNL     1      19.092  -4.373  12.836  1.00  0.00    -0.002 C 
HETATM    9  C8  UNL     1      17.979  -3.381  12.474  1.00  0.00     0.019 C 
HETATM   10  C9  UNL     1      19.132  -4.337  14.339  1.00  0.00     0.206 C 
HETATM   11  C14 UNL     1      18.783  -5.722  12.301  1.00  0.00    -0.007 C 
HETATM   12  O1  UNL     1      19.611  -5.379  15.056  1.00  0.00    -0.231 OA
HETATM   13  C10 UNL     1      17.867  -4.786  14.963  1.00  0.00     0.122 C 
HETATM   14  O2  UNL     1      18.586  -5.694  15.780  1.00  0.00    -0.227 OA
HETATM   15  C11 UNL     1      17.173  -3.807  15.874  1.00  0.00     0.052 C 
HETATM   16  C12 UNL     1      16.937  -5.520  14.080  1.00  0.00     0.044 C 
HETATM   17  C13 UNL     1      17.478  -6.189  12.879  1.00  0.00     0.016 C 
HETATM   18  C15 UNL     1      19.857  -6.689  12.755  1.00  0.00     0.019 C 
HETATM   19  C16 UNL     1      18.767  -5.783  10.764  1.00  0.00     0.137 C 
BRANCH  19  20
HETATM   20  O3  UNL     1      18.950  -7.090  10.491  1.00  0.00    -0.374 OA
BRANCH  20  21
HETATM   21  C17 UNL     1      18.161  -8.057  10.189  1.00  0.00     0.058 C 
HETATM   22  C18 UNL     1      17.922  -9.264  11.041  1.00  0.00     0.046 C 
HETATM   23  C19 UNL     1      16.770  -7.568   9.765  1.00  0.00     0.038 C 
HETATM   24  C20 UNL     1      16.192  -8.382   8.635  1.00  0.00     0.010 C 
HETATM   25  C21 UNL     1      16.907  -8.180   7.331  1.00  0.00     0.019 C 
HETATM   26  C25 UNL     1      18.335  -7.795   7.685  1.00  0.00     0.010 C 
HETATM   27  C26 UNL     1      18.695  -8.686   8.862  1.00  0.00     0.038 C 
BRANCH  25  28
HETATM   28  C22 UNL     1      16.243  -7.234   6.389  1.00  0.00     0.054 C 
HETATM   29  C23 UNL     1      15.195  -6.368   7.004  1.00  0.00     0.045 C 
HETATM   30  C24 UNL     1      15.673  -8.057   5.248  1.00  0.00     0.045 C 
BRANCH  28  31
HETATM   31  O4  UNL     1      17.223  -6.412   5.831  1.00  0.00    -0.390 OA
ATOM     32  H4  UNL     1      17.804  -6.953   5.308  1.00  0.00     0.210 HD
ENDBRANCH  28  31
ENDBRANCH  25  28
ENDBRANCH  20  21
ENDBRANCH  19  20
ENDBRANCH   2   5
TORSDOF 5
ENDMDL
MODEL 5
REMARK VINA RESULT: -7.119862300      2.706      7.289
REMARK  5 active torsions:
REMARK  status: ('A' for Active; 'I' for Inactive)
REMARK    1  A    between atoms: C2_2  and  C4_5 
REMARK    2  A    between atoms: C16_19  and  O3_20 
REMARK    3  A    between atoms: O3_20  and  C17_21 
REMARK    4  A    between atoms: C21_25  and  C22_26 
REMARK    5  A    between atoms: C22_26  and  O4_29 
ROOT
HETATM    1  C1  UNL     1      22.192  -4.087  11.450  1.00  0.00     0.026 C 
HETATM    2  C2  UNL     1      21.168  -5.232  11.262  1.00  0.00     0.095 C 
HETATM    3  C3  UNL     1      21.331  -6.118  12.362  1.00  0.00     0.064 C 
HETATM    4  N1  UNL     1      21.443  -6.829  13.258  1.00  0.00    -0.197 NA
ENDROOT
BRANCH   2   5
HETATM    5  C4  UNL     1      19.866  -4.576  11.041  1.00  0.00     0.033 C 
HETATM    6  C5  UNL     1      19.919  -3.981   9.632  1.00  0.00     0.009 C 
HETATM    7  C6  UNL     1      19.466  -4.938   8.578  1.00  0.00     0.013 C 
HETATM    8  C7  UNL     1      18.430  -5.919   8.944  1.00  0.00    -0.002 C 
HETATM    9  C8  UNL     1      19.089  -7.286   9.166  1.00  0.00     0.019 C 
HETATM   10  C9  UNL     1      17.538  -6.138   7.752  1.00  0.00     0.206 C 
HETATM   11  C14 UNL     1      17.680  -5.499  10.154  1.00  0.00    -0.007 C 
HETATM   12  O1  UNL     1      16.453  -5.362   7.533  1.00  0.00    -0.231 OA
HETATM   13  C10 UNL     1      16.482  -7.147   7.996  1.00  0.00     0.122 C 
HETATM   14  O2  UNL     1      15.499  -6.236   7.538  1.00  0.00    -0.227 OA
HETATM   15  C11 UNL     1      16.458  -8.342   7.079  1.00  0.00     0.052 C 
HETATM   16  C12 UNL     1      16.236  -7.495   9.412  1.00  0.00     0.044 C 
HETATM   17  C13 UNL     1      16.628  -6.528  10.458  1.00  0.00     0.016 C 
HETATM   18  C15 UNL     1      16.970  -4.192   9.864  1.00  0.00     0.019 C 
HETATM   19  C16 UNL     1      18.579  -5.242  11.375  1.00  0.00     0.137 C 
BRANCH  19  20
HETATM   20  O3  UNL     1      17.830  -4.450  12.167  1.00  0.00    -0.374 OA
BRANCH  20  21
HETATM   21  C17 UNL     1      17.394  -4.548  13.371  1.00  0.00     0.058 C 
HETATM   22  C18 UNL     1      15.958  -4.733  13.748  1.00  0.00     0.046 C 
HETATM   23  C19 UNL     1      18.174  -5.583  14.194  1.00  0.00     0.038 C 
HETATM   24  C20 UNL     1      18.384  -5.145  15.620  1.00  0.00     0.010 C 
HETATM   25  C21 UNL     1      19.334  -3.990  15.755  1.00  0.00     0.019 C 
HETATM   26  C25 UNL     1      19.242  -3.211  14.452  1.00  0.00     0.010 C 
HETATM   27  C26 UNL     1      17.764  -3.218  14.101  1.00  0.00     0.038 C 
BRANCH  25  28
HETATM   28  C22 UNL     1      20.726  -4.361  16.140  1.00  0.00     0.054 C 
HETATM   29  C23 UNL     1      21.108  -3.996  17.535  1.00  0.00     0.045 C 
HETATM   30  C24 UNL     1      21.661  -3.720  15.130  1.00  0.00     0.045 C 
BRANCH  28  31
HETATM   31  O4  UNL     1      20.869  -5.740  15.990  1.00  0.00    -0.390 OA
ATOM     32  H4  UNL     1      21.526  -5.901  15.323  1.00  0.00     0.210 HD
ENDBRANCH  28  31
ENDBRANCH  25  28
ENDBRANCH  20  21
ENDBRANCH  19  20
ENDBRANCH   2   5
TORSDOF 5
ENDMDL
