MODEL 1
REMARK VINA RESULT: -8.419428836      0.000      0.000
REMARK  3 active torsions:
REMARK  status: ('A' for Active; 'I' for Inactive)
REMARK    1  A    between atoms: C4_4  and  C5_5 
REMARK    2  A    between atoms: C6_6  and  C7_7 
REMARK    3  A    between atoms: C8_8  and  C9_9 
ROOT
HETATM    1  C9  UNL     1      18.670  -4.186   8.130  1.00  0.00     0.153 C 
HETATM    2  O1  UNL     1      17.344  -3.987   7.741  1.00  0.00    -0.368 OA
HETATM    3  C10 UNL     1      17.031  -4.482   6.513  1.00  0.00     0.083 C 
HETATM    4  C11 UNL     1      18.088  -4.254   5.455  1.00  0.00     0.048 C 
HETATM    5  C12 UNL     1      15.783  -3.733   6.025  1.00  0.00     0.048 C 
HETATM    6  C13 UNL     1      16.696  -5.955   6.496  1.00  0.00     0.191 C 
HETATM    7  O2  UNL     1      15.820  -6.179   5.462  1.00  0.00    -0.342 OA
HETATM    8  C14 UNL     1      15.308  -7.449   5.394  1.00  0.00     0.190 C 
HETATM    9  C15 UNL     1      14.221  -7.461   4.344  1.00  0.00     0.081 C 
HETATM   10  C16 UNL     1      16.393  -8.438   5.029  1.00  0.00     0.081 C 
HETATM   11  O3  UNL     1      14.730  -7.748   6.626  1.00  0.00    -0.201 OA
HETATM   12  O4  UNL     1      15.642  -7.740   7.575  1.00  0.00    -0.230 OA
HETATM   13  C17 UNL     1      16.153  -6.460   7.789  1.00  0.00     0.192 C 
HETATM   14  C18 UNL     1      17.256  -6.626   8.843  1.00  0.00     0.038 C 
HETATM   15  C19 UNL     1      17.331  -5.443   9.750  1.00  0.00     0.014 C 
HETATM   16  C20 UNL     1      18.602  -4.638   9.575  1.00  0.00    -0.018 C 
HETATM   17  C21 UNL     1      18.431  -3.379  10.412  1.00  0.00     0.018 C 
HETATM   18  C22 UNL     1      19.808  -5.373  10.048  1.00  0.00     0.018 C 
ENDROOT
BRANCH   1  19
HETATM   19  C8  UNL     1      19.294  -2.826   8.115  1.00  0.00     0.006 C 
HETATM   20  C7  UNL     1      20.429  -2.524   7.529  1.00  0.00    -0.002 C 
BRANCH  20  21
HETATM   21  C6  UNL     1      21.279  -3.438   6.798  1.00  0.00    -0.003 C 
HETATM   22  C5  UNL     1      22.541  -3.287   6.561  1.00  0.00    -0.016 C 
BRANCH  22  23
HETATM   23  C4  UNL     1      23.400  -2.144   6.983  1.00  0.00     0.060 C 
HETATM   24  C3  UNL     1      23.324  -1.024   6.016  1.00  0.00    -0.005 C 
HETATM   25  C2  UNL     1      24.093  -1.000   4.949  1.00  0.00    -0.015 C 
HETATM   26  C1  UNL     1      24.049   0.114   3.942  1.00  0.00     0.052 C 
HETATM   27  C25 UNL     1      25.056  -2.084   4.702  1.00  0.00     0.141 C 
HETATM   28  O5  UNL     1      25.098  -3.116   5.658  1.00  0.00    -0.330 OA
HETATM   29  N1  UNL     1      25.794  -2.049   3.665  1.00  0.00    -0.380 N 
HETATM   30  C23 UNL     1      24.823  -2.707   6.992  1.00  0.00     0.137 C 
HETATM   31  C24 UNL     1      24.781  -3.901   7.927  1.00  0.00     0.041 C 
ATOM     32  H12 UNL     1      25.763  -1.302   2.972  1.00  0.00     0.158 HD
ATOM     33  H11 UNL     1      26.462  -2.802   3.494  1.00  0.00     0.158 HD
ENDBRANCH  22  23
ENDBRANCH  20  21
ENDBRANCH   1  19
TORSDOF 3
ENDMDL
MODEL 2
REMARK VINA RESULT: -8.267188873      3.544      7.529
REMARK  3 active torsions:
REMARK  status: ('A' for Active; 'I' for Inactive)
REMARK    1  A    between atoms: C4_4  and  C5_5 
REMARK    2  A    between atoms: C6_6  and  C7_7 
REMARK    3  A    between atoms: C8_8  and  C9_9 
ROOT
HETATM    1  C9  UNL     1      17.335  -6.051   7.784  1.00  0.00     0.153 C 
HETATM    2  O1  UNL     1      17.462  -4.743   8.253  1.00  0.00    -0.368 OA
HETATM    3  C10 UNL     1      18.721  -4.392   8.631  1.00  0.00     0.083 C 
HETATM    4  C11 UNL     1      19.467  -5.462   9.398  1.00  0.00     0.048 C 
HETATM    5  C12 UNL     1      18.593  -3.202   9.591  1.00  0.00     0.048 C 
HETATM    6  C13 UNL     1      19.617  -3.951   7.497  1.00  0.00     0.191 C 
HETATM    7  O2  UNL     1      20.532  -3.060   8.002  1.00  0.00    -0.342 OA
HETATM    8  C14 UNL     1      21.336  -2.457   7.070  1.00  0.00     0.190 C 
HETATM    9  C15 UNL     1      22.125  -1.370   7.764  1.00  0.00     0.081 C 
HETATM   10  C16 UNL     1      22.278  -3.467   6.451  1.00  0.00     0.081 C 
HETATM   11  O3  UNL     1      20.517  -1.861   6.114  1.00  0.00    -0.201 OA
HETATM   12  O4  UNL     1      19.803  -2.772   5.489  1.00  0.00    -0.230 OA
HETATM   13  C17 UNL     1      18.877  -3.375   6.339  1.00  0.00     0.192 C 
HETATM   14  C18 UNL     1      18.194  -4.465   5.502  1.00  0.00     0.038 C 
HETATM   15  C19 UNL     1      16.758  -4.627   5.877  1.00  0.00     0.014 C 
HETATM   16  C20 UNL     1      16.464  -5.952   6.548  1.00  0.00    -0.018 C 
HETATM   17  C21 UNL     1      15.027  -5.874   7.040  1.00  0.00     0.018 C 
HETATM   18  C22 UNL     1      16.593  -7.102   5.610  1.00  0.00     0.018 C 
ENDROOT
BRANCH   1  19
HETATM   19  C8  UNL     1      16.546  -6.772   8.832  1.00  0.00     0.006 C 
HETATM   20  C7  UNL     1      16.762  -8.007   9.220  1.00  0.00    -0.002 C 
BRANCH  20  21
HETATM   21  C6  UNL     1      17.788  -8.891   8.714  1.00  0.00    -0.003 C 
HETATM   22  C5  UNL     1      18.675  -9.518   9.417  1.00  0.00    -0.016 C 
BRANCH  22  23
HETATM   23  C4  UNL     1      18.839  -9.471  10.898  1.00  0.00     0.060 C 
HETATM   24  C3  UNL     1      19.810  -8.427  11.301  1.00  0.00    -0.005 C 
HETATM   25  C2  UNL     1      21.101  -8.679  11.327  1.00  0.00    -0.015 C 
HETATM   26  C1  UNL     1      22.121  -7.651  11.728  1.00  0.00     0.052 C 
HETATM   27  C25 UNL     1      21.604 -10.013  10.966  1.00  0.00     0.141 C 
HETATM   28  O5  UNL     1      20.640 -10.971  10.604  1.00  0.00    -0.330 OA
HETATM   29  N1  UNL     1      22.856 -10.244  10.994  1.00  0.00    -0.380 N 
HETATM   30  C23 UNL     1      19.392 -10.846  11.274  1.00  0.00     0.137 C 
HETATM   31  C24 UNL     1      18.386 -11.848  10.739  1.00  0.00     0.041 C 
ATOM     32  H12 UNL     1      23.555  -9.550  11.256  1.00  0.00     0.158 HD
ATOM     33  H11 UNL     1      23.206 -11.170  10.743  1.00  0.00     0.158 HD
ENDBRANCH  22  23
ENDBRANCH  20  21
ENDBRANCH   1  19
TORSDOF 3
ENDMDL
MODEL 3
REMARK VINA RESULT: -7.989239565      4.427      7.820
REMARK  3 active torsions:
REMARK  status: ('A' for Active; 'I' for Inactive)
REMARK    1  A    between atoms: C4_4  and  C5_5 
REMARK    2  A    between atoms: C6_6  and  C7_7 
REMARK    3  A    between atoms: C8_8  and  C9_9 
ROOT
HETATM    1  C9  UNL     1      18.592  -8.322  10.299  1.00  0.00     0.153 C 
HETATM    2  O1  UNL     1      19.396  -7.270  10.740  1.00  0.00    -0.368 OA
HETATM    3  C10 UNL     1      18.739  -6.095  10.939  1.00  0.00     0.083 C 
HETATM    4  C11 UNL     1      17.712  -5.764   9.879  1.00  0.00     0.048 C 
HETATM    5  C12 UNL     1      19.784  -4.974  10.873  1.00  0.00     0.048 C 
HETATM    6  C13 UNL     1      18.050  -5.980  12.278  1.00  0.00     0.191 C 
HETATM    7  O2  UNL     1      18.011  -4.651  12.621  1.00  0.00    -0.342 OA
HETATM    8  C14 UNL     1      17.538  -4.386  13.880  1.00  0.00     0.190 C 
HETATM    9  C15 UNL     1      17.758  -2.918  14.166  1.00  0.00     0.081 C 
HETATM   10  C16 UNL     1      16.064  -4.717  13.972  1.00  0.00     0.081 C 
HETATM   11  O3  UNL     1      18.290  -5.127  14.789  1.00  0.00    -0.201 OA
HETATM   12  O4  UNL     1      18.135  -6.415  14.572  1.00  0.00    -0.230 OA
HETATM   13  C17 UNL     1      18.681  -6.801  13.349  1.00  0.00     0.192 C 
HETATM   14  C18 UNL     1      18.344  -8.291  13.197  1.00  0.00     0.038 C 
HETATM   15  C19 UNL     1      19.429  -9.031  12.488  1.00  0.00     0.014 C 
HETATM   16  C20 UNL     1      19.017  -9.525  11.117  1.00  0.00    -0.018 C 
HETATM   17  C21 UNL     1      20.277 -10.069  10.461  1.00  0.00     0.018 C 
HETATM   18  C22 UNL     1      18.001 -10.611  11.189  1.00  0.00     0.018 C 
ENDROOT
BRANCH   1  19
HETATM   19  C8  UNL     1      19.010  -8.573   8.884  1.00  0.00     0.006 C 
HETATM   20  C7  UNL     1      18.200  -8.595   7.851  1.00  0.00    -0.002 C 
BRANCH  20  21
HETATM   21  C6  UNL     1      16.770  -8.384   7.887  1.00  0.00    -0.003 C 
HETATM   22  C5  UNL     1      16.058  -7.810   6.973  1.00  0.00    -0.016 C 
BRANCH  22  23
HETATM   23  C4  UNL     1      16.545  -7.239   5.685  1.00  0.00     0.060 C 
HETATM   24  C3  UNL     1      17.472  -6.105   5.913  1.00  0.00    -0.005 C 
HETATM   25  C2  UNL     1      17.015  -4.885   6.096  1.00  0.00    -0.015 C 
HETATM   26  C1  UNL     1      17.918  -3.707   6.331  1.00  0.00     0.052 C 
HETATM   27  C25 UNL     1      15.568  -4.622   6.065  1.00  0.00     0.141 C 
HETATM   28  O5  UNL     1      14.733  -5.729   5.832  1.00  0.00    -0.330 OA
HETATM   29  N1  UNL     1      15.138  -3.436   6.245  1.00  0.00    -0.380 N 
HETATM   30  C23 UNL     1      15.286  -6.727   4.983  1.00  0.00     0.137 C 
HETATM   31  C24 UNL     1      14.362  -7.926   4.882  1.00  0.00     0.041 C 
ATOM     32  H12 UNL     1      15.744  -2.634   6.415  1.00  0.00     0.158 HD
ATOM     33  H11 UNL     1      14.135  -3.253   6.224  1.00  0.00     0.158 HD
ENDBRANCH  22  23
ENDBRANCH  20  21
ENDBRANCH   1  19
TORSDOF 3
ENDMDL
MODEL 4
REMARK VINA RESULT: -7.767965052      3.461      8.818
REMARK  3 active torsions:
REMARK  status: ('A' for Active; 'I' for Inactive)
REMARK    1  A    between atoms: C4_4  and  C5_5 
REMARK    2  A    between atoms: C6_6  and  C7_7 
REMARK    3  A    between atoms: C8_8  and  C9_9 
ROOT
HETATM    1  C9  UNL     1      21.921  -2.356   6.302  1.00  0.00     0.153 C 
HETATM    2  O1  UNL     1      22.884  -1.637   5.592  1.00  0.00    -0.368 OA
HETATM    3  C10 UNL     1      22.445  -0.461   5.068  1.00  0.00     0.083 C 
HETATM    4  C11 UNL     1      21.060  -0.523   4.460  1.00  0.00     0.048 C 
HETATM    5  C12 UNL     1      23.391  -0.095   3.917  1.00  0.00     0.048 C 
HETATM    6  C13 UNL     1      22.454   0.700   6.034  1.00  0.00     0.191 C 
HETATM    7  O2  UNL     1      22.636   1.853   5.311  1.00  0.00    -0.342 OA
HETATM    8  C14 UNL     1      22.807   2.990   6.056  1.00  0.00     0.190 C 
HETATM    9  C15 UNL     1      23.199   4.111   5.120  1.00  0.00     0.081 C 
HETATM   10  C16 UNL     1      21.527   3.345   6.782  1.00  0.00     0.081 C 
HETATM   11  O3  UNL     1      23.860   2.773   6.942  1.00  0.00    -0.201 OA
HETATM   12  O4  UNL     1      23.565   1.797   7.774  1.00  0.00    -0.230 OA
HETATM   13  C17 UNL     1      23.470   0.570   7.116  1.00  0.00     0.192 C 
HETATM   14  C18 UNL     1      23.035  -0.441   8.187  1.00  0.00     0.038 C 
HETATM   15  C19 UNL     1      23.639  -1.785   7.951  1.00  0.00     0.014 C 
HETATM   16  C20 UNL     1      22.621  -2.835   7.558  1.00  0.00    -0.018 C 
HETATM   17  C21 UNL     1      23.412  -4.073   7.164  1.00  0.00     0.018 C 
HETATM   18  C22 UNL     1      21.705  -3.183   8.680  1.00  0.00     0.018 C 
ENDROOT
BRANCH   1  19
HETATM   19  C8  UNL     1      21.630  -3.562   5.464  1.00  0.00     0.006 C 
HETATM   20  C7  UNL     1      20.430  -3.992   5.154  1.00  0.00    -0.002 C 
BRANCH  20  21
HETATM   21  C6  UNL     1      19.179  -3.390   5.559  1.00  0.00    -0.003 C 
HETATM   22  C5  UNL     1      18.284  -3.925   6.324  1.00  0.00    -0.016 C 
BRANCH  22  23
HETATM   23  C4  UNL     1      18.338  -5.273   6.957  1.00  0.00     0.060 C 
HETATM   24  C3  UNL     1      17.817  -6.319   6.046  1.00  0.00    -0.005 C 
HETATM   25  C2  UNL     1      16.529  -6.578   5.980  1.00  0.00    -0.015 C 
HETATM   26  C1  UNL     1      15.958  -7.628   5.070  1.00  0.00     0.052 C 
HETATM   27  C25 UNL     1      15.579  -5.838   6.824  1.00  0.00     0.141 C 
HETATM   28  O5  UNL     1      16.126  -4.865   7.682  1.00  0.00    -0.330 OA
HETATM   29  N1  UNL     1      14.334  -6.096   6.750  1.00  0.00    -0.380 N 
HETATM   30  C23 UNL     1      17.423  -5.168   8.179  1.00  0.00     0.137 C 
HETATM   31  C24 UNL     1      17.972  -4.016   8.999  1.00  0.00     0.041 C 
ATOM     32  H12 UNL     1      13.938  -6.801   6.129  1.00  0.00     0.158 HD
ATOM     33  H11 UNL     1      13.675  -5.583   7.336  1.00  0.00     0.158 HD
ENDBRANCH  22  23
ENDBRANCH  20  21
ENDBRANCH   1  19
TORSDOF 3
ENDMDL
MODEL 5
REMARK VINA RESULT: -7.721588823      5.122      8.514
REMARK  3 active torsions:
REMARK  status: ('A' for Active; 'I' for Inactive)
REMARK    1  A    between atoms: C4_4  and  C5_5 
REMARK    2  A    between atoms: C6_6  and  C7_7 
REMARK    3  A    between atoms: C8_8  and  C9_9 
ROOT
HETATM    1  C9  UNL     1      18.750  -5.029  12.151  1.00  0.00     0.153 C 
HETATM    2  O1  UNL     1      18.672  -4.237  13.298  1.00  0.00    -0.368 OA
HETATM    3  C10 UNL     1      17.551  -4.425  14.046  1.00  0.00     0.083 C 
HETATM    4  C11 UNL     1      16.279  -4.580  13.241  1.00  0.00     0.048 C 
HETATM    5  C12 UNL     1      17.356  -3.165  14.899  1.00  0.00     0.048 C 
HETATM    6  C13 UNL     1      17.620  -5.597  14.997  1.00  0.00     0.191 C 
HETATM    7  O2  UNL     1      16.815  -5.317  16.073  1.00  0.00    -0.342 OA
HETATM    8  C14 UNL     1      16.874  -6.225  17.099  1.00  0.00     0.190 C 
HETATM    9  C15 UNL     1      16.099  -5.661  18.269  1.00  0.00     0.081 C 
HETATM   10  C16 UNL     1      16.276  -7.547  16.670  1.00  0.00     0.081 C 
HETATM   11  O3  UNL     1      18.206  -6.360  17.481  1.00  0.00    -0.201 OA
HETATM   12  O4  UNL     1      18.922  -6.840  16.487  1.00  0.00    -0.230 OA
HETATM   13  C17 UNL     1      19.006  -5.937  15.427  1.00  0.00     0.192 C 
HETATM   14  C18 UNL     1      19.781  -6.667  14.322  1.00  0.00     0.038 C 
HETATM   15  C19 UNL     1      20.640  -5.728  13.542  1.00  0.00     0.014 C 
HETATM   16  C20 UNL     1      20.175  -5.543  12.113  1.00  0.00    -0.018 C 
HETATM   17  C21 UNL     1      21.021  -4.422  11.528  1.00  0.00     0.018 C 
HETATM   18  C22 UNL     1      20.365  -6.771  11.292  1.00  0.00     0.018 C 
ENDROOT
BRANCH   1  19
HETATM   19  C8  UNL     1      18.584  -4.081  11.004  1.00  0.00     0.006 C 
HETATM   20  C7  UNL     1      17.768  -4.259   9.992  1.00  0.00    -0.002 C 
BRANCH  20  21
HETATM   21  C6  UNL     1      16.886  -5.389   9.798  1.00  0.00    -0.003 C 
HETATM   22  C5  UNL     1      16.627  -5.973   8.673  1.00  0.00    -0.016 C 
BRANCH  22  23
HETATM   23  C4  UNL     1      17.172  -5.616   7.333  1.00  0.00     0.060 C 
HETATM   24  C3  UNL     1      16.446  -4.467   6.742  1.00  0.00    -0.005 C 
HETATM   25  C2  UNL     1      15.334  -4.648   6.064  1.00  0.00    -0.015 C 
HETATM   26  C1  UNL     1      14.565  -3.513   5.449  1.00  0.00     0.052 C 
HETATM   27  C25 UNL     1      14.794  -6.002   5.868  1.00  0.00     0.141 C 
HETATM   28  O5  UNL     1      15.529  -7.059   6.437  1.00  0.00    -0.330 OA
HETATM   29  N1  UNL     1      13.716  -6.164   5.211  1.00  0.00    -0.380 N 
HETATM   30  C23 UNL     1      16.936  -6.858   6.471  1.00  0.00     0.137 C 
HETATM   31  C24 UNL     1      17.628  -7.995   7.200  1.00  0.00     0.041 C 
ATOM     32  H12 UNL     1      13.183  -5.398   4.799  1.00  0.00     0.158 HD
ATOM     33  H11 UNL     1      13.341  -7.103   5.075  1.00  0.00     0.158 HD
ENDBRANCH  22  23
ENDBRANCH  20  21
ENDBRANCH   1  19
TORSDOF 3
ENDMDL
