MODEL 1
REMARK VINA RESULT: -9.044846823      0.000      0.000
REMARK  5 active torsions:
REMARK  status: ('A' for Active; 'I' for Inactive)
REMARK    1  A    between atoms: C5_5  and  C6_6 
REMARK    2  A    between atoms: C6_6  and  O1_7 
REMARK    3  A    between atoms: O1_7  and  C7_8 
REMARK    4  A    between atoms: C7_8  and  O3_10 
REMARK    5  A    between atoms: O3_10  and  C8_11 
ROOT
HETATM    1  C1  UNL     1      19.795  -3.195   4.707  1.00  0.00     0.010 C 
HETATM    2  C2  UNL     1      19.360  -4.122   5.853  1.00  0.00    -0.014 C 
HETATM    3  C3  UNL     1      17.886  -3.982   6.054  1.00  0.00     0.005 C 
HETATM    4  C4  UNL     1      17.493  -3.690   7.466  1.00  0.00     0.012 C 
HETATM    5  C5  UNL     1      18.185  -4.647   8.455  1.00  0.00    -0.013 C 
HETATM    6  C15 UNL     1      17.590  -4.526   9.814  1.00  0.00     0.012 C 
HETATM    7  C16 UNL     1      17.683  -5.739  10.681  1.00  0.00     0.001 C 
HETATM    8  C17 UNL     1      17.233  -5.513  12.080  1.00  0.00     0.000 C 
HETATM    9  C18 UNL     1      18.159  -4.802  12.988  1.00  0.00     0.000 C 
HETATM   10  C19 UNL     1      19.468  -5.510  13.256  1.00  0.00     0.000 C 
HETATM   11  C20 UNL     1      20.576  -4.491  12.984  1.00  0.00     0.002 C 
HETATM   12  C21 UNL     1      21.454  -4.888  11.815  1.00  0.00     0.027 C 
HETATM   13  C22 UNL     1      21.998  -3.693  11.064  1.00  0.00     0.232 C 
HETATM   14  N1  UNL     1      21.625  -3.685   9.654  1.00  0.00    -0.075 N 
ATOM     15  H11 UNL     1      22.007  -4.481   9.143  1.00  0.00     0.277 HD
ATOM     16  H12 UNL     1      22.092  -2.946   9.128  1.00  0.00     0.277 HD
HETATM   17  C23 UNL     1      20.172  -3.606   9.561  1.00  0.00     0.238 C 
HETATM   18  C24 UNL     1      19.650  -4.328   8.349  1.00  0.00     0.026 C 
HETATM   19  C25 UNL     1      20.099  -3.659   7.107  1.00  0.00    -0.008 C 
HETATM   20  C26 UNL     1      20.102  -2.172   7.072  1.00  0.00     0.011 C 
ENDROOT
BRANCH   5  21
HETATM   21  C6  UNL     1      17.827  -6.021   7.924  1.00  0.00     0.191 C 
BRANCH  21  22
HETATM   22  O1  UNL     1      16.407  -6.139   8.118  1.00  0.00    -0.297 OA
BRANCH  22  23
HETATM   23  C7  UNL     1      15.580  -6.832   7.278  1.00  0.00     0.411 C 
HETATM   24  O2  UNL     1      15.921  -7.946   6.857  1.00  0.00    -0.229 OA
BRANCH  23  25
HETATM   25  O3  UNL     1      14.383  -6.283   6.912  1.00  0.00    -0.256 OA
BRANCH  25  26
HETATM   26  C8  UNL     1      14.195  -5.511   5.777  1.00  0.00     0.084 A 
HETATM   27  C9  UNL     1      14.428  -4.153   5.760  1.00  0.00     0.040 A 
HETATM   28  C10 UNL     1      14.242  -3.380   4.630  1.00  0.00     0.042 A 
HETATM   29  C11 UNL     1      13.801  -3.995   3.462  1.00  0.00     0.105 A 
HETATM   30  C12 UNL     1      13.557  -5.357   3.447  1.00  0.00     0.107 A 
HETATM   31  O5  UNL     1      13.535  -3.472   2.211  1.00  0.00    -0.323 OA
HETATM   32  C13 UNL     1      13.759  -6.103   4.612  1.00  0.00     0.077 A 
HETATM   33  O4  UNL     1      13.137  -5.659   2.159  1.00  0.00    -0.323 OA
HETATM   34  C14 UNL     1      13.395  -4.555   1.314  1.00  0.00     0.352 C 
ENDBRANCH  25  26
ENDBRANCH  23  25
ENDBRANCH  22  23
ENDBRANCH  21  22
ENDBRANCH   5  21
TORSDOF 5
ENDMDL
MODEL 2
REMARK VINA RESULT: -9.026319299      2.872      3.625
REMARK  5 active torsions:
REMARK  status: ('A' for Active; 'I' for Inactive)
REMARK    1  A    between atoms: C5_5  and  C6_6 
REMARK    2  A    between atoms: C6_6  and  O1_7 
REMARK    3  A    between atoms: O1_7  and  C7_8 
REMARK    4  A    between atoms: C7_8  and  O3_10 
REMARK    5  A    between atoms: O3_10  and  C8_11 
ROOT
HETATM    1  C1  UNL     1      19.051  -3.380   8.849  1.00  0.00     0.010 C 
HETATM    2  C2  UNL     1      18.775  -4.863   8.557  1.00  0.00    -0.014 C 
HETATM    3  C3  UNL     1      17.298  -5.084   8.537  1.00  0.00     0.005 C 
HETATM    4  C4  UNL     1      16.840  -6.198   9.423  1.00  0.00     0.012 C 
HETATM    5  C5  UNL     1      17.681  -7.471   9.211  1.00  0.00    -0.013 C 
HETATM    6  C15 UNL     1      17.056  -8.638   9.892  1.00  0.00     0.012 C 
HETATM    7  C16 UNL     1      17.356  -9.978   9.303  1.00  0.00     0.001 C 
HETATM    8  C17 UNL     1      16.854 -11.117  10.118  1.00  0.00     0.000 C 
HETATM    9  C18 UNL     1      17.624 -11.483  11.325  1.00  0.00     0.000 C 
HETATM   10  C19 UNL     1      19.036 -11.960  11.068  1.00  0.00     0.000 C 
HETATM   11  C20 UNL     1      19.946 -11.137  11.981  1.00  0.00     0.002 C 
HETATM   12  C21 UNL     1      20.896 -10.249  11.206  1.00  0.00     0.027 C 
HETATM   13  C22 UNL     1      21.226  -8.968  11.940  1.00  0.00     0.232 C 
HETATM   14  N1  UNL     1      20.875  -7.769  11.186  1.00  0.00    -0.075 N 
ATOM     15  H11 UNL     1      21.401  -7.686  10.316  1.00  0.00     0.277 HD
ATOM     16  H12 UNL     1      21.208  -6.914  11.631  1.00  0.00     0.277 HD
HETATM   17  C23 UNL     1      19.433  -7.764  10.970  1.00  0.00     0.238 C 
HETATM   18  C24 UNL     1      19.066  -7.107   9.668  1.00  0.00     0.026 C 
HETATM   19  C25 UNL     1      19.403  -5.666   9.696  1.00  0.00    -0.008 C 
HETATM   20  C26 UNL     1      19.138  -4.907  10.946  1.00  0.00     0.011 C 
ENDROOT
BRANCH   5  21
HETATM   21  C6  UNL     1      17.583  -7.712   7.717  1.00  0.00     0.191 C 
BRANCH  21  22
HETATM   22  O1  UNL     1      16.197  -8.013   7.476  1.00  0.00    -0.297 OA
BRANCH  22  23
HETATM   23  C7  UNL     1      15.512  -7.598   6.368  1.00  0.00     0.411 C 
HETATM   24  O2  UNL     1      15.651  -8.199   5.295  1.00  0.00    -0.229 OA
BRANCH  23  25
HETATM   25  O3  UNL     1      14.678  -6.518   6.462  1.00  0.00    -0.256 OA
BRANCH  25  26
HETATM   26  C8  UNL     1      14.412  -5.647   5.418  1.00  0.00     0.084 A 
HETATM   27  C9  UNL     1      14.799  -4.324   5.444  1.00  0.00     0.040 A 
HETATM   28  C10 UNL     1      14.536  -3.452   4.405  1.00  0.00     0.042 A 
HETATM   29  C11 UNL     1      13.853  -3.925   3.288  1.00  0.00     0.105 A 
HETATM   30  C12 UNL     1      13.452  -5.248   3.232  1.00  0.00     0.107 A 
HETATM   31  O5  UNL     1      13.465  -3.283   2.128  1.00  0.00    -0.323 OA
HETATM   32  C13 UNL     1      13.738  -6.098   4.306  1.00  0.00     0.077 A 
HETATM   33  O4  UNL     1      12.808  -5.404   2.013  1.00  0.00    -0.323 OA
HETATM   34  C14 UNL     1      13.064  -4.274   1.204  1.00  0.00     0.352 C 
ENDBRANCH  25  26
ENDBRANCH  23  25
ENDBRANCH  22  23
ENDBRANCH  21  22
ENDBRANCH   5  21
TORSDOF 5
ENDMDL
MODEL 3
REMARK VINA RESULT: -8.667235597      2.826      4.310
REMARK  5 active torsions:
REMARK  status: ('A' for Active; 'I' for Inactive)
REMARK    1  A    between atoms: C5_5  and  C6_6 
REMARK    2  A    between atoms: C6_6  and  O1_7 
REMARK    3  A    between atoms: O1_7  and  C7_8 
REMARK    4  A    between atoms: C7_8  and  O3_10 
REMARK    5  A    between atoms: O3_10  and  C8_11 
ROOT
HETATM    1  C1  UNL     1      19.731 -11.132  10.313  1.00  0.00     0.010 C 
HETATM    2  C2  UNL     1      18.775  -9.930  10.372  1.00  0.00    -0.014 C 
HETATM    3  C3  UNL     1      19.168  -8.949   9.317  1.00  0.00     0.005 C 
HETATM    4  C4  UNL     1      19.360  -7.557   9.826  1.00  0.00     0.012 C 
HETATM    5  C5  UNL     1      18.178  -7.109  10.707  1.00  0.00    -0.013 C 
HETATM    6  C15 UNL     1      18.249  -5.648  10.985  1.00  0.00     0.012 C 
HETATM    7  C16 UNL     1      16.946  -4.970  11.257  1.00  0.00     0.001 C 
HETATM    8  C17 UNL     1      17.086  -3.556  11.699  1.00  0.00     0.000 C 
HETATM    9  C18 UNL     1      17.495  -3.317  13.099  1.00  0.00     0.000 C 
HETATM   10  C19 UNL     1      16.524  -3.813  14.147  1.00  0.00     0.000 C 
HETATM   11  C20 UNL     1      17.338  -4.659  15.127  1.00  0.00     0.002 C 
HETATM   12  C21 UNL     1      16.922  -6.116  15.119  1.00  0.00     0.027 C 
HETATM   13  C22 UNL     1      18.073  -7.051  15.423  1.00  0.00     0.232 C 
HETATM   14  N1  UNL     1      18.318  -8.019  14.360  1.00  0.00    -0.075 N 
ATOM     15  H11 UNL     1      17.530  -8.651  14.216  1.00  0.00     0.277 HD
ATOM     16  H12 UNL     1      19.012  -8.720  14.621  1.00  0.00     0.277 HD
HETATM   17  C23 UNL     1      18.683  -7.294  13.149  1.00  0.00     0.238 C 
HETATM   18  C24 UNL     1      18.222  -8.010  11.909  1.00  0.00     0.026 C 
HETATM   19  C25 UNL     1      18.937  -9.297  11.753  1.00  0.00    -0.008 C 
HETATM   20  C26 UNL     1      20.389  -9.338  12.070  1.00  0.00     0.011 C 
ENDROOT
BRANCH   5  21
HETATM   21  C6  UNL     1      16.971  -7.344   9.821  1.00  0.00     0.191 C 
BRANCH  21  22
HETATM   22  O1  UNL     1      17.166  -6.485   8.685  1.00  0.00    -0.297 OA
BRANCH  22  23
HETATM   23  C7  UNL     1      16.645  -6.735   7.445  1.00  0.00     0.411 C 
HETATM   24  O2  UNL     1      17.370  -7.193   6.552  1.00  0.00    -0.229 OA
BRANCH  23  25
HETATM   25  O3  UNL     1      15.324  -6.474   7.209  1.00  0.00    -0.256 OA
BRANCH  25  26
HETATM   26  C8  UNL     1      14.858  -5.708   6.153  1.00  0.00     0.084 A 
HETATM   27  C9  UNL     1      14.977  -4.335   6.129  1.00  0.00     0.040 A 
HETATM   28  C10 UNL     1      14.514  -3.567   5.078  1.00  0.00     0.042 A 
HETATM   29  C11 UNL     1      13.903  -4.202   4.001  1.00  0.00     0.105 A 
HETATM   30  C12 UNL     1      13.769  -5.579   3.995  1.00  0.00     0.107 A 
HETATM   31  O5  UNL     1      13.359  -3.689   2.839  1.00  0.00    -0.323 OA
HETATM   32  C13 UNL     1      14.252  -6.319   5.079  1.00  0.00     0.077 A 
HETATM   33  O4  UNL     1      13.131  -5.900   2.806  1.00  0.00    -0.323 OA
HETATM   34  C14 UNL     1      13.132  -4.769   1.957  1.00  0.00     0.352 C 
ENDBRANCH  25  26
ENDBRANCH  23  25
ENDBRANCH  22  23
ENDBRANCH  21  22
ENDBRANCH   5  21
TORSDOF 5
ENDMDL
MODEL 4
REMARK VINA RESULT: -8.639902222      2.957      3.868
REMARK  5 active torsions:
REMARK  status: ('A' for Active; 'I' for Inactive)
REMARK    1  A    between atoms: C5_5  and  C6_6 
REMARK    2  A    between atoms: C6_6  and  O1_7 
REMARK    3  A    between atoms: O1_7  and  C7_8 
REMARK    4  A    between atoms: C7_8  and  O3_10 
REMARK    5  A    between atoms: O3_10  and  C8_11 
ROOT
HETATM    1  C1  UNL     1      19.052  -3.365   8.837  1.00  0.00     0.010 C 
HETATM    2  C2  UNL     1      18.736  -4.832   8.505  1.00  0.00    -0.014 C 
HETATM    3  C3  UNL     1      17.253  -5.016   8.499  1.00  0.00     0.005 C 
HETATM    4  C4  UNL     1      16.779  -6.143   9.358  1.00  0.00     0.012 C 
HETATM    5  C5  UNL     1      17.584  -7.430   9.096  1.00  0.00    -0.013 C 
HETATM    6  C15 UNL     1      16.939  -8.601   9.751  1.00  0.00     0.012 C 
HETATM    7  C16 UNL     1      17.197  -9.930   9.119  1.00  0.00     0.001 C 
HETATM    8  C17 UNL     1      16.677 -11.080   9.906  1.00  0.00     0.000 C 
HETATM    9  C18 UNL     1      17.454 -11.501  11.091  1.00  0.00     0.000 C 
HETATM   10  C19 UNL     1      18.849 -12.006  10.799  1.00  0.00     0.000 C 
HETATM   11  C20 UNL     1      19.792 -11.234  11.724  1.00  0.00     0.002 C 
HETATM   12  C21 UNL     1      20.754 -10.346  10.962  1.00  0.00     0.027 C 
HETATM   13  C22 UNL     1      21.126  -9.097  11.729  1.00  0.00     0.232 C 
HETATM   14  N1  UNL     1      20.796  -7.868  11.016  1.00  0.00    -0.075 N 
ATOM     15  H11 UNL     1      21.312  -7.772  10.141  1.00  0.00     0.277 HD
ATOM     16  H12 UNL     1      21.156  -7.035  11.482  1.00  0.00     0.277 HD
HETATM   17  C23 UNL     1      19.352  -7.820  10.821  1.00  0.00     0.238 C 
HETATM   18  C24 UNL     1      18.984  -7.115   9.544  1.00  0.00     0.026 C 
HETATM   19  C25 UNL     1      19.357  -5.685   9.610  1.00  0.00    -0.008 C 
HETATM   20  C26 UNL     1      19.129  -4.956  10.886  1.00  0.00     0.011 C 
ENDROOT
BRANCH   5  21
HETATM   21  C6  UNL     1      17.460  -7.624   7.598  1.00  0.00     0.191 C 
BRANCH  21  22
HETATM   22  O1  UNL     1      16.050  -7.770   7.354  1.00  0.00    -0.297 OA
BRANCH  22  23
HETATM   23  C7  UNL     1      15.452  -7.478   6.160  1.00  0.00     0.411 C 
HETATM   24  O2  UNL     1      15.769  -8.104   5.140  1.00  0.00    -0.229 OA
BRANCH  23  25
HETATM   25  O3  UNL     1      14.506  -6.492   6.108  1.00  0.00    -0.256 OA
BRANCH  25  26
HETATM   26  C8  UNL     1      14.276  -5.690   5.002  1.00  0.00     0.084 A 
HETATM   27  C9  UNL     1      13.504  -6.104   3.938  1.00  0.00     0.040 A 
HETATM   28  C10 UNL     1      13.271  -5.307   2.834  1.00  0.00     0.042 A 
HETATM   29  C11 UNL     1      13.838  -4.037   2.791  1.00  0.00     0.105 A 
HETATM   30  C12 UNL     1      14.618  -3.592   3.844  1.00  0.00     0.107 A 
HETATM   31  O5  UNL     1      13.772  -3.049   1.828  1.00  0.00    -0.323 OA
HETATM   32  C13 UNL     1      14.829  -4.431   4.944  1.00  0.00     0.077 A 
HETATM   33  O4  UNL     1      15.029  -2.311   3.505  1.00  0.00    -0.323 OA
HETATM   34  C14 UNL     1      14.277  -1.859   2.397  1.00  0.00     0.352 C 
ENDBRANCH  25  26
ENDBRANCH  23  25
ENDBRANCH  22  23
ENDBRANCH  21  22
ENDBRANCH   5  21
TORSDOF 5
ENDMDL
MODEL 5
REMARK VINA RESULT: -8.559880553      0.557      1.169
REMARK  5 active torsions:
REMARK  status: ('A' for Active; 'I' for Inactive)
REMARK    1  A    between atoms: C5_5  and  C6_6 
REMARK    2  A    between atoms: C6_6  and  O1_7 
REMARK    3  A    between atoms: O1_7  and  C7_8 
REMARK    4  A    between atoms: C7_8  and  O3_10 
REMARK    5  A    between atoms: O3_10  and  C8_11 
ROOT
HETATM    1  C1  UNL     1      19.650  -3.299   4.710  1.00  0.00     0.010 C 
HETATM    2  C2  UNL     1      19.234  -4.208   5.877  1.00  0.00    -0.014 C 
HETATM    3  C3  UNL     1      17.762  -4.072   6.093  1.00  0.00     0.005 C 
HETATM    4  C4  UNL     1      17.384  -3.757   7.504  1.00  0.00     0.012 C 
HETATM    5  C5  UNL     1      18.092  -4.693   8.502  1.00  0.00    -0.013 C 
HETATM    6  C15 UNL     1      17.512  -4.551   9.866  1.00  0.00     0.012 C 
HETATM    7  C16 UNL     1      17.622  -5.749  10.752  1.00  0.00     0.001 C 
HETATM    8  C17 UNL     1      17.187  -5.500  12.152  1.00  0.00     0.000 C 
HETATM    9  C18 UNL     1      18.120  -4.769  13.037  1.00  0.00     0.000 C 
HETATM   10  C19 UNL     1      19.435  -5.465  13.302  1.00  0.00     0.000 C 
HETATM   11  C20 UNL     1      20.535  -4.447  12.999  1.00  0.00     0.002 C 
HETATM   12  C21 UNL     1      21.401  -4.859  11.827  1.00  0.00     0.027 C 
HETATM   13  C22 UNL     1      21.931  -3.675  11.048  1.00  0.00     0.232 C 
HETATM   14  N1  UNL     1      21.541  -3.694   9.643  1.00  0.00    -0.075 N 
ATOM     15  H11 UNL     1      21.921  -4.496   9.141  1.00  0.00     0.277 HD
ATOM     16  H12 UNL     1      21.997  -2.961   9.099  1.00  0.00     0.277 HD
HETATM   17  C23 UNL     1      20.086  -3.623   9.565  1.00  0.00     0.238 C 
HETATM   18  C24 UNL     1      19.554  -4.369   8.373  1.00  0.00     0.026 C 
HETATM   19  C25 UNL     1      19.985  -3.719   7.115  1.00  0.00    -0.008 C 
HETATM   20  C26 UNL     1      19.980  -2.233   7.054  1.00  0.00     0.011 C 
ENDROOT
BRANCH   5  21
HETATM   21  C6  UNL     1      17.735  -6.078   7.999  1.00  0.00     0.191 C 
BRANCH  21  22
HETATM   22  O1  UNL     1      16.308  -6.175   8.150  1.00  0.00    -0.297 OA
BRANCH  22  23
HETATM   23  C7  UNL     1      15.492  -6.821   7.263  1.00  0.00     0.411 C 
HETATM   24  O2  UNL     1      15.794  -7.950   6.856  1.00  0.00    -0.229 OA
BRANCH  23  25
HETATM   25  O3  UNL     1      14.349  -6.206   6.835  1.00  0.00    -0.256 OA
BRANCH  25  26
HETATM   26  C8  UNL     1      14.173  -5.686   5.563  1.00  0.00     0.084 A 
HETATM   27  C9  UNL     1      13.671  -6.435   4.521  1.00  0.00     0.040 A 
HETATM   28  C10 UNL     1      13.494  -5.920   3.251  1.00  0.00     0.042 A 
HETATM   29  C11 UNL     1      13.836  -4.591   3.013  1.00  0.00     0.105 A 
HETATM   30  C12 UNL     1      14.342  -3.813   4.039  1.00  0.00     0.107 A 
HETATM   31  O5  UNL     1      13.764  -3.833   1.861  1.00  0.00    -0.323 OA
HETATM   32  C13 UNL     1      14.506  -4.374   5.309  1.00  0.00     0.077 A 
HETATM   33  O4  UNL     1      14.580  -2.560   3.491  1.00  0.00    -0.323 OA
HETATM   34  C14 UNL     1      13.958  -2.481   2.223  1.00  0.00     0.352 C 
ENDBRANCH  25  26
ENDBRANCH  23  25
ENDBRANCH  22  23
ENDBRANCH  21  22
ENDBRANCH   5  21
TORSDOF 5
ENDMDL
