MODEL 1
REMARK VINA RESULT: -7.001033353      0.000      0.000
REMARK  8 active torsions:
REMARK  status: ('A' for Active; 'I' for Inactive)
REMARK    1  A    between atoms: N1_1  and  C1_5 
REMARK    2  A    between atoms: N2_12  and  C8_13 
REMARK    3  A    between atoms: C8_13  and  S2_15 
REMARK    4  A    between atoms: S2_15  and  S3_16 
REMARK    5  A    between atoms: S3_16  and  C9_17 
REMARK    6  A    between atoms: C9_17  and  C10_19 
REMARK    7  A    between atoms: C10_19  and  S5_20 
REMARK    8  A    between atoms: S5_20  and  C11_21 
ROOT
HETATM    1  C1  UNL     1      24.300  -1.268   4.736  1.00  0.00     0.188 C 
HETATM    2  C2  UNL     1      24.135   0.194   4.531  1.00  0.00     0.033 C 
HETATM    3  C3  UNL     1      23.796   1.093   5.653  1.00  0.00     0.002 C 
HETATM    4  C4  UNL     1      22.311   1.547   5.755  1.00  0.00     0.000 C 
HETATM    5  C5  UNL     1      21.575   0.416   5.280  1.00  0.00     0.002 C 
HETATM    6  C6  UNL     1      20.194  -0.024   5.312  1.00  0.00     0.020 C 
HETATM    7  C7  UNL     1      20.274  -1.320   4.453  1.00  0.00     0.129 C 
HETATM    8  N2  UNL     1      20.973  -2.412   5.134  1.00  0.00    -0.346 N 
HETATM    9  C17 UNL     1      22.296  -2.837   4.967  1.00  0.00     0.067 C 
HETATM   10  C18 UNL     1      23.311  -2.203   4.106  1.00  0.00     0.077 C 
ENDROOT
BRANCH   8  11
HETATM   11  C8  UNL     1      20.131  -3.090   6.050  1.00  0.00     0.151 C 
HETATM   12  S1  UNL     1      20.437  -3.042   7.686  1.00  0.00    -0.052 SA
BRANCH  11  13
HETATM   13  S2  UNL     1      18.709  -3.995   5.616  1.00  0.00    -0.022 SA
BRANCH  13  14
HETATM   14  S3  UNL     1      17.331  -4.544   7.042  1.00  0.00    -0.042 SA
BRANCH  14  15
HETATM   15  C9  UNL     1      16.851  -6.266   6.922  1.00  0.00     0.066 C 
HETATM   16  S4  UNL     1      17.430  -7.213   7.822  1.00  0.00    -0.076 SA
BRANCH  15  17
HETATM   17  C10 UNL     1      15.857  -6.701   5.912  1.00  0.00     0.138 C 
BRANCH  17  18
HETATM   18  S5  UNL     1      14.423  -5.626   5.997  1.00  0.00    -0.124 SA
BRANCH  18  19
HETATM   19  C11 UNL     1      14.215  -4.627   4.547  1.00  0.00     0.000 A 
HETATM   20  C12 UNL     1      13.465  -5.096   3.494  1.00  0.00     0.018 A 
HETATM   21  C13 UNL     1      13.255  -4.363   2.346  1.00  0.00     0.001 A 
HETATM   22  C14 UNL     1      13.837  -3.107   2.279  1.00  0.00     0.000 A 
HETATM   23  C15 UNL     1      14.593  -2.624   3.325  1.00  0.00     0.001 A 
HETATM   24  C16 UNL     1      14.789  -3.388   4.480  1.00  0.00     0.018 A 
ENDBRANCH  18  19
ENDBRANCH  17  18
ENDBRANCH  15  17
ENDBRANCH  14  15
ENDBRANCH  13  14
ENDBRANCH  11  13
ENDBRANCH   8  11
BRANCH   1  25
HETATM   25  N1  UNL     1      24.718  -1.659   6.069  1.00  0.00    -0.075 N 
ATOM     26  H13 UNL     1      25.286  -0.923   6.489  1.00  0.00     0.274 HD
ATOM     27  H12 UNL     1      23.920  -1.653   6.704  1.00  0.00     0.274 HD
ATOM     28  H11 UNL     1      25.205  -2.554   6.124  1.00  0.00     0.274 HD
ENDBRANCH   1  25
TORSDOF 8
ENDMDL
MODEL 2
REMARK VINA RESULT: -6.789401468      1.537      2.630
REMARK  8 active torsions:
REMARK  status: ('A' for Active; 'I' for Inactive)
REMARK    1  A    between atoms: N1_1  and  C1_5 
REMARK    2  A    between atoms: N2_12  and  C8_13 
REMARK    3  A    between atoms: C8_13  and  S2_15 
REMARK    4  A    between atoms: S2_15  and  S3_16 
REMARK    5  A    between atoms: S3_16  and  C9_17 
REMARK    6  A    between atoms: C9_17  and  C10_19 
REMARK    7  A    between atoms: C10_19  and  S5_20 
REMARK    8  A    between atoms: S5_20  and  C11_21 
ROOT
HETATM    1  C1  UNL     1      21.407  -0.414   4.838  1.00  0.00     0.188 C 
HETATM    2  C2  UNL     1      22.864  -0.603   4.614  1.00  0.00     0.033 C 
HETATM    3  C3  UNL     1      23.397  -1.867   4.064  1.00  0.00     0.002 C 
HETATM    4  C4  UNL     1      24.037  -2.852   5.084  1.00  0.00     0.000 C 
HETATM    5  C5  UNL     1      23.258  -2.668   6.271  1.00  0.00     0.002 C 
HETATM    6  C6  UNL     1      23.069  -3.378   7.520  1.00  0.00     0.020 C 
HETATM    7  C7  UNL     1      22.124  -2.400   8.278  1.00  0.00     0.129 C 
HETATM    8  N2  UNL     1      20.770  -2.370   7.720  1.00  0.00    -0.346 N 
HETATM    9  C17 UNL     1      20.206  -1.426   6.854  1.00  0.00     0.067 C 
HETATM   10  C18 UNL     1      20.904  -0.279   6.244  1.00  0.00     0.077 C 
ENDROOT
BRANCH   8  11
HETATM   11  C8  UNL     1      19.985  -3.458   8.176  1.00  0.00     0.151 C 
HETATM   12  S1  UNL     1      20.273  -4.152   9.662  1.00  0.00    -0.052 SA
BRANCH  11  13
HETATM   13  S2  UNL     1      18.654  -4.163   7.305  1.00  0.00    -0.022 SA
BRANCH  13  14
HETATM   14  S3  UNL     1      17.255  -5.321   8.271  1.00  0.00    -0.042 SA
BRANCH  14  15
HETATM   15  C9  UNL     1      16.748  -6.748   7.313  1.00  0.00     0.066 C 
HETATM   16  S4  UNL     1      16.887  -8.051   7.881  1.00  0.00    -0.076 SA
BRANCH  15  17
HETATM   17  C10 UNL     1      16.178  -6.578   5.954  1.00  0.00     0.138 C 
BRANCH  17  18
HETATM   18  S5  UNL     1      14.648  -5.649   6.071  1.00  0.00    -0.124 SA
BRANCH  18  19
HETATM   19  C11 UNL     1      14.214  -4.829   4.560  1.00  0.00     0.000 A 
HETATM   20  C12 UNL     1      13.491  -5.498   3.600  1.00  0.00     0.018 A 
HETATM   21  C13 UNL     1      13.112  -4.914   2.411  1.00  0.00     0.001 A 
HETATM   22  C14 UNL     1      13.491  -3.597   2.203  1.00  0.00     0.000 A 
HETATM   23  C15 UNL     1      14.216  -2.912   3.154  1.00  0.00     0.001 A 
HETATM   24  C16 UNL     1      14.587  -3.530   4.353  1.00  0.00     0.018 A 
ENDBRANCH  18  19
ENDBRANCH  17  18
ENDBRANCH  15  17
ENDBRANCH  14  15
ENDBRANCH  13  14
ENDBRANCH  11  13
ENDBRANCH   8  11
BRANCH   1  25
HETATM   25  N1  UNL     1      20.545  -1.196   3.973  1.00  0.00    -0.075 N 
ATOM     26  H13 UNL     1      19.883  -0.587   3.492  1.00  0.00     0.274 HD
ATOM     27  H12 UNL     1      21.074  -1.550   3.176  1.00  0.00     0.274 HD
ATOM     28  H11 UNL     1      20.050  -1.960   4.433  1.00  0.00     0.274 HD
ENDBRANCH   1  25
TORSDOF 8
ENDMDL
MODEL 3
REMARK VINA RESULT: -6.683579013      1.410      1.749
REMARK  8 active torsions:
REMARK  status: ('A' for Active; 'I' for Inactive)
REMARK    1  A    between atoms: N1_1  and  C1_5 
REMARK    2  A    between atoms: N2_12  and  C8_13 
REMARK    3  A    between atoms: C8_13  and  S2_15 
REMARK    4  A    between atoms: S2_15  and  S3_16 
REMARK    5  A    between atoms: S3_16  and  C9_17 
REMARK    6  A    between atoms: C9_17  and  C10_19 
REMARK    7  A    between atoms: C10_19  and  S5_20 
REMARK    8  A    between atoms: S5_20  and  C11_21 
ROOT
HETATM    1  C1  UNL     1      23.991  -1.032   7.209  1.00  0.00     0.188 C 
HETATM    2  C2  UNL     1      23.901   0.368   6.719  1.00  0.00     0.033 C 
HETATM    3  C3  UNL     1      22.971   1.337   7.333  1.00  0.00     0.002 C 
HETATM    4  C4  UNL     1      21.650   1.617   6.559  1.00  0.00     0.000 C 
HETATM    5  C5  UNL     1      21.337   0.360   5.952  1.00  0.00     0.002 C 
HETATM    6  C6  UNL     1      20.178  -0.238   5.318  1.00  0.00     0.020 C 
HETATM    7  C7  UNL     1      20.766  -1.601   4.850  1.00  0.00     0.129 C 
HETATM    8  N2  UNL     1      21.030  -2.519   5.961  1.00  0.00    -0.346 N 
HETATM    9  C17 UNL     1      22.249  -2.797   6.589  1.00  0.00     0.067 C 
HETATM   10  C18 UNL     1      23.541  -2.144   6.308  1.00  0.00     0.077 C 
ENDROOT
BRANCH   8  11
HETATM   11  C8  UNL     1      19.855  -3.189   6.385  1.00  0.00     0.151 C 
HETATM   12  S1  UNL     1      18.799  -3.842   5.275  1.00  0.00    -0.052 SA
BRANCH  11  13
HETATM   13  S2  UNL     1      19.393  -3.439   8.044  1.00  0.00    -0.022 SA
BRANCH  13  14
HETATM   14  S3  UNL     1      17.651  -4.425   8.517  1.00  0.00    -0.042 SA
BRANCH  14  15
HETATM   15  C9  UNL     1      17.743  -6.189   8.213  1.00  0.00     0.066 C 
HETATM   16  S4  UNL     1      18.387  -7.026   9.175  1.00  0.00    -0.076 SA
BRANCH  15  17
HETATM   17  C10 UNL     1      17.146  -6.773   6.988  1.00  0.00     0.138 C 
BRANCH  17  18
HETATM   18  S5  UNL     1      15.371  -6.516   7.019  1.00  0.00    -0.124 SA
BRANCH  18  19
HETATM   19  C11 UNL     1      14.795  -5.475   5.704  1.00  0.00     0.000 A 
HETATM   20  C12 UNL     1      14.009  -6.003   4.707  1.00  0.00     0.018 A 
HETATM   21  C13 UNL     1      13.520  -5.245   3.665  1.00  0.00     0.001 A 
HETATM   22  C14 UNL     1      13.851  -3.899   3.650  1.00  0.00     0.000 A 
HETATM   23  C15 UNL     1      14.638  -3.355   4.641  1.00  0.00     0.001 A 
HETATM   24  C16 UNL     1      15.121  -4.147   5.688  1.00  0.00     0.018 A 
ENDBRANCH  18  19
ENDBRANCH  17  18
ENDBRANCH  15  17
ENDBRANCH  14  15
ENDBRANCH  13  14
ENDBRANCH  11  13
ENDBRANCH   8  11
BRANCH   1  25
HETATM   25  N1  UNL     1      23.637  -1.220   8.603  1.00  0.00    -0.075 N 
ATOM     26  H13 UNL     1      22.955  -0.517   8.890  1.00  0.00     0.274 HD
ATOM     27  H12 UNL     1      23.078  -2.066   8.713  1.00  0.00     0.274 HD
ATOM     28  H11 UNL     1      24.425  -1.232   9.251  1.00  0.00     0.274 HD
ENDBRANCH   1  25
TORSDOF 8
ENDMDL
MODEL 4
REMARK VINA RESULT: -6.631669858      1.179      1.483
REMARK  8 active torsions:
REMARK  status: ('A' for Active; 'I' for Inactive)
REMARK    1  A    between atoms: N1_1  and  C1_5 
REMARK    2  A    between atoms: N2_12  and  C8_13 
REMARK    3  A    between atoms: C8_13  and  S2_15 
REMARK    4  A    between atoms: S2_15  and  S3_16 
REMARK    5  A    between atoms: S3_16  and  C9_17 
REMARK    6  A    between atoms: C9_17  and  C10_19 
REMARK    7  A    between atoms: C10_19  and  S5_20 
REMARK    8  A    between atoms: S5_20  and  C11_21 
ROOT
HETATM    1  C1  UNL     1      24.381  -1.129   3.697  1.00  0.00     0.188 C 
HETATM    2  C2  UNL     1      24.344   0.352   3.581  1.00  0.00     0.033 C 
HETATM    3  C3  UNL     1      24.710   1.220   4.719  1.00  0.00     0.002 C 
HETATM    4  C4  UNL     1      23.534   1.853   5.516  1.00  0.00     0.000 C 
HETATM    5  C5  UNL     1      22.511   0.854   5.465  1.00  0.00     0.002 C 
HETATM    6  C6  UNL     1      21.267   0.592   6.162  1.00  0.00     0.020 C 
HETATM    7  C7  UNL     1      20.746  -0.651   5.384  1.00  0.00     0.129 C 
HETATM    8  N2  UNL     1      21.525  -1.861   5.657  1.00  0.00    -0.346 N 
HETATM    9  C17 UNL     1      22.534  -2.441   4.880  1.00  0.00     0.067 C 
HETATM   10  C18 UNL     1      23.092  -1.893   3.630  1.00  0.00     0.077 C 
ENDROOT
BRANCH   8  11
HETATM   11  C8  UNL     1      21.136  -2.478   6.872  1.00  0.00     0.151 C 
HETATM   12  S1  UNL     1      22.277  -2.957   7.987  1.00  0.00    -0.052 SA
BRANCH  11  13
HETATM   13  S2  UNL     1      19.493  -2.776   7.359  1.00  0.00    -0.022 SA
BRANCH  13  14
HETATM   14  S3  UNL     1      18.289  -4.054   6.287  1.00  0.00    -0.042 SA
BRANCH  14  15
HETATM   15  C9  UNL     1      17.559  -5.339   7.300  1.00  0.00     0.066 C 
HETATM   16  S4  UNL     1      17.395  -5.110   8.701  1.00  0.00    -0.076 SA
BRANCH  15  17
HETATM   17  C10 UNL     1      17.118  -6.617   6.691  1.00  0.00     0.138 C 
BRANCH  17  18
HETATM   18  S5  UNL     1      15.326  -6.689   6.707  1.00  0.00    -0.124 SA
BRANCH  18  19
HETATM   19  C11 UNL     1      14.584  -5.870   5.320  1.00  0.00     0.000 A 
HETATM   20  C12 UNL     1      14.029  -6.610   4.304  1.00  0.00     0.018 A 
HETATM   21  C13 UNL     1      13.427  -6.034   3.206  1.00  0.00     0.001 A 
HETATM   22  C14 UNL     1      13.396  -4.649   3.154  1.00  0.00     0.000 A 
HETATM   23  C15 UNL     1      13.949  -3.893   4.164  1.00  0.00     0.001 A 
HETATM   24  C16 UNL     1      14.553  -4.503   5.268  1.00  0.00     0.018 A 
ENDBRANCH  18  19
ENDBRANCH  17  18
ENDBRANCH  15  17
ENDBRANCH  14  15
ENDBRANCH  13  14
ENDBRANCH  11  13
ENDBRANCH   8  11
BRANCH   1  25
HETATM   25  N1  UNL     1      25.326  -1.646   4.669  1.00  0.00    -0.075 N 
ATOM     26  H13 UNL     1      26.248  -1.744   4.245  1.00  0.00     0.274 HD
ATOM     27  H12 UNL     1      25.527  -0.938   5.374  1.00  0.00     0.274 HD
ATOM     28  H11 UNL     1      25.050  -2.520   5.117  1.00  0.00     0.274 HD
ENDBRANCH   1  25
TORSDOF 8
ENDMDL
MODEL 5
REMARK VINA RESULT: -6.506707142      2.307      3.835
REMARK  8 active torsions:
REMARK  status: ('A' for Active; 'I' for Inactive)
REMARK    1  A    between atoms: N1_1  and  C1_5 
REMARK    2  A    between atoms: N2_12  and  C8_13 
REMARK    3  A    between atoms: C8_13  and  S2_15 
REMARK    4  A    between atoms: S2_15  and  S3_16 
REMARK    5  A    between atoms: S3_16  and  C9_17 
REMARK    6  A    between atoms: C9_17  and  C10_19 
REMARK    7  A    between atoms: C10_19  and  S5_20 
REMARK    8  A    between atoms: S5_20  and  C11_21 
ROOT
HETATM    1  C1  UNL     1      21.451  -0.424   4.878  1.00  0.00     0.188 C 
HETATM    2  C2  UNL     1      22.916  -0.630   4.734  1.00  0.00     0.033 C 
HETATM    3  C3  UNL     1      23.463  -1.895   4.201  1.00  0.00     0.002 C 
HETATM    4  C4  UNL     1      24.032  -2.898   5.245  1.00  0.00     0.000 C 
HETATM    5  C5  UNL     1      23.190  -2.716   6.388  1.00  0.00     0.002 C 
HETATM    6  C6  UNL     1      22.922  -3.436   7.617  1.00  0.00     0.020 C 
HETATM    7  C7  UNL     1      21.948  -2.453   8.331  1.00  0.00     0.129 C 
HETATM    8  N2  UNL     1      20.628  -2.400   7.698  1.00  0.00    -0.346 N 
HETATM    9  C17 UNL     1      20.126  -1.440   6.812  1.00  0.00     0.067 C 
HETATM   10  C18 UNL     1      20.871  -0.297   6.255  1.00  0.00     0.077 C 
ENDROOT
BRANCH   8  11
HETATM   11  C8  UNL     1      19.805  -3.482   8.098  1.00  0.00     0.151 C 
HETATM   12  S1  UNL     1      18.592  -4.042   7.103  1.00  0.00    -0.052 SA
BRANCH  11  13
HETATM   13  S2  UNL     1      19.961  -4.355   9.595  1.00  0.00    -0.022 SA
BRANCH  13  14
HETATM   14  S3  UNL     1      19.146  -6.231   9.813  1.00  0.00    -0.042 SA
BRANCH  14  15
HETATM   15  C9  UNL     1      17.430  -6.191  10.326  1.00  0.00     0.066 C 
HETATM   16  S4  UNL     1      17.040  -5.303  11.376  1.00  0.00    -0.076 SA
BRANCH  15  17
HETATM   17  C10 UNL     1      16.425  -7.056   9.662  1.00  0.00     0.138 C 
BRANCH  17  18
HETATM   18  S5  UNL     1      17.046  -7.548   8.052  1.00  0.00    -0.124 SA
BRANCH  18  19
HETATM   19  C11 UNL     1      15.911  -7.208   6.734  1.00  0.00     0.000 A 
HETATM   20  C12 UNL     1      15.199  -6.032   6.729  1.00  0.00     0.018 A 
HETATM   21  C13 UNL     1      14.311  -5.703   5.728  1.00  0.00     0.001 A 
HETATM   22  C14 UNL     1      14.151  -6.616   4.697  1.00  0.00     0.000 A 
HETATM   23  C15 UNL     1      14.856  -7.800   4.688  1.00  0.00     0.001 A 
HETATM   24  C16 UNL     1      15.752  -8.109   5.717  1.00  0.00     0.018 A 
ENDBRANCH  18  19
ENDBRANCH  17  18
ENDBRANCH  15  17
ENDBRANCH  14  15
ENDBRANCH  13  14
ENDBRANCH  11  13
ENDBRANCH   8  11
BRANCH   1  25
HETATM   25  N1  UNL     1      20.629  -1.186   3.957  1.00  0.00    -0.075 N 
ATOM     26  H13 UNL     1      20.852  -0.933   2.994  1.00  0.00     0.274 HD
ATOM     27  H12 UNL     1      20.917  -2.164   3.956  1.00  0.00     0.274 HD
ATOM     28  H11 UNL     1      19.624  -1.116   4.115  1.00  0.00     0.274 HD
ENDBRANCH   1  25
TORSDOF 8
ENDMDL
