MODEL 1
REMARK VINA RESULT: -6.793082536      0.000      0.000
REMARK  5 active torsions:
REMARK  status: ('A' for Active; 'I' for Inactive)
REMARK    1  A    between atoms: C2_2  and  C3_3 
REMARK    2  A    between atoms: C4_4  and  C5_5 
REMARK    3  A    between atoms: C5_5  and  C6_6 
REMARK    4  A    between atoms: C16_22  and  C17_23 
REMARK    5  A    between atoms: C17_23  and  C20_26 
ROOT
HETATM    1  C6  UNL     1      18.771  -7.092  10.029  1.00  0.00     0.133 C 
HETATM    2  O1  UNL     1      18.660  -7.394   8.711  1.00  0.00    -0.349 OA
HETATM    3  C7  UNL     1      17.355  -7.521   8.291  1.00  0.00     0.334 C 
HETATM    4  O2  UNL     1      17.368  -8.074   7.006  1.00  0.00    -0.293 OA
HETATM    5  C8  UNL     1      16.346  -7.435   6.302  1.00  0.00     0.337 C 
HETATM    6  C9  UNL     1      15.889  -8.175   5.092  1.00  0.00     0.120 C 
HETATM    7  O3  UNL     1      15.285  -7.266   7.192  1.00  0.00    -0.166 OA
HETATM    8  O4  UNL     1      15.520  -6.161   7.869  1.00  0.00    -0.187 OA
HETATM    9  C10 UNL     1      16.905  -6.061   8.131  1.00  0.00     0.282 C 
HETATM   10  O5  UNL     1      17.466  -5.639   6.927  1.00  0.00    -0.187 OA
HETATM   11  O6  UNL     1      16.738  -6.143   5.924  1.00  0.00    -0.166 OA
HETATM   12  C11 UNL     1      17.244  -5.234   9.315  1.00  0.00     0.066 C 
HETATM   13  C12 UNL     1      18.161  -4.121   8.878  1.00  0.00     0.011 C 
HETATM   14  C13 UNL     1      19.531  -4.212   9.454  1.00  0.00     0.005 C 
HETATM   15  C14 UNL     1      19.521  -4.272  10.960  1.00  0.00    -0.013 C 
HETATM   16  C15 UNL     1      20.910  -4.718  11.370  1.00  0.00     0.010 C 
HETATM   17  C16 UNL     1      18.410  -5.142  11.542  1.00  0.00     0.005 C 
HETATM   18  C24 UNL     1      17.785  -6.007  10.499  1.00  0.00     0.030 C 
ENDROOT
BRANCH  17  19
HETATM   19  C17 UNL     1      17.659  -4.501  12.621  1.00  0.00    -0.037 C 
HETATM   20  C18 UNL     1      16.194  -4.924  12.699  1.00  0.00     0.016 C 
HETATM   21  C19 UNL     1      17.471  -2.986  12.322  1.00  0.00     0.016 C 
BRANCH  19  22
HETATM   22  C20 UNL     1      18.203  -4.513  14.014  1.00  0.00    -0.044 C 
HETATM   23  C21 UNL     1      17.070  -4.604  15.057  1.00  0.00     0.015 C 
HETATM   24  C22 UNL     1      18.923  -3.263  14.412  1.00  0.00     0.015 C 
HETATM   25  C23 UNL     1      18.998  -5.745  14.394  1.00  0.00     0.015 C 
ENDBRANCH  19  22
ENDBRANCH  17  19
BRANCH   1  26
HETATM   26  C5  UNL     1      18.516  -8.424  10.760  1.00  0.00     0.059 C 
BRANCH  26  27
HETATM   27  C4  UNL     1      19.757  -8.752  11.467  1.00  0.00    -0.028 C 
HETATM   28  C3  UNL     1      20.963  -8.369  11.062  1.00  0.00    -0.031 C 
BRANCH  28  29
HETATM   29  C2  UNL     1      22.192  -8.723  11.810  1.00  0.00     0.022 C 
HETATM   30  C1  UNL     1      23.257  -9.295  10.900  1.00  0.00     0.009 C 
ENDBRANCH  28  29
ENDBRANCH  26  27
ENDBRANCH   1  26
TORSDOF 5
ENDMDL
MODEL 2
REMARK VINA RESULT: -6.469852000      0.962      1.147
REMARK  5 active torsions:
REMARK  status: ('A' for Active; 'I' for Inactive)
REMARK    1  A    between atoms: C2_2  and  C3_3 
REMARK    2  A    between atoms: C4_4  and  C5_5 
REMARK    3  A    between atoms: C5_5  and  C6_6 
REMARK    4  A    between atoms: C16_22  and  C17_23 
REMARK    5  A    between atoms: C17_23  and  C20_26 
ROOT
HETATM    1  C6  UNL     1      18.505  -7.235  10.142  1.00  0.00     0.133 C 
HETATM    2  O1  UNL     1      18.450  -7.532   8.819  1.00  0.00    -0.349 OA
HETATM    3  C7  UNL     1      17.174  -7.484   8.306  1.00  0.00     0.334 C 
HETATM    4  O2  UNL     1      17.205  -8.047   7.025  1.00  0.00    -0.293 OA
HETATM    5  C8  UNL     1      16.333  -7.282   6.248  1.00  0.00     0.337 C 
HETATM    6  C9  UNL     1      15.868  -7.964   5.008  1.00  0.00     0.120 C 
HETATM    7  O3  UNL     1      15.243  -6.961   7.058  1.00  0.00    -0.166 OA
HETATM    8  O4  UNL     1      15.577  -5.892   7.751  1.00  0.00    -0.187 OA
HETATM    9  C10 UNL     1      16.939  -5.979   8.114  1.00  0.00     0.282 C 
HETATM   10  O5  UNL     1      17.638  -5.648   6.953  1.00  0.00    -0.187 OA
HETATM   11  O6  UNL     1      16.923  -6.058   5.900  1.00  0.00    -0.166 OA
HETATM   12  C11 UNL     1      17.302  -5.194   9.319  1.00  0.00     0.066 C 
HETATM   13  C12 UNL     1      18.390  -4.220   8.951  1.00  0.00     0.011 C 
HETATM   14  C13 UNL     1      19.689  -4.490   9.625  1.00  0.00     0.005 C 
HETATM   15  C14 UNL     1      19.562  -4.534  11.127  1.00  0.00    -0.013 C 
HETATM   16  C15 UNL     1      20.845  -5.161  11.636  1.00  0.00     0.010 C 
HETATM   17  C16 UNL     1      18.304  -5.239  11.626  1.00  0.00     0.005 C 
HETATM   18  C24 UNL     1      17.645  -6.022  10.539  1.00  0.00     0.030 C 
ENDROOT
BRANCH  17  19
HETATM   19  C17 UNL     1      17.572  -4.492  12.647  1.00  0.00    -0.037 C 
HETATM   20  C18 UNL     1      16.093  -4.859  12.748  1.00  0.00     0.016 C 
HETATM   21  C19 UNL     1      17.435  -3.000  12.230  1.00  0.00     0.016 C 
BRANCH  19  22
HETATM   22  C20 UNL     1      18.110  -4.414  14.040  1.00  0.00    -0.044 C 
HETATM   23  C21 UNL     1      16.975  -4.242  15.071  1.00  0.00     0.015 C 
HETATM   24  C22 UNL     1      18.983  -3.228  14.304  1.00  0.00     0.015 C 
HETATM   25  C23 UNL     1      18.742  -5.685  14.568  1.00  0.00     0.015 C 
ENDBRANCH  19  22
ENDBRANCH  17  19
BRANCH   1  26
HETATM   26  C5  UNL     1      18.019  -8.513  10.852  1.00  0.00     0.059 C 
BRANCH  26  27
HETATM   27  C4  UNL     1      19.003  -8.804  11.899  1.00  0.00    -0.028 C 
HETATM   28  C3  UNL     1      18.685  -9.054  13.164  1.00  0.00    -0.031 C 
BRANCH  28  29
HETATM   29  C2  UNL     1      19.715  -9.344  14.190  1.00  0.00     0.022 C 
HETATM   30  C1  UNL     1      21.005  -8.604  13.914  1.00  0.00     0.009 C 
ENDBRANCH  28  29
ENDBRANCH  26  27
ENDBRANCH   1  26
TORSDOF 5
ENDMDL
MODEL 3
REMARK VINA RESULT: -6.421439587      7.308     10.244
REMARK  5 active torsions:
REMARK  status: ('A' for Active; 'I' for Inactive)
REMARK    1  A    between atoms: C2_2  and  C3_3 
REMARK    2  A    between atoms: C4_4  and  C5_5 
REMARK    3  A    between atoms: C5_5  and  C6_6 
REMARK    4  A    between atoms: C16_22  and  C17_23 
REMARK    5  A    between atoms: C17_23  and  C20_26 
ROOT
HETATM    1  C6  UNL     1      22.131   0.157   6.003  1.00  0.00     0.133 C 
HETATM    2  O1  UNL     1      21.274  -0.595   6.738  1.00  0.00    -0.349 OA
HETATM    3  C7  UNL     1      20.539  -1.478   5.979  1.00  0.00     0.334 C 
HETATM    4  O2  UNL     1      19.529  -2.005   6.792  1.00  0.00    -0.293 OA
HETATM    5  C8  UNL     1      19.408  -3.349   6.431  1.00  0.00     0.337 C 
HETATM    6  C9  UNL     1      18.113  -3.969   6.829  1.00  0.00     0.120 C 
HETATM    7  O3  UNL     1      19.568  -3.413   5.046  1.00  0.00    -0.166 OA
HETATM    8  O4  UNL     1      20.862  -3.457   4.807  1.00  0.00    -0.187 OA
HETATM    9  C10 UNL     1      21.534  -2.620   5.726  1.00  0.00     0.282 C 
HETATM   10  O5  UNL     1      21.562  -3.348   6.915  1.00  0.00    -0.187 OA
HETATM   11  O6  UNL     1      20.459  -4.104   6.972  1.00  0.00    -0.166 OA
HETATM   12  C11 UNL     1      22.850  -2.126   5.252  1.00  0.00     0.066 C 
HETATM   13  C12 UNL     1      23.907  -2.548   6.240  1.00  0.00     0.011 C 
HETATM   14  C13 UNL     1      24.550  -1.410   6.952  1.00  0.00     0.005 C 
HETATM   15  C14 UNL     1      25.143  -0.398   6.005  1.00  0.00    -0.013 C 
HETATM   16  C15 UNL     1      25.425   0.837   6.836  1.00  0.00     0.010 C 
HETATM   17  C16 UNL     1      24.286  -0.117   4.774  1.00  0.00     0.005 C 
HETATM   18  C24 UNL     1      22.900  -0.647   4.937  1.00  0.00     0.030 C 
ENDROOT
BRANCH  17  19
HETATM   19  C17 UNL     1      25.026  -0.156   3.514  1.00  0.00    -0.037 C 
HETATM   20  C18 UNL     1      24.245  -0.762   2.350  1.00  0.00     0.016 C 
HETATM   21  C19 UNL     1      26.190  -1.185   3.603  1.00  0.00     0.016 C 
BRANCH  19  22
HETATM   22  C20 UNL     1      25.697   1.081   3.007  1.00  0.00    -0.044 C 
HETATM   23  C21 UNL     1      25.483   1.253   1.490  1.00  0.00     0.015 C 
HETATM   24  C22 UNL     1      27.188   1.077   3.137  1.00  0.00     0.015 C 
HETATM   25  C23 UNL     1      25.110   2.389   3.496  1.00  0.00     0.015 C 
ENDBRANCH  19  22
ENDBRANCH  17  19
BRANCH   1  26
HETATM   26  C5  UNL     1      21.246   1.235   5.349  1.00  0.00     0.059 C 
BRANCH  26  27
HETATM   27  C4  UNL     1      21.658   2.516   5.930  1.00  0.00    -0.028 C 
HETATM   28  C3  UNL     1      21.586   2.798   7.226  1.00  0.00    -0.031 C 
BRANCH  28  29
HETATM   29  C2  UNL     1      22.015   4.108   7.769  1.00  0.00     0.022 C 
HETATM   30  C1  UNL     1      22.238   4.048   9.264  1.00  0.00     0.009 C 
ENDBRANCH  28  29
ENDBRANCH  26  27
ENDBRANCH   1  26
TORSDOF 5
ENDMDL
MODEL 4
REMARK VINA RESULT: -6.414407530      1.071      1.229
REMARK  5 active torsions:
REMARK  status: ('A' for Active; 'I' for Inactive)
REMARK    1  A    between atoms: C2_2  and  C3_3 
REMARK    2  A    between atoms: C4_4  and  C5_5 
REMARK    3  A    between atoms: C5_5  and  C6_6 
REMARK    4  A    between atoms: C16_22  and  C17_23 
REMARK    5  A    between atoms: C17_23  and  C20_26 
ROOT
HETATM    1  C6  UNL     1      18.619  -7.192  10.160  1.00  0.00     0.133 C 
HETATM    2  O1  UNL     1      18.547  -7.509   8.843  1.00  0.00    -0.349 OA
HETATM    3  C7  UNL     1      17.256  -7.553   8.366  1.00  0.00     0.334 C 
HETATM    4  O2  UNL     1      17.288  -8.129   7.091  1.00  0.00    -0.293 OA
HETATM    5  C8  UNL     1      16.345  -7.434   6.332  1.00  0.00     0.337 C 
HETATM    6  C9  UNL     1      15.892  -8.162   5.113  1.00  0.00     0.120 C 
HETATM    7  O3  UNL     1      15.260  -7.175   7.170  1.00  0.00    -0.166 OA
HETATM    8  O4  UNL     1      15.541  -6.077   7.841  1.00  0.00    -0.187 OA
HETATM    9  C10 UNL     1      16.916  -6.069   8.164  1.00  0.00     0.282 C 
HETATM   10  O5  UNL     1      17.558  -5.708   6.980  1.00  0.00    -0.187 OA
HETATM   11  O6  UNL     1      16.843  -6.178   5.953  1.00  0.00    -0.166 OA
HETATM   12  C11 UNL     1      17.259  -5.246   9.350  1.00  0.00     0.066 C 
HETATM   13  C12 UNL     1      18.270  -4.207   8.939  1.00  0.00     0.011 C 
HETATM   14  C13 UNL     1      19.603  -4.382   9.578  1.00  0.00     0.005 C 
HETATM   15  C14 UNL     1      19.521  -4.415  11.083  1.00  0.00    -0.013 C 
HETATM   16  C15 UNL     1      20.857  -4.948  11.562  1.00  0.00     0.010 C 
HETATM   17  C16 UNL     1      18.328  -5.195  11.627  1.00  0.00     0.005 C 
HETATM   18  C24 UNL     1      17.691  -6.033  10.569  1.00  0.00     0.030 C 
ENDROOT
BRANCH  17  19
HETATM   19  C17 UNL     1      17.576  -4.485  12.660  1.00  0.00    -0.037 C 
HETATM   20  C18 UNL     1      16.099  -4.867  12.733  1.00  0.00     0.016 C 
HETATM   21  C19 UNL     1      17.431  -2.982  12.286  1.00  0.00     0.016 C 
BRANCH  19  22
HETATM   22  C20 UNL     1      18.097  -4.443  14.062  1.00  0.00    -0.044 C 
HETATM   23  C21 UNL     1      16.945  -4.403  15.087  1.00  0.00     0.015 C 
HETATM   24  C22 UNL     1      18.884  -3.215  14.396  1.00  0.00     0.015 C 
HETATM   25  C23 UNL     1      18.810  -5.694  14.530  1.00  0.00     0.015 C 
ENDBRANCH  19  22
ENDBRANCH  17  19
BRANCH   1  26
HETATM   26  C5  UNL     1      18.239  -8.490  10.898  1.00  0.00     0.059 C 
BRANCH  26  27
HETATM   27  C4  UNL     1      19.406  -9.373  10.809  1.00  0.00    -0.028 C 
HETATM   28  C3  UNL     1      19.329 -10.698  10.760  1.00  0.00    -0.031 C 
BRANCH  28  29
HETATM   29  C2  UNL     1      20.537 -11.552  10.669  1.00  0.00     0.022 C 
HETATM   30  C1  UNL     1      20.180 -13.017  10.547  1.00  0.00     0.009 C 
ENDBRANCH  28  29
ENDBRANCH  26  27
ENDBRANCH   1  26
TORSDOF 5
ENDMDL
MODEL 5
REMARK VINA RESULT: -6.268377932      2.024      4.531
REMARK  5 active torsions:
REMARK  status: ('A' for Active; 'I' for Inactive)
REMARK    1  A    between atoms: C2_2  and  C3_3 
REMARK    2  A    between atoms: C4_4  and  C5_5 
REMARK    3  A    between atoms: C5_5  and  C6_6 
REMARK    4  A    between atoms: C16_22  and  C17_23 
REMARK    5  A    between atoms: C17_23  and  C20_26 
ROOT
HETATM    1  C6  UNL     1      18.714  -4.514   8.807  1.00  0.00     0.133 C 
HETATM    2  O1  UNL     1      17.644  -4.487   7.973  1.00  0.00    -0.349 OA
HETATM    3  C7  UNL     1      17.576  -5.584   7.144  1.00  0.00     0.334 C 
HETATM    4  O2  UNL     1      16.601  -5.328   6.173  1.00  0.00    -0.293 OA
HETATM    5  C8  UNL     1      15.940  -6.541   5.963  1.00  0.00     0.337 C 
HETATM    6  C9  UNL     1      15.197  -6.611   4.674  1.00  0.00     0.120 C 
HETATM    7  O3  UNL     1      16.909  -7.544   6.016  1.00  0.00    -0.166 OA
HETATM    8  O4  UNL     1      17.082  -7.849   7.286  1.00  0.00    -0.187 OA
HETATM    9  C10 UNL     1      17.000  -6.672   8.063  1.00  0.00     0.282 C 
HETATM   10  O5  UNL     1      15.637  -6.393   8.144  1.00  0.00    -0.187 OA
HETATM   11  O6  UNL     1      15.053  -6.811   7.015  1.00  0.00    -0.166 OA
HETATM   12  C11 UNL     1      17.713  -6.746   9.361  1.00  0.00     0.066 C 
HETATM   13  C12 UNL     1      16.729  -6.469  10.468  1.00  0.00     0.011 C 
HETATM   14  C13 UNL     1      17.004  -5.211  11.214  1.00  0.00     0.005 C 
HETATM   15  C14 UNL     1      18.399  -5.171  11.782  1.00  0.00    -0.013 C 
HETATM   16  C15 UNL     1      18.646  -3.730  12.182  1.00  0.00     0.010 C 
HETATM   17  C16 UNL     1      19.469  -5.732  10.849  1.00  0.00     0.005 C 
HETATM   18  C24 UNL     1      18.957  -5.889   9.456  1.00  0.00     0.030 C 
ENDROOT
BRANCH  17  19
HETATM   19  C17 UNL     1      20.377  -6.681  11.492  1.00  0.00    -0.037 C 
HETATM   20  C18 UNL     1      20.581  -7.977  10.709  1.00  0.00     0.016 C 
HETATM   21  C19 UNL     1      19.727  -7.262  12.780  1.00  0.00     0.016 C 
BRANCH  19  22
HETATM   22  C20 UNL     1      21.722  -6.224  11.959  1.00  0.00    -0.044 C 
HETATM   23  C21 UNL     1      21.732  -5.970  13.480  1.00  0.00     0.015 C 
HETATM   24  C22 UNL     1      22.161  -4.907  11.398  1.00  0.00     0.015 C 
HETATM   25  C23 UNL     1      22.829  -7.253  11.865  1.00  0.00     0.015 C 
ENDBRANCH  19  22
ENDBRANCH  17  19
BRANCH   1  26
HETATM   26  C5  UNL     1      19.909  -4.100   7.927  1.00  0.00     0.059 C 
BRANCH  26  27
HETATM   27  C4  UNL     1      19.733  -2.674   7.635  1.00  0.00    -0.028 C 
HETATM   28  C3  UNL     1      20.510  -1.988   6.805  1.00  0.00    -0.031 C 
BRANCH  28  29
HETATM   29  C2  UNL     1      20.294  -0.546   6.539  1.00  0.00     0.022 C 
HETATM   30  C1  UNL     1      20.452  -0.216   5.072  1.00  0.00     0.009 C 
ENDBRANCH  28  29
ENDBRANCH  26  27
ENDBRANCH   1  26
TORSDOF 5
ENDMDL
