MODEL 1
REMARK VINA RESULT: -7.480868408      0.000      0.000
REMARK  6 active torsions:
REMARK  status: ('A' for Active; 'I' for Inactive)
REMARK    1  A    between atoms: C2_2  and  S1_3 
REMARK    2  A    between atoms: S1_3  and  C3_4 
REMARK    3  A    between atoms: C7_8  and  C8_9 
REMARK       I    between atoms: C8_9  and  N1_11 
REMARK    4  A    between atoms: N1_11  and  C9_13 
REMARK    5  A    between atoms: C19_26  and  C20_27 
REMARK    6  A    between atoms: C20_27  and  O2_28 
ROOT
HETATM    1  C3  UNL     1      20.036  -3.410   8.745  1.00  0.00     0.054 C 
HETATM    2  C4  UNL     1      18.975  -4.129   7.984  1.00  0.00     0.025 C 
HETATM    3  C5  UNL     1      18.827  -5.591   8.330  1.00  0.00     0.018 C 
HETATM    4  C6  UNL     1      17.647  -6.115   7.607  1.00  0.00    -0.009 C 
HETATM    5  C7  UNL     1      16.651  -6.791   8.136  1.00  0.00     0.007 C 
HETATM    6  C14 UNL     1      16.589  -7.120   9.605  1.00  0.00     0.044 C 
HETATM    7  C15 UNL     1      17.296  -5.941  10.276  1.00  0.00     0.014 C 
HETATM    8  C16 UNL     1      18.719  -5.862   9.779  1.00  0.00    -0.036 C 
HETATM    9  C17 UNL     1      19.423  -7.187  10.083  1.00  0.00     0.016 C 
HETATM   10  C18 UNL     1      19.429  -4.818  10.627  1.00  0.00     0.017 C 
HETATM   11  C19 UNL     1      20.595  -4.329   9.792  1.00  0.00     0.024 C 
ENDROOT
BRANCH   5  12
HETATM   12  C8  UNL     1      15.570  -7.223   7.241  1.00  0.00     0.252 C 
HETATM   13  O1  UNL     1      15.668  -8.352   6.678  1.00  0.00    -0.268 OA
HETATM   14  N1  UNL     1      14.436  -6.417   6.994  1.00  0.00    -0.311 N 
ATOM     15  H1  UNL     1      13.644  -6.448   7.636  1.00  0.00     0.170 HD
BRANCH  14  16
HETATM   16  C9  UNL     1      14.392  -5.649   5.972  1.00  0.00     0.121 A 
HETATM   17  S2  UNL     1      14.987  -4.082   5.769  1.00  0.00    -0.063 SA
HETATM   18  C10 UNL     1      14.653  -3.495   4.158  1.00  0.00     0.032 A 
HETATM   19  C11 UNL     1      14.895  -2.344   3.474  1.00  0.00     0.028 A 
HETATM   20  C13 UNL     1      13.991  -4.479   3.494  1.00  0.00     0.065 A 
HETATM   21  C12 UNL     1      14.449  -2.286   2.181  1.00  0.00     0.052 A 
HETATM   22  S3  UNL     1      13.720  -3.803   1.951  1.00  0.00    -0.093 SA
HETATM   23  S4  UNL     1      13.727  -5.902   4.434  1.00  0.00    -0.056 SA
ENDBRANCH  14  16
ENDBRANCH   5  12
BRANCH   1  24
HETATM   24  S1  UNL     1      21.332  -2.746   7.664  1.00  0.00    -0.164 SA
BRANCH  24  25
HETATM   25  C2  UNL     1      20.604  -2.370   6.047  1.00  0.00     0.070 C 
HETATM   26  C1  UNL     1      21.161  -3.378   5.051  1.00  0.00     0.016 C 
ENDBRANCH  24  25
ENDBRANCH   1  24
BRANCH  11  27
HETATM   27  C20 UNL     1      21.656  -3.681  10.648  1.00  0.00     0.169 C 
BRANCH  27  28
HETATM   28  O2  UNL     1      21.458  -4.089  11.955  1.00  0.00    -0.400 OA
ATOM     29  H2  UNL     1      22.175  -3.752  12.479  1.00  0.00     0.209 HD
ENDBRANCH  27  28
ENDBRANCH  11  27
TORSDOF 6
ENDMDL
MODEL 2
REMARK VINA RESULT: -7.475901887      2.320      7.140
REMARK  6 active torsions:
REMARK  status: ('A' for Active; 'I' for Inactive)
REMARK    1  A    between atoms: C2_2  and  S1_3 
REMARK    2  A    between atoms: S1_3  and  C3_4 
REMARK    3  A    between atoms: C7_8  and  C8_9 
REMARK       I    between atoms: C8_9  and  N1_11 
REMARK    4  A    between atoms: N1_11  and  C9_13 
REMARK    5  A    between atoms: C19_26  and  C20_27 
REMARK    6  A    between atoms: C20_27  and  O2_28 
ROOT
HETATM    1  C3  UNL     1      15.034  -4.903   4.597  1.00  0.00     0.054 C 
HETATM    2  C4  UNL     1      15.899  -4.282   5.639  1.00  0.00     0.025 C 
HETATM    3  C5  UNL     1      15.981  -5.049   6.936  1.00  0.00     0.018 C 
HETATM    4  C6  UNL     1      16.986  -4.388   7.797  1.00  0.00    -0.009 C 
HETATM    5  C7  UNL     1      17.995  -4.974   8.403  1.00  0.00     0.007 C 
HETATM    6  C14 UNL     1      18.260  -6.452   8.281  1.00  0.00     0.044 C 
HETATM    7  C15 UNL     1      17.766  -6.800   6.876  1.00  0.00     0.014 C 
HETATM    8  C16 UNL     1      16.294  -6.484   6.771  1.00  0.00    -0.036 C 
HETATM    9  C17 UNL     1      15.541  -7.276   7.843  1.00  0.00     0.016 C 
HETATM   10  C18 UNL     1      15.814  -7.041   5.439  1.00  0.00     0.017 C 
HETATM   11  C19 UNL     1      14.574  -6.247   5.080  1.00  0.00     0.024 C 
ENDROOT
BRANCH   5  12
HETATM   12  C8  UNL     1      18.882  -4.133   9.217  1.00  0.00     0.252 C 
HETATM   13  O1  UNL     1      18.367  -3.404  10.114  1.00  0.00    -0.268 OA
HETATM   14  N1  UNL     1      20.282  -4.118   9.025  1.00  0.00    -0.311 N 
ATOM     15  H1  UNL     1      20.863  -4.823   9.481  1.00  0.00     0.170 HD
BRANCH  14  16
HETATM   16  C9  UNL     1      20.828  -3.230   8.286  1.00  0.00     0.121 A 
HETATM   17  S2  UNL     1      20.146  -2.235   7.104  1.00  0.00    -0.063 SA
HETATM   18  C10 UNL     1      21.355  -1.194   6.394  1.00  0.00     0.032 A 
HETATM   19  C11 UNL     1      21.366  -0.231   5.433  1.00  0.00     0.028 A 
HETATM   20  C13 UNL     1      22.541  -1.475   6.997  1.00  0.00     0.065 A 
HETATM   21  C12 UNL     1      22.569   0.364   5.164  1.00  0.00     0.052 A 
HETATM   22  S3  UNL     1      23.636  -0.413   6.233  1.00  0.00    -0.093 SA
HETATM   23  S4  UNL     1      22.438  -2.707   8.202  1.00  0.00    -0.056 SA
ENDBRANCH  14  16
ENDBRANCH   5  12
BRANCH   1  24
HETATM   24  S1  UNL     1      13.642  -3.838   4.130  1.00  0.00    -0.164 SA
BRANCH  24  25
HETATM   25  C2  UNL     1      13.895  -3.262   2.430  1.00  0.00     0.070 C 
HETATM   26  C1  UNL     1      14.931  -2.147   2.476  1.00  0.00     0.016 C 
ENDBRANCH  24  25
ENDBRANCH   1  24
BRANCH  11  27
HETATM   27  C20 UNL     1      13.717  -6.980   4.077  1.00  0.00     0.169 C 
BRANCH  27  28
HETATM   28  O2  UNL     1      13.348  -8.190   4.634  1.00  0.00    -0.400 OA
ATOM     29  H2  UNL     1      14.032  -8.822   4.443  1.00  0.00     0.209 HD
ENDBRANCH  27  28
ENDBRANCH  11  27
TORSDOF 6
ENDMDL
MODEL 3
REMARK VINA RESULT: -7.443058485      1.376      1.899
REMARK  6 active torsions:
REMARK  status: ('A' for Active; 'I' for Inactive)
REMARK    1  A    between atoms: C2_2  and  S1_3 
REMARK    2  A    between atoms: S1_3  and  C3_4 
REMARK    3  A    between atoms: C7_8  and  C8_9 
REMARK       I    between atoms: C8_9  and  N1_11 
REMARK    4  A    between atoms: N1_11  and  C9_13 
REMARK    5  A    between atoms: C19_26  and  C20_27 
REMARK    6  A    between atoms: C20_27  and  O2_28 
ROOT
HETATM    1  C3  UNL     1      20.169  -2.889   6.927  1.00  0.00     0.054 C 
HETATM    2  C4  UNL     1      19.050  -3.804   6.566  1.00  0.00     0.025 C 
HETATM    3  C5  UNL     1      18.931  -5.035   7.431  1.00  0.00     0.018 C 
HETATM    4  C6  UNL     1      17.695  -5.750   7.042  1.00  0.00    -0.009 C 
HETATM    5  C7  UNL     1      16.747  -6.158   7.856  1.00  0.00     0.007 C 
HETATM    6  C14 UNL     1      16.807  -5.929   9.344  1.00  0.00     0.044 C 
HETATM    7  C15 UNL     1      17.567  -4.608   9.483  1.00  0.00     0.014 C 
HETATM    8  C16 UNL     1      18.944  -4.758   8.883  1.00  0.00    -0.036 C 
HETATM    9  C17 UNL     1      19.671  -5.902   9.593  1.00  0.00     0.016 C 
HETATM   10  C18 UNL     1      19.721  -3.499   9.234  1.00  0.00     0.017 C 
HETATM   11  C19 UNL     1      20.814  -3.381   8.190  1.00  0.00     0.024 C 
ENDROOT
BRANCH   5  12
HETATM   12  C8  UNL     1      15.595  -6.853   7.267  1.00  0.00     0.252 C 
HETATM   13  O1  UNL     1      15.711  -8.082   6.988  1.00  0.00    -0.268 OA
HETATM   14  N1  UNL     1      14.375  -6.191   7.005  1.00  0.00    -0.311 N 
ATOM     15  H1  UNL     1      13.682  -6.096   7.748  1.00  0.00     0.170 HD
BRANCH  14  16
HETATM   16  C9  UNL     1      14.130  -5.709   5.846  1.00  0.00     0.121 A 
HETATM   17  S2  UNL     1      13.677  -6.493   4.421  1.00  0.00    -0.063 SA
HETATM   18  C10 UNL     1      13.470  -5.347   3.120  1.00  0.00     0.032 A 
HETATM   19  C11 UNL     1      13.124  -5.420   1.806  1.00  0.00     0.028 A 
HETATM   20  C13 UNL     1      13.737  -4.111   3.619  1.00  0.00     0.065 A 
HETATM   21  C12 UNL     1      13.078  -4.242   1.111  1.00  0.00     0.052 A 
HETATM   22  S3  UNL     1      13.506  -3.084   2.277  1.00  0.00    -0.093 SA
HETATM   23  S4  UNL     1      14.166  -4.109   5.291  1.00  0.00    -0.056 SA
ENDBRANCH  14  16
ENDBRANCH   5  12
BRANCH   1  24
HETATM   24  S1  UNL     1      21.371  -2.702   5.582  1.00  0.00    -0.164 SA
BRANCH  24  25
HETATM   25  C2  UNL     1      21.035  -1.146   4.714  1.00  0.00     0.070 C 
HETATM   26  C1  UNL     1      20.448  -0.176   5.731  1.00  0.00     0.016 C 
ENDBRANCH  24  25
ENDBRANCH   1  24
BRANCH  11  27
HETATM   27  C20 UNL     1      21.942  -2.498   8.666  1.00  0.00     0.169 C 
BRANCH  27  28
HETATM   28  O2  UNL     1      22.524  -3.104   9.765  1.00  0.00    -0.400 OA
ATOM     29  H2  UNL     1      23.355  -2.676   9.930  1.00  0.00     0.209 HD
ENDBRANCH  27  28
ENDBRANCH  11  27
TORSDOF 6
ENDMDL
MODEL 4
REMARK VINA RESULT: -7.254657304      2.383      7.101
REMARK  6 active torsions:
REMARK  status: ('A' for Active; 'I' for Inactive)
REMARK    1  A    between atoms: C2_2  and  S1_3 
REMARK    2  A    between atoms: S1_3  and  C3_4 
REMARK    3  A    between atoms: C7_8  and  C8_9 
REMARK       I    between atoms: C8_9  and  N1_11 
REMARK    4  A    between atoms: N1_11  and  C9_13 
REMARK    5  A    between atoms: C19_26  and  C20_27 
REMARK    6  A    between atoms: C20_27  and  O2_28 
ROOT
HETATM    1  C3  UNL     1      15.149  -4.886   4.702  1.00  0.00     0.054 C 
HETATM    2  C4  UNL     1      16.049  -4.297   5.733  1.00  0.00     0.025 C 
HETATM    3  C5  UNL     1      16.100  -5.053   7.039  1.00  0.00     0.018 C 
HETATM    4  C6  UNL     1      17.141  -4.431   7.887  1.00  0.00    -0.009 C 
HETATM    5  C7  UNL     1      18.123  -5.059   8.495  1.00  0.00     0.007 C 
HETATM    6  C14 UNL     1      18.315  -6.550   8.389  1.00  0.00     0.044 C 
HETATM    7  C15 UNL     1      17.797  -6.889   6.990  1.00  0.00     0.014 C 
HETATM    8  C16 UNL     1      16.341  -6.503   6.889  1.00  0.00    -0.036 C 
HETATM    9  C17 UNL     1      15.557  -7.244   7.974  1.00  0.00     0.016 C 
HETATM   10  C18 UNL     1      15.827  -7.051   5.566  1.00  0.00     0.017 C 
HETATM   11  C19 UNL     1      14.626  -6.200   5.204  1.00  0.00     0.024 C 
ENDROOT
BRANCH   5  12
HETATM   12  C8  UNL     1      19.055  -4.254   9.295  1.00  0.00     0.252 C 
HETATM   13  O1  UNL     1      18.600  -3.609  10.284  1.00  0.00    -0.268 OA
HETATM   14  N1  UNL     1      20.433  -4.182   8.990  1.00  0.00    -0.311 N 
ATOM     15  H1  UNL     1      21.067  -4.900   9.342  1.00  0.00     0.170 HD
BRANCH  14  16
HETATM   16  C9  UNL     1      20.894  -3.226   8.278  1.00  0.00     0.121 A 
HETATM   17  S2  UNL     1      22.452  -2.579   8.209  1.00  0.00    -0.063 SA
HETATM   18  C10 UNL     1      22.532  -1.272   7.054  1.00  0.00     0.032 A 
HETATM   19  C11 UNL     1      23.500  -0.425   6.609  1.00  0.00     0.028 A 
HETATM   20  C13 UNL     1      21.292  -1.127   6.514  1.00  0.00     0.065 A 
HETATM   21  C12 UNL     1      23.135   0.491   5.661  1.00  0.00     0.052 A 
HETATM   22  S3  UNL     1      21.487   0.162   5.414  1.00  0.00    -0.093 SA
HETATM   23  S4  UNL     1      20.126  -2.240   7.133  1.00  0.00    -0.056 SA
ENDBRANCH  14  16
ENDBRANCH   5  12
BRANCH   1  24
HETATM   24  S1  UNL     1      13.808  -3.759   4.230  1.00  0.00    -0.164 SA
BRANCH  24  25
HETATM   25  C2  UNL     1      14.029  -3.289   2.493  1.00  0.00     0.070 C 
HETATM   26  C1  UNL     1      14.987  -2.105   2.460  1.00  0.00     0.016 C 
ENDBRANCH  24  25
ENDBRANCH   1  24
BRANCH  11  27
HETATM   27  C20 UNL     1      13.729  -6.902   4.213  1.00  0.00     0.169 C 
BRANCH  27  28
HETATM   28  O2  UNL     1      13.608  -8.222   4.607  1.00  0.00    -0.400 OA
ATOM     29  H2  UNL     1      13.836  -8.275   5.528  1.00  0.00     0.209 HD
ENDBRANCH  27  28
ENDBRANCH  11  27
TORSDOF 6
ENDMDL
MODEL 5
REMARK VINA RESULT: -7.182447276      2.185      3.654
REMARK  6 active torsions:
REMARK  status: ('A' for Active; 'I' for Inactive)
REMARK    1  A    between atoms: C2_2  and  S1_3 
REMARK    2  A    between atoms: S1_3  and  C3_4 
REMARK    3  A    between atoms: C7_8  and  C8_9 
REMARK       I    between atoms: C8_9  and  N1_11 
REMARK    4  A    between atoms: N1_11  and  C9_13 
REMARK    5  A    between atoms: C19_26  and  C20_27 
REMARK    6  A    between atoms: C20_27  and  O2_28 
ROOT
HETATM    1  C3  UNL     1      17.911  -5.015  12.519  1.00  0.00     0.054 C 
HETATM    2  C4  UNL     1      17.001  -5.478  11.433  1.00  0.00     0.025 C 
HETATM    3  C5  UNL     1      17.515  -5.246  10.033  1.00  0.00     0.018 C 
HETATM    4  C6  UNL     1      16.576  -5.891   9.089  1.00  0.00    -0.009 C 
HETATM    5  C7  UNL     1      16.896  -6.728   8.126  1.00  0.00     0.007 C 
HETATM    6  C14 UNL     1      18.319  -7.150   7.865  1.00  0.00     0.044 C 
HETATM    7  C15 UNL     1      18.971  -7.123   9.249  1.00  0.00     0.014 C 
HETATM    8  C16 UNL     1      18.896  -5.723   9.809  1.00  0.00    -0.036 C 
HETATM    9  C17 UNL     1      19.593  -4.765   8.840  1.00  0.00     0.016 C 
HETATM   10  C18 UNL     1      19.737  -5.705  11.076  1.00  0.00     0.017 C 
HETATM   11  C19 UNL     1      19.205  -4.558  11.912  1.00  0.00     0.024 C 
ENDROOT
BRANCH   5  12
HETATM   12  C8  UNL     1      15.809  -7.258   7.295  1.00  0.00     0.252 C 
HETATM   13  O1  UNL     1      15.956  -8.398   6.764  1.00  0.00    -0.268 OA
HETATM   14  N1  UNL     1      14.615  -6.535   7.074  1.00  0.00    -0.311 N 
ATOM     15  H1  UNL     1      13.855  -6.594   7.752  1.00  0.00     0.170 HD
BRANCH  14  16
HETATM   16  C9  UNL     1      14.478  -5.807   6.031  1.00  0.00     0.121 A 
HETATM   17  S2  UNL     1      14.940  -4.206   5.760  1.00  0.00    -0.063 SA
HETATM   18  C10 UNL     1      14.509  -3.700   4.145  1.00  0.00     0.032 A 
HETATM   19  C11 UNL     1      14.637  -2.557   3.418  1.00  0.00     0.028 A 
HETATM   20  C13 UNL     1      13.905  -4.754   3.534  1.00  0.00     0.065 A 
HETATM   21  C12 UNL     1      14.146  -2.576   2.141  1.00  0.00     0.052 A 
HETATM   22  S3  UNL     1      13.532  -4.152   1.983  1.00  0.00    -0.093 SA
HETATM   23  S4  UNL     1      13.784  -6.162   4.527  1.00  0.00    -0.056 SA
ENDBRANCH  14  16
ENDBRANCH   5  12
BRANCH   1  24
HETATM   24  S1  UNL     1      17.156  -3.730  13.553  1.00  0.00    -0.164 SA
BRANCH  24  25
HETATM   25  C2  UNL     1      16.939  -4.384  15.229  1.00  0.00     0.070 C 
HETATM   26  C1  UNL     1      17.386  -5.840  15.211  1.00  0.00     0.016 C 
ENDBRANCH  24  25
ENDBRANCH   1  24
BRANCH  11  27
HETATM   27  C20 UNL     1      20.216  -4.103  12.936  1.00  0.00     0.169 C 
BRANCH  27  28
HETATM   28  O2  UNL     1      21.473  -4.206  12.369  1.00  0.00    -0.400 OA
ATOM     29  H2  UNL     1      21.425  -3.863  11.484  1.00  0.00     0.209 HD
ENDBRANCH  27  28
ENDBRANCH  11  27
TORSDOF 6
ENDMDL
