MODEL 1
REMARK VINA RESULT: -9.992249356      0.000      0.000
REMARK  7 active torsions:
REMARK  status: ('A' for Active; 'I' for Inactive)
REMARK    1  A    between atoms: C2_2  and  C3_3 
REMARK    2  A    between atoms: C3_3  and  O1_4 
REMARK    3  A    between atoms: C3_3  and  C4_6 
REMARK    4  A    between atoms: C4_6  and  C5_7 
REMARK    5  A    between atoms: C8_10  and  C9_11 
REMARK    6  A    between atoms: C9_11  and  N1_12 
REMARK    7  A    between atoms: N1_12  and  C10_15 
ROOT
HETATM    1  C5  UNL     1      14.632   5.273  -0.620  1.00  0.00    -0.012 C 
HETATM    2  C6  UNL     1      14.259   3.819  -0.723  1.00  0.00     0.005 C 
HETATM    3  C7  UNL     1      14.372   3.464  -2.217  1.00  0.00     0.006 C 
HETATM    4  C8  UNL     1      13.166   4.079  -2.863  1.00  0.00     0.011 C 
HETATM    5  C20 UNL     1      12.813   5.431  -2.356  1.00  0.00     0.006 C 
HETATM    6  C21 UNL     1      13.885   6.137  -1.608  1.00  0.00     0.005 C 
ENDROOT
BRANCH   4   7
HETATM    7  C9  UNL     1      13.312   4.006  -4.370  1.00  0.00     0.237 C 
BRANCH   7   8
HETATM    8  N1  UNL     1      12.049   3.512  -4.886  1.00  0.00    -0.066 N 
ATOM      9  H12 UNL     1      11.465   3.151  -4.133  1.00  0.00     0.278 HD
ATOM     10  H11 UNL     1      11.458   4.281  -5.201  1.00  0.00     0.278 HD
BRANCH   8  11
HETATM   11  C10 UNL     1      12.213   2.534  -5.922  1.00  0.00     0.127 C 
HETATM   12  C11 UNL     1      12.916   1.297  -5.382  1.00  0.00     0.043 C 
HETATM   13  C12 UNL     1      13.150   0.362  -6.544  1.00  0.00    -0.012 C 
HETATM   14  C13 UNL     1      14.024   1.013  -7.586  1.00  0.00     0.009 C 
HETATM   15  C17 UNL     1      11.828  -0.077  -7.120  1.00  0.00     0.009 C 
HETATM   16  C14 UNL     1      13.286   2.204  -8.148  1.00  0.00    -0.012 C 
HETATM   17  C15 UNL     1      11.975   1.754  -8.758  1.00  0.00     0.009 C 
HETATM   18  C19 UNL     1      13.042   3.177  -7.027  1.00  0.00     0.043 C 
HETATM   19  C16 UNL     1      11.139   1.152  -7.669  1.00  0.00    -0.012 C 
HETATM   20  C18 UNL     1      10.907   2.109  -6.514  1.00  0.00     0.043 C 
ENDBRANCH   8  11
ENDBRANCH   7   8
ENDBRANCH   4   7
BRANCH   1  21
HETATM   21  C4  UNL     1      14.642   5.828   0.762  1.00  0.00     0.037 C 
BRANCH  21  22
HETATM   22  C3  UNL     1      15.965   6.018   1.392  1.00  0.00     0.130 C 
BRANCH  22  23
HETATM   23  C2  UNL     1      16.073   7.464   1.910  1.00  0.00     0.006 C 
HETATM   24  C1  UNL     1      17.428   8.040   1.533  1.00  0.00     0.022 C 
HETATM   25  C22 UNL     1      16.046   7.359   3.379  1.00  0.00    -0.018 C 
HETATM   26  C23 UNL     1      15.659   8.343   4.145  1.00  0.00    -0.022 C 
HETATM   27  C24 UNL     1      15.220   9.631   3.588  1.00  0.00     0.105 C 
HETATM   28  C25 UNL     1      14.501   9.370   2.327  1.00  0.00     0.131 C 
HETATM   29  O2  UNL     1      13.547  10.054   2.032  1.00  0.00    -0.298 OA
HETATM   30  C26 UNL     1      14.931   8.288   1.426  1.00  0.00     0.094 C 
ENDBRANCH  22  23
BRANCH  22  31
HETATM   31  O1  UNL     1      17.052   5.868   0.561  1.00  0.00    -0.394 OA
ATOM     32  H1  UNL     1      17.739   5.532   1.125  1.00  0.00     0.210 HD
ENDBRANCH  22  31
ENDBRANCH  21  22
ENDBRANCH   1  21
TORSDOF 7
ENDMDL
MODEL 2
REMARK VINA RESULT: -9.973023930      0.070      1.361
REMARK  7 active torsions:
REMARK  status: ('A' for Active; 'I' for Inactive)
REMARK    1  A    between atoms: C2_2  and  C3_3 
REMARK    2  A    between atoms: C3_3  and  O1_4 
REMARK    3  A    between atoms: C3_3  and  C4_6 
REMARK    4  A    between atoms: C4_6  and  C5_7 
REMARK    5  A    between atoms: C8_10  and  C9_11 
REMARK    6  A    between atoms: C9_11  and  N1_12 
REMARK    7  A    between atoms: N1_12  and  C10_15 
ROOT
HETATM    1  C5  UNL     1      14.677   5.278  -0.610  1.00  0.00    -0.012 C 
HETATM    2  C6  UNL     1      14.301   3.823  -0.688  1.00  0.00     0.005 C 
HETATM    3  C7  UNL     1      14.411   3.441  -2.175  1.00  0.00     0.006 C 
HETATM    4  C8  UNL     1      13.206   4.047  -2.830  1.00  0.00     0.011 C 
HETATM    5  C20 UNL     1      12.856   5.408  -2.347  1.00  0.00     0.006 C 
HETATM    6  C21 UNL     1      13.931   6.125  -1.613  1.00  0.00     0.005 C 
ENDROOT
BRANCH   4   7
HETATM    7  C9  UNL     1      13.350   3.948  -4.337  1.00  0.00     0.237 C 
BRANCH   7   8
HETATM    8  N1  UNL     1      12.095   3.422  -4.839  1.00  0.00    -0.066 N 
ATOM      9  H12 UNL     1      11.563   2.973  -4.094  1.00  0.00     0.278 HD
ATOM     10  H11 UNL     1      11.449   4.178  -5.071  1.00  0.00     0.278 HD
BRANCH   8  11
HETATM   11  C10 UNL     1      12.267   2.535  -5.953  1.00  0.00     0.127 C 
HETATM   12  C11 UNL     1      10.916   2.116  -6.515  1.00  0.00     0.043 C 
HETATM   13  C12 UNL     1      11.171   1.106  -7.607  1.00  0.00    -0.012 C 
HETATM   14  C13 UNL     1      11.877  -0.108  -7.059  1.00  0.00     0.009 C 
HETATM   15  C17 UNL     1      11.953   1.748  -8.725  1.00  0.00     0.009 C 
HETATM   16  C14 UNL     1      13.236   0.319  -6.558  1.00  0.00    -0.012 C 
HETATM   17  C15 UNL     1      14.031   0.931  -7.691  1.00  0.00     0.009 C 
HETATM   18  C19 UNL     1      13.035   1.319  -5.451  1.00  0.00     0.043 C 
HETATM   19  C16 UNL     1      13.299   2.150  -8.167  1.00  0.00    -0.012 C 
HETATM   20  C18 UNL     1      13.060   3.158  -7.057  1.00  0.00     0.043 C 
ENDBRANCH   8  11
ENDBRANCH   7   8
ENDBRANCH   4   7
BRANCH   1  21
HETATM   21  C4  UNL     1      14.690   5.857   0.761  1.00  0.00     0.037 C 
BRANCH  21  22
HETATM   22  C3  UNL     1      16.014   6.045   1.390  1.00  0.00     0.130 C 
BRANCH  22  23
HETATM   23  C2  UNL     1      16.112   7.482   1.936  1.00  0.00     0.006 C 
HETATM   24  C1  UNL     1      17.477   8.060   1.604  1.00  0.00     0.022 C 
HETATM   25  C22 UNL     1      16.046   7.352   3.402  1.00  0.00    -0.018 C 
HETATM   26  C23 UNL     1      15.642   8.324   4.174  1.00  0.00    -0.022 C 
HETATM   27  C24 UNL     1      15.221   9.623   3.629  1.00  0.00     0.105 C 
HETATM   28  C25 UNL     1      14.534   9.385   2.345  1.00  0.00     0.131 C 
HETATM   29  O2  UNL     1      13.591  10.077   2.037  1.00  0.00    -0.298 OA
HETATM   30  C26 UNL     1      14.985   8.317   1.437  1.00  0.00     0.094 C 
ENDBRANCH  22  23
BRANCH  22  31
HETATM   31  O1  UNL     1      17.099   5.920   0.553  1.00  0.00    -0.394 OA
ATOM     32  H1  UNL     1      17.316   4.995   0.581  1.00  0.00     0.210 HD
ENDBRANCH  22  31
ENDBRANCH  21  22
ENDBRANCH   1  21
TORSDOF 7
ENDMDL
MODEL 3
REMARK VINA RESULT: -9.898479199      0.081      1.365
REMARK  7 active torsions:
REMARK  status: ('A' for Active; 'I' for Inactive)
REMARK    1  A    between atoms: C2_2  and  C3_3 
REMARK    2  A    between atoms: C3_3  and  O1_4 
REMARK    3  A    between atoms: C3_3  and  C4_6 
REMARK    4  A    between atoms: C4_6  and  C5_7 
REMARK    5  A    between atoms: C8_10  and  C9_11 
REMARK    6  A    between atoms: C9_11  and  N1_12 
REMARK    7  A    between atoms: N1_12  and  C10_15 
ROOT
HETATM    1  C5  UNL     1      14.611   5.278  -0.639  1.00  0.00    -0.012 C 
HETATM    2  C6  UNL     1      14.261   3.819  -0.749  1.00  0.00     0.005 C 
HETATM    3  C7  UNL     1      14.360   3.476  -2.247  1.00  0.00     0.006 C 
HETATM    4  C8  UNL     1      13.135   4.076  -2.872  1.00  0.00     0.011 C 
HETATM    5  C20 UNL     1      12.766   5.418  -2.350  1.00  0.00     0.006 C 
HETATM    6  C21 UNL     1      13.837   6.136  -1.611  1.00  0.00     0.005 C 
ENDROOT
BRANCH   4   7
HETATM    7  C9  UNL     1      13.262   4.017  -4.382  1.00  0.00     0.237 C 
BRANCH   7   8
HETATM    8  N1  UNL     1      12.047   3.398  -4.876  1.00  0.00    -0.066 N 
ATOM      9  H12 UNL     1      11.521   2.968  -4.116  1.00  0.00     0.278 HD
ATOM     10  H11 UNL     1      11.370   4.104  -5.167  1.00  0.00     0.278 HD
BRANCH   8  11
HETATM   11  C10 UNL     1      12.289   2.455  -5.930  1.00  0.00     0.127 C 
HETATM   12  C11 UNL     1      13.162   3.074  -7.010  1.00  0.00     0.043 C 
HETATM   13  C12 UNL     1      13.285   2.069  -8.129  1.00  0.00    -0.012 C 
HETATM   14  C13 UNL     1      11.931   1.748  -8.710  1.00  0.00     0.009 C 
HETATM   15  C17 UNL     1      13.984   0.830  -7.629  1.00  0.00     0.009 C 
HETATM   16  C14 UNL     1      11.100   1.084  -7.639  1.00  0.00    -0.012 C 
HETATM   17  C15 UNL     1      11.788  -0.178  -7.164  1.00  0.00     0.009 C 
HETATM   18  C19 UNL     1      10.935   2.057  -6.503  1.00  0.00     0.043 C 
HETATM   19  C16 UNL     1      13.106   0.210  -6.565  1.00  0.00    -0.012 C 
HETATM   20  C18 UNL     1      12.963   1.214  -5.437  1.00  0.00     0.043 C 
ENDBRANCH   8  11
ENDBRANCH   7   8
ENDBRANCH   4   7
BRANCH   1  21
HETATM   21  C4  UNL     1      14.630   5.822   0.746  1.00  0.00     0.037 C 
BRANCH  21  22
HETATM   22  C3  UNL     1      15.958   6.019   1.364  1.00  0.00     0.130 C 
BRANCH  22  23
HETATM   23  C2  UNL     1      16.062   7.464   1.884  1.00  0.00     0.006 C 
HETATM   24  C1  UNL     1      17.411   8.049   1.497  1.00  0.00     0.022 C 
HETATM   25  C22 UNL     1      16.047   7.357   3.353  1.00  0.00    -0.018 C 
HETATM   26  C23 UNL     1      15.661   8.337   4.124  1.00  0.00    -0.022 C 
HETATM   27  C24 UNL     1      15.211   9.624   3.574  1.00  0.00     0.105 C 
HETATM   28  C25 UNL     1      14.483   9.361   2.318  1.00  0.00     0.131 C 
HETATM   29  O2  UNL     1      13.524  10.040   2.032  1.00  0.00    -0.298 OA
HETATM   30  C26 UNL     1      14.912   8.283   1.411  1.00  0.00     0.094 C 
ENDBRANCH  22  23
BRANCH  22  31
HETATM   31  O1  UNL     1      17.038   5.877   0.523  1.00  0.00    -0.394 OA
ATOM     32  H1  UNL     1      17.312   4.975   0.637  1.00  0.00     0.210 HD
ENDBRANCH  22  31
ENDBRANCH  21  22
ENDBRANCH   1  21
TORSDOF 7
ENDMDL
MODEL 4
REMARK VINA RESULT: -9.879956894      1.584      2.596
REMARK  7 active torsions:
REMARK  status: ('A' for Active; 'I' for Inactive)
REMARK    1  A    between atoms: C2_2  and  C3_3 
REMARK    2  A    between atoms: C3_3  and  O1_4 
REMARK    3  A    between atoms: C3_3  and  C4_6 
REMARK    4  A    between atoms: C4_6  and  C5_7 
REMARK    5  A    between atoms: C8_10  and  C9_11 
REMARK    6  A    between atoms: C9_11  and  N1_12 
REMARK    7  A    between atoms: N1_12  and  C10_15 
ROOT
HETATM    1  C5  UNL     1      14.971   4.990  -0.625  1.00  0.00    -0.012 C 
HETATM    2  C6  UNL     1      16.339   4.425  -0.893  1.00  0.00     0.005 C 
HETATM    3  C7  UNL     1      16.226   3.672  -2.231  1.00  0.00     0.006 C 
HETATM    4  C8  UNL     1      15.489   2.405  -1.912  1.00  0.00     0.011 C 
HETATM    5  C20 UNL     1      14.365   2.566  -0.953  1.00  0.00     0.006 C 
HETATM    6  C21 UNL     1      13.878   3.957  -0.762  1.00  0.00     0.005 C 
ENDROOT
BRANCH   4   7
HETATM    7  C9  UNL     1      15.100   1.712  -3.203  1.00  0.00     0.237 C 
BRANCH   7   8
HETATM    8  N1  UNL     1      13.653   1.619  -3.204  1.00  0.00    -0.066 N 
ATOM      9  H12 UNL     1      13.349   0.656  -3.064  1.00  0.00     0.278 HD
ATOM     10  H11 UNL     1      13.260   2.041  -2.362  1.00  0.00     0.278 HD
BRANCH   8  11
HETATM   11  C10 UNL     1      13.058   2.179  -4.383  1.00  0.00     0.127 C 
HETATM   12  C11 UNL     1      12.635   3.619  -4.136  1.00  0.00     0.043 C 
HETATM   13  C12 UNL     1      11.925   4.104  -5.376  1.00  0.00    -0.012 C 
HETATM   14  C13 UNL     1      10.700   3.269  -5.652  1.00  0.00     0.009 C 
HETATM   15  C17 UNL     1      12.877   4.101  -6.545  1.00  0.00     0.009 C 
HETATM   16  C14 UNL     1      11.145   1.858  -5.950  1.00  0.00    -0.012 C 
HETATM   17  C15 UNL     1      12.073   1.854  -7.146  1.00  0.00     0.009 C 
HETATM   18  C19 UNL     1      11.848   1.321  -4.732  1.00  0.00     0.043 C 
HETATM   19  C16 UNL     1      13.284   2.666  -6.797  1.00  0.00    -0.012 C 
HETATM   20  C18 UNL     1      13.989   2.158  -5.553  1.00  0.00     0.043 C 
ENDBRANCH   8  11
ENDBRANCH   7   8
ENDBRANCH   4   7
BRANCH   1  21
HETATM   21  C4  UNL     1      14.856   5.813   0.611  1.00  0.00     0.037 C 
BRANCH  21  22
HETATM   22  C3  UNL     1      14.499   7.235   0.431  1.00  0.00     0.130 C 
BRANCH  22  23
HETATM   23  C2  UNL     1      15.283   8.084   1.449  1.00  0.00     0.006 C 
HETATM   24  C1  UNL     1      16.557   8.603   0.804  1.00  0.00     0.022 C 
HETATM   25  C22 UNL     1      15.690   7.149   2.512  1.00  0.00    -0.018 C 
HETATM   26  C23 UNL     1      15.952   7.543   3.728  1.00  0.00    -0.022 C 
HETATM   27  C24 UNL     1      15.858   8.956   4.123  1.00  0.00     0.105 C 
HETATM   28  C25 UNL     1      14.730   9.566   3.393  1.00  0.00     0.131 C 
HETATM   29  O2  UNL     1      14.049  10.403   3.939  1.00  0.00    -0.298 OA
HETATM   30  C26 UNL     1      14.427   9.167   2.008  1.00  0.00     0.094 C 
ENDBRANCH  22  23
BRANCH  22  31
HETATM   31  O1  UNL     1      13.179   7.555   0.659  1.00  0.00    -0.394 OA
ATOM     32  H1  UNL     1      12.800   7.631  -0.208  1.00  0.00     0.210 HD
ENDBRANCH  22  31
ENDBRANCH  21  22
ENDBRANCH   1  21
TORSDOF 7
ENDMDL
MODEL 5
REMARK VINA RESULT: -9.758501760      2.179      2.988
REMARK  7 active torsions:
REMARK  status: ('A' for Active; 'I' for Inactive)
REMARK    1  A    between atoms: C2_2  and  C3_3 
REMARK    2  A    between atoms: C3_3  and  O1_4 
REMARK    3  A    between atoms: C3_3  and  C4_6 
REMARK    4  A    between atoms: C4_6  and  C5_7 
REMARK    5  A    between atoms: C8_10  and  C9_11 
REMARK    6  A    between atoms: C9_11  and  N1_12 
REMARK    7  A    between atoms: N1_12  and  C10_15 
ROOT
HETATM    1  C5  UNL     1      14.755   5.086  -0.519  1.00  0.00    -0.012 C 
HETATM    2  C6  UNL     1      14.086   3.745  -0.384  1.00  0.00     0.005 C 
HETATM    3  C7  UNL     1      14.320   3.024  -1.724  1.00  0.00     0.006 C 
HETATM    4  C8  UNL     1      13.381   3.678  -2.695  1.00  0.00     0.011 C 
HETATM    5  C20 UNL     1      13.272   5.153  -2.555  1.00  0.00     0.006 C 
HETATM    6  C21 UNL     1      14.362   5.808  -1.786  1.00  0.00     0.005 C 
ENDROOT
BRANCH   4   7
HETATM    7  C9  UNL     1      13.713   3.217  -4.101  1.00  0.00     0.237 C 
BRANCH   7   8
HETATM    8  N1  UNL     1      14.333   1.912  -3.973  1.00  0.00    -0.066 N 
ATOM      9  H12 UNL     1      14.581   1.719  -3.003  1.00  0.00     0.278 HD
ATOM     10  H11 UNL     1      13.652   1.167  -4.122  1.00  0.00     0.278 HD
BRANCH   8  11
HETATM   11  C10 UNL     1      15.469   1.746  -4.834  1.00  0.00     0.127 C 
HETATM   12  C11 UNL     1      15.246   0.588  -5.795  1.00  0.00     0.043 C 
HETATM   13  C12 UNL     1      16.515   0.405  -6.591  1.00  0.00    -0.012 C 
HETATM   14  C13 UNL     1      17.674   0.079  -5.682  1.00  0.00     0.009 C 
HETATM   15  C17 UNL     1      16.784   1.639  -7.415  1.00  0.00     0.009 C 
HETATM   16  C14 UNL     1      17.914   1.262  -4.776  1.00  0.00    -0.012 C 
HETATM   17  C15 UNL     1      18.218   2.491  -5.605  1.00  0.00     0.009 C 
HETATM   18  C19 UNL     1      16.677   1.476  -3.946  1.00  0.00     0.043 C 
HETATM   19  C16 UNL     1      17.019   2.785  -6.456  1.00  0.00    -0.012 C 
HETATM   20  C18 UNL     1      15.755   2.974  -5.639  1.00  0.00     0.043 C 
ENDBRANCH   8  11
ENDBRANCH   7   8
ENDBRANCH   4   7
BRANCH   1  21
HETATM   21  C4  UNL     1      14.699   5.947   0.695  1.00  0.00     0.037 C 
BRANCH  21  22
HETATM   22  C3  UNL     1      15.945   6.069   1.481  1.00  0.00     0.130 C 
BRANCH  22  23
HETATM   23  C2  UNL     1      16.071   7.512   2.002  1.00  0.00     0.006 C 
HETATM   24  C1  UNL     1      17.448   8.058   1.661  1.00  0.00     0.022 C 
HETATM   25  C22 UNL     1      16.003   7.408   3.470  1.00  0.00    -0.018 C 
HETATM   26  C23 UNL     1      15.618   8.401   4.225  1.00  0.00    -0.022 C 
HETATM   27  C24 UNL     1      15.223   9.698   3.658  1.00  0.00     0.105 C 
HETATM   28  C25 UNL     1      14.532   9.453   2.378  1.00  0.00     0.131 C 
HETATM   29  O2  UNL     1      13.602  10.158   2.059  1.00  0.00    -0.298 OA
HETATM   30  C26 UNL     1      14.961   8.361   1.489  1.00  0.00     0.094 C 
ENDBRANCH  22  23
BRANCH  22  31
HETATM   31  O1  UNL     1      17.114   5.848   0.789  1.00  0.00    -0.394 OA
ATOM     32  H1  UNL     1      16.844   5.383   0.007  1.00  0.00     0.210 HD
ENDBRANCH  22  31
ENDBRANCH  21  22
ENDBRANCH   1  21
TORSDOF 7
ENDMDL
