MODEL 1
REMARK VINA RESULT: -8.616268844      0.000      0.000
REMARK  8 active torsions:
REMARK  status: ('A' for Active; 'I' for Inactive)
REMARK    1  A    between atoms: C7_7  and  O1_9 
REMARK    2  A    between atoms: C14_16  and  C15_17 
REMARK    3  A    between atoms: C15_17  and  C17_19 
REMARK    4  A    between atoms: C17_19  and  C18_20 
REMARK    5  A    between atoms: C18_20  and  C19_21 
REMARK    6  A    between atoms: C19_21  and  O2_22 
REMARK    7  A    between atoms: C20_24  and  C21_25 
REMARK    8  A    between atoms: C21_25  and  N1_26 
ROOT
HETATM    1  C1  UNL     1      15.292  -1.325  -6.867  1.00  0.00     0.036 C 
HETATM    2  C2  UNL     1      15.345   0.042  -6.280  1.00  0.00    -0.024 C 
HETATM    3  C3  UNL     1      14.645   1.032  -6.810  1.00  0.00    -0.059 C 
HETATM    4  C4  UNL     1      13.787   0.770  -8.017  1.00  0.00     0.039 C 
HETATM    5  C5  UNL     1      12.383   1.289  -7.782  1.00  0.00     0.013 C 
HETATM    6  C6  UNL     1      12.347   1.893  -6.373  1.00  0.00     0.032 C 
HETATM    7  C7  UNL     1      10.979   2.137  -5.888  1.00  0.00     0.059 C 
HETATM    8  C8  UNL     1      10.579   1.117  -4.805  1.00  0.00     0.046 C 
HETATM    9  C9  UNL     1      10.637   3.483  -5.369  1.00  0.00     0.038 C 
HETATM   10  C10 UNL     1      11.740   4.245  -4.722  1.00  0.00     0.004 C 
HETATM   11  C11 UNL     1      13.082   3.594  -4.825  1.00  0.00     0.014 C 
HETATM   12  C12 UNL     1      13.347   3.008  -6.223  1.00  0.00    -0.013 C 
HETATM   13  C13 UNL     1      13.164   4.093  -7.247  1.00  0.00     0.021 C 
HETATM   14  C14 UNL     1      14.702   2.377  -6.201  1.00  0.00    -0.061 C 
ENDROOT
BRANCH  14  15
HETATM   15  C15 UNL     1      15.866   3.215  -6.558  1.00  0.00     0.012 C 
HETATM   16  C16 UNL     1      16.696   2.763  -7.721  1.00  0.00     0.015 C 
BRANCH  15  17
HETATM   17  C17 UNL     1      16.764   3.503  -5.376  1.00  0.00     0.015 C 
BRANCH  17  18
HETATM   18  C18 UNL     1      17.246   2.258  -4.669  1.00  0.00     0.065 C 
BRANCH  18  19
HETATM   19  C19 UNL     1      17.035   2.495  -3.209  1.00  0.00     0.041 C 
HETATM   20  C20 UNL     1      16.076   3.263  -2.740  1.00  0.00     0.035 C 
BRANCH  19  21
HETATM   21  O2  UNL     1      17.883   1.884  -2.267  1.00  0.00    -0.365 OA
ATOM     22  H2  UNL     1      18.019   2.287  -1.417  1.00  0.00     0.217 HD
ENDBRANCH  19  21
BRANCH  20  23
HETATM   23  C21 UNL     1      15.869   3.497  -1.303  1.00  0.00     0.302 C 
BRANCH  23  24
HETATM   24  N1  UNL     1      14.678   4.293  -1.099  1.00  0.00     0.091 N 
HETATM   25  C22 UNL     1      14.585   4.856   0.208  1.00  0.00     0.272 C 
HETATM   26  C23 UNL     1      14.971   6.318   0.209  1.00  0.00     0.030 C 
HETATM   27  C24 UNL     1      13.841   7.060  -0.489  1.00  0.00     0.003 C 
HETATM   28  C25 UNL     1      13.505   6.337  -1.792  1.00  0.00     0.030 C 
HETATM   29  C26 UNL     1      14.583   5.315  -2.099  1.00  0.00     0.272 C 
ENDBRANCH  23  24
ENDBRANCH  20  23
ENDBRANCH  18  19
ENDBRANCH  17  18
ENDBRANCH  15  17
ENDBRANCH  14  15
BRANCH   7  30
HETATM   30  O1  UNL     1      10.103   1.897  -6.982  1.00  0.00    -0.390 OA
ATOM     31  H1  UNL     1       9.300   2.372  -6.802  1.00  0.00     0.210 HD
ENDBRANCH   7  30
TORSDOF 8
ENDMDL
MODEL 2
REMARK VINA RESULT: -8.614923051      2.023      2.946
REMARK  8 active torsions:
REMARK  status: ('A' for Active; 'I' for Inactive)
REMARK    1  A    between atoms: C7_7  and  O1_9 
REMARK    2  A    between atoms: C14_16  and  C15_17 
REMARK    3  A    between atoms: C15_17  and  C17_19 
REMARK    4  A    between atoms: C17_19  and  C18_20 
REMARK    5  A    between atoms: C18_20  and  C19_21 
REMARK    6  A    between atoms: C19_21  and  O2_22 
REMARK    7  A    between atoms: C20_24  and  C21_25 
REMARK    8  A    between atoms: C21_25  and  N1_26 
ROOT
HETATM    1  C1  UNL     1      17.061  -0.070  -6.566  1.00  0.00     0.036 C 
HETATM    2  C2  UNL     1      16.111   0.655  -5.677  1.00  0.00    -0.024 C 
HETATM    3  C3  UNL     1      15.340   1.618  -6.155  1.00  0.00    -0.059 C 
HETATM    4  C4  UNL     1      15.424   1.980  -7.612  1.00  0.00     0.039 C 
HETATM    5  C5  UNL     1      14.040   1.990  -8.228  1.00  0.00     0.013 C 
HETATM    6  C6  UNL     1      13.043   1.611  -7.125  1.00  0.00     0.032 C 
HETATM    7  C7  UNL     1      11.713   1.262  -7.649  1.00  0.00     0.059 C 
HETATM    8  C8  UNL     1      11.457  -0.254  -7.562  1.00  0.00     0.046 C 
HETATM    9  C9  UNL     1      10.524   1.940  -7.078  1.00  0.00     0.038 C 
HETATM   10  C10 UNL     1      10.614   2.348  -5.649  1.00  0.00     0.004 C 
HETATM   11  C11 UNL     1      11.962   2.144  -5.034  1.00  0.00     0.014 C 
HETATM   12  C12 UNL     1      13.107   2.573  -5.969  1.00  0.00    -0.013 C 
HETATM   13  C13 UNL     1      12.884   3.999  -6.388  1.00  0.00     0.021 C 
HETATM   14  C14 UNL     1      14.395   2.313  -5.257  1.00  0.00    -0.061 C 
ENDROOT
BRANCH  14  15
HETATM   15  C15 UNL     1      14.955   3.392  -4.416  1.00  0.00     0.012 C 
HETATM   16  C16 UNL     1      16.186   4.078  -4.924  1.00  0.00     0.015 C 
BRANCH  15  17
HETATM   17  C17 UNL     1      15.169   2.964  -2.981  1.00  0.00     0.015 C 
BRANCH  17  18
HETATM   18  C18 UNL     1      13.915   3.019  -2.143  1.00  0.00     0.065 C 
BRANCH  18  19
HETATM   19  C19 UNL     1      13.692   4.460  -1.814  1.00  0.00     0.041 C 
HETATM   20  C20 UNL     1      14.471   5.136  -0.998  1.00  0.00     0.035 C 
BRANCH  19  21
HETATM   21  O2  UNL     1      12.608   5.154  -2.385  1.00  0.00    -0.365 OA
ATOM     22  H2  UNL     1      12.394   6.030  -2.086  1.00  0.00     0.217 HD
ENDBRANCH  19  21
BRANCH  20  23
HETATM   23  C21 UNL     1      14.252   6.553  -0.673  1.00  0.00     0.302 C 
BRANCH  23  24
HETATM   24  N1  UNL     1      14.484   6.778   0.737  1.00  0.00     0.091 N 
HETATM   25  C22 UNL     1      15.629   6.094   1.244  1.00  0.00     0.272 C 
HETATM   26  C23 UNL     1      16.807   7.028   1.400  1.00  0.00     0.030 C 
HETATM   27  C24 UNL     1      16.485   7.931   2.581  1.00  0.00     0.003 C 
HETATM   28  C25 UNL     1      15.067   8.476   2.414  1.00  0.00     0.030 C 
HETATM   29  C26 UNL     1      14.571   8.182   1.011  1.00  0.00     0.272 C 
ENDBRANCH  23  24
ENDBRANCH  20  23
ENDBRANCH  18  19
ENDBRANCH  17  18
ENDBRANCH  15  17
ENDBRANCH  14  15
BRANCH   7  30
HETATM   30  O1  UNL     1      11.720   1.572  -9.036  1.00  0.00    -0.390 OA
ATOM     31  H1  UNL     1      11.587   0.755  -9.502  1.00  0.00     0.210 HD
ENDBRANCH   7  30
TORSDOF 8
ENDMDL
MODEL 3
REMARK VINA RESULT: -8.612728923      1.497      2.204
REMARK  8 active torsions:
REMARK  status: ('A' for Active; 'I' for Inactive)
REMARK    1  A    between atoms: C7_7  and  O1_9 
REMARK    2  A    between atoms: C14_16  and  C15_17 
REMARK    3  A    between atoms: C15_17  and  C17_19 
REMARK    4  A    between atoms: C17_19  and  C18_20 
REMARK    5  A    between atoms: C18_20  and  C19_21 
REMARK    6  A    between atoms: C19_21  and  O2_22 
REMARK    7  A    between atoms: C20_24  and  C21_25 
REMARK    8  A    between atoms: C21_25  and  N1_26 
ROOT
HETATM    1  C1  UNL     1      16.983  -0.320  -7.296  1.00  0.00     0.036 C 
HETATM    2  C2  UNL     1      16.224   0.496  -6.308  1.00  0.00    -0.024 C 
HETATM    3  C3  UNL     1      15.441   1.484  -6.709  1.00  0.00    -0.059 C 
HETATM    4  C4  UNL     1      15.316   1.783  -8.178  1.00  0.00     0.039 C 
HETATM    5  C5  UNL     1      13.855   1.852  -8.574  1.00  0.00     0.013 C 
HETATM    6  C6  UNL     1      13.024   1.579  -7.314  1.00  0.00     0.032 C 
HETATM    7  C7  UNL     1      11.612   1.291  -7.610  1.00  0.00     0.059 C 
HETATM    8  C8  UNL     1      11.291  -0.202  -7.412  1.00  0.00     0.046 C 
HETATM    9  C9  UNL     1      10.564   2.062  -6.898  1.00  0.00     0.038 C 
HETATM   10  C10 UNL     1      10.898   2.520  -5.520  1.00  0.00     0.004 C 
HETATM   11  C11 UNL     1      12.312   2.260  -5.110  1.00  0.00     0.014 C 
HETATM   12  C12 UNL     1      13.318   2.580  -6.230  1.00  0.00    -0.013 C 
HETATM   13  C13 UNL     1      13.110   3.999  -6.678  1.00  0.00     0.021 C 
HETATM   14  C14 UNL     1      14.686   2.271  -5.711  1.00  0.00    -0.061 C 
ENDROOT
BRANCH  14  15
HETATM   15  C15 UNL     1      15.428   3.346  -5.019  1.00  0.00     0.012 C 
HETATM   16  C16 UNL     1      16.455   4.085  -5.821  1.00  0.00     0.015 C 
BRANCH  15  17
HETATM   17  C17 UNL     1      16.037   2.890  -3.713  1.00  0.00     0.015 C 
BRANCH  17  18
HETATM   18  C18 UNL     1      15.168   1.917  -2.952  1.00  0.00     0.065 C 
BRANCH  18  19
HETATM   19  C19 UNL     1      14.796   2.597  -1.674  1.00  0.00     0.041 C 
HETATM   20  C20 UNL     1      14.633   3.898  -1.576  1.00  0.00     0.035 C 
BRANCH  19  21
HETATM   21  O2  UNL     1      14.605   1.840  -0.503  1.00  0.00    -0.365 OA
ATOM     22  H2  UNL     1      13.908   2.066   0.102  1.00  0.00     0.217 HD
ENDBRANCH  19  21
BRANCH  20  23
HETATM   23  C21 UNL     1      14.267   4.567  -0.320  1.00  0.00     0.302 C 
BRANCH  23  24
HETATM   24  N1  UNL     1      14.955   5.837  -0.218  1.00  0.00     0.091 N 
HETATM   25  C22 UNL     1      14.114   6.962  -0.464  1.00  0.00     0.272 C 
HETATM   26  C23 UNL     1      13.701   7.637   0.824  1.00  0.00     0.030 C 
HETATM   27  C24 UNL     1      14.942   8.336   1.359  1.00  0.00     0.003 C 
HETATM   28  C25 UNL     1      16.114   7.355   1.326  1.00  0.00     0.030 C 
HETATM   29  C26 UNL     1      15.598   5.955   1.057  1.00  0.00     0.272 C 
ENDBRANCH  23  24
ENDBRANCH  20  23
ENDBRANCH  18  19
ENDBRANCH  17  18
ENDBRANCH  15  17
ENDBRANCH  14  15
BRANCH   7  30
HETATM   30  O1  UNL     1      11.419   1.544  -8.996  1.00  0.00    -0.390 OA
ATOM     31  H1  UNL     1      11.103   0.736  -9.383  1.00  0.00     0.210 HD
ENDBRANCH   7  30
TORSDOF 8
ENDMDL
MODEL 4
REMARK VINA RESULT: -8.485562942      1.835      3.795
REMARK  8 active torsions:
REMARK  status: ('A' for Active; 'I' for Inactive)
REMARK    1  A    between atoms: C7_7  and  O1_9 
REMARK    2  A    between atoms: C14_16  and  C15_17 
REMARK    3  A    between atoms: C15_17  and  C17_19 
REMARK    4  A    between atoms: C17_19  and  C18_20 
REMARK    5  A    between atoms: C18_20  and  C19_21 
REMARK    6  A    between atoms: C19_21  and  O2_22 
REMARK    7  A    between atoms: C20_24  and  C21_25 
REMARK    8  A    between atoms: C21_25  and  N1_26 
ROOT
HETATM    1  C1  UNL     1      10.930   4.456  -5.178  1.00  0.00     0.036 C 
HETATM    2  C2  UNL     1      12.271   3.872  -5.451  1.00  0.00    -0.024 C 
HETATM    3  C3  UNL     1      12.388   2.712  -6.076  1.00  0.00    -0.059 C 
HETATM    4  C4  UNL     1      11.150   1.979  -6.515  1.00  0.00     0.039 C 
HETATM    5  C5  UNL     1      11.262   1.596  -7.977  1.00  0.00     0.013 C 
HETATM    6  C6  UNL     1      12.614   2.112  -8.485  1.00  0.00     0.032 C 
HETATM    7  C7  UNL     1      12.717   2.102  -9.953  1.00  0.00     0.059 C 
HETATM    8  C8  UNL     1      12.640   3.528 -10.529  1.00  0.00     0.046 C 
HETATM    9  C9  UNL     1      13.886   1.440 -10.580  1.00  0.00     0.038 C 
HETATM   10  C10 UNL     1      15.156   1.460  -9.803  1.00  0.00     0.004 C 
HETATM   11  C11 UNL     1      15.026   2.021  -8.424  1.00  0.00     0.014 C 
HETATM   12  C12 UNL     1      13.759   1.526  -7.704  1.00  0.00    -0.013 C 
HETATM   13  C13 UNL     1      13.755   0.023  -7.707  1.00  0.00     0.021 C 
HETATM   14  C14 UNL     1      13.731   2.159  -6.350  1.00  0.00    -0.061 C 
ENDROOT
BRANCH  14  15
HETATM   15  C15 UNL     1      14.392   1.449  -5.235  1.00  0.00     0.012 C 
HETATM   16  C16 UNL     1      13.507   0.688  -4.295  1.00  0.00     0.015 C 
BRANCH  15  17
HETATM   17  C17 UNL     1      15.324   2.340  -4.444  1.00  0.00     0.015 C 
BRANCH  17  18
HETATM   18  C18 UNL     1      15.676   1.786  -3.085  1.00  0.00     0.065 C 
BRANCH  18  19
HETATM   19  C19 UNL     1      14.952   2.629  -2.086  1.00  0.00     0.041 C 
HETATM   20  C20 UNL     1      14.588   3.870  -2.327  1.00  0.00     0.035 C 
BRANCH  19  21
HETATM   21  O2  UNL     1      14.631   2.103  -0.820  1.00  0.00    -0.365 OA
ATOM     22  H2  UNL     1      15.286   2.086  -0.132  1.00  0.00     0.217 HD
ENDBRANCH  19  21
BRANCH  20  23
HETATM   23  C21 UNL     1      13.877   4.700  -1.345  1.00  0.00     0.302 C 
BRANCH  23  24
HETATM   24  N1  UNL     1      14.739   5.766  -0.882  1.00  0.00     0.091 N 
HETATM   25  C22 UNL     1      14.120   7.051  -0.902  1.00  0.00     0.272 C 
HETATM   26  C23 UNL     1      13.674   7.472   0.479  1.00  0.00     0.030 C 
HETATM   27  C24 UNL     1      14.940   7.792   1.260  1.00  0.00     0.003 C 
HETATM   28  C25 UNL     1      15.939   6.651   1.070  1.00  0.00     0.030 C 
HETATM   29  C26 UNL     1      15.243   5.468   0.426  1.00  0.00     0.272 C 
ENDBRANCH  23  24
ENDBRANCH  20  23
ENDBRANCH  18  19
ENDBRANCH  17  18
ENDBRANCH  15  17
ENDBRANCH  14  15
BRANCH   7  30
HETATM   30  O1  UNL     1      11.566   1.427 -10.444  1.00  0.00    -0.390 OA
ATOM     31  H1  UNL     1      11.876   0.694 -10.963  1.00  0.00     0.210 HD
ENDBRANCH   7  30
TORSDOF 8
ENDMDL
MODEL 5
REMARK VINA RESULT: -8.441434346      2.333      4.236
REMARK  8 active torsions:
REMARK  status: ('A' for Active; 'I' for Inactive)
REMARK    1  A    between atoms: C7_7  and  O1_9 
REMARK    2  A    between atoms: C14_16  and  C15_17 
REMARK    3  A    between atoms: C15_17  and  C17_19 
REMARK    4  A    between atoms: C17_19  and  C18_20 
REMARK    5  A    between atoms: C18_20  and  C19_21 
REMARK    6  A    between atoms: C19_21  and  O2_22 
REMARK    7  A    between atoms: C20_24  and  C21_25 
REMARK    8  A    between atoms: C21_25  and  N1_26 
ROOT
HETATM    1  C1  UNL     1       9.756   3.036  -5.747  1.00  0.00     0.036 C 
HETATM    2  C2  UNL     1      11.218   3.298  -5.648  1.00  0.00    -0.024 C 
HETATM    3  C3  UNL     1      12.094   2.410  -6.089  1.00  0.00    -0.059 C 
HETATM    4  C4  UNL     1      11.604   1.125  -6.698  1.00  0.00     0.039 C 
HETATM    5  C5  UNL     1      12.265   0.901  -8.043  1.00  0.00     0.013 C 
HETATM    6  C6  UNL     1      13.199   2.090  -8.300  1.00  0.00     0.032 C 
HETATM    7  C7  UNL     1      13.652   2.172  -9.698  1.00  0.00     0.059 C 
HETATM    8  C8  UNL     1      12.962   3.330 -10.443  1.00  0.00     0.046 C 
HETATM    9  C9  UNL     1      15.105   2.281  -9.970  1.00  0.00     0.038 C 
HETATM   10  C10 UNL     1      15.923   2.982  -8.941  1.00  0.00     0.004 C 
HETATM   11  C11 UNL     1      15.171   3.346  -7.701  1.00  0.00     0.014 C 
HETATM   12  C12 UNL     1      14.241   2.217  -7.222  1.00  0.00    -0.013 C 
HETATM   13  C13 UNL     1      15.051   0.963  -7.047  1.00  0.00     0.021 C 
HETATM   14  C14 UNL     1      13.540   2.699  -5.993  1.00  0.00    -0.061 C 
ENDROOT
BRANCH  14  15
HETATM   15  C15 UNL     1      14.178   2.447  -4.684  1.00  0.00     0.012 C 
HETATM   16  C16 UNL     1      13.471   1.510  -3.753  1.00  0.00     0.015 C 
BRANCH  15  17
HETATM   17  C17 UNL     1      14.528   3.722  -3.949  1.00  0.00     0.015 C 
BRANCH  17  18
HETATM   18  C18 UNL     1      14.505   3.576  -2.447  1.00  0.00     0.065 C 
BRANCH  18  19
HETATM   19  C19 UNL     1      14.001   4.874  -1.905  1.00  0.00     0.041 C 
HETATM   20  C20 UNL     1      14.640   5.563  -0.985  1.00  0.00     0.035 C 
BRANCH  19  21
HETATM   21  O2  UNL     1      12.789   5.412  -2.379  1.00  0.00    -0.365 OA
ATOM     22  H2  UNL     1      12.085   4.833  -2.647  1.00  0.00     0.217 HD
ENDBRANCH  19  21
BRANCH  20  23
HETATM   23  C21 UNL     1      14.144   6.839  -0.452  1.00  0.00     0.302 C 
BRANCH  23  24
HETATM   24  N1  UNL     1      14.501   6.963   0.945  1.00  0.00     0.091 N 
HETATM   25  C22 UNL     1      15.731   6.324   1.279  1.00  0.00     0.272 C 
HETATM   26  C23 UNL     1      16.858   7.323   1.407  1.00  0.00     0.030 C 
HETATM   27  C24 UNL     1      16.598   8.101   2.689  1.00  0.00     0.003 C 
HETATM   28  C25 UNL     1      15.139   8.554   2.704  1.00  0.00     0.030 C 
HETATM   29  C26 UNL     1      14.525   8.342   1.333  1.00  0.00     0.272 C 
ENDBRANCH  23  24
ENDBRANCH  20  23
ENDBRANCH  18  19
ENDBRANCH  17  18
ENDBRANCH  15  17
ENDBRANCH  14  15
BRANCH   7  30
HETATM   30  O1  UNL     1      13.214   0.985 -10.346  1.00  0.00    -0.390 OA
ATOM     31  H1  UNL     1      12.715   1.253 -11.108  1.00  0.00     0.210 HD
ENDBRANCH   7  30
TORSDOF 8
ENDMDL
