MODEL 1
REMARK VINA RESULT: -8.834681929      0.000      0.000
REMARK  10 active torsions:
REMARK  status: ('A' for Active; 'I' for Inactive)
REMARK    1  A    between atoms: C2_2  and  C4_4 
REMARK    2  A    between atoms: C4_4  and  C5_5 
REMARK    3  A    between atoms: C4_4  and  O3_28 
REMARK    4  A    between atoms: C6_6  and  C7_7 
REMARK    5  A    between atoms: C7_7  and  C8_8 
REMARK    6  A    between atoms: C8_8  and  C10_10 
REMARK    7  A    between atoms: C11_11  and  O1_12 
REMARK    8  A    between atoms: C20_22  and  O2_23 
REMARK    9  A    between atoms: C20_22  and  C21_25 
REMARK   10  A    between atoms: O3_28  and  C24_29 
ROOT
HETATM    1  C10 UNL     1      14.137   2.493  -4.100  1.00  0.00     0.027 C 
HETATM    2  C11 UNL     1      15.048   1.402  -4.531  1.00  0.00     0.124 C 
HETATM    3  C12 UNL     1      14.303   0.736  -5.704  1.00  0.00     0.045 C 
HETATM    4  C13 UNL     1      12.947   1.361  -5.733  1.00  0.00    -0.003 C 
HETATM    5  C14 UNL     1      12.143   0.665  -4.633  1.00  0.00     0.019 C 
HETATM    6  C15 UNL     1      13.285   2.791  -5.301  1.00  0.00    -0.028 C 
HETATM    7  C16 UNL     1      12.106   3.566  -4.816  1.00  0.00     0.016 C 
HETATM    8  C17 UNL     1      14.000   3.519  -6.387  1.00  0.00     0.010 C 
HETATM    9  C18 UNL     1      13.675   3.113  -7.779  1.00  0.00     0.004 C 
HETATM   10  C19 UNL     1      12.375   2.395  -7.945  1.00  0.00     0.039 C 
HETATM   11  C20 UNL     1      12.156   1.267  -6.966  1.00  0.00     0.069 C 
ENDROOT
BRANCH   1  12
HETATM   12  C8  UNL     1      14.683   3.594  -3.313  1.00  0.00    -0.008 C 
HETATM   13  C9  UNL     1      15.705   4.503  -3.868  1.00  0.00     0.011 C 
BRANCH  12  14
HETATM   14  C7  UNL     1      15.277   3.115  -1.972  1.00  0.00     0.031 C 
BRANCH  14  15
HETATM   15  C6  UNL     1      14.291   3.296  -0.877  1.00  0.00    -0.027 C 
HETATM   16  C5  UNL     1      14.168   4.309  -0.070  1.00  0.00     0.006 C 
BRANCH  16  17
HETATM   17  C4  UNL     1      14.959   5.534  -0.021  1.00  0.00     0.182 C 
BRANCH  17  18
HETATM   18  C2  UNL     1      14.144   6.723  -0.403  1.00  0.00    -0.060 C 
HETATM   19  C1  UNL     1      13.909   6.939  -1.684  1.00  0.00     0.017 C 
HETATM   20  C3  UNL     1      13.595   7.664   0.608  1.00  0.00     0.045 C 
ENDBRANCH  17  18
BRANCH  17  21
HETATM   21  O3  UNL     1      15.514   5.814   1.245  1.00  0.00    -0.308 OA
BRANCH  21  22
HETATM   22  C24 UNL     1      16.724   6.457   1.425  1.00  0.00     0.255 C 
HETATM   23  C25 UNL     1      16.781   7.757   2.146  1.00  0.00     0.126 C 
HETATM   24  O4  UNL     1      17.745   5.892   0.955  1.00  0.00    -0.266 OA
ENDBRANCH  21  22
ENDBRANCH  17  21
ENDBRANCH  16  17
ENDBRANCH  14  15
ENDBRANCH  12  14
ENDBRANCH   1  12
BRANCH   2  25
HETATM   25  O1  UNL     1      16.312   1.785  -4.895  1.00  0.00    -0.395 OA
ATOM     26  H1  UNL     1      16.438   1.977  -5.818  1.00  0.00     0.210 HD
ENDBRANCH   2  25
BRANCH  11  27
HETATM   27  O2  UNL     1      10.792   1.417  -6.573  1.00  0.00    -0.389 OA
ATOM     28  H2  UNL     1      10.388   1.972  -7.230  1.00  0.00     0.210 HD
ENDBRANCH  11  27
BRANCH  11  29
HETATM   29  C21 UNL     1      12.165  -0.051  -7.654  1.00  0.00     0.012 C 
HETATM   30  C22 UNL     1      10.791  -0.161  -8.362  1.00  0.00     0.012 C 
HETATM   31  C23 UNL     1      13.164  -0.284  -8.733  1.00  0.00     0.012 C 
ENDBRANCH  11  29
TORSDOF 10
ENDMDL
MODEL 2
REMARK VINA RESULT: -8.790546368      1.530      2.328
REMARK  10 active torsions:
REMARK  status: ('A' for Active; 'I' for Inactive)
REMARK    1  A    between atoms: C2_2  and  C4_4 
REMARK    2  A    between atoms: C4_4  and  C5_5 
REMARK    3  A    between atoms: C4_4  and  O3_28 
REMARK    4  A    between atoms: C6_6  and  C7_7 
REMARK    5  A    between atoms: C7_7  and  C8_8 
REMARK    6  A    between atoms: C8_8  and  C10_10 
REMARK    7  A    between atoms: C11_11  and  O1_12 
REMARK    8  A    between atoms: C20_22  and  O2_23 
REMARK    9  A    between atoms: C20_22  and  C21_25 
REMARK   10  A    between atoms: O3_28  and  C24_29 
ROOT
HETATM    1  C10 UNL     1      14.661   2.906  -4.613  1.00  0.00     0.027 C 
HETATM    2  C11 UNL     1      13.259   2.482  -4.362  1.00  0.00     0.124 C 
HETATM    3  C12 UNL     1      12.720   2.131  -5.762  1.00  0.00     0.045 C 
HETATM    4  C13 UNL     1      13.776   2.562  -6.726  1.00  0.00    -0.003 C 
HETATM    5  C14 UNL     1      13.610   4.076  -6.878  1.00  0.00     0.019 C 
HETATM    6  C15 UNL     1      15.040   2.260  -5.916  1.00  0.00    -0.028 C 
HETATM    7  C16 UNL     1      16.257   2.965  -6.414  1.00  0.00     0.016 C 
HETATM    8  C17 UNL     1      15.269   0.790  -5.820  1.00  0.00     0.010 C 
HETATM    9  C18 UNL     1      14.781  -0.030  -6.958  1.00  0.00     0.004 C 
HETATM   10  C19 UNL     1      14.561   0.718  -8.233  1.00  0.00     0.039 C 
HETATM   11  C20 UNL     1      13.768   1.994  -8.079  1.00  0.00     0.069 C 
ENDROOT
BRANCH   1  12
HETATM   12  C8  UNL     1      15.607   2.896  -3.503  1.00  0.00    -0.008 C 
HETATM   13  C9  UNL     1      15.671   1.765  -2.556  1.00  0.00     0.011 C 
BRANCH  12  14
HETATM   14  C7  UNL     1      15.466   4.144  -2.606  1.00  0.00     0.031 C 
BRANCH  14  15
HETATM   15  C6  UNL     1      14.721   3.807  -1.367  1.00  0.00    -0.027 C 
HETATM   16  C5  UNL     1      14.563   4.538  -0.302  1.00  0.00     0.006 C 
BRANCH  16  17
HETATM   17  C4  UNL     1      15.073   5.879  -0.038  1.00  0.00     0.182 C 
BRANCH  17  18
HETATM   18  C2  UNL     1      14.044   6.919  -0.329  1.00  0.00    -0.060 C 
HETATM   19  C1  UNL     1      13.612   7.044  -1.570  1.00  0.00     0.017 C 
HETATM   20  C3  UNL     1      13.498   7.811   0.728  1.00  0.00     0.045 C 
ENDBRANCH  17  18
BRANCH  17  21
HETATM   21  O3  UNL     1      15.491   6.086   1.294  1.00  0.00    -0.308 OA
BRANCH  21  22
HETATM   22  C24 UNL     1      16.685   6.693   1.634  1.00  0.00     0.255 C 
HETATM   23  C25 UNL     1      16.689   7.917   2.479  1.00  0.00     0.126 C 
HETATM   24  O4  UNL     1      17.739   6.160   1.200  1.00  0.00    -0.266 OA
ENDBRANCH  21  22
ENDBRANCH  17  21
ENDBRANCH  16  17
ENDBRANCH  14  15
ENDBRANCH  12  14
ENDBRANCH   1  12
BRANCH   2  25
HETATM   25  O1  UNL     1      13.096   1.439  -3.489  1.00  0.00    -0.395 OA
ATOM     26  H1  UNL     1      13.632   1.467  -2.705  1.00  0.00     0.210 HD
ENDBRANCH   2  25
BRANCH  11  27
HETATM   27  O2  UNL     1      14.462   2.927  -8.905  1.00  0.00    -0.389 OA
ATOM     28  H2  UNL     1      13.990   3.749  -8.830  1.00  0.00     0.210 HD
ENDBRANCH  11  27
BRANCH  11  29
HETATM   29  C21 UNL     1      12.440   1.882  -8.738  1.00  0.00     0.012 C 
HETATM   30  C22 UNL     1      12.610   2.537 -10.132  1.00  0.00     0.012 C 
HETATM   31  C23 UNL     1      11.897   0.526  -9.022  1.00  0.00     0.012 C 
ENDBRANCH  11  29
TORSDOF 10
ENDMDL
MODEL 3
REMARK VINA RESULT: -8.517757570      1.123      1.669
REMARK  10 active torsions:
REMARK  status: ('A' for Active; 'I' for Inactive)
REMARK    1  A    between atoms: C2_2  and  C4_4 
REMARK    2  A    between atoms: C4_4  and  C5_5 
REMARK    3  A    between atoms: C4_4  and  O3_28 
REMARK    4  A    between atoms: C6_6  and  C7_7 
REMARK    5  A    between atoms: C7_7  and  C8_8 
REMARK    6  A    between atoms: C8_8  and  C10_10 
REMARK    7  A    between atoms: C11_11  and  O1_12 
REMARK    8  A    between atoms: C20_22  and  O2_23 
REMARK    9  A    between atoms: C20_22  and  C21_25 
REMARK   10  A    between atoms: O3_28  and  C24_29 
ROOT
HETATM    1  C10 UNL     1      15.413   2.258  -4.368  1.00  0.00     0.027 C 
HETATM    2  C11 UNL     1      16.145   2.795  -5.545  1.00  0.00     0.124 C 
HETATM    3  C12 UNL     1      15.175   2.571  -6.721  1.00  0.00     0.045 C 
HETATM    4  C13 UNL     1      14.051   1.754  -6.173  1.00  0.00    -0.003 C 
HETATM    5  C14 UNL     1      14.566   0.313  -6.130  1.00  0.00     0.019 C 
HETATM    6  C15 UNL     1      13.961   2.314  -4.750  1.00  0.00    -0.028 C 
HETATM    7  C16 UNL     1      13.227   1.426  -3.801  1.00  0.00     0.016 C 
HETATM    8  C17 UNL     1      13.387   3.689  -4.758  1.00  0.00     0.010 C 
HETATM    9  C18 UNL     1      12.427   3.999  -5.848  1.00  0.00     0.004 C 
HETATM   10  C19 UNL     1      11.801   2.809  -6.501  1.00  0.00     0.039 C 
HETATM   11  C20 UNL     1      12.778   1.731  -6.903  1.00  0.00     0.069 C 
ENDROOT
BRANCH   1  12
HETATM   12  C8  UNL     1      15.823   2.681  -3.034  1.00  0.00    -0.008 C 
HETATM   13  C9  UNL     1      15.782   1.752  -1.886  1.00  0.00     0.011 C 
BRANCH  12  14
HETATM   14  C7  UNL     1      15.049   3.926  -2.552  1.00  0.00     0.031 C 
BRANCH  14  15
HETATM   15  C6  UNL     1      14.441   3.673  -1.221  1.00  0.00    -0.027 C 
HETATM   16  C5  UNL     1      14.436   4.454  -0.181  1.00  0.00     0.006 C 
BRANCH  16  17
HETATM   17  C4  UNL     1      15.022   5.782  -0.039  1.00  0.00     0.182 C 
BRANCH  17  18
HETATM   18  C2  UNL     1      14.027   6.850  -0.345  1.00  0.00    -0.060 C 
HETATM   19  C1  UNL     1      13.598   6.971  -1.587  1.00  0.00     0.017 C 
HETATM   20  C3  UNL     1      13.512   7.775   0.699  1.00  0.00     0.045 C 
ENDBRANCH  17  18
BRANCH  17  21
HETATM   21  O3  UNL     1      15.527   6.057   1.249  1.00  0.00    -0.308 OA
BRANCH  21  22
HETATM   22  C24 UNL     1      16.775   6.605   1.480  1.00  0.00     0.255 C 
HETATM   23  C25 UNL     1      16.904   7.888   2.220  1.00  0.00     0.126 C 
HETATM   24  O4  UNL     1      17.767   5.968   1.040  1.00  0.00    -0.266 OA
ENDBRANCH  21  22
ENDBRANCH  17  21
ENDBRANCH  16  17
ENDBRANCH  14  15
ENDBRANCH  12  14
ENDBRANCH   1  12
BRANCH   2  25
HETATM   25  O1  UNL     1      16.534   4.106  -5.461  1.00  0.00    -0.395 OA
ATOM     26  H1  UNL     1      15.989   4.731  -5.923  1.00  0.00     0.210 HD
ENDBRANCH   2  25
BRANCH  11  27
HETATM   27  O2  UNL     1      12.125   0.521  -6.521  1.00  0.00    -0.389 OA
ATOM     28  H2  UNL     1      11.729   0.690  -5.674  1.00  0.00     0.210 HD
ENDBRANCH  11  27
BRANCH  11  29
HETATM   29  C21 UNL     1      12.869   1.613  -8.382  1.00  0.00     0.012 C 
HETATM   30  C22 UNL     1      11.590   0.855  -8.819  1.00  0.00     0.012 C 
HETATM   31  C23 UNL     1      12.867   2.858  -9.197  1.00  0.00     0.012 C 
ENDBRANCH  11  29
TORSDOF 10
ENDMDL
MODEL 4
REMARK VINA RESULT: -8.434893950      0.959      1.195
REMARK  10 active torsions:
REMARK  status: ('A' for Active; 'I' for Inactive)
REMARK    1  A    between atoms: C2_2  and  C4_4 
REMARK    2  A    between atoms: C4_4  and  C5_5 
REMARK    3  A    between atoms: C4_4  and  O3_28 
REMARK    4  A    between atoms: C6_6  and  C7_7 
REMARK    5  A    between atoms: C7_7  and  C8_8 
REMARK    6  A    between atoms: C8_8  and  C10_10 
REMARK    7  A    between atoms: C11_11  and  O1_12 
REMARK    8  A    between atoms: C20_22  and  O2_23 
REMARK    9  A    between atoms: C20_22  and  C21_25 
REMARK   10  A    between atoms: O3_28  and  C24_29 
ROOT
HETATM    1  C10 UNL     1      14.459   2.053  -4.849  1.00  0.00     0.027 C 
HETATM    2  C11 UNL     1      15.335   0.984  -5.393  1.00  0.00     0.124 C 
HETATM    3  C12 UNL     1      14.470   0.305  -6.472  1.00  0.00     0.045 C 
HETATM    4  C13 UNL     1      13.107   0.900  -6.336  1.00  0.00    -0.003 C 
HETATM    5  C14 UNL     1      12.455   0.183  -5.151  1.00  0.00     0.019 C 
HETATM    6  C15 UNL     1      13.463   2.336  -5.938  1.00  0.00    -0.028 C 
HETATM    7  C16 UNL     1      12.333   3.084  -5.312  1.00  0.00     0.016 C 
HETATM    8  C17 UNL     1      14.027   3.083  -7.098  1.00  0.00     0.010 C 
HETATM    9  C18 UNL     1      13.547   2.674  -8.443  1.00  0.00     0.004 C 
HETATM   10  C19 UNL     1      12.252   1.928  -8.457  1.00  0.00     0.039 C 
HETATM   11  C20 UNL     1      12.176   0.793  -7.465  1.00  0.00     0.069 C 
ENDROOT
BRANCH   1  12
HETATM   12  C8  UNL     1      15.071   3.163  -4.127  1.00  0.00    -0.008 C 
HETATM   13  C9  UNL     1      16.032   4.072  -4.784  1.00  0.00     0.011 C 
BRANCH  12  14
HETATM   14  C7  UNL     1      15.792   2.699  -2.845  1.00  0.00     0.031 C 
BRANCH  14  15
HETATM   15  C6  UNL     1      14.821   2.556  -1.731  1.00  0.00    -0.027 C 
HETATM   16  C5  UNL     1      14.394   3.478  -0.917  1.00  0.00     0.006 C 
BRANCH  16  17
HETATM   17  C4  UNL     1      14.752   4.891  -0.877  1.00  0.00     0.182 C 
BRANCH  17  18
HETATM   18  C2  UNL     1      13.750   5.725  -1.603  1.00  0.00    -0.060 C 
HETATM   19  C1  UNL     1      13.829   7.039  -1.494  1.00  0.00     0.017 C 
HETATM   20  C3  UNL     1      12.674   5.126  -2.435  1.00  0.00     0.045 C 
ENDBRANCH  17  18
BRANCH  17  21
HETATM   21  O3  UNL     1      14.855   5.426   0.424  1.00  0.00    -0.308 OA
BRANCH  21  22
HETATM   22  C24 UNL     1      15.996   6.035   0.911  1.00  0.00     0.255 C 
HETATM   23  C25 UNL     1      15.889   7.224   1.799  1.00  0.00     0.126 C 
HETATM   24  O4  UNL     1      17.099   5.536   0.569  1.00  0.00    -0.266 OA
ENDBRANCH  21  22
ENDBRANCH  17  21
ENDBRANCH  16  17
ENDBRANCH  14  15
ENDBRANCH  12  14
ENDBRANCH   1  12
BRANCH   2  25
HETATM   25  O1  UNL     1      16.538   1.396  -5.903  1.00  0.00    -0.395 OA
ATOM     26  H1  UNL     1      16.809   0.981  -6.714  1.00  0.00     0.210 HD
ENDBRANCH   2  25
BRANCH  11  27
HETATM   27  O2  UNL     1      10.866   0.912  -6.911  1.00  0.00    -0.389 OA
ATOM     28  H2  UNL     1      10.976   1.308  -6.055  1.00  0.00     0.210 HD
ENDBRANCH  11  27
BRANCH  11  29
HETATM   29  C21 UNL     1      12.131  -0.522  -8.157  1.00  0.00     0.012 C 
HETATM   30  C22 UNL     1      10.641  -0.756  -8.512  1.00  0.00     0.012 C 
HETATM   31  C23 UNL     1      12.855  -0.672  -9.450  1.00  0.00     0.012 C 
ENDBRANCH  11  29
TORSDOF 10
ENDMDL
MODEL 5
REMARK VINA RESULT: -8.316989223      1.658      2.539
REMARK  10 active torsions:
REMARK  status: ('A' for Active; 'I' for Inactive)
REMARK    1  A    between atoms: C2_2  and  C4_4 
REMARK    2  A    between atoms: C4_4  and  C5_5 
REMARK    3  A    between atoms: C4_4  and  O3_28 
REMARK    4  A    between atoms: C6_6  and  C7_7 
REMARK    5  A    between atoms: C7_7  and  C8_8 
REMARK    6  A    between atoms: C8_8  and  C10_10 
REMARK    7  A    between atoms: C11_11  and  O1_12 
REMARK    8  A    between atoms: C20_22  and  O2_23 
REMARK    9  A    between atoms: C20_22  and  C21_25 
REMARK   10  A    between atoms: O3_28  and  C24_29 
ROOT
HETATM    1  C10 UNL     1      12.676   2.878  -5.035  1.00  0.00     0.027 C 
HETATM    2  C11 UNL     1      12.412   1.577  -4.368  1.00  0.00     0.124 C 
HETATM    3  C12 UNL     1      12.067   0.626  -5.530  1.00  0.00     0.045 C 
HETATM    4  C13 UNL     1      11.967   1.487  -6.746  1.00  0.00    -0.003 C 
HETATM    5  C14 UNL     1      10.587   2.146  -6.679  1.00  0.00     0.019 C 
HETATM    6  C15 UNL     1      13.051   2.527  -6.447  1.00  0.00    -0.028 C 
HETATM    7  C16 UNL     1      12.925   3.776  -7.254  1.00  0.00     0.016 C 
HETATM    8  C17 UNL     1      14.410   1.930  -6.583  1.00  0.00     0.010 C 
HETATM    9  C18 UNL     1      14.551   0.825  -7.565  1.00  0.00     0.004 C 
HETATM   10  C19 UNL     1      13.482   0.760  -8.607  1.00  0.00     0.039 C 
HETATM   11  C20 UNL     1      12.076   0.855  -8.066  1.00  0.00     0.069 C 
ENDROOT
BRANCH   1  12
HETATM   12  C8  UNL     1      13.441   3.893  -4.318  1.00  0.00    -0.008 C 
HETATM   13  C9  UNL     1      14.916   3.848  -4.263  1.00  0.00     0.011 C 
BRANCH  12  14
HETATM   14  C7  UNL     1      13.002   4.022  -2.844  1.00  0.00     0.031 C 
BRANCH  14  15
HETATM   15  C6  UNL     1      12.839   5.451  -2.478  1.00  0.00    -0.027 C 
HETATM   16  C5  UNL     1      13.544   6.148  -1.636  1.00  0.00     0.006 C 
BRANCH  16  17
HETATM   17  C4  UNL     1      14.679   5.718  -0.827  1.00  0.00     0.182 C 
BRANCH  17  18
HETATM   18  C2  UNL     1      14.830   6.565   0.391  1.00  0.00    -0.060 C 
HETATM   19  C1  UNL     1      13.924   7.496   0.625  1.00  0.00     0.017 C 
HETATM   20  C3  UNL     1      15.962   6.394   1.340  1.00  0.00     0.045 C 
ENDBRANCH  17  18
BRANCH  17  21
HETATM   21  O3  UNL     1      14.598   4.382  -0.382  1.00  0.00    -0.308 OA
BRANCH  21  22
HETATM   22  C24 UNL     1      15.435   3.376  -0.828  1.00  0.00     0.255 C 
HETATM   23  C25 UNL     1      16.827   3.691  -1.248  1.00  0.00     0.126 C 
HETATM   24  O4  UNL     1      14.962   2.211  -0.853  1.00  0.00    -0.266 OA
ENDBRANCH  21  22
ENDBRANCH  17  21
ENDBRANCH  16  17
ENDBRANCH  14  15
ENDBRANCH  12  14
ENDBRANCH   1  12
BRANCH   2  25
HETATM   25  O1  UNL     1      13.432   1.079  -3.601  1.00  0.00    -0.395 OA
ATOM     26  H1  UNL     1      14.138   0.655  -4.074  1.00  0.00     0.210 HD
ENDBRANCH   2  25
BRANCH  11  27
HETATM   27  O2  UNL     1      11.418   1.732  -8.980  1.00  0.00    -0.389 OA
ATOM     28  H2  UNL     1      10.486   1.620  -8.828  1.00  0.00     0.210 HD
ENDBRANCH  11  27
BRANCH  11  29
HETATM   29  C21 UNL     1      11.345  -0.427  -8.243  1.00  0.00     0.012 C 
HETATM   30  C22 UNL     1      10.556  -0.278  -9.568  1.00  0.00     0.012 C 
HETATM   31  C23 UNL     1      12.133  -1.679  -8.413  1.00  0.00     0.012 C 
ENDBRANCH  11  29
TORSDOF 10
ENDMDL
