MODEL 1
REMARK VINA RESULT: -9.069281217      0.000      0.000
REMARK  9 active torsions:
REMARK  status: ('A' for Active; 'I' for Inactive)
REMARK    1  A    between atoms: O1_2  and  C2_3 
REMARK    2  A    between atoms: C2_3  and  O2_4 
REMARK    3  A    between atoms: C2_3  and  C3_6 
REMARK    4  A    between atoms: C3_6  and  C4_7 
REMARK    5  A    between atoms: C4_7  and  C6_9 
REMARK    6  A    between atoms: C14_17  and  C15_18 
REMARK    7  A    between atoms: C15_18  and  O3_19 
REMARK    8  A    between atoms: C15_18  and  C16_21 
REMARK    9  A    between atoms: C17_22  and  C18_23 
ROOT
HETATM    1  C6  UNL     1      13.521   1.463  -7.328  1.00  0.00    -0.002 C 
HETATM    2  C7  UNL     1      13.225   2.840  -7.970  1.00  0.00     0.006 C 
HETATM    3  C8  UNL     1      13.418   3.736  -6.728  1.00  0.00     0.006 C 
HETATM    4  C9  UNL     1      12.551   2.993  -5.787  1.00  0.00    -0.001 C 
HETATM    5  C10 UNL     1      12.532   3.402  -4.397  1.00  0.00    -0.001 C 
HETATM    6  C11 UNL     1      12.231   4.847  -4.104  1.00  0.00     0.006 C 
HETATM    7  C12 UNL     1      12.188   4.742  -2.566  1.00  0.00     0.006 C 
HETATM    8  C13 UNL     1      13.402   3.839  -2.275  1.00  0.00     0.001 A 
HETATM    9  C14 UNL     1      14.635   4.703  -2.358  1.00  0.00     0.024 A 
HETATM   10  C21 UNL     1      14.923   4.037  -3.682  1.00  0.00     0.018 A 
HETATM   11  C22 UNL     1      13.745   3.164  -3.563  1.00  0.00    -0.032 A 
HETATM   12  C23 UNL     1      13.959   1.681  -3.572  1.00  0.00     0.011 C 
HETATM   13  C24 UNL     1      14.220   1.295  -5.016  1.00  0.00     0.011 C 
HETATM   14  C25 UNL     1      13.034   1.559  -5.930  1.00  0.00    -0.036 C 
HETATM   15  C26 UNL     1      11.941   0.591  -5.550  1.00  0.00     0.016 C 
ENDROOT
BRANCH   1  16
HETATM   16  C4  UNL     1      12.833   0.473  -8.223  1.00  0.00    -0.009 C 
HETATM   17  C5  UNL     1      13.778  -0.456  -8.956  1.00  0.00     0.010 C 
BRANCH  16  18
HETATM   18  C3  UNL     1      12.046   1.211  -9.270  1.00  0.00     0.065 C 
BRANCH  18  19
HETATM   19  C2  UNL     1      11.415   0.407 -10.335  1.00  0.00     0.256 C 
BRANCH  19  20
HETATM   20  O1  UNL     1      11.585   0.751 -11.633  1.00  0.00    -0.366 OA
HETATM   21  C1  UNL     1      12.493   1.802 -11.730  1.00  0.00     0.204 C 
ENDBRANCH  19  20
BRANCH  19  22
HETATM   22  O2  UNL     1       9.995   0.372 -10.138  1.00  0.00    -0.371 OA
ATOM     23  H2  UNL     1       9.865   0.585  -9.222  1.00  0.00     0.212 HD
ENDBRANCH  19  22
ENDBRANCH  18  19
ENDBRANCH  16  18
ENDBRANCH   1  16
BRANCH   9  24
HETATM   24  C15 UNL     1      15.654   4.476  -1.267  1.00  0.00     0.145 C 
BRANCH  24  25
HETATM   25  O3  UNL     1      15.866   3.123  -0.988  1.00  0.00    -0.391 OA
ATOM     26  H3  UNL     1      16.095   2.615  -1.758  1.00  0.00     0.210 HD
ENDBRANCH  24  25
BRANCH  24  27
HETATM   27  C16 UNL     1      15.263   5.224  -0.042  1.00  0.00     0.001 C 
HETATM   28  C17 UNL     1      16.141   5.934   0.633  1.00  0.00    -0.024 C 
BRANCH  28  29
HETATM   29  C18 UNL     1      15.810   6.701   1.861  1.00  0.00     0.008 A 
HETATM   30  C19 UNL     1      15.217   8.058   1.765  1.00  0.00     0.009 A 
HETATM   31  C20 UNL     1      16.627   7.848   2.297  1.00  0.00     0.009 A 
ENDBRANCH  28  29
ENDBRANCH  24  27
ENDBRANCH   9  24
TORSDOF 9
ENDMDL
MODEL 2
REMARK VINA RESULT: -8.863766527      1.519      2.345
REMARK  9 active torsions:
REMARK  status: ('A' for Active; 'I' for Inactive)
REMARK    1  A    between atoms: O1_2  and  C2_3 
REMARK    2  A    between atoms: C2_3  and  O2_4 
REMARK    3  A    between atoms: C2_3  and  C3_6 
REMARK    4  A    between atoms: C3_6  and  C4_7 
REMARK    5  A    between atoms: C4_7  and  C6_9 
REMARK    6  A    between atoms: C14_17  and  C15_18 
REMARK    7  A    between atoms: C15_18  and  O3_19 
REMARK    8  A    between atoms: C15_18  and  C16_21 
REMARK    9  A    between atoms: C17_22  and  C18_23 
ROOT
HETATM    1  C6  UNL     1      14.055   3.524  -6.411  1.00  0.00    -0.002 C 
HETATM    2  C7  UNL     1      12.554   3.798  -6.151  1.00  0.00     0.006 C 
HETATM    3  C8  UNL     1      12.625   4.150  -4.650  1.00  0.00     0.006 C 
HETATM    4  C9  UNL     1      13.405   2.979  -4.189  1.00  0.00    -0.001 C 
HETATM    5  C10 UNL     1      13.853   2.948  -2.811  1.00  0.00    -0.001 C 
HETATM    6  C11 UNL     1      12.813   3.137  -1.741  1.00  0.00     0.006 C 
HETATM    7  C12 UNL     1      13.724   2.889  -0.521  1.00  0.00     0.006 C 
HETATM    8  C13 UNL     1      14.993   3.674  -0.907  1.00  0.00     0.001 A 
HETATM    9  C14 UNL     1      14.721   5.131  -0.630  1.00  0.00     0.024 A 
HETATM   10  C21 UNL     1      14.597   5.316  -2.124  1.00  0.00     0.018 A 
HETATM   11  C22 UNL     1      14.915   3.904  -2.381  1.00  0.00    -0.032 A 
HETATM   12  C23 UNL     1      16.111   3.590  -3.229  1.00  0.00     0.011 C 
HETATM   13  C24 UNL     1      15.699   3.860  -4.665  1.00  0.00     0.011 C 
HETATM   14  C25 UNL     1      14.583   2.948  -5.150  1.00  0.00    -0.036 C 
HETATM   15  C26 UNL     1      15.147   1.553  -5.253  1.00  0.00     0.016 C 
ENDROOT
BRANCH   1  16
HETATM   16  C4  UNL     1      14.074   2.640  -7.624  1.00  0.00    -0.009 C 
HETATM   17  C5  UNL     1      15.311   2.800  -8.484  1.00  0.00     0.010 C 
BRANCH  16  18
HETATM   18  C3  UNL     1      12.892   2.964  -8.494  1.00  0.00     0.065 C 
BRANCH  18  19
HETATM   19  C2  UNL     1      12.269   1.847  -9.231  1.00  0.00     0.256 C 
BRANCH  19  20
HETATM   20  O1  UNL     1      11.923   2.004 -10.531  1.00  0.00    -0.366 OA
HETATM   21  C1  UNL     1      12.611   3.083 -11.078  1.00  0.00     0.204 C 
ENDBRANCH  19  20
BRANCH  19  22
HETATM   22  O2  UNL     1      11.062   1.442  -8.568  1.00  0.00    -0.371 OA
ATOM     23  H2  UNL     1      10.890   2.123  -7.929  1.00  0.00     0.212 HD
ENDBRANCH  19  22
ENDBRANCH  18  19
ENDBRANCH  16  18
ENDBRANCH   1  16
BRANCH   9  24
HETATM   24  C15 UNL     1      15.848   5.880   0.039  1.00  0.00     0.145 C 
BRANCH  24  25
HETATM   25  O3  UNL     1      17.012   5.118   0.166  1.00  0.00    -0.391 OA
ATOM     26  H3  UNL     1      16.985   4.516   0.901  1.00  0.00     0.210 HD
ENDBRANCH  24  25
BRANCH  24  27
HETATM   27  C16 UNL     1      15.398   6.403   1.358  1.00  0.00     0.001 C 
HETATM   28  C17 UNL     1      15.413   7.693   1.621  1.00  0.00    -0.024 C 
BRANCH  28  29
HETATM   29  C18 UNL     1      14.978   8.273   2.917  1.00  0.00     0.008 A 
HETATM   30  C19 UNL     1      15.020   9.740   3.137  1.00  0.00     0.009 A 
HETATM   31  C20 UNL     1      15.950   8.800   3.890  1.00  0.00     0.009 A 
ENDBRANCH  28  29
ENDBRANCH  24  27
ENDBRANCH   9  24
TORSDOF 9
ENDMDL
MODEL 3
REMARK VINA RESULT: -8.831442111      1.632      2.447
REMARK  9 active torsions:
REMARK  status: ('A' for Active; 'I' for Inactive)
REMARK    1  A    between atoms: O1_2  and  C2_3 
REMARK    2  A    between atoms: C2_3  and  O2_4 
REMARK    3  A    between atoms: C2_3  and  C3_6 
REMARK    4  A    between atoms: C3_6  and  C4_7 
REMARK    5  A    between atoms: C4_7  and  C6_9 
REMARK    6  A    between atoms: C14_17  and  C15_18 
REMARK    7  A    between atoms: C15_18  and  O3_19 
REMARK    8  A    between atoms: C15_18  and  C16_21 
REMARK    9  A    between atoms: C17_22  and  C18_23 
ROOT
HETATM    1  C6  UNL     1      12.571  -0.363  -6.992  1.00  0.00    -0.002 C 
HETATM    2  C7  UNL     1      13.893  -0.563  -7.772  1.00  0.00     0.006 C 
HETATM    3  C8  UNL     1      14.840   0.245  -6.860  1.00  0.00     0.006 C 
HETATM    4  C9  UNL     1      14.046   1.491  -6.770  1.00  0.00    -0.001 C 
HETATM    5  C10 UNL     1      14.492   2.531  -5.865  1.00  0.00    -0.001 C 
HETATM    6  C11 UNL     1      15.909   3.014  -6.013  1.00  0.00     0.006 C 
HETATM    7  C12 UNL     1      15.847   4.155  -4.976  1.00  0.00     0.006 C 
HETATM    8  C13 UNL     1      15.075   3.492  -3.819  1.00  0.00     0.001 A 
HETATM    9  C14 UNL     1      16.053   2.624  -3.067  1.00  0.00     0.024 A 
HETATM   10  C21 UNL     1      15.378   1.436  -3.710  1.00  0.00     0.018 A 
HETATM   11  C22 UNL     1      14.399   2.291  -4.396  1.00  0.00    -0.032 A 
HETATM   12  C23 UNL     1      12.944   2.071  -4.112  1.00  0.00     0.011 C 
HETATM   13  C24 UNL     1      12.542   0.827  -4.883  1.00  0.00     0.011 C 
HETATM   14  C25 UNL     1      12.661   0.990  -6.390  1.00  0.00    -0.036 C 
HETATM   15  C26 UNL     1      11.603   1.973  -6.827  1.00  0.00     0.016 C 
ENDROOT
BRANCH   1  16
HETATM   16  C4  UNL     1      11.493  -0.584  -8.012  1.00  0.00    -0.009 C 
HETATM   17  C5  UNL     1      10.836  -1.946  -7.929  1.00  0.00     0.010 C 
BRANCH  16  18
HETATM   18  C3  UNL     1      12.080  -0.465  -9.391  1.00  0.00     0.065 C 
BRANCH  18  19
HETATM   19  C2  UNL     1      11.389   0.424 -10.346  1.00  0.00     0.256 C 
BRANCH  19  20
HETATM   20  O1  UNL     1      11.647   1.753 -10.341  1.00  0.00    -0.366 OA
HETATM   21  C1  UNL     1      13.021   1.969 -10.395  1.00  0.00     0.204 C 
ENDBRANCH  19  20
BRANCH  19  22
HETATM   22  O2  UNL     1       9.969   0.317 -10.168  1.00  0.00    -0.371 OA
ATOM     23  H2  UNL     1       9.848  -0.407  -9.564  1.00  0.00     0.212 HD
ENDBRANCH  19  22
ENDBRANCH  18  19
ENDBRANCH  16  18
ENDBRANCH   1  16
BRANCH   9  24
HETATM   24  C15 UNL     1      15.959   2.705  -1.562  1.00  0.00     0.145 C 
BRANCH  24  25
HETATM   25  O3  UNL     1      15.677   1.473  -0.964  1.00  0.00    -0.391 OA
ATOM     26  H3  UNL     1      15.402   1.553  -0.058  1.00  0.00     0.210 HD
ENDBRANCH  24  25
BRANCH  24  27
HETATM   27  C16 UNL     1      14.960   3.736  -1.170  1.00  0.00     0.001 C 
HETATM   28  C17 UNL     1      15.302   4.772  -0.435  1.00  0.00    -0.024 C 
BRANCH  28  29
HETATM   29  C18 UNL     1      14.351   5.832  -0.013  1.00  0.00     0.008 A 
HETATM   30  C19 UNL     1      13.868   6.842  -0.986  1.00  0.00     0.009 A 
HETATM   31  C20 UNL     1      14.784   7.229   0.165  1.00  0.00     0.009 A 
ENDBRANCH  28  29
ENDBRANCH  24  27
ENDBRANCH   9  24
TORSDOF 9
ENDMDL
MODEL 4
REMARK VINA RESULT: -8.602362462      1.938      3.045
REMARK  9 active torsions:
REMARK  status: ('A' for Active; 'I' for Inactive)
REMARK    1  A    between atoms: O1_2  and  C2_3 
REMARK    2  A    between atoms: C2_3  and  O2_4 
REMARK    3  A    between atoms: C2_3  and  C3_6 
REMARK    4  A    between atoms: C3_6  and  C4_7 
REMARK    5  A    between atoms: C4_7  and  C6_9 
REMARK    6  A    between atoms: C14_17  and  C15_18 
REMARK    7  A    between atoms: C15_18  and  O3_19 
REMARK    8  A    between atoms: C15_18  and  C16_21 
REMARK    9  A    between atoms: C17_22  and  C18_23 
ROOT
HETATM    1  C6  UNL     1      13.294   1.562  -7.125  1.00  0.00    -0.002 C 
HETATM    2  C7  UNL     1      13.063   3.008  -7.626  1.00  0.00     0.006 C 
HETATM    3  C8  UNL     1      13.493   3.779  -6.361  1.00  0.00     0.006 C 
HETATM    4  C9  UNL     1      12.675   3.044  -5.370  1.00  0.00    -0.001 C 
HETATM    5  C10 UNL     1      12.865   3.338  -3.964  1.00  0.00    -0.001 C 
HETATM    6  C11 UNL     1      12.747   4.775  -3.536  1.00  0.00     0.006 C 
HETATM    7  C12 UNL     1      12.880   4.551  -2.016  1.00  0.00     0.006 C 
HETATM    8  C13 UNL     1      14.024   3.520  -1.946  1.00  0.00     0.001 A 
HETATM    9  C14 UNL     1      15.318   4.274  -2.125  1.00  0.00     0.024 A 
HETATM   10  C21 UNL     1      15.376   3.694  -3.518  1.00  0.00     0.018 A 
HETATM   11  C22 UNL     1      14.140   2.925  -3.311  1.00  0.00    -0.032 A 
HETATM   12  C23 UNL     1      14.203   1.433  -3.449  1.00  0.00     0.011 C 
HETATM   13  C24 UNL     1      14.248   1.144  -4.938  1.00  0.00     0.011 C 
HETATM   14  C25 UNL     1      12.992   1.587  -5.673  1.00  0.00    -0.036 C 
HETATM   15  C26 UNL     1      11.862   0.694  -5.224  1.00  0.00     0.016 C 
ENDROOT
BRANCH   1  16
HETATM   16  C4  UNL     1      12.409   0.714  -7.991  1.00  0.00    -0.009 C 
HETATM   17  C5  UNL     1      13.023  -0.610  -8.392  1.00  0.00     0.010 C 
BRANCH  16  18
HETATM   18  C3  UNL     1      12.099   1.455  -9.262  1.00  0.00     0.065 C 
BRANCH  18  19
HETATM   19  C2  UNL     1      11.554   0.670 -10.387  1.00  0.00     0.256 C 
BRANCH  19  20
HETATM   20  O1  UNL     1      11.656   1.141 -11.652  1.00  0.00    -0.366 OA
HETATM   21  C1  UNL     1      12.735   2.015 -11.747  1.00  0.00     0.204 C 
ENDBRANCH  19  20
BRANCH  19  22
HETATM   22  O2  UNL     1      10.152   0.441 -10.184  1.00  0.00    -0.371 OA
ATOM     23  H2  UNL     1      10.100  -0.381  -9.712  1.00  0.00     0.212 HD
ENDBRANCH  19  22
ENDBRANCH  18  19
ENDBRANCH  16  18
ENDBRANCH   1  16
BRANCH   9  24
HETATM   24  C15 UNL     1      16.433   3.868  -1.192  1.00  0.00     0.145 C 
BRANCH  24  25
HETATM   25  O3  UNL     1      16.987   4.947  -0.499  1.00  0.00    -0.391 OA
ATOM     26  H3  UNL     1      17.928   4.875  -0.387  1.00  0.00     0.210 HD
ENDBRANCH  24  25
BRANCH  24  27
HETATM   27  C16 UNL     1      17.476   3.117  -1.943  1.00  0.00     0.001 C 
HETATM   28  C17 UNL     1      18.249   2.237  -1.342  1.00  0.00    -0.024 C 
BRANCH  28  29
HETATM   29  C18 UNL     1      19.305   1.459  -2.037  1.00  0.00     0.008 A 
HETATM   30  C19 UNL     1      20.302   2.143  -2.897  1.00  0.00     0.009 A 
HETATM   31  C20 UNL     1      19.253   1.216  -3.489  1.00  0.00     0.009 A 
ENDBRANCH  28  29
ENDBRANCH  24  27
ENDBRANCH   9  24
TORSDOF 9
ENDMDL
MODEL 5
REMARK VINA RESULT: -8.601635819      2.340      9.392
REMARK  9 active torsions:
REMARK  status: ('A' for Active; 'I' for Inactive)
REMARK    1  A    between atoms: O1_2  and  C2_3 
REMARK    2  A    between atoms: C2_3  and  O2_4 
REMARK    3  A    between atoms: C2_3  and  C3_6 
REMARK    4  A    between atoms: C3_6  and  C4_7 
REMARK    5  A    between atoms: C4_7  and  C6_9 
REMARK    6  A    between atoms: C14_17  and  C15_18 
REMARK    7  A    between atoms: C15_18  and  O3_19 
REMARK    8  A    between atoms: C15_18  and  C16_21 
REMARK    9  A    between atoms: C17_22  and  C18_23 
ROOT
HETATM    1  C6  UNL     1      13.773   4.476  -2.037  1.00  0.00    -0.002 C 
HETATM    2  C7  UNL     1      12.586   5.331  -2.543  1.00  0.00     0.006 C 
HETATM    3  C8  UNL     1      12.111   4.430  -3.702  1.00  0.00     0.006 C 
HETATM    4  C9  UNL     1      13.415   4.237  -4.376  1.00  0.00    -0.001 C 
HETATM    5  C10 UNL     1      13.488   3.306  -5.484  1.00  0.00    -0.001 C 
HETATM    6  C11 UNL     1      12.519   3.500  -6.617  1.00  0.00     0.006 C 
HETATM    7  C12 UNL     1      13.073   2.407  -7.554  1.00  0.00     0.006 C 
HETATM    8  C13 UNL     1      13.326   1.246  -6.571  1.00  0.00     0.001 A 
HETATM    9  C14 UNL     1      11.996   0.589  -6.300  1.00  0.00     0.024 A 
HETATM   10  C21 UNL     1      12.027   1.255  -4.946  1.00  0.00     0.018 A 
HETATM   11  C22 UNL     1      13.347   1.847  -5.204  1.00  0.00    -0.032 A 
HETATM   12  C23 UNL     1      14.472   1.501  -4.276  1.00  0.00     0.011 C 
HETATM   13  C24 UNL     1      14.249   2.311  -3.012  1.00  0.00     0.011 C 
HETATM   14  C25 UNL     1      14.331   3.812  -3.240  1.00  0.00    -0.036 C 
HETATM   15  C26 UNL     1      15.767   4.146  -3.564  1.00  0.00     0.016 C 
ENDROOT
BRANCH   1  16
HETATM   16  C4  UNL     1      14.662   5.450  -1.320  1.00  0.00    -0.009 C 
HETATM   17  C5  UNL     1      15.289   4.898  -0.058  1.00  0.00     0.010 C 
BRANCH  16  18
HETATM   18  C3  UNL     1      13.859   6.655  -0.918  1.00  0.00     0.065 C 
BRANCH  18  19
HETATM   19  C2  UNL     1      14.180   7.281   0.380  1.00  0.00     0.256 C 
BRANCH  19  20
HETATM   20  O1  UNL     1      13.351   8.213   0.905  1.00  0.00    -0.366 OA
HETATM   21  C1  UNL     1      14.027   8.965   1.862  1.00  0.00     0.204 C 
ENDBRANCH  19  20
BRANCH  19  22
HETATM   22  O2  UNL     1      15.463   7.920   0.305  1.00  0.00    -0.371 OA
ATOM     23  H2  UNL     1      16.047   7.364   0.807  1.00  0.00     0.212 HD
ENDBRANCH  19  22
ENDBRANCH  18  19
ENDBRANCH  16  18
ENDBRANCH   1  16
BRANCH   9  24
HETATM   24  C15 UNL     1      12.014  -0.920  -6.297  1.00  0.00     0.145 C 
BRANCH  24  25
HETATM   25  O3  UNL     1      13.280  -1.453  -6.038  1.00  0.00    -0.391 OA
ATOM     26  H3  UNL     1      13.630  -1.953  -6.766  1.00  0.00     0.210 HD
ENDBRANCH  24  25
BRANCH  24  27
HETATM   27  C16 UNL     1      11.463  -1.438  -7.579  1.00  0.00     0.001 C 
HETATM   28  C17 UNL     1      10.852  -0.641  -8.430  1.00  0.00    -0.024 C 
BRANCH  28  29
HETATM   29  C18 UNL     1      10.283  -1.099  -9.723  1.00  0.00     0.008 A 
HETATM   30  C19 UNL     1      10.441  -2.509 -10.158  1.00  0.00     0.009 A 
HETATM   31  C20 UNL     1      11.141  -1.373 -10.888  1.00  0.00     0.009 A 
ENDBRANCH  28  29
ENDBRANCH  24  27
ENDBRANCH   9  24
TORSDOF 9
ENDMDL
