MODEL 1
REMARK VINA RESULT: -9.263973338      0.000      0.000
REMARK  9 active torsions:
REMARK  status: ('A' for Active; 'I' for Inactive)
REMARK    1  A    between atoms: C2_2  and  N1_3 
REMARK    2  A    between atoms: C2_2  and  C3_7 
REMARK    3  A    between atoms: C8_12  and  O1_13 
REMARK    4  A    between atoms: O1_13  and  C9_14 
REMARK    5  A    between atoms: C9_14  and  O2_15 
REMARK    6  A    between atoms: C14_21  and  C15_22 
REMARK    7  A    between atoms: C15_22  and  C16_23 
REMARK    8  A    between atoms: C16_23  and  C17_24 
REMARK    9  A    between atoms: C17_24  and  C19_26 
ROOT
HETATM    1  C3  UNL     1      14.155   5.200  -2.163  1.00  0.00     0.024 C 
HETATM    2  C4  UNL     1      12.711   4.881  -2.167  1.00  0.00     0.034 C 
HETATM    3  C5  UNL     1      12.318   4.662  -3.591  1.00  0.00    -0.023 C 
HETATM    4  C6  UNL     1      13.132   4.038  -4.353  1.00  0.00    -0.072 C 
HETATM    5  C7  UNL     1      12.847   3.752  -5.774  1.00  0.00     0.066 C 
HETATM    6  C8  UNL     1      12.625   2.222  -5.804  1.00  0.00     0.128 C 
HETATM    7  C10 UNL     1      13.500   1.437  -4.920  1.00  0.00     0.033 C 
HETATM    8  C11 UNL     1      13.934   2.031  -3.598  1.00  0.00     0.016 C 
HETATM    9  C12 UNL     1      14.424   3.448  -3.846  1.00  0.00    -0.017 C 
HETATM   10  C13 UNL     1      15.378   3.495  -5.062  1.00  0.00     0.020 C 
HETATM   11  C14 UNL     1      15.080   4.183  -2.753  1.00  0.00     0.004 C 
ENDROOT
BRANCH  11  12
HETATM   12  C15 UNL     1      15.813   3.391  -1.716  1.00  0.00     0.006 C 
BRANCH  12  13
HETATM   13  C16 UNL     1      17.316   3.349  -1.864  1.00  0.00     0.005 C 
BRANCH  13  14
HETATM   14  C17 UNL     1      17.782   2.014  -2.361  1.00  0.00    -0.014 C 
HETATM   15  C18 UNL     1      18.435   1.233  -1.202  1.00  0.00     0.010 C 
BRANCH  14  16
HETATM   16  C19 UNL     1      18.766   2.008  -3.468  1.00  0.00     0.001 A 
HETATM   17  C20 UNL     1      20.030   1.312  -3.012  1.00  0.00     0.033 A 
HETATM   18  C21 UNL     1      20.342   0.345  -4.071  1.00  0.00    -0.023 A 
HETATM   19  C22 UNL     1      19.481   0.384  -5.044  1.00  0.00    -0.079 A 
HETATM   20  C23 UNL     1      19.049  -0.153  -6.353  1.00  0.00     0.034 C 
HETATM   21  C26 UNL     1      18.429   1.437  -4.762  1.00  0.00     0.019 A 
HETATM   22  C24 UNL     1      17.577  -0.418  -6.044  1.00  0.00     0.005 C 
HETATM   23  C25 UNL     1      17.212   0.595  -4.931  1.00  0.00     0.010 C 
ENDBRANCH  14  16
ENDBRANCH  13  14
ENDBRANCH  12  13
ENDBRANCH  11  12
BRANCH   1  24
HETATM   24  C2  UNL     1      14.629   5.752  -0.823  1.00  0.00     0.184 C 
HETATM   25  C1  UNL     1      13.874   7.068  -0.589  1.00  0.00     0.040 C 
BRANCH  24  26
HETATM   26  N1  UNL     1      14.203   4.879   0.254  1.00  0.00    -0.075 N 
ATOM     27  H13 UNL     1      14.871   4.814   1.022  1.00  0.00     0.274 HD
ATOM     28  H12 UNL     1      13.428   5.249   0.804  1.00  0.00     0.274 HD
ATOM     29  H11 UNL     1      14.001   3.986  -0.195  1.00  0.00     0.274 HD
ENDBRANCH  24  26
ENDBRANCH   1  24
BRANCH   6  30
HETATM   30  O1  UNL     1      11.293   2.005  -5.457  1.00  0.00    -0.362 OA
BRANCH  30  31
HETATM   31  C9  UNL     1      10.430   2.218  -6.525  1.00  0.00     0.335 C 
BRANCH  31  32
HETATM   32  O2  UNL     1       9.100   2.194  -6.186  1.00  0.00    -0.377 OA
ATOM     33  H2  UNL     1       8.557   1.685  -6.776  1.00  0.00     0.212 HD
ENDBRANCH  31  32
ENDBRANCH  30  31
ENDBRANCH   6  30
TORSDOF 9
ENDMDL
MODEL 2
REMARK VINA RESULT: -8.926571140      3.082      6.274
REMARK  9 active torsions:
REMARK  status: ('A' for Active; 'I' for Inactive)
REMARK    1  A    between atoms: C2_2  and  N1_3 
REMARK    2  A    between atoms: C2_2  and  C3_7 
REMARK    3  A    between atoms: C8_12  and  O1_13 
REMARK    4  A    between atoms: O1_13  and  C9_14 
REMARK    5  A    between atoms: C9_14  and  O2_15 
REMARK    6  A    between atoms: C14_21  and  C15_22 
REMARK    7  A    between atoms: C15_22  and  C16_23 
REMARK    8  A    between atoms: C16_23  and  C17_24 
REMARK    9  A    between atoms: C17_24  and  C19_26 
ROOT
HETATM    1  C3  UNL     1      17.454   1.905  -6.664  1.00  0.00     0.024 C 
HETATM    2  C4  UNL     1      17.398   2.790  -7.848  1.00  0.00     0.034 C 
HETATM    3  C5  UNL     1      16.292   2.286  -8.715  1.00  0.00    -0.023 C 
HETATM    4  C6  UNL     1      15.223   1.873  -8.151  1.00  0.00    -0.072 C 
HETATM    5  C7  UNL     1      14.059   1.365  -8.905  1.00  0.00     0.066 C 
HETATM    6  C8  UNL     1      12.989   2.465  -8.716  1.00  0.00     0.128 C 
HETATM    7  C10 UNL     1      12.954   3.093  -7.386  1.00  0.00     0.033 C 
HETATM    8  C11 UNL     1      14.247   3.269  -6.621  1.00  0.00     0.016 C 
HETATM    9  C12 UNL     1      15.011   1.956  -6.660  1.00  0.00    -0.017 C 
HETATM   10  C13 UNL     1      14.078   0.768  -6.332  1.00  0.00     0.020 C 
HETATM   11  C14 UNL     1      16.217   1.801  -5.830  1.00  0.00     0.004 C 
ENDROOT
BRANCH  11  12
HETATM   12  C15 UNL     1      16.301   2.590  -4.561  1.00  0.00     0.006 C 
BRANCH  12  13
HETATM   13  C16 UNL     1      15.832   1.877  -3.315  1.00  0.00     0.005 C 
BRANCH  13  14
HETATM   14  C17 UNL     1      14.632   2.548  -2.716  1.00  0.00    -0.014 C 
HETATM   15  C18 UNL     1      13.349   1.863  -3.229  1.00  0.00     0.010 C 
BRANCH  14  16
HETATM   16  C19 UNL     1      14.462   3.995  -2.984  1.00  0.00     0.001 A 
HETATM   17  C20 UNL     1      13.016   4.273  -3.333  1.00  0.00     0.033 A 
HETATM   18  C21 UNL     1      12.626   5.410  -2.489  1.00  0.00    -0.023 A 
HETATM   19  C22 UNL     1      13.603   5.823  -1.737  1.00  0.00    -0.079 A 
HETATM   20  C23 UNL     1      14.071   6.778  -0.709  1.00  0.00     0.034 C 
HETATM   21  C26 UNL     1      14.841   4.987  -1.990  1.00  0.00     0.019 A 
HETATM   22  C24 UNL     1      14.707   5.799   0.275  1.00  0.00     0.005 C 
HETATM   23  C25 UNL     1      15.137   4.586  -0.587  1.00  0.00     0.010 C 
ENDBRANCH  14  16
ENDBRANCH  13  14
ENDBRANCH  12  13
ENDBRANCH  11  12
BRANCH   1  24
HETATM   24  C2  UNL     1      18.727   2.101  -5.846  1.00  0.00     0.184 C 
HETATM   25  C1  UNL     1      19.162   0.713  -5.355  1.00  0.00     0.040 C 
BRANCH  24  26
HETATM   26  N1  UNL     1      19.806   2.551  -6.704  1.00  0.00    -0.075 N 
ATOM     27  H13 UNL     1      20.057   3.531  -6.573  1.00  0.00     0.274 HD
ATOM     28  H12 UNL     1      20.717   2.163  -6.460  1.00  0.00     0.274 HD
ATOM     29  H11 UNL     1      19.500   2.325  -7.651  1.00  0.00     0.274 HD
ENDBRANCH  24  26
ENDBRANCH   1  24
BRANCH   6  30
HETATM   30  O1  UNL     1      13.238   3.435  -9.685  1.00  0.00    -0.362 OA
BRANCH  30  31
HETATM   31  C9  UNL     1      13.096   2.938 -10.975  1.00  0.00     0.335 C 
BRANCH  31  32
HETATM   32  O2  UNL     1      12.045   3.478 -11.674  1.00  0.00    -0.377 OA
ATOM     33  H2  UNL     1      11.850   4.379 -11.445  1.00  0.00     0.212 HD
ENDBRANCH  31  32
ENDBRANCH  30  31
ENDBRANCH   6  30
TORSDOF 9
ENDMDL
MODEL 3
REMARK VINA RESULT: -8.885796648      2.551      5.959
REMARK  9 active torsions:
REMARK  status: ('A' for Active; 'I' for Inactive)
REMARK    1  A    between atoms: C2_2  and  N1_3 
REMARK    2  A    between atoms: C2_2  and  C3_7 
REMARK    3  A    between atoms: C8_12  and  O1_13 
REMARK    4  A    between atoms: O1_13  and  C9_14 
REMARK    5  A    between atoms: C9_14  and  O2_15 
REMARK    6  A    between atoms: C14_21  and  C15_22 
REMARK    7  A    between atoms: C15_22  and  C16_23 
REMARK    8  A    between atoms: C16_23  and  C17_24 
REMARK    9  A    between atoms: C17_24  and  C19_26 
ROOT
HETATM    1  C3  UNL     1      15.079   2.093  -4.963  1.00  0.00     0.024 C 
HETATM    2  C4  UNL     1      15.143   2.247  -6.432  1.00  0.00     0.034 C 
HETATM    3  C5  UNL     1      14.199   1.249  -7.016  1.00  0.00    -0.023 C 
HETATM    4  C6  UNL     1      13.084   1.054  -6.423  1.00  0.00    -0.072 C 
HETATM    5  C7  UNL     1      12.066   0.102  -6.914  1.00  0.00     0.066 C 
HETATM    6  C8  UNL     1      10.923   1.012  -7.418  1.00  0.00     0.128 C 
HETATM    7  C10 UNL     1      10.668   2.215  -6.611  1.00  0.00     0.033 C 
HETATM    8  C11 UNL     1      11.829   2.904  -5.928  1.00  0.00     0.016 C 
HETATM    9  C12 UNL     1      12.660   1.850  -5.214  1.00  0.00    -0.017 C 
HETATM   10  C13 UNL     1      11.755   0.888  -4.411  1.00  0.00     0.020 C 
HETATM   11  C14 UNL     1      13.744   2.277  -4.315  1.00  0.00     0.004 C 
ENDROOT
BRANCH  11  12
HETATM   12  C15 UNL     1      13.606   3.601  -3.631  1.00  0.00     0.006 C 
BRANCH  12  13
HETATM   13  C16 UNL     1      13.389   3.547  -2.137  1.00  0.00     0.005 C 
BRANCH  13  14
HETATM   14  C17 UNL     1      13.793   4.831  -1.476  1.00  0.00    -0.014 C 
HETATM   15  C18 UNL     1      14.622   5.679  -2.462  1.00  0.00     0.010 C 
BRANCH  14  16
HETATM   16  C19 UNL     1      14.600   4.731  -0.238  1.00  0.00     0.001 A 
HETATM   17  C20 UNL     1      16.057   4.546  -0.604  1.00  0.00     0.033 A 
HETATM   18  C21 UNL     1      16.786   5.535   0.201  1.00  0.00    -0.023 A 
HETATM   19  C22 UNL     1      15.994   6.232   0.960  1.00  0.00    -0.079 A 
HETATM   20  C23 UNL     1      15.854   7.307   1.967  1.00  0.00     0.034 C 
HETATM   21  C26 UNL     1      14.560   5.782   0.765  1.00  0.00     0.019 A 
HETATM   22  C24 UNL     1      14.740   8.122   1.316  1.00  0.00     0.005 C 
HETATM   23  C25 UNL     1      13.945   7.104   0.461  1.00  0.00     0.010 C 
ENDBRANCH  14  16
ENDBRANCH  13  14
ENDBRANCH  12  13
ENDBRANCH  11  12
BRANCH   1  24
HETATM   24  C2  UNL     1      16.211   2.822  -4.247  1.00  0.00     0.184 C 
HETATM   25  C1  UNL     1      16.702   1.896  -3.125  1.00  0.00     0.040 C 
BRANCH  24  26
HETATM   26  N1  UNL     1      17.348   2.970  -5.136  1.00  0.00    -0.075 N 
ATOM     27  H13 UNL     1      17.690   3.927  -5.213  1.00  0.00     0.274 HD
ATOM     28  H12 UNL     1      18.211   2.566  -4.773  1.00  0.00     0.274 HD
ATOM     29  H11 UNL     1      17.043   2.567  -6.022  1.00  0.00     0.274 HD
ENDBRANCH  24  26
ENDBRANCH   1  24
BRANCH   6  30
HETATM   30  O1  UNL     1      11.254   1.384  -8.720  1.00  0.00    -0.362 OA
BRANCH  30  31
HETATM   31  C9  UNL     1      11.092   0.339  -9.622  1.00  0.00     0.335 C 
BRANCH  31  32
HETATM   32  O2  UNL     1       9.836   0.261 -10.171  1.00  0.00    -0.377 OA
ATOM     33  H2  UNL     1       9.708  -0.488 -10.741  1.00  0.00     0.212 HD
ENDBRANCH  31  32
ENDBRANCH  30  31
ENDBRANCH   6  30
TORSDOF 9
ENDMDL
MODEL 4
REMARK VINA RESULT: -8.885642390      1.333      1.537
REMARK  9 active torsions:
REMARK  status: ('A' for Active; 'I' for Inactive)
REMARK    1  A    between atoms: C2_2  and  N1_3 
REMARK    2  A    between atoms: C2_2  and  C3_7 
REMARK    3  A    between atoms: C8_12  and  O1_13 
REMARK    4  A    between atoms: O1_13  and  C9_14 
REMARK    5  A    between atoms: C9_14  and  O2_15 
REMARK    6  A    between atoms: C14_21  and  C15_22 
REMARK    7  A    between atoms: C15_22  and  C16_23 
REMARK    8  A    between atoms: C16_23  and  C17_24 
REMARK    9  A    between atoms: C17_24  and  C19_26 
ROOT
HETATM    1  C3  UNL     1      13.855   4.492  -3.420  1.00  0.00     0.024 C 
HETATM    2  C4  UNL     1      12.435   4.167  -3.676  1.00  0.00     0.034 C 
HETATM    3  C5  UNL     1      12.236   4.225  -5.155  1.00  0.00    -0.023 C 
HETATM    4  C6  UNL     1      13.162   3.768  -5.907  1.00  0.00    -0.072 C 
HETATM    5  C7  UNL     1      13.072   3.760  -7.382  1.00  0.00     0.066 C 
HETATM    6  C8  UNL     1      12.910   2.264  -7.733  1.00  0.00     0.128 C 
HETATM    7  C10 UNL     1      13.690   1.330  -6.907  1.00  0.00     0.033 C 
HETATM    8  C11 UNL     1      13.930   1.660  -5.450  1.00  0.00     0.016 C 
HETATM    9  C12 UNL     1      14.399   3.103  -5.356  1.00  0.00    -0.017 C 
HETATM   10  C13 UNL     1      15.498   3.394  -6.403  1.00  0.00     0.020 C 
HETATM   11  C14 UNL     1      14.883   3.618  -4.065  1.00  0.00     0.004 C 
ENDROOT
BRANCH  11  12
HETATM   12  C15 UNL     1      15.503   2.646  -3.111  1.00  0.00     0.006 C 
BRANCH  12  13
HETATM   13  C16 UNL     1      16.928   2.945  -2.705  1.00  0.00     0.005 C 
BRANCH  13  14
HETATM   14  C17 UNL     1      17.806   1.739  -2.852  1.00  0.00    -0.014 C 
HETATM   15  C18 UNL     1      18.673   1.576  -1.588  1.00  0.00     0.010 C 
BRANCH  14  16
HETATM   16  C19 UNL     1      18.743   1.720  -4.000  1.00  0.00     0.001 A 
HETATM   17  C20 UNL     1      20.040   1.066  -3.576  1.00  0.00     0.033 A 
HETATM   18  C21 UNL     1      20.330   0.072  -4.618  1.00  0.00    -0.023 A 
HETATM   19  C22 UNL     1      19.428   0.063  -5.554  1.00  0.00    -0.079 A 
HETATM   20  C23 UNL     1      18.954  -0.525  -6.826  1.00  0.00     0.034 C 
HETATM   21  C26 UNL     1      18.365   1.101  -5.260  1.00  0.00     0.019 A 
HETATM   22  C24 UNL     1      17.503  -0.811  -6.447  1.00  0.00     0.005 C 
HETATM   23  C25 UNL     1      17.162   0.228  -5.351  1.00  0.00     0.010 C 
ENDBRANCH  14  16
ENDBRANCH  13  14
ENDBRANCH  12  13
ENDBRANCH  11  12
BRANCH   1  24
HETATM   24  C2  UNL     1      14.133   4.778  -1.948  1.00  0.00     0.184 C 
HETATM   25  C1  UNL     1      13.642   6.206  -1.668  1.00  0.00     0.040 C 
BRANCH  24  26
HETATM   26  N1  UNL     1      13.309   3.928  -1.111  1.00  0.00    -0.075 N 
ATOM     27  H13 UNL     1      12.308   4.053  -1.253  1.00  0.00     0.274 HD
ATOM     28  H12 UNL     1      13.341   2.941  -1.366  1.00  0.00     0.274 HD
ATOM     29  H11 UNL     1      13.618   4.118  -0.157  1.00  0.00     0.274 HD
ENDBRANCH  24  26
ENDBRANCH   1  24
BRANCH   6  30
HETATM   30  O1  UNL     1      11.552   1.971  -7.614  1.00  0.00    -0.362 OA
BRANCH  30  31
HETATM   31  C9  UNL     1      11.231   0.733  -8.157  1.00  0.00     0.335 C 
BRANCH  31  32
HETATM   32  O2  UNL     1      10.361   0.794  -9.218  1.00  0.00    -0.377 OA
ATOM     33  H2  UNL     1       9.455   0.626  -8.987  1.00  0.00     0.212 HD
ENDBRANCH  31  32
ENDBRANCH  30  31
ENDBRANCH   6  30
TORSDOF 9
ENDMDL
MODEL 5
REMARK VINA RESULT: -8.692094559      2.053      2.830
REMARK  9 active torsions:
REMARK  status: ('A' for Active; 'I' for Inactive)
REMARK    1  A    between atoms: C2_2  and  N1_3 
REMARK    2  A    between atoms: C2_2  and  C3_7 
REMARK    3  A    between atoms: C8_12  and  O1_13 
REMARK    4  A    between atoms: O1_13  and  C9_14 
REMARK    5  A    between atoms: C9_14  and  O2_15 
REMARK    6  A    between atoms: C14_21  and  C15_22 
REMARK    7  A    between atoms: C15_22  and  C16_23 
REMARK    8  A    between atoms: C16_23  and  C17_24 
REMARK    9  A    between atoms: C17_24  and  C19_26 
ROOT
HETATM    1  C3  UNL     1      14.687   3.366  -3.046  1.00  0.00     0.024 C 
HETATM    2  C4  UNL     1      13.269   3.057  -3.329  1.00  0.00     0.034 C 
HETATM    3  C5  UNL     1      12.957   3.632  -4.671  1.00  0.00    -0.023 C 
HETATM    4  C6  UNL     1      13.844   3.546  -5.586  1.00  0.00    -0.072 C 
HETATM    5  C7  UNL     1      13.645   4.067  -6.954  1.00  0.00     0.066 C 
HETATM    6  C8  UNL     1      13.526   2.792  -7.820  1.00  0.00     0.128 C 
HETATM    7  C10 UNL     1      14.408   1.680  -7.436  1.00  0.00     0.033 C 
HETATM    8  C11 UNL     1      14.741   1.475  -5.974  1.00  0.00     0.016 C 
HETATM    9  C12 UNL     1      15.148   2.815  -5.382  1.00  0.00    -0.017 C 
HETATM   10  C13 UNL     1      16.151   3.542  -6.307  1.00  0.00     0.020 C 
HETATM   11  C14 UNL     1      15.703   2.860  -4.020  1.00  0.00     0.004 C 
ENDROOT
BRANCH  11  12
HETATM   12  C15 UNL     1      16.437   1.654  -3.522  1.00  0.00     0.006 C 
BRANCH  12  13
HETATM   13  C16 UNL     1      17.867   1.888  -3.096  1.00  0.00     0.005 C 
BRANCH  13  14
HETATM   14  C17 UNL     1      18.823   1.663  -4.229  1.00  0.00    -0.014 C 
HETATM   15  C18 UNL     1      18.418   0.389  -4.998  1.00  0.00     0.010 C 
BRANCH  14  16
HETATM   16  C19 UNL     1      20.255   1.501  -3.886  1.00  0.00     0.001 A 
HETATM   17  C20 UNL     1      20.691   0.090  -4.215  1.00  0.00     0.033 A 
HETATM   18  C21 UNL     1      21.931   0.239  -4.988  1.00  0.00    -0.023 A 
HETATM   19  C22 UNL     1      22.269   1.485  -5.140  1.00  0.00    -0.079 A 
HETATM   20  C23 UNL     1      23.231   2.459  -5.702  1.00  0.00     0.034 C 
HETATM   21  C26 UNL     1      21.262   2.383  -4.453  1.00  0.00     0.019 A 
HETATM   22  C24 UNL     1      22.256   3.407  -6.396  1.00  0.00     0.005 C 
HETATM   23  C25 UNL     1      20.935   3.278  -5.598  1.00  0.00     0.010 C 
ENDBRANCH  14  16
ENDBRANCH  13  14
ENDBRANCH  12  13
ENDBRANCH  11  12
BRANCH   1  24
HETATM   24  C2  UNL     1      15.061   3.118  -1.589  1.00  0.00     0.184 C 
HETATM   25  C1  UNL     1      15.315   4.492  -0.952  1.00  0.00     0.040 C 
BRANCH  24  26
HETATM   26  N1  UNL     1      13.925   2.575  -0.869  1.00  0.00    -0.075 N 
ATOM     27  H13 UNL     1      14.180   2.035  -0.042  1.00  0.00     0.274 HD
ATOM     28  H12 UNL     1      13.370   3.279  -0.382  1.00  0.00     0.274 HD
ATOM     29  H11 UNL     1      13.401   2.044  -1.565  1.00  0.00     0.274 HD
ENDBRANCH  24  26
ENDBRANCH   1  24
BRANCH   6  30
HETATM   30  O1  UNL     1      12.195   2.381  -7.745  1.00  0.00    -0.362 OA
BRANCH  30  31
HETATM   31  C9  UNL     1      11.937   1.284  -8.557  1.00  0.00     0.335 C 
BRANCH  31  32
HETATM   32  O2  UNL     1      10.602   1.046  -8.771  1.00  0.00    -0.377 OA
ATOM     33  H2  UNL     1      10.022   1.579  -8.239  1.00  0.00     0.212 HD
ENDBRANCH  31  32
ENDBRANCH  30  31
ENDBRANCH   6  30
TORSDOF 9
ENDMDL
