MODEL 1
REMARK VINA RESULT: -8.962355593      0.000      0.000
REMARK  5 active torsions:
REMARK  status: ('A' for Active; 'I' for Inactive)
REMARK    1  A    between atoms: C3_3  and  C4_4 
REMARK    2  A    between atoms: C13_14  and  O2_15 
REMARK    3  A    between atoms: C22_25  and  O3_26 
REMARK    4  A    between atoms: C22_25  and  C23_28 
REMARK    5  A    between atoms: C23_28  and  C24_30 
ROOT
HETATM    1  C4  UNL     1      15.675   3.468  -3.139  1.00  0.00     0.051 C 
HETATM    2  C5  UNL     1      16.248   2.267  -3.848  1.00  0.00     0.018 C 
HETATM    3  C6  UNL     1      15.087   1.511  -4.427  1.00  0.00     0.002 C 
HETATM    4  C7  UNL     1      15.126   1.243  -5.859  1.00  0.00    -0.005 C 
HETATM    5  C8  UNL     1      16.388   0.566  -6.339  1.00  0.00     0.006 C 
HETATM    6  C9  UNL     1      16.046  -0.091  -7.645  1.00  0.00     0.013 C 
HETATM    7  C10 UNL     1      15.391   0.821  -8.638  1.00  0.00     0.064 C 
HETATM    8  C11 UNL     1      14.131   0.271  -9.191  1.00  0.00     0.134 C 
HETATM    9  O1  UNL     1      13.565  -0.630  -8.650  1.00  0.00    -0.297 OA
HETATM   10  C12 UNL     1      13.598   0.872 -10.438  1.00  0.00     0.110 C 
HETATM   11  C13 UNL     1      14.046   2.320 -10.449  1.00  0.00     0.126 C 
HETATM   12  C14 UNL     1      14.015   2.789  -9.014  1.00  0.00     0.042 C 
HETATM   13  C15 UNL     1      15.157   2.215  -8.186  1.00  0.00    -0.027 C 
HETATM   14  C16 UNL     1      16.396   3.032  -8.588  1.00  0.00     0.016 C 
HETATM   15  C17 UNL     1      14.888   2.425  -6.749  1.00  0.00    -0.001 C 
HETATM   16  C18 UNL     1      13.439   2.834  -6.443  1.00  0.00     0.007 C 
HETATM   17  C19 UNL     1      13.407   3.287  -4.994  1.00  0.00     0.013 C 
HETATM   18  C20 UNL     1      13.874   2.285  -4.013  1.00  0.00    -0.001 C 
HETATM   19  C21 UNL     1      12.725   1.324  -3.660  1.00  0.00     0.019 C 
HETATM   20  C22 UNL     1      14.341   2.872  -2.704  1.00  0.00     0.133 C 
ENDROOT
BRANCH  20  21
HETATM   21  O3  UNL     1      14.679   1.739  -1.920  1.00  0.00    -0.381 OA
ATOM     22  H3  UNL     1      13.890   1.210  -1.894  1.00  0.00     0.211 HD
ENDBRANCH  20  21
BRANCH  20  23
HETATM   23  C23 UNL     1      13.448   3.766  -2.003  1.00  0.00     0.176 C 
HETATM   24  O4  UNL     1      13.189   3.442  -0.817  1.00  0.00    -0.293 OA
BRANCH  23  25
HETATM   25  C24 UNL     1      12.807   4.995  -2.470  1.00  0.00     0.196 C 
HETATM   26 CL1  UNL     1      13.609   6.400  -1.699  1.00  0.00    -0.122 Cl
ENDBRANCH  23  25
ENDBRANCH  20  23
BRANCH   1  27
HETATM   27  C3  UNL     1      16.418   3.982  -1.990  1.00  0.00    -0.023 C 
HETATM   28  C2  UNL     1      17.370   3.509  -1.248  1.00  0.00    -0.034 C 
HETATM   29  C1  UNL     1      18.069   2.209  -1.326  1.00  0.00     0.036 C 
ENDBRANCH   1  27
BRANCH  11  30
HETATM   30  O2  UNL     1      15.231   2.533 -11.089  1.00  0.00    -0.395 OA
ATOM     31  H2  UNL     1      15.189   3.185 -11.779  1.00  0.00     0.210 HD
ENDBRANCH  11  30
TORSDOF 5
ENDMDL
MODEL 2
REMARK VINA RESULT: -8.706038106      1.059      1.206
REMARK  5 active torsions:
REMARK  status: ('A' for Active; 'I' for Inactive)
REMARK    1  A    between atoms: C3_3  and  C4_4 
REMARK    2  A    between atoms: C13_14  and  O2_15 
REMARK    3  A    between atoms: C22_25  and  O3_26 
REMARK    4  A    between atoms: C22_25  and  C23_28 
REMARK    5  A    between atoms: C23_28  and  C24_30 
ROOT
HETATM    1  C4  UNL     1      16.741   2.576  -3.103  1.00  0.00     0.051 C 
HETATM    2  C5  UNL     1      16.622   1.295  -3.888  1.00  0.00     0.018 C 
HETATM    3  C6  UNL     1      15.190   1.185  -4.324  1.00  0.00     0.002 C 
HETATM    4  C7  UNL     1      14.948   1.022  -5.752  1.00  0.00    -0.005 C 
HETATM    5  C8  UNL     1      15.702  -0.120  -6.392  1.00  0.00     0.006 C 
HETATM    6  C9  UNL     1      14.960  -0.465  -7.650  1.00  0.00     0.013 C 
HETATM    7  C10 UNL     1      14.691   0.708  -8.546  1.00  0.00     0.064 C 
HETATM    8  C11 UNL     1      13.268   0.823  -8.941  1.00  0.00     0.134 C 
HETATM    9  O1  UNL     1      12.414   0.242  -8.341  1.00  0.00    -0.297 OA
HETATM   10  C12 UNL     1      12.937   1.680 -10.105  1.00  0.00     0.110 C 
HETATM   11  C13 UNL     1      13.992   2.766 -10.160  1.00  0.00     0.126 C 
HETATM   12  C14 UNL     1      14.333   3.105  -8.729  1.00  0.00     0.042 C 
HETATM   13  C15 UNL     1      15.169   2.024  -8.056  1.00  0.00    -0.027 C 
HETATM   14  C16 UNL     1      16.593   2.217  -8.602  1.00  0.00     0.016 C 
HETATM   15  C17 UNL     1      15.181   2.239  -6.594  1.00  0.00    -0.001 C 
HETATM   16  C18 UNL     1      14.122   3.237  -6.105  1.00  0.00     0.007 C 
HETATM   17  C19 UNL     1      14.456   3.561  -4.660  1.00  0.00     0.013 C 
HETATM   18  C20 UNL     1      14.516   2.394  -3.754  1.00  0.00    -0.001 C 
HETATM   19  C21 UNL     1      13.101   2.035  -3.268  1.00  0.00     0.019 C 
HETATM   20  C22 UNL     1      15.337   2.621  -2.509  1.00  0.00     0.133 C 
ENDROOT
BRANCH  20  21
HETATM   21  O3  UNL     1      15.204   1.408  -1.783  1.00  0.00    -0.381 OA
ATOM     22  H3  UNL     1      16.042   0.971  -1.875  1.00  0.00     0.211 HD
ENDBRANCH  20  21
BRANCH  20  23
HETATM   23  C23 UNL     1      15.033   3.774  -1.693  1.00  0.00     0.176 C 
HETATM   24  O4  UNL     1      14.758   3.524  -0.493  1.00  0.00    -0.293 OA
BRANCH  23  25
HETATM   25  C24 UNL     1      15.002   5.190  -2.059  1.00  0.00     0.196 C 
HETATM   26 CL1  UNL     1      13.305   5.765  -2.023  1.00  0.00    -0.122 Cl
ENDBRANCH  23  25
ENDBRANCH  20  23
BRANCH   1  27
HETATM   27  C3  UNL     1      17.755   2.623  -2.051  1.00  0.00    -0.023 C 
HETATM   28  C2  UNL     1      18.957   2.152  -1.937  1.00  0.00    -0.034 C 
HETATM   29  C1  UNL     1      19.756   1.362  -2.897  1.00  0.00     0.036 C 
ENDBRANCH   1  27
BRANCH  11  30
HETATM   30  O2  UNL     1      15.067   2.462 -10.942  1.00  0.00    -0.395 OA
ATOM     31  H2  UNL     1      15.760   3.112 -10.920  1.00  0.00     0.210 HD
ENDBRANCH  11  30
TORSDOF 5
ENDMDL
MODEL 3
REMARK VINA RESULT: -8.655262608      1.721      2.262
REMARK  5 active torsions:
REMARK  status: ('A' for Active; 'I' for Inactive)
REMARK    1  A    between atoms: C3_3  and  C4_4 
REMARK    2  A    between atoms: C13_14  and  O2_15 
REMARK    3  A    between atoms: C22_25  and  O3_26 
REMARK    4  A    between atoms: C22_25  and  C23_28 
REMARK    5  A    between atoms: C23_28  and  C24_30 
ROOT
HETATM    1  C4  UNL     1      15.050   2.047  -4.389  1.00  0.00     0.051 C 
HETATM    2  C5  UNL     1      14.537   0.828  -5.113  1.00  0.00     0.018 C 
HETATM    3  C6  UNL     1      13.248   1.225  -5.772  1.00  0.00     0.002 C 
HETATM    4  C7  UNL     1      13.150   1.004  -7.209  1.00  0.00    -0.005 C 
HETATM    5  C8  UNL     1      13.468  -0.405  -7.653  1.00  0.00     0.006 C 
HETATM    6  C9  UNL     1      12.821  -0.581  -8.996  1.00  0.00     0.013 C 
HETATM    7  C10 UNL     1      13.157   0.494  -9.986  1.00  0.00     0.064 C 
HETATM    8  C11 UNL     1      11.961   1.099 -10.617  1.00  0.00     0.134 C 
HETATM    9  O1  UNL     1      10.877   0.962 -10.135  1.00  0.00    -0.297 OA
HETATM   10  C12 UNL     1      12.152   1.877 -11.865  1.00  0.00     0.110 C 
HETATM   11  C13 UNL     1      13.548   2.463 -11.804  1.00  0.00     0.126 C 
HETATM   12  C14 UNL     1      13.805   2.807 -10.356  1.00  0.00     0.042 C 
HETATM   13  C15 UNL     1      14.049   1.574  -9.497  1.00  0.00    -0.027 C 
HETATM   14  C16 UNL     1      15.491   1.142  -9.810  1.00  0.00     0.016 C 
HETATM   15  C17 UNL     1      13.955   1.934  -8.067  1.00  0.00    -0.001 C 
HETATM   16  C18 UNL     1      13.323   3.311  -7.815  1.00  0.00     0.007 C 
HETATM   17  C19 UNL     1      13.566   3.646  -6.354  1.00  0.00     0.013 C 
HETATM   18  C20 UNL     1      13.041   2.657  -5.388  1.00  0.00    -0.001 C 
HETATM   19  C21 UNL     1      11.549   2.926  -5.124  1.00  0.00     0.019 C 
HETATM   20  C22 UNL     1      13.714   2.693  -4.039  1.00  0.00     0.133 C 
ENDROOT
BRANCH  20  21
HETATM   21  O3  UNL     1      13.018   1.717  -3.280  1.00  0.00    -0.381 OA
ATOM     22  H3  UNL     1      12.687   2.182  -2.521  1.00  0.00     0.211 HD
ENDBRANCH  20  21
BRANCH  20  23
HETATM   23  C23 UNL     1      13.787   3.961  -3.349  1.00  0.00     0.176 C 
HETATM   24  O4  UNL     1      14.898   4.543  -3.415  1.00  0.00    -0.293 OA
BRANCH  23  25
HETATM   25  C24 UNL     1      12.755   4.667  -2.588  1.00  0.00     0.196 C 
HETATM   26 CL1  UNL     1      13.476   6.132  -1.850  1.00  0.00    -0.122 Cl
ENDBRANCH  23  25
ENDBRANCH  20  23
BRANCH   1  27
HETATM   27  C3  UNL     1      15.853   1.823  -3.188  1.00  0.00    -0.023 C 
HETATM   28  C2  UNL     1      17.120   1.667  -2.968  1.00  0.00    -0.034 C 
HETATM   29  C1  UNL     1      18.251   1.669  -3.922  1.00  0.00     0.036 C 
ENDBRANCH   1  27
BRANCH  11  30
HETATM   30  O2  UNL     1      14.507   1.683 -12.379  1.00  0.00    -0.395 OA
ATOM     31  H2  UNL     1      15.005   1.159 -11.762  1.00  0.00     0.210 HD
ENDBRANCH  11  30
TORSDOF 5
ENDMDL
MODEL 4
REMARK VINA RESULT: -8.632638702      1.662      2.029
REMARK  5 active torsions:
REMARK  status: ('A' for Active; 'I' for Inactive)
REMARK    1  A    between atoms: C3_3  and  C4_4 
REMARK    2  A    between atoms: C13_14  and  O2_15 
REMARK    3  A    between atoms: C22_25  and  O3_26 
REMARK    4  A    between atoms: C22_25  and  C23_28 
REMARK    5  A    between atoms: C23_28  and  C24_30 
ROOT
HETATM    1  C4  UNL     1      15.403   2.221  -2.890  1.00  0.00     0.051 C 
HETATM    2  C5  UNL     1      14.519   1.135  -3.449  1.00  0.00     0.018 C 
HETATM    3  C6  UNL     1      13.421   1.819  -4.212  1.00  0.00     0.002 C 
HETATM    4  C7  UNL     1      13.246   1.427  -5.605  1.00  0.00    -0.005 C 
HETATM    5  C8  UNL     1      13.089  -0.059  -5.825  1.00  0.00     0.006 C 
HETATM    6  C9  UNL     1      12.409  -0.220  -7.153  1.00  0.00     0.013 C 
HETATM    7  C10 UNL     1      13.066   0.528  -8.275  1.00  0.00     0.064 C 
HETATM    8  C11 UNL     1      12.124   1.381  -9.036  1.00  0.00     0.134 C 
HETATM    9  O1  UNL     1      11.057   1.672  -8.584  1.00  0.00    -0.297 OA
HETATM   10  C12 UNL     1      12.545   1.860 -10.375  1.00  0.00     0.110 C 
HETATM   11  C13 UNL     1      14.056   1.970 -10.342  1.00  0.00     0.126 C 
HETATM   12  C14 UNL     1      14.422   2.428  -8.950  1.00  0.00     0.042 C 
HETATM   13  C15 UNL     1      14.262   1.327  -7.911  1.00  0.00    -0.027 C 
HETATM   14  C16 UNL     1      15.486   0.415  -8.098  1.00  0.00     0.016 C 
HETATM   15  C17 UNL     1      14.300   1.910  -6.554  1.00  0.00    -0.001 C 
HETATM   16  C18 UNL     1      14.148   3.438  -6.531  1.00  0.00     0.007 C 
HETATM   17  C19 UNL     1      14.498   3.894  -5.126  1.00  0.00     0.013 C 
HETATM   18  C20 UNL     1      13.689   3.283  -4.049  1.00  0.00    -0.001 C 
HETATM   19  C21 UNL     1      12.366   4.052  -3.889  1.00  0.00     0.019 C 
HETATM   20  C22 UNL     1      14.349   3.306  -2.693  1.00  0.00     0.133 C 
ENDROOT
BRANCH  20  21
HETATM   21  O3  UNL     1      13.381   2.729  -1.830  1.00  0.00    -0.381 OA
ATOM     22  H3  UNL     1      12.713   2.376  -2.406  1.00  0.00     0.211 HD
ENDBRANCH  20  21
BRANCH  20  23
HETATM   23  C23 UNL     1      14.832   4.572  -2.192  1.00  0.00     0.176 C 
HETATM   24  O4  UNL     1      15.762   5.091  -2.857  1.00  0.00    -0.293 OA
BRANCH  23  25
HETATM   25  C24 UNL     1      14.393   5.340  -1.026  1.00  0.00     0.196 C 
HETATM   26 CL1  UNL     1      13.575   6.833  -1.586  1.00  0.00    -0.122 Cl
ENDBRANCH  23  25
ENDBRANCH  20  23
BRANCH   1  27
HETATM   27  C3  UNL     1      16.100   1.936  -1.637  1.00  0.00    -0.023 C 
HETATM   28  C2  UNL     1      17.348   1.825  -1.306  1.00  0.00    -0.034 C 
HETATM   29  C1  UNL     1      18.561   1.962  -2.140  1.00  0.00     0.036 C 
ENDBRANCH   1  27
BRANCH  11  30
HETATM   30  O2  UNL     1      14.708   0.847 -10.758  1.00  0.00    -0.395 OA
ATOM     31  H2  UNL     1      15.630   0.825 -10.530  1.00  0.00     0.210 HD
ENDBRANCH  11  30
TORSDOF 5
ENDMDL
MODEL 5
REMARK VINA RESULT: -8.469787431      3.738      6.051
REMARK  5 active torsions:
REMARK  status: ('A' for Active; 'I' for Inactive)
REMARK    1  A    between atoms: C3_3  and  C4_4 
REMARK    2  A    between atoms: C13_14  and  O2_15 
REMARK    3  A    between atoms: C22_25  and  O3_26 
REMARK    4  A    between atoms: C22_25  and  C23_28 
REMARK    5  A    between atoms: C23_28  and  C24_30 
ROOT
HETATM    1  C4  UNL     1      14.630   1.457  -6.459  1.00  0.00     0.051 C 
HETATM    2  C5  UNL     1      15.804   1.834  -7.325  1.00  0.00     0.018 C 
HETATM    3  C6  UNL     1      16.724   2.659  -6.472  1.00  0.00     0.002 C 
HETATM    4  C7  UNL     1      18.105   2.206  -6.366  1.00  0.00    -0.005 C 
HETATM    5  C8  UNL     1      18.798   1.982  -7.690  1.00  0.00     0.006 C 
HETATM    6  C9  UNL     1      20.272   2.052  -7.414  1.00  0.00     0.013 C 
HETATM    7  C10 UNL     1      20.730   1.167  -6.293  1.00  0.00     0.064 C 
HETATM    8  C11 UNL     1      21.532   1.885  -5.275  1.00  0.00     0.134 C 
HETATM    9  O1  UNL     1      21.516   3.078  -5.210  1.00  0.00    -0.297 OA
HETATM   10  C12 UNL     1      22.356   1.078  -4.343  1.00  0.00     0.110 C 
HETATM   11  C13 UNL     1      21.650  -0.253  -4.179  1.00  0.00     0.126 C 
HETATM   12  C14 UNL     1      20.169   0.041  -4.214  1.00  0.00     0.042 C 
HETATM   13  C15 UNL     1      19.673   0.379  -5.613  1.00  0.00    -0.027 C 
HETATM   14  C16 UNL     1      19.578  -0.971  -6.344  1.00  0.00     0.016 C 
HETATM   15  C17 UNL     1      18.325   0.978  -5.535  1.00  0.00    -0.001 C 
HETATM   16  C18 UNL     1      17.921   1.414  -4.118  1.00  0.00     0.007 C 
HETATM   17  C19 UNL     1      16.436   1.727  -4.160  1.00  0.00     0.013 C 
HETATM   18  C20 UNL     1      16.040   2.757  -5.144  1.00  0.00    -0.001 C 
HETATM   19  C21 UNL     1      16.243   4.159  -4.544  1.00  0.00     0.019 C 
HETATM   20  C22 UNL     1      14.592   2.690  -5.561  1.00  0.00     0.133 C 
ENDROOT
BRANCH  20  21
HETATM   21  O3  UNL     1      14.437   3.788  -6.447  1.00  0.00    -0.381 OA
ATOM     22  H3  UNL     1      14.075   4.486  -5.914  1.00  0.00     0.211 HD
ENDBRANCH  20  21
BRANCH  20  23
HETATM   23  C23 UNL     1      13.585   2.686  -4.525  1.00  0.00     0.176 C 
HETATM   24  O4  UNL     1      13.485   1.613  -3.879  1.00  0.00    -0.293 OA
BRANCH  23  25
HETATM   25  C24 UNL     1      12.669   3.751  -4.115  1.00  0.00     0.196 C 
HETATM   26 CL1  UNL     1      11.321   3.845  -5.292  1.00  0.00    -0.122 Cl
ENDBRANCH  23  25
ENDBRANCH  20  23
BRANCH   1  27
HETATM   27  C3  UNL     1      13.345   1.258  -7.126  1.00  0.00    -0.023 C 
HETATM   28  C2  UNL     1      12.429   0.343  -7.063  1.00  0.00    -0.034 C 
HETATM   29  C1  UNL     1      12.375  -0.882  -6.236  1.00  0.00     0.036 C 
ENDBRANCH   1  27
BRANCH  11  30
HETATM   30  O2  UNL     1      22.057  -1.214  -5.056  1.00  0.00    -0.395 OA
ATOM     31  H2  UNL     1      22.774  -1.750  -4.740  1.00  0.00     0.210 HD
ENDBRANCH  11  30
TORSDOF 5
ENDMDL
