MODEL 1
REMARK VINA RESULT: -8.116093423      0.000      0.000
REMARK  5 active torsions:
REMARK  status: ('A' for Active; 'I' for Inactive)
REMARK    1  A    between atoms: C2_2  and  C4_4 
REMARK    2  A    between atoms: C20_21  and  O2_22 
REMARK    3  A    between atoms: C20_21  and  C21_24 
REMARK    4  A    between atoms: C21_24  and  C22_26 
REMARK    5  A    between atoms: C22_26  and  O4_27 
ROOT
HETATM    1  C4  UNL     1      16.014   0.343  -6.480  1.00  0.00    -0.006 C 
HETATM    2  C5  UNL     1      16.380   0.357  -7.938  1.00  0.00     0.006 C 
HETATM    3  C6  UNL     1      15.900   1.638  -8.522  1.00  0.00     0.010 C 
HETATM    4  C7  UNL     1      15.264   2.456  -7.398  1.00  0.00    -0.040 C 
HETATM    5  C8  UNL     1      15.884   3.860  -7.520  1.00  0.00     0.015 C 
HETATM    6  C9  UNL     1      13.834   2.638  -7.741  1.00  0.00     0.010 C 
HETATM    7  C10 UNL     1      13.147   1.347  -7.861  1.00  0.00     0.006 C 
HETATM    8  C11 UNL     1      12.085   1.232  -6.816  1.00  0.00    -0.006 C 
HETATM    9  C12 UNL     1      11.059   2.289  -7.193  1.00  0.00     0.005 C 
HETATM   10  C13 UNL     1      10.531   2.772  -5.916  1.00  0.00     0.001 C 
HETATM   11  C14 UNL     1      11.043   1.805  -4.869  1.00  0.00     0.010 C 
HETATM   12  C15 UNL     1      12.386   1.248  -5.418  1.00  0.00    -0.036 C 
HETATM   13  C16 UNL     1      12.407  -0.203  -4.888  1.00  0.00     0.016 C 
HETATM   14  C17 UNL     1      13.431   1.969  -4.749  1.00  0.00     0.008 C 
HETATM   15  C18 UNL     1      13.251   1.577  -3.248  1.00  0.00     0.088 C 
HETATM   16  C19 UNL     1      13.686   2.741  -2.424  1.00  0.00     0.172 C 
HETATM   17  O1  UNL     1      12.995   3.311  -1.626  1.00  0.00    -0.294 OA
HETATM   18  C20 UNL     1      15.115   3.125  -2.712  1.00  0.00     0.211 C 
HETATM   19  C23 UNL     1      15.349   3.244  -4.214  1.00  0.00     0.224 C 
HETATM   20  F1  UNL     1      16.648   3.517  -4.388  1.00  0.00    -0.245 F 
HETATM   21  C24 UNL     1      14.856   1.959  -4.926  1.00  0.00     0.034 C 
HETATM   22  C25 UNL     1      15.620   1.771  -6.150  1.00  0.00     0.005 C 
ENDROOT
BRANCH  18  23
HETATM   23  O2  UNL     1      15.893   2.062  -2.274  1.00  0.00    -0.372 OA
ATOM     24  H2  UNL     1      16.630   2.013  -2.870  1.00  0.00     0.211 HD
ENDBRANCH  18  23
BRANCH  18  25
HETATM   25  C21 UNL     1      15.493   4.389  -2.095  1.00  0.00     0.194 C 
HETATM   26  O3  UNL     1      15.175   5.443  -2.605  1.00  0.00    -0.292 OA
BRANCH  25  27
HETATM   27  C22 UNL     1      16.274   4.393  -0.832  1.00  0.00     0.246 C 
BRANCH  27  28
HETATM   28  O4  UNL     1      17.599   4.051  -1.007  1.00  0.00    -0.393 OA
ATOM     29  H4  UNL     1      18.184   4.489  -0.401  1.00  0.00     0.209 HD
ENDBRANCH  27  28
ENDBRANCH  25  27
ENDBRANCH  18  25
BRANCH   1  30
HETATM   30  C2  UNL     1      17.209  -0.154  -5.689  1.00  0.00    -0.018 C 
HETATM   31  C1  UNL     1      17.897  -1.243  -6.507  1.00  0.00     0.010 C 
HETATM   32  C3  UNL     1      18.207   0.948  -5.383  1.00  0.00     0.010 C 
ENDBRANCH   1  30
TORSDOF 5
ENDMDL
MODEL 2
REMARK VINA RESULT: -7.828652719      2.959      5.617
REMARK  5 active torsions:
REMARK  status: ('A' for Active; 'I' for Inactive)
REMARK    1  A    between atoms: C2_2  and  C4_4 
REMARK    2  A    between atoms: C20_21  and  O2_22 
REMARK    3  A    between atoms: C20_21  and  C21_24 
REMARK    4  A    between atoms: C21_24  and  C22_26 
REMARK    5  A    between atoms: C22_26  and  O4_27 
ROOT
HETATM    1  C4  UNL     1      17.929   1.975  -8.044  1.00  0.00    -0.006 C 
HETATM    2  C5  UNL     1      19.313   1.389  -8.026  1.00  0.00     0.006 C 
HETATM    3  C6  UNL     1      19.313   0.235  -7.089  1.00  0.00     0.010 C 
HETATM    4  C7  UNL     1      17.893   0.072  -6.546  1.00  0.00    -0.040 C 
HETATM    5  C8  UNL     1      17.568  -1.424  -6.710  1.00  0.00     0.015 C 
HETATM    6  C9  UNL     1      17.953   0.292  -5.082  1.00  0.00     0.010 C 
HETATM    7  C10 UNL     1      18.450   1.636  -4.765  1.00  0.00     0.006 C 
HETATM    8  C11 UNL     1      17.392   2.421  -4.062  1.00  0.00    -0.006 C 
HETATM    9  C12 UNL     1      17.213   1.716  -2.727  1.00  0.00     0.005 C 
HETATM   10  C13 UNL     1      15.790   1.860  -2.414  1.00  0.00     0.001 C 
HETATM   11  C14 UNL     1      15.252   2.868  -3.409  1.00  0.00     0.010 C 
HETATM   12  C15 UNL     1      16.140   2.736  -4.677  1.00  0.00    -0.036 C 
HETATM   13  C16 UNL     1      16.191   4.180  -5.222  1.00  0.00     0.016 C 
HETATM   14  C17 UNL     1      15.396   1.945  -5.616  1.00  0.00     0.008 C 
HETATM   15  C18 UNL     1      14.136   2.817  -5.920  1.00  0.00     0.088 C 
HETATM   16  C19 UNL     1      13.005   1.889  -6.207  1.00  0.00     0.172 C 
HETATM   17  O1  UNL     1      11.970   1.864  -5.603  1.00  0.00    -0.294 OA
HETATM   18  C20 UNL     1      13.316   0.973  -7.363  1.00  0.00     0.211 C 
HETATM   19  C23 UNL     1      14.684   0.324  -7.184  1.00  0.00     0.224 C 
HETATM   20  F1  UNL     1      14.915  -0.415  -8.276  1.00  0.00    -0.245 F 
HETATM   21  C24 UNL     1      15.749   1.414  -6.902  1.00  0.00     0.034 C 
HETATM   22  C25 UNL     1      17.045   0.944  -7.367  1.00  0.00     0.005 C 
ENDROOT
BRANCH  18  23
HETATM   23  O2  UNL     1      13.408   1.787  -8.484  1.00  0.00    -0.372 OA
ATOM     24  H2  UNL     1      13.637   2.651  -8.162  1.00  0.00     0.211 HD
ENDBRANCH  18  23
BRANCH  18  25
HETATM   25  C21 UNL     1      12.331  -0.089  -7.520  1.00  0.00     0.194 C 
HETATM   26  O3  UNL     1      12.383  -1.085  -6.829  1.00  0.00    -0.292 OA
BRANCH  25  27
HETATM   27  C22 UNL     1      11.253   0.044  -8.532  1.00  0.00     0.246 C 
BRANCH  27  28
HETATM   28  O4  UNL     1      10.401   1.102  -8.287  1.00  0.00    -0.393 OA
ATOM     29  H4  UNL     1      10.040   1.099  -7.409  1.00  0.00     0.209 HD
ENDBRANCH  27  28
ENDBRANCH  25  27
ENDBRANCH  18  25
BRANCH   1  30
HETATM   30  C2  UNL     1      17.542   2.254  -9.484  1.00  0.00    -0.018 C 
HETATM   31  C1  UNL     1      17.311   0.915 -10.179  1.00  0.00     0.010 C 
HETATM   32  C3  UNL     1      16.287   3.100  -9.598  1.00  0.00     0.010 C 
ENDBRANCH   1  30
TORSDOF 5
ENDMDL
MODEL 3
REMARK VINA RESULT: -7.725955473      3.678      6.101
REMARK  5 active torsions:
REMARK  status: ('A' for Active; 'I' for Inactive)
REMARK    1  A    between atoms: C2_2  and  C4_4 
REMARK    2  A    between atoms: C20_21  and  O2_22 
REMARK    3  A    between atoms: C20_21  and  C21_24 
REMARK    4  A    between atoms: C21_24  and  C22_26 
REMARK    5  A    between atoms: C22_26  and  O4_27 
ROOT
HETATM    1  C4  UNL     1      16.984   0.980  -8.969  1.00  0.00    -0.006 C 
HETATM    2  C5  UNL     1      18.317   0.367  -8.642  1.00  0.00     0.006 C 
HETATM    3  C6  UNL     1      18.136  -0.533  -7.473  1.00  0.00     0.010 C 
HETATM    4  C7  UNL     1      16.655  -0.515  -7.091  1.00  0.00    -0.040 C 
HETATM    5  C8  UNL     1      16.257  -1.995  -6.948  1.00  0.00     0.015 C 
HETATM    6  C9  UNL     1      16.561   0.042  -5.721  1.00  0.00     0.010 C 
HETATM    7  C10 UNL     1      17.102   1.404  -5.661  1.00  0.00     0.006 C 
HETATM    8  C11 UNL     1      16.022   2.369  -5.296  1.00  0.00    -0.006 C 
HETATM    9  C12 UNL     1      15.647   2.005  -3.869  1.00  0.00     0.005 C 
HETATM   10  C13 UNL     1      14.209   2.268  -3.780  1.00  0.00     0.001 C 
HETATM   11  C14 UNL     1      13.854   3.031  -5.039  1.00  0.00     0.010 C 
HETATM   12  C15 UNL     1      14.871   2.573  -6.120  1.00  0.00    -0.036 C 
HETATM   13  C16 UNL     1      15.076   3.847  -6.971  1.00  0.00     0.016 C 
HETATM   14  C17 UNL     1      14.192   1.610  -6.940  1.00  0.00     0.008 C 
HETATM   15  C18 UNL     1      13.033   2.430  -7.592  1.00  0.00     0.088 C 
HETATM   16  C19 UNL     1      11.886   1.501  -7.800  1.00  0.00     0.172 C 
HETATM   17  O1  UNL     1      10.788   1.654  -7.342  1.00  0.00    -0.294 OA
HETATM   18  C20 UNL     1      12.269   0.327  -8.666  1.00  0.00     0.211 C 
HETATM   19  C23 UNL     1      13.564  -0.308  -8.171  1.00  0.00     0.224 C 
HETATM   20  F1  UNL     1      13.871  -1.291  -9.026  1.00  0.00    -0.245 F 
HETATM   21  C24 UNL     1      14.656   0.780  -8.014  1.00  0.00     0.034 C 
HETATM   22  C25 UNL     1      15.964   0.168  -8.191  1.00  0.00     0.005 C 
ENDROOT
BRANCH  18  23
HETATM   23  O2  UNL     1      12.540   0.851  -9.922  1.00  0.00    -0.372 OA
ATOM     24  H2  UNL     1      11.899   0.470 -10.509  1.00  0.00     0.211 HD
ENDBRANCH  18  23
BRANCH  18  25
HETATM   25  C21 UNL     1      11.243  -0.707  -8.698  1.00  0.00     0.194 C 
HETATM   26  O3  UNL     1      11.136  -1.497  -7.784  1.00  0.00    -0.292 OA
BRANCH  25  27
HETATM   27  C22 UNL     1      10.320  -0.797  -9.857  1.00  0.00     0.246 C 
BRANCH  27  28
HETATM   28  O4  UNL     1       9.645   0.378 -10.112  1.00  0.00    -0.393 OA
ATOM     29  H4  UNL     1       9.677   0.995  -9.390  1.00  0.00     0.209 HD
ENDBRANCH  27  28
ENDBRANCH  25  27
ENDBRANCH  18  25
BRANCH   1  30
HETATM   30  C2  UNL     1      16.783   0.925 -10.472  1.00  0.00    -0.018 C 
HETATM   31  C1  UNL     1      18.089   1.350 -11.137  1.00  0.00     0.010 C 
HETATM   32  C3  UNL     1      16.399  -0.460 -10.959  1.00  0.00     0.010 C 
ENDBRANCH   1  30
TORSDOF 5
ENDMDL
MODEL 4
REMARK VINA RESULT: -7.708557855      1.563      4.632
REMARK  5 active torsions:
REMARK  status: ('A' for Active; 'I' for Inactive)
REMARK    1  A    between atoms: C2_2  and  C4_4 
REMARK    2  A    between atoms: C20_21  and  O2_22 
REMARK    3  A    between atoms: C20_21  and  C21_24 
REMARK    4  A    between atoms: C21_24  and  C22_26 
REMARK    5  A    between atoms: C22_26  and  O4_27 
ROOT
HETATM    1  C4  UNL     1      12.200   2.594  -6.457  1.00  0.00    -0.006 C 
HETATM    2  C5  UNL     1      11.398   1.553  -7.186  1.00  0.00     0.006 C 
HETATM    3  C6  UNL     1      11.830   0.216  -6.700  1.00  0.00     0.010 C 
HETATM    4  C7  UNL     1      12.888   0.429  -5.617  1.00  0.00    -0.040 C 
HETATM    5  C8  UNL     1      12.446  -0.461  -4.441  1.00  0.00     0.015 C 
HETATM    6  C9  UNL     1      14.147  -0.179  -6.106  1.00  0.00     0.010 C 
HETATM    7  C10 UNL     1      14.590   0.446  -7.357  1.00  0.00     0.006 C 
HETATM    8  C11 UNL     1      15.903   1.128  -7.153  1.00  0.00    -0.006 C 
HETATM    9  C12 UNL     1      16.884  -0.001  -6.879  1.00  0.00     0.005 C 
HETATM   10  C13 UNL     1      17.845   0.560  -5.928  1.00  0.00     0.001 C 
HETATM   11  C14 UNL     1      17.570   2.049  -5.898  1.00  0.00     0.010 C 
HETATM   12  C15 UNL     1      16.063   2.215  -6.238  1.00  0.00    -0.036 C 
HETATM   13  C16 UNL     1      16.024   3.547  -7.021  1.00  0.00     0.016 C 
HETATM   14  C17 UNL     1      15.383   2.426  -4.991  1.00  0.00     0.008 C 
HETATM   15  C18 UNL     1      15.976   3.773  -4.468  1.00  0.00     0.088 C 
HETATM   16  C19 UNL     1      15.977   3.716  -2.978  1.00  0.00     0.172 C 
HETATM   17  O1  UNL     1      16.951   3.835  -2.289  1.00  0.00    -0.294 OA
HETATM   18  C20 UNL     1      14.591   3.488  -2.429  1.00  0.00     0.211 C 
HETATM   19  C23 UNL     1      13.913   2.324  -3.143  1.00  0.00     0.224 C 
HETATM   20  F1  UNL     1      12.671   2.232  -2.650  1.00  0.00    -0.245 F 
HETATM   21  C24 UNL     1      13.987   2.534  -4.677  1.00  0.00     0.034 C 
HETATM   22  C25 UNL     1      12.859   1.862  -5.303  1.00  0.00     0.005 C 
ENDROOT
BRANCH  18  23
HETATM   23  O2  UNL     1      13.862   4.626  -2.746  1.00  0.00    -0.372 OA
ATOM     24  H2  UNL     1      13.525   4.958  -1.923  1.00  0.00     0.211 HD
ENDBRANCH  18  23
BRANCH  18  25
HETATM   25  C21 UNL     1      14.593   3.202  -1.000  1.00  0.00     0.194 C 
HETATM   26  O3  UNL     1      14.872   2.093  -0.595  1.00  0.00    -0.292 OA
BRANCH  25  27
HETATM   27  C22 UNL     1      14.250   4.272  -0.031  1.00  0.00     0.246 C 
BRANCH  27  28
HETATM   28  O4  UNL     1      15.231   5.234   0.092  1.00  0.00    -0.393 OA
ATOM     29  H4  UNL     1      14.892   6.121   0.088  1.00  0.00     0.209 HD
ENDBRANCH  27  28
ENDBRANCH  25  27
ENDBRANCH  18  25
BRANCH   1  30
HETATM   30  C2  UNL     1      11.263   3.703  -6.017  1.00  0.00    -0.018 C 
HETATM   31  C1  UNL     1       9.890   3.087  -5.764  1.00  0.00     0.010 C 
HETATM   32  C3  UNL     1      11.738   4.402  -4.756  1.00  0.00     0.010 C 
ENDBRANCH   1  30
TORSDOF 5
ENDMDL
MODEL 5
REMARK VINA RESULT: -7.707536149      1.531      4.610
REMARK  5 active torsions:
REMARK  status: ('A' for Active; 'I' for Inactive)
REMARK    1  A    between atoms: C2_2  and  C4_4 
REMARK    2  A    between atoms: C20_21  and  O2_22 
REMARK    3  A    between atoms: C20_21  and  C21_24 
REMARK    4  A    between atoms: C21_24  and  C22_26 
REMARK    5  A    between atoms: C22_26  and  O4_27 
ROOT
HETATM    1  C4  UNL     1      12.926   1.830  -7.205  1.00  0.00    -0.006 C 
HETATM    2  C5  UNL     1      12.109   0.783  -7.909  1.00  0.00     0.006 C 
HETATM    3  C6  UNL     1      12.336  -0.516  -7.222  1.00  0.00     0.010 C 
HETATM    4  C7  UNL     1      13.277  -0.266  -6.043  1.00  0.00    -0.040 C 
HETATM    5  C8  UNL     1      12.608  -0.957  -4.841  1.00  0.00     0.015 C 
HETATM    6  C9  UNL     1      14.513  -1.043  -6.293  1.00  0.00     0.010 C 
HETATM    7  C10 UNL     1      15.163  -0.624  -7.540  1.00  0.00     0.006 C 
HETATM    8  C11 UNL     1      16.508  -0.044  -7.246  1.00  0.00    -0.006 C 
HETATM    9  C12 UNL     1      17.325  -1.214  -6.722  1.00  0.00     0.005 C 
HETATM   10  C13 UNL     1      18.222  -0.628  -5.725  1.00  0.00     0.001 C 
HETATM   11  C14 UNL     1      18.105   0.872  -5.899  1.00  0.00     0.010 C 
HETATM   12  C15 UNL     1      16.675   1.130  -6.447  1.00  0.00    -0.036 C 
HETATM   13  C16 UNL     1      16.869   2.351  -7.374  1.00  0.00     0.016 C 
HETATM   14  C17 UNL     1      15.880   1.557  -5.331  1.00  0.00     0.008 C 
HETATM   15  C18 UNL     1      16.547   2.900  -4.891  1.00  0.00     0.088 C 
HETATM   16  C19 UNL     1      16.367   3.030  -3.418  1.00  0.00     0.172 C 
HETATM   17  O1  UNL     1      17.260   3.146  -2.626  1.00  0.00    -0.294 OA
HETATM   18  C20 UNL     1      14.910   3.001  -3.030  1.00  0.00     0.211 C 
HETATM   19  C23 UNL     1      14.200   1.824  -3.688  1.00  0.00     0.224 C 
HETATM   20  F1  UNL     1      12.907   1.907  -3.353  1.00  0.00    -0.245 F 
HETATM   21  C24 UNL     1      14.476   1.831  -5.213  1.00  0.00     0.034 C 
HETATM   22  C25 UNL     1      13.363   1.192  -5.900  1.00  0.00     0.005 C 
ENDROOT
BRANCH  18  23
HETATM   23  O2  UNL     1      14.348   4.152  -3.565  1.00  0.00    -0.372 OA
ATOM     24  H2  UNL     1      15.065   4.764  -3.680  1.00  0.00     0.211 HD
ENDBRANCH  18  23
BRANCH  18  25
HETATM   25  C21 UNL     1      14.714   2.898  -1.589  1.00  0.00     0.194 C 
HETATM   26  O3  UNL     1      15.183   1.967  -0.969  1.00  0.00    -0.292 OA
BRANCH  25  27
HETATM   27  C22 UNL     1      13.934   3.937  -0.872  1.00  0.00     0.246 C 
BRANCH  27  28
HETATM   28  O4  UNL     1      14.577   5.155  -0.805  1.00  0.00    -0.393 OA
ATOM     29  H4  UNL     1      14.755   5.439   0.083  1.00  0.00     0.209 HD
ENDBRANCH  27  28
ENDBRANCH  25  27
ENDBRANCH  18  25
BRANCH   1  30
HETATM   30  C2  UNL     1      12.067   3.066  -7.018  1.00  0.00    -0.018 C 
HETATM   31  C1  UNL     1      11.129   2.815  -5.841  1.00  0.00     0.010 C 
HETATM   32  C3  UNL     1      12.889   4.313  -6.747  1.00  0.00     0.010 C 
ENDBRANCH   1  30
TORSDOF 5
ENDMDL
