MODEL 1
REMARK VINA RESULT: -7.211400061      0.000      0.000
REMARK  4 active torsions:
REMARK  status: ('A' for Active; 'I' for Inactive)
REMARK    1  A    between atoms: C2_2  and  S1_3 
REMARK    2  A    between atoms: S1_3  and  C3_4 
REMARK    3  A    between atoms: C4_6  and  N1_7 
REMARK       I    between atoms: N1_7  and  C5_9 
REMARK    4  A    between atoms: C5_9  and  C6_11 
ROOT
HETATM    1  N1  UNL     1      -0.672  18.111  18.013  1.00  0.00    -0.307 N 
ATOM      2  H1  UNL     1      -0.975  18.864  17.396  1.00  0.00     0.171 HD
HETATM    3  C5  UNL     1      -0.453  16.785  17.535  1.00  0.00     0.229 C 
HETATM    4  O1  UNL     1      -0.675  15.778  18.256  1.00  0.00    -0.273 OA
ENDROOT
BRANCH   1   5
HETATM    5  C4  UNL     1      -0.461  18.305  19.297  1.00  0.00     0.152 A 
HETATM    6  S2  UNL     1      -1.118  19.506  20.312  1.00  0.00    -0.045 SA
HETATM    7  C3  UNL     1      -0.347  19.053  21.771  1.00  0.00     0.067 A 
HETATM    8  C13 UNL     1       0.387  17.980  21.381  1.00  0.00     0.031 A 
HETATM    9  N2  UNL     1       0.321  17.609  20.122  1.00  0.00    -0.339 N 
HETATM   10  C14 UNL     1       1.258  17.240  22.380  1.00  0.00     0.070 C 
ATOM     11  H2  UNL     1       0.856  16.808  19.784  1.00  0.00     0.168 HD
BRANCH   7  12
HETATM   12  S1  UNL     1      -0.582  19.912  23.307  1.00  0.00    -0.121 SA
BRANCH  12  13
HETATM   13  C2  UNL     1      -2.233  20.489  23.618  1.00  0.00     0.075 C 
HETATM   14  C1  UNL     1      -2.862  19.550  24.646  1.00  0.00     0.016 C 
ENDBRANCH  12  13
ENDBRANCH   7  12
ENDBRANCH   1   5
BRANCH   3  15
HETATM   15  C6  UNL     1       0.047  16.554  16.162  1.00  0.00     0.095 A 
HETATM   16  C7  UNL     1      -0.922  16.710  14.991  1.00  0.00    -0.027 A 
HETATM   17  C8  UNL     1      -2.258  17.250  15.371  1.00  0.00     0.016 C 
HETATM   18  C9  UNL     1      -0.367  17.324  13.700  1.00  0.00     0.016 C 
HETATM   19  C10 UNL     1      -0.427  15.382  15.371  1.00  0.00    -0.027 A 
HETATM   20  C11 UNL     1      -1.293  14.326  15.982  1.00  0.00     0.016 C 
HETATM   21  C12 UNL     1       0.666  14.794  14.462  1.00  0.00     0.016 C 
ENDBRANCH   3  15
TORSDOF 4
ENDMDL
MODEL 2
REMARK VINA RESULT: -7.145426473      2.486      7.061
REMARK  4 active torsions:
REMARK  status: ('A' for Active; 'I' for Inactive)
REMARK    1  A    between atoms: C2_2  and  S1_3 
REMARK    2  A    between atoms: S1_3  and  C3_4 
REMARK    3  A    between atoms: C4_6  and  N1_7 
REMARK       I    between atoms: N1_7  and  C5_9 
REMARK    4  A    between atoms: C5_9  and  C6_11 
ROOT
HETATM    1  N1  UNL     1       0.905  18.753  19.979  1.00  0.00    -0.307 N 
ATOM      2  H1  UNL     1       1.214  19.687  19.713  1.00  0.00     0.171 HD
HETATM    3  C5  UNL     1       0.476  18.448  21.305  1.00  0.00     0.229 C 
HETATM    4  O1  UNL     1       0.668  17.315  21.818  1.00  0.00    -0.273 OA
ENDROOT
BRANCH   1   5
HETATM    5  C4  UNL     1       0.879  17.757  19.120  1.00  0.00     0.152 A 
HETATM    6  S2  UNL     1      -0.119  17.560  17.753  1.00  0.00    -0.045 SA
HETATM    7  C3  UNL     1       0.479  16.048  17.220  1.00  0.00     0.067 A 
HETATM    8  C13 UNL     1       1.433  15.778  18.147  1.00  0.00     0.031 A 
HETATM    9  N2  UNL     1       1.627  16.653  19.107  1.00  0.00    -0.339 N 
HETATM   10  C14 UNL     1       2.242  14.497  18.067  1.00  0.00     0.070 C 
ATOM     11  H2  UNL     1       2.334  16.493  19.826  1.00  0.00     0.168 HD
BRANCH   7  12
HETATM   12  S1  UNL     1      -0.138  15.206  15.783  1.00  0.00    -0.121 SA
BRANCH  12  13
HETATM   13  C2  UNL     1       0.426  15.839  14.222  1.00  0.00     0.075 C 
HETATM   14  C1  UNL     1      -0.376  17.106  13.924  1.00  0.00     0.016 C 
ENDBRANCH  12  13
ENDBRANCH   7  12
ENDBRANCH   1   5
BRANCH   3  15
HETATM   15  C6  UNL     1      -0.213  19.468  22.125  1.00  0.00     0.095 A 
HETATM   16  C7  UNL     1      -1.672  19.234  22.515  1.00  0.00    -0.027 A 
HETATM   17  C8  UNL     1      -2.195  17.889  22.145  1.00  0.00     0.016 C 
HETATM   18  C9  UNL     1      -2.104  19.686  23.915  1.00  0.00     0.016 C 
HETATM   19  C10 UNL     1      -1.321  20.282  21.548  1.00  0.00    -0.027 A 
HETATM   20  C11 UNL     1      -1.670  20.208  20.095  1.00  0.00     0.016 C 
HETATM   21  C12 UNL     1      -1.349  21.721  22.089  1.00  0.00     0.016 C 
ENDBRANCH   3  15
TORSDOF 4
ENDMDL
MODEL 3
REMARK VINA RESULT: -6.669224721      3.741      5.156
REMARK  4 active torsions:
REMARK  status: ('A' for Active; 'I' for Inactive)
REMARK    1  A    between atoms: C2_2  and  S1_3 
REMARK    2  A    between atoms: S1_3  and  C3_4 
REMARK    3  A    between atoms: C4_6  and  N1_7 
REMARK       I    between atoms: N1_7  and  C5_9 
REMARK    4  A    between atoms: C5_9  and  C6_11 
ROOT
HETATM    1  N1  UNL     1       0.540  20.042  20.769  1.00  0.00    -0.307 N 
ATOM      2  H1  UNL     1       1.494  20.281  21.041  1.00  0.00     0.171 HD
HETATM    3  C5  UNL     1       0.247  18.894  19.976  1.00  0.00     0.229 C 
HETATM    4  O1  UNL     1      -0.710  18.883  19.158  1.00  0.00    -0.273 OA
ENDROOT
BRANCH   1   5
HETATM    5  C4  UNL     1      -0.491  20.775  21.130  1.00  0.00     0.152 A 
HETATM    6  S2  UNL     1      -1.323  20.779  22.617  1.00  0.00    -0.045 SA
HETATM    7  C3  UNL     1      -2.484  21.982  22.252  1.00  0.00     0.067 A 
HETATM    8  C13 UNL     1      -2.155  22.317  20.979  1.00  0.00     0.031 A 
HETATM    9  N2  UNL     1      -1.140  21.698  20.419  1.00  0.00    -0.339 N 
HETATM   10  C14 UNL     1      -2.946  23.376  20.233  1.00  0.00     0.070 C 
ATOM     11  H2  UNL     1      -0.857  21.917  19.464  1.00  0.00     0.168 HD
BRANCH   7  12
HETATM   12  S1  UNL     1      -3.732  22.514  23.399  1.00  0.00    -0.121 SA
BRANCH  12  13
HETATM   13  C2  UNL     1      -3.297  23.903  24.416  1.00  0.00     0.075 C 
HETATM   14  C1  UNL     1      -2.615  23.359  25.671  1.00  0.00     0.016 C 
ENDBRANCH  12  13
ENDBRANCH   7  12
ENDBRANCH   1   5
BRANCH   3  15
HETATM   15  C6  UNL     1       1.067  17.669  20.094  1.00  0.00     0.095 A 
HETATM   16  C7  UNL     1       0.410  16.390  20.613  1.00  0.00    -0.027 A 
HETATM   17  C8  UNL     1      -1.066  16.493  20.794  1.00  0.00     0.016 C 
HETATM   18  C9  UNL     1       0.850  15.068  19.975  1.00  0.00     0.016 C 
HETATM   19  C10 UNL     1       1.397  17.103  21.434  1.00  0.00    -0.027 A 
HETATM   20  C11 UNL     1       1.047  17.827  22.695  1.00  0.00     0.016 C 
HETATM   21  C12 UNL     1       2.798  16.472  21.487  1.00  0.00     0.016 C 
ENDBRANCH   3  15
TORSDOF 4
ENDMDL
MODEL 4
REMARK VINA RESULT: -6.667183997      4.880      6.489
REMARK  4 active torsions:
REMARK  status: ('A' for Active; 'I' for Inactive)
REMARK    1  A    between atoms: C2_2  and  S1_3 
REMARK    2  A    between atoms: S1_3  and  C3_4 
REMARK    3  A    between atoms: C4_6  and  N1_7 
REMARK       I    between atoms: N1_7  and  C5_9 
REMARK    4  A    between atoms: C5_9  and  C6_11 
ROOT
HETATM    1  N1  UNL     1       1.638  15.008  16.829  1.00  0.00    -0.307 N 
ATOM      2  H1  UNL     1       2.343  15.647  16.465  1.00  0.00     0.171 HD
HETATM    3  C5  UNL     1       0.283  15.410  17.022  1.00  0.00     0.229 C 
HETATM    4  O1  UNL     1      -0.420  14.939  17.955  1.00  0.00    -0.273 OA
ENDROOT
BRANCH   1   5
HETATM    5  C4  UNL     1       1.923  13.764  17.150  1.00  0.00     0.152 A 
HETATM    6  S2  UNL     1       2.897  13.193  18.426  1.00  0.00    -0.045 SA
HETATM    7  C3  UNL     1       2.739  11.514  18.131  1.00  0.00     0.067 A 
HETATM    8  C13 UNL     1       1.928  11.493  17.043  1.00  0.00     0.031 A 
HETATM    9  N2  UNL     1       1.519  12.642  16.553  1.00  0.00    -0.339 N 
HETATM   10  C14 UNL     1       1.515  10.174  16.417  1.00  0.00     0.070 C 
ATOM     11  H2  UNL     1       0.909  12.675  15.737  1.00  0.00     0.168 HD
BRANCH   7  12
HETATM   12  S1  UNL     1       3.530  10.271  19.122  1.00  0.00    -0.121 SA
BRANCH  12  13
HETATM   13  C2  UNL     1       2.855  10.043  20.749  1.00  0.00     0.075 C 
HETATM   14  C1  UNL     1       1.341  10.230  20.649  1.00  0.00     0.016 C 
ENDBRANCH  12  13
ENDBRANCH   7  12
ENDBRANCH   1   5
BRANCH   3  15
HETATM   15  C6  UNL     1      -0.342  16.403  16.122  1.00  0.00     0.095 A 
HETATM   16  C7  UNL     1      -1.686  16.066  15.475  1.00  0.00    -0.027 A 
HETATM   17  C8  UNL     1      -2.302  14.803  15.969  1.00  0.00     0.016 C 
HETATM   18  C9  UNL     1      -2.694  17.210  15.320  1.00  0.00     0.016 C 
HETATM   19  C10 UNL     1      -0.465  16.130  14.661  1.00  0.00    -0.027 A 
HETATM   20  C11 UNL     1       0.168  14.928  14.035  1.00  0.00     0.016 C 
HETATM   21  C12 UNL     1      -0.305  17.395  13.801  1.00  0.00     0.016 C 
ENDBRANCH   3  15
TORSDOF 4
ENDMDL
MODEL 5
REMARK VINA RESULT: -6.655969348      5.167      7.267
REMARK  4 active torsions:
REMARK  status: ('A' for Active; 'I' for Inactive)
REMARK    1  A    between atoms: C2_2  and  S1_3 
REMARK    2  A    between atoms: S1_3  and  C3_4 
REMARK    3  A    between atoms: C4_6  and  N1_7 
REMARK       I    between atoms: N1_7  and  C5_9 
REMARK    4  A    between atoms: C5_9  and  C6_11 
ROOT
HETATM    1  N1  UNL     1       0.011  13.840  15.483  1.00  0.00    -0.307 N 
ATOM      2  H1  UNL     1      -0.972  13.626  15.316  1.00  0.00     0.171 HD
HETATM    3  C5  UNL     1       0.574  15.108  15.154  1.00  0.00     0.229 C 
HETATM    4  O1  UNL     1       1.769  15.222  14.777  1.00  0.00    -0.273 OA
ENDROOT
BRANCH   1   5
HETATM    5  C4  UNL     1       0.834  12.962  16.015  1.00  0.00     0.152 A 
HETATM    6  S2  UNL     1       1.178  11.376  15.493  1.00  0.00    -0.045 SA
HETATM    7  C3  UNL     1       2.311  10.953  16.704  1.00  0.00     0.067 A 
HETATM    8  C13 UNL     1       2.359  12.083  17.454  1.00  0.00     0.031 A 
HETATM    9  N2  UNL     1       1.605  13.097  17.094  1.00  0.00    -0.339 N 
HETATM   10  C14 UNL     1       3.259  12.159  18.673  1.00  0.00     0.070 C 
ATOM     11  H2  UNL     1       1.608  13.967  17.628  1.00  0.00     0.168 HD
BRANCH   7  12
HETATM   12  S1  UNL     1       3.110   9.369  16.782  1.00  0.00    -0.121 SA
BRANCH  12  13
HETATM   13  C2  UNL     1       2.637   8.338  18.148  1.00  0.00     0.075 C 
HETATM   14  C1  UNL     1       1.207   8.712  18.533  1.00  0.00     0.016 C 
ENDBRANCH  12  13
ENDBRANCH   7  12
ENDBRANCH   1   5
BRANCH   3  15
HETATM   15  C6  UNL     1      -0.241  16.339  15.246  1.00  0.00     0.095 A 
HETATM   16  C7  UNL     1      -0.657  16.843  16.628  1.00  0.00    -0.027 A 
HETATM   17  C8  UNL     1      -0.039  16.099  17.761  1.00  0.00     0.016 C 
HETATM   18  C9  UNL     1      -0.679  18.361  16.841  1.00  0.00     0.016 C 
HETATM   19  C10 UNL     1      -1.656  16.278  15.712  1.00  0.00    -0.027 A 
HETATM   20  C11 UNL     1      -2.344  14.971  15.952  1.00  0.00     0.016 C 
HETATM   21  C12 UNL     1      -2.562  17.299  15.004  1.00  0.00     0.016 C 
ENDBRANCH   3  15
TORSDOF 4
ENDMDL
