MODEL 1
REMARK VINA RESULT: -8.425593637      0.000      0.000
REMARK  3 active torsions:
REMARK  status: ('A' for Active; 'I' for Inactive)
REMARK    1  A    between atoms: O1_2  and  C2_3 
REMARK    2  A    between atoms: C7_8  and  C8_9 
REMARK    3  A    between atoms: C10_11  and  C11_12 
ROOT
HETATM    1  C8  UNL     1      -0.019  17.184  19.233  1.00  0.00     0.043 A 
HETATM    2  C9  UNL     1      -0.892  18.074  19.818  1.00  0.00     0.046 A 
HETATM    3  C10 UNL     1      -0.572  18.222  21.128  1.00  0.00     0.022 A 
HETATM    4  C16 UNL     1       0.515  17.416  21.370  1.00  0.00     0.018 A 
HETATM    5  C17 UNL     1       1.192  17.275  22.689  1.00  0.00     0.069 C 
HETATM    6  N2  UNL     1       0.817  16.812  20.214  1.00  0.00    -0.358 N 
ATOM      7  H2  UNL     1       1.585  16.153  20.095  1.00  0.00     0.166 HD
ENDROOT
BRANCH   1   8
HETATM    8  C7  UNL     1       0.021  16.725  17.853  1.00  0.00    -0.006 A 
HETATM    9  C6  UNL     1      -0.806  17.278  16.905  1.00  0.00     0.020 A 
HETATM   10  C4  UNL     1      -0.781  16.851  15.579  1.00  0.00    -0.059 A 
HETATM   11  C3  UNL     1       0.087  15.854  15.190  1.00  0.00     0.043 A 
HETATM   12  C5  UNL     1      -1.666  17.435  14.544  1.00  0.00     0.048 C 
HETATM   13  C2  UNL     1       0.933  15.284  16.145  1.00  0.00     0.069 A 
HETATM   14  C18 UNL     1       0.879  15.734  17.449  1.00  0.00     0.050 A 
BRANCH  13  15
HETATM   15  O1  UNL     1       1.807  14.286  15.778  1.00  0.00    -0.356 OA
HETATM   16  C1  UNL     1       2.035  13.150  16.567  1.00  0.00     0.210 C 
ENDBRANCH  13  15
ENDBRANCH   1   8
BRANCH   3  17
HETATM   17  C11 UNL     1      -1.244  19.078  22.134  1.00  0.00     0.087 A 
HETATM   18  N1  UNL     1      -1.921  18.777  23.207  1.00  0.00    -0.353 N 
HETATM   19  C12 UNL     1      -2.430  19.707  23.953  1.00  0.00     0.019 A 
ATOM     20  H1  UNL     1      -2.052  17.798  23.462  1.00  0.00     0.166 HD
HETATM   21  C13 UNL     1      -3.225  19.413  25.209  1.00  0.00     0.069 C 
HETATM   22  C14 UNL     1      -2.228  21.010  23.567  1.00  0.00     0.003 A 
HETATM   23  C15 UNL     1      -2.672  22.287  24.193  1.00  0.00     0.058 C 
HETATM   24  S1  UNL     1      -1.306  20.795  22.139  1.00  0.00    -0.074 SA
ENDBRANCH   3  17
TORSDOF 3
ENDMDL
MODEL 2
REMARK VINA RESULT: -8.115686519      3.251      8.175
REMARK  3 active torsions:
REMARK  status: ('A' for Active; 'I' for Inactive)
REMARK    1  A    between atoms: O1_2  and  C2_3 
REMARK    2  A    between atoms: C7_8  and  C8_9 
REMARK    3  A    between atoms: C10_11  and  C11_12 
ROOT
HETATM    1  C8  UNL     1      -0.824  19.180  21.830  1.00  0.00     0.043 A 
HETATM    2  C9  UNL     1      -1.263  18.853  20.566  1.00  0.00     0.046 A 
HETATM    3  C10 UNL     1      -0.337  18.073  19.956  1.00  0.00     0.022 A 
HETATM    4  C16 UNL     1       0.698  17.906  20.846  1.00  0.00     0.018 A 
HETATM    5  C17 UNL     1       1.930  17.113  20.579  1.00  0.00     0.069 C 
HETATM    6  N2  UNL     1       0.370  18.581  21.954  1.00  0.00    -0.358 N 
ATOM      7  H2  UNL     1       0.956  18.634  22.788  1.00  0.00     0.166 HD
ENDROOT
BRANCH   1   8
HETATM    8  C7  UNL     1      -1.484  19.993  22.839  1.00  0.00    -0.006 A 
HETATM    9  C6  UNL     1      -1.687  19.508  24.109  1.00  0.00     0.020 A 
HETATM   10  C4  UNL     1      -2.317  20.272  25.089  1.00  0.00    -0.059 A 
HETATM   11  C3  UNL     1      -2.753  21.546  24.796  1.00  0.00     0.043 A 
HETATM   12  C5  UNL     1      -2.545  19.765  26.462  1.00  0.00     0.048 C 
HETATM   13  C2  UNL     1      -2.553  22.051  23.509  1.00  0.00     0.069 A 
HETATM   14  C18 UNL     1      -1.924  21.263  22.565  1.00  0.00     0.050 A 
BRANCH  13  15
HETATM   15  O1  UNL     1      -2.982  23.321  23.196  1.00  0.00    -0.356 OA
HETATM   16  C1  UNL     1      -3.299  23.713  21.888  1.00  0.00     0.210 C 
ENDBRANCH  13  15
ENDBRANCH   1   8
BRANCH   3  17
HETATM   17  C11 UNL     1      -0.395  17.494  18.593  1.00  0.00     0.087 A 
HETATM   18  N1  UNL     1      -0.326  16.260  18.177  1.00  0.00    -0.353 N 
HETATM   19  C12 UNL     1      -0.401  15.981  16.913  1.00  0.00     0.019 A 
ATOM     20  H1  UNL     1      -0.213  15.505  18.854  1.00  0.00     0.166 HD
HETATM   21  C13 UNL     1      -0.327  14.566  16.376  1.00  0.00     0.069 C 
HETATM   22  C14 UNL     1      -0.553  17.031  16.040  1.00  0.00     0.003 A 
HETATM   23  C15 UNL     1      -0.668  17.049  14.555  1.00  0.00     0.058 C 
HETATM   24  S1  UNL     1      -0.577  18.361  17.120  1.00  0.00    -0.074 SA
ENDBRANCH   3  17
TORSDOF 3
ENDMDL
MODEL 3
REMARK VINA RESULT: -8.038747628      1.931      2.724
REMARK  3 active torsions:
REMARK  status: ('A' for Active; 'I' for Inactive)
REMARK    1  A    between atoms: O1_2  and  C2_3 
REMARK    2  A    between atoms: C7_8  and  C8_9 
REMARK    3  A    between atoms: C10_11  and  C11_12 
ROOT
HETATM    1  C8  UNL     1      -0.984  19.108  19.306  1.00  0.00     0.043 A 
HETATM    2  C9  UNL     1      -1.182  19.004  20.665  1.00  0.00     0.046 A 
HETATM    3  C10 UNL     1      -1.600  20.200  21.151  1.00  0.00     0.022 A 
HETATM    4  C16 UNL     1      -1.666  21.066  20.086  1.00  0.00     0.018 A 
HETATM    5  C17 UNL     1      -2.081  22.493  20.174  1.00  0.00     0.069 C 
HETATM    6  N2  UNL     1      -1.291  20.378  19.001  1.00  0.00    -0.358 N 
ATOM      7  H2  UNL     1      -1.245  20.769  18.060  1.00  0.00     0.166 HD
ENDROOT
BRANCH   1   8
HETATM    8  C7  UNL     1      -0.541  18.084  18.372  1.00  0.00    -0.006 A 
HETATM    9  C6  UNL     1      -0.926  18.124  17.053  1.00  0.00     0.020 A 
HETATM   10  C4  UNL     1      -0.511  17.152  16.144  1.00  0.00    -0.059 A 
HETATM   11  C3  UNL     1       0.305  16.122  16.559  1.00  0.00     0.043 A 
HETATM   12  C5  UNL     1      -0.916  17.179  14.720  1.00  0.00     0.048 C 
HETATM   13  C2  UNL     1       0.703  16.071  17.897  1.00  0.00     0.069 A 
HETATM   14  C18 UNL     1       0.271  17.052  18.768  1.00  0.00     0.050 A 
BRANCH  13  15
HETATM   15  O1  UNL     1       1.517  15.050  18.332  1.00  0.00    -0.356 OA
HETATM   16  C1  UNL     1       2.084  14.109  17.459  1.00  0.00     0.210 C 
ENDBRANCH  13  15
ENDBRANCH   1   8
BRANCH   3  17
HETATM   17  C11 UNL     1      -1.930  20.542  22.555  1.00  0.00     0.087 A 
HETATM   18  N1  UNL     1      -2.204  21.684  23.121  1.00  0.00    -0.353 N 
HETATM   19  C12 UNL     1      -2.467  21.749  24.389  1.00  0.00     0.019 A 
ATOM     20  H1  UNL     1      -2.211  22.536  22.560  1.00  0.00     0.166 HD
HETATM   21  C13 UNL     1      -2.791  23.049  25.097  1.00  0.00     0.069 C 
HETATM   22  C14 UNL     1      -2.444  20.575  25.102  1.00  0.00     0.003 A 
HETATM   23  C15 UNL     1      -2.696  20.313  26.546  1.00  0.00     0.058 C 
HETATM   24  S1  UNL     1      -2.040  19.449  23.876  1.00  0.00    -0.074 SA
ENDBRANCH   3  17
TORSDOF 3
ENDMDL
MODEL 4
REMARK VINA RESULT: -8.001111502      1.060      1.218
REMARK  3 active torsions:
REMARK  status: ('A' for Active; 'I' for Inactive)
REMARK    1  A    between atoms: O1_2  and  C2_3 
REMARK    2  A    between atoms: C7_8  and  C8_9 
REMARK    3  A    between atoms: C10_11  and  C11_12 
ROOT
HETATM    1  C8  UNL     1      -0.174  17.841  19.253  1.00  0.00     0.043 A 
HETATM    2  C9  UNL     1      -0.965  18.922  19.571  1.00  0.00     0.046 A 
HETATM    3  C10 UNL     1      -0.791  19.237  20.879  1.00  0.00     0.022 A 
HETATM    4  C16 UNL     1       0.121  18.345  21.390  1.00  0.00     0.018 A 
HETATM    5  C17 UNL     1       0.600  18.332  22.800  1.00  0.00     0.069 C 
HETATM    6  N2  UNL     1       0.467  17.526  20.389  1.00  0.00    -0.358 N 
ATOM      7  H2  UNL     1       1.134  16.760  20.479  1.00  0.00     0.166 HD
ENDROOT
BRANCH   1   8
HETATM    8  C7  UNL     1      -0.034  17.162  17.974  1.00  0.00    -0.006 A 
HETATM    9  C6  UNL     1      -0.765  17.565  16.882  1.00  0.00     0.020 A 
HETATM   10  C4  UNL     1      -0.644  16.926  15.649  1.00  0.00    -0.059 A 
HETATM   11  C3  UNL     1       0.224  15.866  15.503  1.00  0.00     0.043 A 
HETATM   12  C5  UNL     1      -1.424  17.347  14.462  1.00  0.00     0.048 C 
HETATM   13  C2  UNL     1       0.972  15.447  16.606  1.00  0.00     0.069 A 
HETATM   14  C18 UNL     1       0.825  16.105  17.811  1.00  0.00     0.050 A 
BRANCH  13  15
HETATM   15  O1  UNL     1       1.844  14.389  16.481  1.00  0.00    -0.356 OA
HETATM   16  C1  UNL     1       2.454  13.776  17.584  1.00  0.00     0.210 C 
ENDBRANCH  13  15
ENDBRANCH   1   8
BRANCH   3  17
HETATM   17  C11 UNL     1      -1.444  20.327  21.643  1.00  0.00     0.087 A 
HETATM   18  N1  UNL     1      -1.892  20.373  22.866  1.00  0.00    -0.353 N 
HETATM   19  C12 UNL     1      -2.436  21.453  23.333  1.00  0.00     0.019 A 
ATOM     20  H1  UNL     1      -1.814  19.549  23.463  1.00  0.00     0.166 HD
HETATM   21  C13 UNL     1      -2.973  21.560  24.746  1.00  0.00     0.069 C 
HETATM   22  C14 UNL     1      -2.520  22.535  22.491  1.00  0.00     0.003 A 
HETATM   23  C15 UNL     1      -3.078  23.898  22.716  1.00  0.00     0.058 C 
HETATM   24  S1  UNL     1      -1.797  21.908  21.070  1.00  0.00    -0.074 SA
ENDBRANCH   3  17
TORSDOF 3
ENDMDL
MODEL 5
REMARK VINA RESULT: -7.984411835      1.161      2.341
REMARK  3 active torsions:
REMARK  status: ('A' for Active; 'I' for Inactive)
REMARK    1  A    between atoms: O1_2  and  C2_3 
REMARK    2  A    between atoms: C7_8  and  C8_9 
REMARK    3  A    between atoms: C10_11  and  C11_12 
ROOT
HETATM    1  C8  UNL     1      -0.152  17.206  19.183  1.00  0.00     0.043 A 
HETATM    2  C9  UNL     1      -1.010  18.089  19.799  1.00  0.00     0.046 A 
HETATM    3  C10 UNL     1      -0.643  18.244  21.095  1.00  0.00     0.022 A 
HETATM    4  C16 UNL     1       0.460  17.449  21.298  1.00  0.00     0.018 A 
HETATM    5  C17 UNL     1       1.189  17.318  22.590  1.00  0.00     0.069 C 
HETATM    6  N2  UNL     1       0.724  16.845  20.133  1.00  0.00    -0.358 N 
ATOM      7  H2  UNL     1       1.494  16.192  19.987  1.00  0.00     0.166 HD
ENDROOT
BRANCH   1   8
HETATM    8  C7  UNL     1      -0.160  16.742  17.804  1.00  0.00    -0.006 A 
HETATM    9  C6  UNL     1       0.660  15.714  17.404  1.00  0.00     0.020 A 
HETATM   10  C4  UNL     1       0.664  15.257  16.087  1.00  0.00    -0.059 A 
HETATM   11  C3  UNL     1      -0.165  15.836  15.153  1.00  0.00     0.043 A 
HETATM   12  C5  UNL     1       1.542  14.152  15.638  1.00  0.00     0.048 C 
HETATM   13  C2  UNL     1      -1.004  16.882  15.547  1.00  0.00     0.069 A 
HETATM   14  C18 UNL     1      -0.980  17.307  16.861  1.00  0.00     0.050 A 
BRANCH  13  15
HETATM   15  O1  UNL     1      -1.839  17.475  14.628  1.00  0.00    -0.356 OA
HETATM   16  C1  UNL     1      -3.214  17.639  14.849  1.00  0.00     0.210 C 
ENDBRANCH  13  15
ENDBRANCH   1   8
BRANCH   3  17
HETATM   17  C11 UNL     1      -1.284  19.097  22.123  1.00  0.00     0.087 A 
HETATM   18  N1  UNL     1      -1.940  18.792  23.209  1.00  0.00    -0.353 N 
HETATM   19  C12 UNL     1      -2.423  19.720  23.974  1.00  0.00     0.019 A 
ATOM     20  H1  UNL     1      -2.074  17.812  23.458  1.00  0.00     0.166 HD
HETATM   21  C13 UNL     1      -3.192  19.421  25.245  1.00  0.00     0.069 C 
HETATM   22  C14 UNL     1      -2.218  21.024  23.595  1.00  0.00     0.003 A 
HETATM   23  C15 UNL     1      -2.636  22.299  24.242  1.00  0.00     0.058 C 
HETATM   24  S1  UNL     1      -1.331  20.814  22.144  1.00  0.00    -0.074 SA
ENDBRANCH   3  17
TORSDOF 3
ENDMDL
