MODEL 1
REMARK VINA RESULT: -7.123148546      0.000      0.000
REMARK  4 active torsions:
REMARK  status: ('A' for Active; 'I' for Inactive)
REMARK    1  A    between atoms: C2_2  and  C3_3 
REMARK    2  A    between atoms: C11_13  and  O3_14 
REMARK    3  A    between atoms: C11_13  and  C12_16 
REMARK    4  A    between atoms: C16_20  and  C17_21 
ROOT
HETATM    1  C3  UNL     1      -1.341  17.102  15.757  1.00  0.00     0.062 C 
HETATM    2  C4  UNL     1      -0.712  17.535  14.499  1.00  0.00     0.046 C 
HETATM    3  O1  UNL     1      -1.052  18.039  16.720  1.00  0.00    -0.374 OA
HETATM    4  C5  UNL     1       0.037  17.613  17.456  1.00  0.00     0.138 C 
HETATM    5  C6  UNL     1       0.467  16.252  16.840  1.00  0.00     0.058 C 
HETATM    6  C7  UNL     1       1.257  15.503  17.793  1.00  0.00    -0.018 A 
HETATM    7  C8  UNL     1       2.204  14.511  17.675  1.00  0.00     0.149 A 
HETATM    8  O2  UNL     1       2.675  14.152  18.829  1.00  0.00    -0.334 OA
HETATM    9  C9  UNL     1       2.103  14.846  19.754  1.00  0.00     0.152 A 
HETATM   10  C10 UNL     1       1.202  15.714  19.172  1.00  0.00     0.007 A 
HETATM   11  C11 UNL     1       0.335  16.719  19.819  1.00  0.00     0.092 C 
HETATM   12  C14 UNL     1      -0.461  17.481  18.858  1.00  0.00     0.050 C 
HETATM   13  C15 UNL     1      -0.710  18.893  19.362  1.00  0.00     0.016 C 
HETATM   14  C16 UNL     1      -0.844  15.807  16.378  1.00  0.00     0.034 C 
ENDROOT
BRANCH  11  15
HETATM   15  O3  UNL     1      -0.553  15.961  20.630  1.00  0.00    -0.384 OA
ATOM     16  H3  UNL     1      -0.747  16.525  21.368  1.00  0.00     0.211 HD
ENDBRANCH  11  15
BRANCH  11  17
HETATM   17  C12 UNL     1       1.118  17.535  20.837  1.00  0.00     0.039 C 
HETATM   18  C13 UNL     1       0.858  17.160  22.254  1.00  0.00     0.008 C 
ENDBRANCH  11  17
BRANCH  14  19
HETATM   19  C17 UNL     1      -1.081  14.620  15.580  1.00  0.00    -0.015 C 
HETATM   20  C18 UNL     1      -1.704  13.508  16.398  1.00  0.00     0.010 C 
HETATM   21  C19 UNL     1       0.025  14.089  14.711  1.00  0.00     0.010 C 
ENDBRANCH  14  19
BRANCH   1  22
HETATM   22  C2  UNL     1      -2.844  17.062  15.567  1.00  0.00     0.033 C 
HETATM   23  C1  UNL     1      -3.220  17.983  14.429  1.00  0.00     0.008 C 
ENDBRANCH   1  22
TORSDOF 4
ENDMDL
MODEL 2
REMARK VINA RESULT: -6.917195142      6.902      9.156
REMARK  4 active torsions:
REMARK  status: ('A' for Active; 'I' for Inactive)
REMARK    1  A    between atoms: C2_2  and  C3_3 
REMARK    2  A    between atoms: C11_13  and  O3_14 
REMARK    3  A    between atoms: C11_13  and  C12_16 
REMARK    4  A    between atoms: C16_20  and  C17_21 
ROOT
HETATM    1  C3  UNL     1      -4.591  24.620  21.239  1.00  0.00     0.062 C 
HETATM    2  C4  UNL     1      -3.821  25.352  20.220  1.00  0.00     0.046 C 
HETATM    3  O1  UNL     1      -4.235  25.109  22.473  1.00  0.00    -0.374 OA
HETATM    4  C5  UNL     1      -3.273  24.287  23.028  1.00  0.00     0.138 C 
HETATM    5  C6  UNL     1      -3.005  23.170  21.979  1.00  0.00     0.058 C 
HETATM    6  C7  UNL     1      -2.400  22.023  22.620  1.00  0.00    -0.018 A 
HETATM    7  C8  UNL     1      -1.602  20.994  22.175  1.00  0.00     0.149 A 
HETATM    8  O2  UNL     1      -1.269  20.189  23.136  1.00  0.00    -0.334 OA
HETATM    9  C9  UNL     1      -1.796  20.605  24.238  1.00  0.00     0.152 A 
HETATM   10  C10 UNL     1      -2.518  21.753  23.985  1.00  0.00     0.007 A 
HETATM   11  C11 UNL     1      -3.271  22.600  24.932  1.00  0.00     0.092 C 
HETATM   12  C14 UNL     1      -3.880  23.763  24.287  1.00  0.00     0.050 C 
HETATM   13  C15 UNL     1      -3.954  24.936  25.251  1.00  0.00     0.016 C 
HETATM   14  C16 UNL     1      -4.332  23.128  21.374  1.00  0.00     0.034 C 
ENDROOT
BRANCH  11  15
HETATM   15  O3  UNL     1      -4.314  21.762  25.413  1.00  0.00    -0.384 OA
ATOM     16  H3  UNL     1      -4.067  20.888  25.136  1.00  0.00     0.211 HD
ENDBRANCH  11  15
BRANCH  11  17
HETATM   17  C12 UNL     1      -2.449  22.879  26.181  1.00  0.00     0.039 C 
HETATM   18  C13 UNL     1      -2.864  22.095  27.377  1.00  0.00     0.008 C 
ENDBRANCH  11  17
BRANCH  14  19
HETATM   19  C17 UNL     1      -4.684  22.342  20.207  1.00  0.00    -0.015 C 
HETATM   20  C18 UNL     1      -5.543  21.149  20.572  1.00  0.00     0.010 C 
HETATM   21  C19 UNL     1      -3.606  21.948  19.237  1.00  0.00     0.010 C 
ENDBRANCH  14  19
BRANCH   1  22
HETATM   22  C2  UNL     1      -6.067  24.889  21.027  1.00  0.00     0.033 C 
HETATM   23  C1  UNL     1      -6.248  25.636  19.725  1.00  0.00     0.008 C 
ENDBRANCH   1  22
TORSDOF 4
ENDMDL
MODEL 3
REMARK VINA RESULT: -6.708513940      6.326      9.741
REMARK  4 active torsions:
REMARK  status: ('A' for Active; 'I' for Inactive)
REMARK    1  A    between atoms: C2_2  and  C3_3 
REMARK    2  A    between atoms: C11_13  and  O3_14 
REMARK    3  A    between atoms: C11_13  and  C12_16 
REMARK    4  A    between atoms: C16_20  and  C17_21 
ROOT
HETATM    1  C3  UNL     1      -1.978  19.740  22.877  1.00  0.00     0.062 C 
HETATM    2  C4  UNL     1      -0.508  19.766  22.945  1.00  0.00     0.046 C 
HETATM    3  O1  UNL     1      -2.362  20.418  21.745  1.00  0.00    -0.374 OA
HETATM    4  C5  UNL     1      -2.690  21.717  22.081  1.00  0.00     0.138 C 
HETATM    5  C6  UNL     1      -2.453  21.837  23.613  1.00  0.00     0.058 C 
HETATM    6  C7  UNL     1      -3.196  22.959  24.144  1.00  0.00    -0.018 A 
HETATM    7  C8  UNL     1      -3.047  23.761  25.253  1.00  0.00     0.149 A 
HETATM    8  O2  UNL     1      -3.958  24.683  25.309  1.00  0.00    -0.334 OA
HETATM    9  C9  UNL     1      -4.741  24.567  24.290  1.00  0.00     0.152 A 
HETATM   10  C10 UNL     1      -4.318  23.504  23.518  1.00  0.00     0.007 A 
HETATM   11  C11 UNL     1      -4.879  23.003  22.247  1.00  0.00     0.092 C 
HETATM   12  C14 UNL     1      -4.127  21.871  21.706  1.00  0.00     0.050 C 
HETATM   13  C15 UNL     1      -4.179  21.866  20.187  1.00  0.00     0.016 C 
HETATM   14  C16 UNL     1      -2.742  20.454  23.979  1.00  0.00     0.034 C 
ENDROOT
BRANCH  11  15
HETATM   15  O3  UNL     1      -6.184  22.550  22.583  1.00  0.00    -0.384 OA
ATOM     16  H3  UNL     1      -6.396  21.908  21.915  1.00  0.00     0.211 HD
ENDBRANCH  11  15
BRANCH  11  17
HETATM   17  C12 UNL     1      -5.150  24.150  21.285  1.00  0.00     0.039 C 
HETATM   18  C13 UNL     1      -6.594  24.459  21.090  1.00  0.00     0.008 C 
ENDBRANCH  11  17
BRANCH  14  19
HETATM   19  C17 UNL     1      -2.562  19.895  25.305  1.00  0.00    -0.015 C 
HETATM   20  C18 UNL     1      -3.876  19.447  25.910  1.00  0.00     0.010 C 
HETATM   21  C19 UNL     1      -1.739  20.649  26.312  1.00  0.00     0.010 C 
ENDBRANCH  14  19
BRANCH   1  22
HETATM   22  C2  UNL     1      -2.439  18.302  22.752  1.00  0.00     0.033 C 
HETATM   23  C1  UNL     1      -1.649  17.626  21.654  1.00  0.00     0.008 C 
ENDBRANCH   1  22
TORSDOF 4
ENDMDL
MODEL 4
REMARK VINA RESULT: -6.612461063      6.793      9.019
REMARK  4 active torsions:
REMARK  status: ('A' for Active; 'I' for Inactive)
REMARK    1  A    between atoms: C2_2  and  C3_3 
REMARK    2  A    between atoms: C11_13  and  O3_14 
REMARK    3  A    between atoms: C11_13  and  C12_16 
REMARK    4  A    between atoms: C16_20  and  C17_21 
ROOT
HETATM    1  C3  UNL     1      -4.520  24.316  22.409  1.00  0.00     0.062 C 
HETATM    2  C4  UNL     1      -3.848  25.498  21.845  1.00  0.00     0.046 C 
HETATM    3  O1  UNL     1      -4.214  24.253  23.747  1.00  0.00    -0.374 OA
HETATM    4  C5  UNL     1      -3.159  23.381  23.933  1.00  0.00     0.138 C 
HETATM    5  C6  UNL     1      -2.770  22.870  22.516  1.00  0.00     0.058 C 
HETATM    6  C7  UNL     1      -2.031  21.630  22.622  1.00  0.00    -0.018 A 
HETATM    7  C8  UNL     1      -1.122  20.991  21.810  1.00  0.00     0.149 A 
HETATM    8  O2  UNL     1      -0.690  19.890  22.340  1.00  0.00    -0.334 OA
HETATM    9  C9  UNL     1      -1.254  19.723  23.489  1.00  0.00     0.152 A 
HETATM   10  C10 UNL     1      -2.107  20.781  23.727  1.00  0.00     0.007 A 
HETATM   11  C11 UNL     1      -2.947  21.043  24.914  1.00  0.00     0.092 C 
HETATM   12  C14 UNL     1      -3.692  22.297  24.811  1.00  0.00     0.050 C 
HETATM   13  C15 UNL     1      -3.895  22.917  26.184  1.00  0.00     0.016 C 
HETATM   14  C16 UNL     1      -4.088  22.953  21.895  1.00  0.00     0.034 C 
ENDROOT
BRANCH  11  15
HETATM   15  O3  UNL     1      -3.881  19.972  24.937  1.00  0.00    -0.384 OA
ATOM     16  H3  UNL     1      -4.384  20.108  25.732  1.00  0.00     0.211 HD
ENDBRANCH  11  15
BRANCH  11  17
HETATM   17  C12 UNL     1      -2.154  20.836  26.195  1.00  0.00     0.039 C 
HETATM   18  C13 UNL     1      -2.532  19.616  26.960  1.00  0.00     0.008 C 
ENDBRANCH  11  17
BRANCH  14  19
HETATM   19  C17 UNL     1      -4.354  22.722  20.488  1.00  0.00    -0.015 C 
HETATM   20  C18 UNL     1      -5.157  21.456  20.268  1.00  0.00     0.010 C 
HETATM   21  C19 UNL     1      -3.222  22.813  19.503  1.00  0.00     0.010 C 
ENDBRANCH  14  19
BRANCH   1  22
HETATM   22  C2  UNL     1      -6.019  24.490  22.269  1.00  0.00     0.033 C 
HETATM   23  C1  UNL     1      -6.523  25.343  23.410  1.00  0.00     0.008 C 
ENDBRANCH   1  22
TORSDOF 4
ENDMDL
MODEL 5
REMARK VINA RESULT: -6.496169966      6.926     10.087
REMARK  4 active torsions:
REMARK  status: ('A' for Active; 'I' for Inactive)
REMARK    1  A    between atoms: C2_2  and  C3_3 
REMARK    2  A    between atoms: C11_13  and  O3_14 
REMARK    3  A    between atoms: C11_13  and  C12_16 
REMARK    4  A    between atoms: C16_20  and  C17_21 
ROOT
HETATM    1  C3  UNL     1      -2.857  20.777  25.467  1.00  0.00     0.062 C 
HETATM    2  C4  UNL     1      -3.686  19.613  25.824  1.00  0.00     0.046 C 
HETATM    3  O1  UNL     1      -3.599  21.911  25.696  1.00  0.00    -0.374 OA
HETATM    4  C5  UNL     1      -4.176  22.324  24.511  1.00  0.00     0.138 C 
HETATM    5  C6  UNL     1      -3.737  21.290  23.436  1.00  0.00     0.058 C 
HETATM    6  C7  UNL     1      -3.870  21.863  22.114  1.00  0.00    -0.018 A 
HETATM    7  C8  UNL     1      -4.040  21.328  20.857  1.00  0.00     0.149 A 
HETATM    8  O2  UNL     1      -4.140  22.249  19.949  1.00  0.00    -0.334 OA
HETATM    9  C9  UNL     1      -4.050  23.407  20.509  1.00  0.00     0.152 A 
HETATM   10  C10 UNL     1      -3.880  23.237  21.868  1.00  0.00     0.007 A 
HETATM   11  C11 UNL     1      -3.754  24.265  22.921  1.00  0.00     0.092 C 
HETATM   12  C14 UNL     1      -3.624  23.689  24.258  1.00  0.00     0.050 C 
HETATM   13  C15 UNL     1      -4.244  24.604  25.302  1.00  0.00     0.016 C 
HETATM   14  C16 UNL     1      -2.447  20.924  24.011  1.00  0.00     0.034 C 
ENDROOT
BRANCH  11  15
HETATM   15  O3  UNL     1      -2.548  24.951  22.613  1.00  0.00    -0.384 OA
ATOM     16  H3  UNL     1      -2.519  25.675  23.227  1.00  0.00     0.211 HD
ENDBRANCH  11  15
BRANCH  11  17
HETATM   17  C12 UNL     1      -4.815  25.342  22.755  1.00  0.00     0.039 C 
HETATM   18  C13 UNL     1      -6.197  24.819  22.569  1.00  0.00     0.008 C 
ENDBRANCH  11  17
BRANCH  14  19
HETATM   19  C17 UNL     1      -1.590  19.866  23.512  1.00  0.00    -0.015 C 
HETATM   20  C18 UNL     1      -0.441  20.415  22.691  1.00  0.00     0.010 C 
HETATM   21  C19 UNL     1      -2.211  18.678  22.833  1.00  0.00     0.010 C 
ENDBRANCH  14  19
BRANCH   1  22
HETATM   22  C2  UNL     1      -1.642  20.810  26.372  1.00  0.00     0.033 C 
HETATM   23  C1  UNL     1      -1.737  22.015  27.279  1.00  0.00     0.008 C 
ENDBRANCH   1  22
TORSDOF 4
ENDMDL
