MODEL 1
REMARK VINA RESULT: -9.346318341      0.000      0.000
REMARK  18 active torsions:
REMARK  status: ('A' for Active; 'I' for Inactive)
REMARK    1  A    between atoms: C2_2  and  C4_4 
REMARK    2  A    between atoms: C4_4  and  C5_5 
REMARK    3  A    between atoms: C5_5  and  N1_6 
REMARK    4  A    between atoms: C5_5  and  C6_10 
REMARK       I    between atoms: C6_10  and  N2_12 
REMARK    5  A    between atoms: C10_16  and  C11_17 
REMARK    6  A    between atoms: C11_17  and  O2_18 
REMARK    7  A    between atoms: C11_17  and  C34_50 
REMARK    8  A    between atoms: O2_18  and  C12_19 
REMARK    9  A    between atoms: C12_19  and  C13_20 
REMARK   10  A    between atoms: C13_20  and  C14_22 
REMARK   11  A    between atoms: C14_22  and  O4_23 
REMARK   12  A    between atoms: C14_22  and  N3_25 
REMARK       I    between atoms: N3_25  and  C15_27 
REMARK   13  A    between atoms: C15_27  and  C16_29 
REMARK   14  A    between atoms: C16_29  and  N4_30 
REMARK       I    between atoms: N4_30  and  C17_31 
REMARK   15  A    between atoms: C17_31  and  C18_33 
REMARK   16  A    between atoms: C18_33  and  C19_34 
REMARK   17  A    between atoms: C18_33  and  N5_37 
REMARK   18  A    between atoms: N5_37  and  C23_39 
ROOT
HETATM    1  C14 UNL     1      17.086  21.006  17.333  1.00  0.00     0.192 C 
ENDROOT
BRANCH   1   2
HETATM    2  C13 UNL     1      17.372  21.360  18.675  1.00  0.00     0.223 C 
HETATM    3  O3  UNL     1      16.576  21.156  19.608  1.00  0.00    -0.286 OA
BRANCH   2   4
HETATM    4  C12 UNL     1      18.727  22.033  18.995  1.00  0.00     0.255 C 
BRANCH   4   5
HETATM    5  O2  UNL     1      19.124  22.784  17.962  1.00  0.00    -0.376 OA
BRANCH   5   6
HETATM    6  C11 UNL     1      19.293  24.087  17.942  1.00  0.00     0.148 C 
BRANCH   6   7
HETATM    7  C10 UNL     1      20.558  24.827  17.984  1.00  0.00     0.116 C 
HETATM    8  N2  UNL     1      20.717  26.137  18.496  1.00  0.00    -0.343 N 
HETATM    9  C6  UNL     1      21.381  27.225  17.836  1.00  0.00     0.251 C 
HETATM   10  C7  UNL     1      20.114  26.184  19.803  1.00  0.00     0.126 C 
HETATM   11  O1  UNL     1      21.310  28.347  18.332  1.00  0.00    -0.271 OA
HETATM   12  C8  UNL     1      20.698  24.892  20.374  1.00  0.00     0.022 C 
HETATM   13  C9  UNL     1      21.326  24.141  19.220  1.00  0.00     0.029 C 
BRANCH   9  14
HETATM   14  C5  UNL     1      22.122  26.905  16.582  1.00  0.00     0.275 C 
BRANCH  14  15
HETATM   15  C4  UNL     1      21.821  27.763  15.413  1.00  0.00     0.046 C 
BRANCH  15  16
HETATM   16  C2  UNL     1      21.069  27.089  14.288  1.00  0.00    -0.020 C 
HETATM   17  C1  UNL     1      19.572  27.189  14.466  1.00  0.00     0.009 C 
HETATM   18  C3  UNL     1      21.374  25.592  14.452  1.00  0.00     0.009 C 
ENDBRANCH  15  16
ENDBRANCH  14  15
BRANCH  14  19
HETATM   19  N1  UNL     1      23.535  27.239  16.940  1.00  0.00    -0.066 N 
ATOM     20  H13 UNL     1      24.227  26.619  16.521  1.00  0.00     0.275 HD
ATOM     21  H12 UNL     1      23.879  28.100  16.514  1.00  0.00     0.275 HD
ATOM     22  H11 UNL     1      23.546  27.246  17.960  1.00  0.00     0.275 HD
ENDBRANCH  14  19
ENDBRANCH   9  14
ENDBRANCH   6   7
BRANCH   6  23
HETATM   23  C34 UNL     1      18.296  24.722  16.931  1.00  0.00     0.008 C 
HETATM   24  C35 UNL     1      18.279  23.951  15.633  1.00  0.00     0.012 C 
HETATM   25  C36 UNL     1      16.927  24.854  17.473  1.00  0.00     0.012 C 
ENDBRANCH   6  23
ENDBRANCH   5   6
ENDBRANCH   4   5
ENDBRANCH   2   4
ENDBRANCH   1   2
BRANCH   1  26
HETATM   26  O4  UNL     1      18.084  20.401  16.717  1.00  0.00    -0.343 OA
ATOM     27  H4  UNL     1      17.942  20.277  15.786  1.00  0.00     0.219 HD
ENDBRANCH   1  26
BRANCH   1  28
HETATM   28  N3  UNL     1      15.956  21.175  16.558  1.00  0.00    -0.301 N 
HETATM   29  C15 UNL     1      14.650  21.640  16.725  1.00  0.00     0.265 C 
HETATM   30  O5  UNL     1      14.175  22.059  17.801  1.00  0.00    -0.269 OA
ATOM     31  H3  UNL     1      16.122  20.876  15.596  1.00  0.00     0.171 HD
BRANCH  29  32
HETATM   32  C16 UNL     1      13.799  21.615  15.458  1.00  0.00     0.177 C 
HETATM   33  C31 UNL     1      13.616  22.939  14.833  1.00  0.00     0.056 C 
HETATM   34  C32 UNL     1      15.084  22.887  14.386  1.00  0.00     0.008 C 
HETATM   35  C33 UNL     1      14.911  21.399  14.296  1.00  0.00     0.056 C 
BRANCH  32  36
HETATM   36  N4  UNL     1      12.847  20.608  15.321  1.00  0.00    -0.392 NA
HETATM   37  C17 UNL     1      11.938  19.642  15.187  1.00  0.00     0.322 C 
HETATM   38  O6  UNL     1      11.914  18.724  14.284  1.00  0.00    -0.255 OA
BRANCH  37  39
HETATM   39  C18 UNL     1      10.761  19.529  16.173  1.00  0.00     0.332 C 
BRANCH  39  40
HETATM   40  C19 UNL     1       9.569  19.908  15.374  1.00  0.00     0.021 C 
HETATM   41  C20 UNL     1       9.304  21.410  15.284  1.00  0.00     0.012 C 
HETATM   42  C21 UNL     1       9.409  19.216  14.047  1.00  0.00     0.012 C 
ENDBRANCH  39  40
BRANCH  39  43
HETATM   43  N5  UNL     1      10.850  18.198  16.657  1.00  0.00     0.104 N 
HETATM   44  C22 UNL     1       9.671  17.548  17.129  1.00  0.00     0.311 C 
BRANCH  43  45
HETATM   45  C23 UNL     1      11.868  18.193  17.731  1.00  0.00     0.223 C 
HETATM   46  C24 UNL     1      11.311  18.568  19.059  1.00  0.00     0.036 C 
HETATM   47  C25 UNL     1      11.872  17.812  20.214  1.00  0.00     0.002 C 
HETATM   48  C26 UNL     1      13.272  18.093  20.584  1.00  0.00     0.000 C 
HETATM   49  C27 UNL     1      14.057  18.986  19.689  1.00  0.00     0.000 C 
HETATM   50  C28 UNL     1      14.587  18.390  18.435  1.00  0.00     0.000 C 
HETATM   51  C29 UNL     1      14.089  17.046  18.054  1.00  0.00     0.002 C 
HETATM   52  C30 UNL     1      12.657  16.965  17.625  1.00  0.00     0.036 C 
ENDBRANCH  43  45
ENDBRANCH  39  43
ENDBRANCH  37  39
ENDBRANCH  32  36
ENDBRANCH  29  32
ENDBRANCH   1  28
TORSDOF 18
ENDMDL
MODEL 2
REMARK VINA RESULT: -9.288381920      2.164     10.932
REMARK  18 active torsions:
REMARK  status: ('A' for Active; 'I' for Inactive)
REMARK    1  A    between atoms: C2_2  and  C4_4 
REMARK    2  A    between atoms: C4_4  and  C5_5 
REMARK    3  A    between atoms: C5_5  and  N1_6 
REMARK    4  A    between atoms: C5_5  and  C6_10 
REMARK       I    between atoms: C6_10  and  N2_12 
REMARK    5  A    between atoms: C10_16  and  C11_17 
REMARK    6  A    between atoms: C11_17  and  O2_18 
REMARK    7  A    between atoms: C11_17  and  C34_50 
REMARK    8  A    between atoms: O2_18  and  C12_19 
REMARK    9  A    between atoms: C12_19  and  C13_20 
REMARK   10  A    between atoms: C13_20  and  C14_22 
REMARK   11  A    between atoms: C14_22  and  O4_23 
REMARK   12  A    between atoms: C14_22  and  N3_25 
REMARK       I    between atoms: N3_25  and  C15_27 
REMARK   13  A    between atoms: C15_27  and  C16_29 
REMARK   14  A    between atoms: C16_29  and  N4_30 
REMARK       I    between atoms: N4_30  and  C17_31 
REMARK   15  A    between atoms: C17_31  and  C18_33 
REMARK   16  A    between atoms: C18_33  and  C19_34 
REMARK   17  A    between atoms: C18_33  and  N5_37 
REMARK   18  A    between atoms: N5_37  and  C23_39 
ROOT
HETATM    1  C14 UNL     1      16.537  24.178  17.723  1.00  0.00     0.192 C 
ENDROOT
BRANCH   1   2
HETATM    2  C13 UNL     1      16.247  23.818  16.384  1.00  0.00     0.223 C 
HETATM    3  O3  UNL     1      17.132  23.648  15.527  1.00  0.00    -0.286 OA
BRANCH   2   4
HETATM    4  C12 UNL     1      14.769  23.634  15.966  1.00  0.00     0.255 C 
BRANCH   4   5
HETATM    5  O2  UNL     1      14.175  22.734  16.757  1.00  0.00    -0.376 OA
BRANCH   5   6
HETATM    6  C11 UNL     1      14.147  21.430  16.599  1.00  0.00     0.148 C 
BRANCH   6   7
HETATM    7  C10 UNL     1      13.885  20.410  17.619  1.00  0.00     0.116 C 
HETATM    8  N2  UNL     1      14.660  19.242  17.819  1.00  0.00    -0.343 N 
HETATM    9  C6  UNL     1      14.154  17.904  17.935  1.00  0.00     0.251 C 
HETATM   10  C7  UNL     1      16.044  19.632  17.904  1.00  0.00     0.126 C 
HETATM   11  O1  UNL     1      14.952  16.971  17.953  1.00  0.00    -0.271 OA
HETATM   12  C8  UNL     1      15.892  20.815  18.860  1.00  0.00     0.022 C 
HETATM   13  C9  UNL     1      14.413  21.114  18.965  1.00  0.00     0.029 C 
BRANCH   9  14
HETATM   14  C5  UNL     1      12.674  17.746  18.033  1.00  0.00     0.275 C 
BRANCH  14  15
HETATM   15  C4  UNL     1      12.080  16.674  17.202  1.00  0.00     0.046 C 
BRANCH  15  16
HETATM   16  C2  UNL     1      10.750  16.139  17.683  1.00  0.00    -0.020 C 
HETATM   17  C1  UNL     1      10.423  14.797  17.073  1.00  0.00     0.009 C 
HETATM   18  C3  UNL     1       9.704  17.095  17.086  1.00  0.00     0.009 C 
ENDBRANCH  15  16
ENDBRANCH  14  15
BRANCH  14  19
HETATM   19  N1  UNL     1      12.484  17.282  19.440  1.00  0.00    -0.066 N 
ATOM     20  H13 UNL     1      12.202  16.305  19.521  1.00  0.00     0.275 HD
ATOM     21  H12 UNL     1      13.352  17.194  19.969  1.00  0.00     0.275 HD
ATOM     22  H11 UNL     1      11.818  17.942  19.841  1.00  0.00     0.275 HD
ENDBRANCH  14  19
ENDBRANCH   9  14
ENDBRANCH   6   7
BRANCH   6  23
HETATM   23  C34 UNL     1      13.440  21.088  15.256  1.00  0.00     0.008 C 
HETATM   24  C35 UNL     1      14.367  20.337  14.333  1.00  0.00     0.012 C 
HETATM   25  C36 UNL     1      12.177  20.342  15.441  1.00  0.00     0.012 C 
ENDBRANCH   6  23
ENDBRANCH   5   6
ENDBRANCH   4   5
ENDBRANCH   2   4
ENDBRANCH   1   2
BRANCH   1  26
HETATM   26  O4  UNL     1      15.577  24.870  18.309  1.00  0.00    -0.343 OA
ATOM     27  H4  UNL     1      15.804  25.181  19.177  1.00  0.00     0.219 HD
ENDBRANCH   1  26
BRANCH   1  28
HETATM   28  N3  UNL     1      17.633  23.934  18.526  1.00  0.00    -0.301 N 
HETATM   29  C15 UNL     1      18.066  24.268  19.810  1.00  0.00     0.265 C 
HETATM   30  O5  UNL     1      17.432  24.985  20.613  1.00  0.00    -0.269 OA
ATOM     31  H3  UNL     1      18.316  23.346  18.047  1.00  0.00     0.171 HD
BRANCH  29  32
HETATM   32  C16 UNL     1      19.418  23.676  20.201  1.00  0.00     0.177 C 
HETATM   33  C31 UNL     1      19.377  22.839  21.416  1.00  0.00     0.056 C 
HETATM   34  C32 UNL     1      18.636  21.767  20.605  1.00  0.00     0.008 C 
HETATM   35  C33 UNL     1      19.413  22.254  19.418  1.00  0.00     0.056 C 
BRANCH  32  36
HETATM   36  N4  UNL     1      20.572  24.358  19.826  1.00  0.00    -0.392 NA
HETATM   37  C17 UNL     1      21.680  25.008  19.467  1.00  0.00     0.322 C 
HETATM   38  O6  UNL     1      22.859  24.507  19.330  1.00  0.00    -0.255 OA
BRANCH  37  39
HETATM   39  C18 UNL     1      21.640  26.515  19.156  1.00  0.00     0.332 C 
BRANCH  39  40
HETATM   40  C19 UNL     1      22.044  27.167  20.427  1.00  0.00     0.021 C 
HETATM   41  C20 UNL     1      21.008  28.122  21.018  1.00  0.00     0.012 C 
HETATM   42  C21 UNL     1      22.661  26.272  21.469  1.00  0.00     0.012 C 
ENDBRANCH  39  40
BRANCH  39  43
HETATM   43  N5  UNL     1      22.493  26.652  18.030  1.00  0.00     0.104 N 
HETATM   44  C22 UNL     1      23.417  27.738  17.984  1.00  0.00     0.311 C 
BRANCH  43  45
HETATM   45  C23 UNL     1      21.626  26.704  16.833  1.00  0.00     0.223 C 
HETATM   46  C24 UNL     1      20.879  27.986  16.712  1.00  0.00     0.036 C 
HETATM   47  C25 UNL     1      20.736  28.504  15.323  1.00  0.00     0.002 C 
HETATM   48  C26 UNL     1      19.845  27.756  14.416  1.00  0.00     0.000 C 
HETATM   49  C27 UNL     1      19.283  26.469  14.905  1.00  0.00     0.000 C 
HETATM   50  C28 UNL     1      20.182  25.285  14.876  1.00  0.00     0.000 C 
HETATM   51  C29 UNL     1      21.620  25.525  14.604  1.00  0.00     0.002 C 
HETATM   52  C30 UNL     1      22.390  26.229  15.678  1.00  0.00     0.036 C 
ENDBRANCH  43  45
ENDBRANCH  39  43
ENDBRANCH  37  39
ENDBRANCH  32  36
ENDBRANCH  29  32
ENDBRANCH   1  28
TORSDOF 18
ENDMDL
MODEL 3
REMARK VINA RESULT: -9.242962852      1.941     11.090
REMARK  18 active torsions:
REMARK  status: ('A' for Active; 'I' for Inactive)
REMARK    1  A    between atoms: C2_2  and  C4_4 
REMARK    2  A    between atoms: C4_4  and  C5_5 
REMARK    3  A    between atoms: C5_5  and  N1_6 
REMARK    4  A    between atoms: C5_5  and  C6_10 
REMARK       I    between atoms: C6_10  and  N2_12 
REMARK    5  A    between atoms: C10_16  and  C11_17 
REMARK    6  A    between atoms: C11_17  and  O2_18 
REMARK    7  A    between atoms: C11_17  and  C34_50 
REMARK    8  A    between atoms: O2_18  and  C12_19 
REMARK    9  A    between atoms: C12_19  and  C13_20 
REMARK   10  A    between atoms: C13_20  and  C14_22 
REMARK   11  A    between atoms: C14_22  and  O4_23 
REMARK   12  A    between atoms: C14_22  and  N3_25 
REMARK       I    between atoms: N3_25  and  C15_27 
REMARK   13  A    between atoms: C15_27  and  C16_29 
REMARK   14  A    between atoms: C16_29  and  N4_30 
REMARK       I    between atoms: N4_30  and  C17_31 
REMARK   15  A    between atoms: C17_31  and  C18_33 
REMARK   16  A    between atoms: C18_33  and  C19_34 
REMARK   17  A    between atoms: C18_33  and  N5_37 
REMARK   18  A    between atoms: N5_37  and  C23_39 
ROOT
HETATM    1  C14 UNL     1      17.188  24.638  17.052  1.00  0.00     0.192 C 
ENDROOT
BRANCH   1   2
HETATM    2  C13 UNL     1      16.833  23.992  15.842  1.00  0.00     0.223 C 
HETATM    3  O3  UNL     1      17.607  23.910  14.871  1.00  0.00    -0.286 OA
BRANCH   2   4
HETATM    4  C12 UNL     1      15.423  23.368  15.716  1.00  0.00     0.255 C 
BRANCH   4   5
HETATM    5  O2  UNL     1      15.507  22.033  15.736  1.00  0.00    -0.376 OA
BRANCH   5   6
HETATM    6  C11 UNL     1      14.801  21.201  16.468  1.00  0.00     0.148 C 
BRANCH   6   7
HETATM    7  C10 UNL     1      14.013  20.053  16.011  1.00  0.00     0.116 C 
HETATM    8  N2  UNL     1      12.600  20.021  15.921  1.00  0.00    -0.343 N 
HETATM    9  C6  UNL     1      11.746  18.991  16.443  1.00  0.00     0.251 C 
HETATM   10  C7  UNL     1      12.170  21.190  15.199  1.00  0.00     0.126 C 
HETATM   11  O1  UNL     1      10.531  19.169  16.426  1.00  0.00    -0.271 OA
HETATM   12  C8  UNL     1      13.170  21.131  14.045  1.00  0.00     0.022 C 
HETATM   13  C9  UNL     1      14.214  20.101  14.416  1.00  0.00     0.029 C 
BRANCH   9  14
HETATM   14  C5  UNL     1      12.409  17.763  16.967  1.00  0.00     0.275 C 
BRANCH  14  15
HETATM   15  C4  UNL     1      12.184  17.465  18.401  1.00  0.00     0.046 C 
BRANCH  15  16
HETATM   16  C2  UNL     1      13.426  17.433  19.262  1.00  0.00    -0.020 C 
HETATM   17  C1  UNL     1      13.654  18.743  19.978  1.00  0.00     0.009 C 
HETATM   18  C3  UNL     1      14.592  17.334  18.266  1.00  0.00     0.009 C 
ENDBRANCH  15  16
ENDBRANCH  14  15
BRANCH  14  19
HETATM   19  N1  UNL     1      11.697  16.668  16.239  1.00  0.00    -0.066 N 
ATOM     20  H13 UNL     1      10.760  16.919  15.926  1.00  0.00     0.275 HD
ATOM     21  H12 UNL     1      12.078  16.470  15.314  1.00  0.00     0.275 HD
ATOM     22  H11 UNL     1      11.724  15.875  16.879  1.00  0.00     0.275 HD
ENDBRANCH  14  19
ENDBRANCH   9  14
ENDBRANCH   6   7
BRANCH   6  23
HETATM   23  C34 UNL     1      15.581  20.873  17.774  1.00  0.00     0.008 C 
HETATM   24  C35 UNL     1      17.039  20.613  17.481  1.00  0.00     0.012 C 
HETATM   25  C36 UNL     1      15.439  21.916  18.812  1.00  0.00     0.012 C 
ENDBRANCH   6  23
ENDBRANCH   5   6
ENDBRANCH   4   5
ENDBRANCH   2   4
ENDBRANCH   1   2
BRANCH   1  26
HETATM   26  O4  UNL     1      16.503  25.742  17.287  1.00  0.00    -0.343 OA
ATOM     27  H4  UNL     1      15.602  25.706  16.986  1.00  0.00     0.219 HD
ENDBRANCH   1  26
BRANCH   1  28
HETATM   28  N3  UNL     1      18.110  24.321  18.028  1.00  0.00    -0.301 N 
HETATM   29  C15 UNL     1      18.219  24.422  19.417  1.00  0.00     0.265 C 
HETATM   30  O5  UNL     1      17.348  24.911  20.167  1.00  0.00    -0.269 OA
ATOM     31  H3  UNL     1      18.944  23.895  17.623  1.00  0.00     0.171 HD
BRANCH  29  32
HETATM   32  C16 UNL     1      19.518  23.867  19.995  1.00  0.00     0.177 C 
HETATM   33  C31 UNL     1      19.346  23.147  21.272  1.00  0.00     0.056 C 
HETATM   34  C32 UNL     1      18.681  22.004  20.492  1.00  0.00     0.008 C 
HETATM   35  C33 UNL     1      19.579  22.379  19.351  1.00  0.00     0.056 C 
BRANCH  32  36
HETATM   36  N4  UNL     1      20.711  24.512  19.679  1.00  0.00    -0.392 NA
HETATM   37  C17 UNL     1      21.855  25.125  19.376  1.00  0.00     0.322 C 
HETATM   38  O6  UNL     1      23.019  24.582  19.274  1.00  0.00    -0.255 OA
BRANCH  37  39
HETATM   39  C18 UNL     1      21.884  26.638  19.095  1.00  0.00     0.332 C 
BRANCH  39  40
HETATM   40  C19 UNL     1      22.157  27.257  20.416  1.00  0.00     0.021 C 
HETATM   41  C20 UNL     1      21.055  28.178  20.936  1.00  0.00     0.012 C 
HETATM   42  C21 UNL     1      22.689  26.339  21.485  1.00  0.00     0.012 C 
ENDBRANCH  39  40
BRANCH  39  43
HETATM   43  N5  UNL     1      22.861  26.776  18.075  1.00  0.00     0.104 N 
HETATM   44  C22 UNL     1      23.931  27.702  18.255  1.00  0.00     0.311 C 
BRANCH  43  45
HETATM   45  C23 UNL     1      22.142  27.105  16.825  1.00  0.00     0.223 C 
HETATM   46  C24 UNL     1      22.006  28.570  16.603  1.00  0.00     0.036 C 
HETATM   47  C25 UNL     1      22.146  29.009  15.186  1.00  0.00     0.002 C 
HETATM   48  C26 UNL     1      21.058  28.643  14.260  1.00  0.00     0.000 C 
HETATM   49  C27 UNL     1      19.990  27.741  14.771  1.00  0.00     0.000 C 
HETATM   50  C28 UNL     1      20.309  26.292  14.848  1.00  0.00     0.000 C 
HETATM   51  C29 UNL     1      21.724  25.893  14.655  1.00  0.00     0.002 C 
HETATM   52  C30 UNL     1      22.678  26.280  15.742  1.00  0.00     0.036 C 
ENDBRANCH  43  45
ENDBRANCH  39  43
ENDBRANCH  37  39
ENDBRANCH  32  36
ENDBRANCH  29  32
ENDBRANCH   1  28
TORSDOF 18
ENDMDL
MODEL 4
REMARK VINA RESULT: -9.229135187      2.103     10.728
REMARK  18 active torsions:
REMARK  status: ('A' for Active; 'I' for Inactive)
REMARK    1  A    between atoms: C2_2  and  C4_4 
REMARK    2  A    between atoms: C4_4  and  C5_5 
REMARK    3  A    between atoms: C5_5  and  N1_6 
REMARK    4  A    between atoms: C5_5  and  C6_10 
REMARK       I    between atoms: C6_10  and  N2_12 
REMARK    5  A    between atoms: C10_16  and  C11_17 
REMARK    6  A    between atoms: C11_17  and  O2_18 
REMARK    7  A    between atoms: C11_17  and  C34_50 
REMARK    8  A    between atoms: O2_18  and  C12_19 
REMARK    9  A    between atoms: C12_19  and  C13_20 
REMARK   10  A    between atoms: C13_20  and  C14_22 
REMARK   11  A    between atoms: C14_22  and  O4_23 
REMARK   12  A    between atoms: C14_22  and  N3_25 
REMARK       I    between atoms: N3_25  and  C15_27 
REMARK   13  A    between atoms: C15_27  and  C16_29 
REMARK   14  A    between atoms: C16_29  and  N4_30 
REMARK       I    between atoms: N4_30  and  C17_31 
REMARK   15  A    between atoms: C17_31  and  C18_33 
REMARK   16  A    between atoms: C18_33  and  C19_34 
REMARK   17  A    between atoms: C18_33  and  N5_37 
REMARK   18  A    between atoms: N5_37  and  C23_39 
ROOT
HETATM    1  C14 UNL     1      17.249  25.210  17.435  1.00  0.00     0.192 C 
ENDROOT
BRANCH   1   2
HETATM    2  C13 UNL     1      17.123  25.089  16.029  1.00  0.00     0.223 C 
HETATM    3  O3  UNL     1      16.875  26.057  15.290  1.00  0.00    -0.286 OA
BRANCH   2   4
HETATM    4  C12 UNL     1      17.296  23.693  15.384  1.00  0.00     0.255 C 
BRANCH   4   5
HETATM    5  O2  UNL     1      16.732  22.756  16.155  1.00  0.00    -0.376 OA
BRANCH   5   6
HETATM    6  C11 UNL     1      15.735  21.961  15.841  1.00  0.00     0.148 C 
BRANCH   6   7
HETATM    7  C10 UNL     1      14.681  21.454  16.725  1.00  0.00     0.116 C 
HETATM    8  N2  UNL     1      14.616  20.138  17.242  1.00  0.00    -0.343 N 
HETATM    9  C6  UNL     1      13.470  19.275  17.210  1.00  0.00     0.251 C 
HETATM   10  C7  UNL     1      15.895  19.822  17.824  1.00  0.00     0.126 C 
HETATM   11  O1  UNL     1      13.603  18.105  17.559  1.00  0.00    -0.271 OA
HETATM   12  C8  UNL     1      16.118  21.113  18.610  1.00  0.00     0.022 C 
HETATM   13  C9  UNL     1      15.072  22.102  18.145  1.00  0.00     0.029 C 
BRANCH   9  14
HETATM   14  C5  UNL     1      12.183  19.876  16.754  1.00  0.00     0.275 C 
BRANCH  14  15
HETATM   15  C4  UNL     1      11.657  19.378  15.462  1.00  0.00     0.046 C 
BRANCH  15  16
HETATM   16  C2  UNL     1      11.574  20.403  14.354  1.00  0.00    -0.020 C 
HETATM   17  C1  UNL     1      10.228  21.087  14.312  1.00  0.00     0.009 C 
HETATM   18  C3  UNL     1      11.627  19.583  13.056  1.00  0.00     0.009 C 
ENDBRANCH  15  16
ENDBRANCH  14  15
BRANCH  14  19
HETATM   19  N1  UNL     1      11.209  19.381  17.773  1.00  0.00    -0.066 N 
ATOM     20  H13 UNL     1      10.543  20.086  18.088  1.00  0.00     0.275 HD
ATOM     21  H12 UNL     1      10.518  18.727  17.404  1.00  0.00     0.275 HD
ATOM     22  H11 UNL     1      11.790  18.996  18.518  1.00  0.00     0.275 HD
ENDBRANCH  14  19
ENDBRANCH   9  14
ENDBRANCH   6   7
BRANCH   6  23
HETATM   23  C34 UNL     1      15.165  22.371  14.453  1.00  0.00     0.008 C 
HETATM   24  C35 UNL     1      15.116  21.187  13.518  1.00  0.00     0.012 C 
HETATM   25  C36 UNL     1      13.838  23.018  14.540  1.00  0.00     0.012 C 
ENDBRANCH   6  23
ENDBRANCH   5   6
ENDBRANCH   4   5
ENDBRANCH   2   4
ENDBRANCH   1   2
BRANCH   1  26
HETATM   26  O4  UNL     1      16.281  25.910  17.998  1.00  0.00    -0.343 OA
ATOM     27  H4  UNL     1      16.589  26.651  18.506  1.00  0.00     0.219 HD
ENDBRANCH   1  26
BRANCH   1  28
HETATM   28  N3  UNL     1      18.192  24.728  18.320  1.00  0.00    -0.301 N 
HETATM   29  C15 UNL     1      18.319  24.558  19.700  1.00  0.00     0.265 C 
HETATM   30  O5  UNL     1      17.451  24.874  20.541  1.00  0.00    -0.269 OA
ATOM     31  H3  UNL     1      19.027  24.407  17.830  1.00  0.00     0.171 HD
BRANCH  29  32
HETATM   32  C16 UNL     1      19.637  23.928  20.145  1.00  0.00     0.177 C 
HETATM   33  C31 UNL     1      19.528  23.117  21.373  1.00  0.00     0.056 C 
HETATM   34  C32 UNL     1      18.778  22.055  20.558  1.00  0.00     0.008 C 
HETATM   35  C33 UNL     1      19.609  22.493  19.388  1.00  0.00     0.056 C 
BRANCH  32  36
HETATM   36  N4  UNL     1      20.825  24.565  19.796  1.00  0.00    -0.392 NA
HETATM   37  C17 UNL     1      21.964  25.170  19.462  1.00  0.00     0.322 C 
HETATM   38  O6  UNL     1      23.127  24.626  19.360  1.00  0.00    -0.255 OA
BRANCH  37  39
HETATM   39  C18 UNL     1      21.989  26.675  19.141  1.00  0.00     0.332 C 
BRANCH  39  40
HETATM   40  C19 UNL     1      22.269  27.329  20.443  1.00  0.00     0.021 C 
HETATM   41  C20 UNL     1      21.101  28.121  21.031  1.00  0.00     0.012 C 
HETATM   42  C21 UNL     1      22.968  26.486  21.476  1.00  0.00     0.012 C 
ENDBRANCH  39  40
BRANCH  39  43
HETATM   43  N5  UNL     1      22.959  26.787  18.111  1.00  0.00     0.104 N 
HETATM   44  C22 UNL     1      24.043  27.700  18.272  1.00  0.00     0.311 C 
BRANCH  43  45
HETATM   45  C23 UNL     1      22.233  27.113  16.864  1.00  0.00     0.223 C 
HETATM   46  C24 UNL     1      22.048  28.577  16.667  1.00  0.00     0.036 C 
HETATM   47  C25 UNL     1      22.178  29.044  15.258  1.00  0.00     0.002 C 
HETATM   48  C26 UNL     1      21.107  28.657  14.320  1.00  0.00     0.000 C 
HETATM   49  C27 UNL     1      20.069  27.711  14.811  1.00  0.00     0.000 C 
HETATM   50  C28 UNL     1      20.437  26.272  14.865  1.00  0.00     0.000 C 
HETATM   51  C29 UNL     1      21.866  25.925  14.671  1.00  0.00     0.002 C 
HETATM   52  C30 UNL     1      22.802  26.327  15.769  1.00  0.00     0.036 C 
ENDBRANCH  43  45
ENDBRANCH  39  43
ENDBRANCH  37  39
ENDBRANCH  32  36
ENDBRANCH  29  32
ENDBRANCH   1  28
TORSDOF 18
ENDMDL
MODEL 5
REMARK VINA RESULT: -9.176154791      1.513      2.559
REMARK  18 active torsions:
REMARK  status: ('A' for Active; 'I' for Inactive)
REMARK    1  A    between atoms: C2_2  and  C4_4 
REMARK    2  A    between atoms: C4_4  and  C5_5 
REMARK    3  A    between atoms: C5_5  and  N1_6 
REMARK    4  A    between atoms: C5_5  and  C6_10 
REMARK       I    between atoms: C6_10  and  N2_12 
REMARK    5  A    between atoms: C10_16  and  C11_17 
REMARK    6  A    between atoms: C11_17  and  O2_18 
REMARK    7  A    between atoms: C11_17  and  C34_50 
REMARK    8  A    between atoms: O2_18  and  C12_19 
REMARK    9  A    between atoms: C12_19  and  C13_20 
REMARK   10  A    between atoms: C13_20  and  C14_22 
REMARK   11  A    between atoms: C14_22  and  O4_23 
REMARK   12  A    between atoms: C14_22  and  N3_25 
REMARK       I    between atoms: N3_25  and  C15_27 
REMARK   13  A    between atoms: C15_27  and  C16_29 
REMARK   14  A    between atoms: C16_29  and  N4_30 
REMARK       I    between atoms: N4_30  and  C17_31 
REMARK   15  A    between atoms: C17_31  and  C18_33 
REMARK   16  A    between atoms: C18_33  and  C19_34 
REMARK   17  A    between atoms: C18_33  and  N5_37 
REMARK   18  A    between atoms: N5_37  and  C23_39 
ROOT
HETATM    1  C14 UNL     1      15.623  22.935  18.103  1.00  0.00     0.192 C 
ENDROOT
BRANCH   1   2
HETATM    2  C13 UNL     1      16.639  22.392  18.927  1.00  0.00     0.223 C 
HETATM    3  O3  UNL     1      16.775  21.170  19.111  1.00  0.00    -0.286 OA
BRANCH   2   4
HETATM    4  C12 UNL     1      17.618  23.358  19.635  1.00  0.00     0.255 C 
BRANCH   4   5
HETATM    5  O2  UNL     1      17.801  24.455  18.893  1.00  0.00    -0.376 OA
BRANCH   5   6
HETATM    6  C11 UNL     1      18.893  24.813  18.255  1.00  0.00     0.148 C 
BRANCH   6   7
HETATM    7  C10 UNL     1      19.008  25.743  17.128  1.00  0.00     0.116 C 
HETATM    8  N2  UNL     1      19.735  25.493  15.939  1.00  0.00    -0.343 N 
HETATM    9  C6  UNL     1      20.688  26.379  15.332  1.00  0.00     0.251 C 
HETATM   10  C7  UNL     1      19.338  24.205  15.433  1.00  0.00     0.126 C 
HETATM   11  O1  UNL     1      21.355  25.968  14.386  1.00  0.00    -0.271 OA
HETATM   12  C8  UNL     1      17.823  24.357  15.575  1.00  0.00     0.022 C 
HETATM   13  C9  UNL     1      17.578  25.598  16.404  1.00  0.00     0.029 C 
BRANCH   9  14
HETATM   14  C5  UNL     1      20.793  27.753  15.902  1.00  0.00     0.275 C 
BRANCH  14  15
HETATM   15  C4  UNL     1      22.167  28.254  16.138  1.00  0.00     0.046 C 
BRANCH  15  16
HETATM   16  C2  UNL     1      23.110  27.278  16.803  1.00  0.00    -0.020 C 
HETATM   17  C1  UNL     1      23.704  27.838  18.074  1.00  0.00     0.009 C 
HETATM   18  C3  UNL     1      24.304  27.169  15.841  1.00  0.00     0.009 C 
ENDBRANCH  15  16
ENDBRANCH  14  15
BRANCH  14  19
HETATM   19  N1  UNL     1      20.266  28.609  14.796  1.00  0.00    -0.066 N 
ATOM     20  H13 UNL     1      19.694  29.392  15.113  1.00  0.00     0.275 HD
ATOM     21  H12 UNL     1      20.978  29.169  14.328  1.00  0.00     0.275 HD
ATOM     22  H11 UNL     1      19.776  27.960  14.180  1.00  0.00     0.275 HD
ENDBRANCH  14  19
ENDBRANCH   9  14
ENDBRANCH   6   7
BRANCH   6  23
HETATM   23  C34 UNL     1      20.046  25.016  19.280  1.00  0.00     0.008 C 
HETATM   24  C35 UNL     1      21.200  24.089  18.985  1.00  0.00     0.012 C 
HETATM   25  C36 UNL     1      20.512  26.417  19.357  1.00  0.00     0.012 C 
ENDBRANCH   6  23
ENDBRANCH   5   6
ENDBRANCH   4   5
ENDBRANCH   2   4
ENDBRANCH   1   2
BRANCH   1  26
HETATM   26  O4  UNL     1      15.131  24.077  18.545  1.00  0.00    -0.343 OA
ATOM     27  H4  UNL     1      14.411  24.412  18.024  1.00  0.00     0.219 HD
ENDBRANCH   1  26
BRANCH   1  28
HETATM   28  N3  UNL     1      15.060  22.491  16.923  1.00  0.00    -0.301 N 
HETATM   29  C15 UNL     1      15.250  21.445  16.019  1.00  0.00     0.265 C 
HETATM   30  O5  UNL     1      16.127  20.561  16.125  1.00  0.00    -0.269 OA
ATOM     31  H3  UNL     1      14.291  23.096  16.631  1.00  0.00     0.171 HD
BRANCH  29  32
HETATM   32  C16 UNL     1      14.277  21.435  14.842  1.00  0.00     0.177 C 
HETATM   33  C31 UNL     1      14.176  22.728  14.138  1.00  0.00     0.056 C 
HETATM   34  C32 UNL     1      15.577  22.479  13.562  1.00  0.00     0.008 C 
HETATM   35  C33 UNL     1      15.237  21.019  13.601  1.00  0.00     0.056 C 
BRANCH  32  36
HETATM   36  N4  UNL     1      13.214  20.537  14.871  1.00  0.00    -0.392 NA
HETATM   37  C17 UNL     1      12.198  19.674  14.896  1.00  0.00     0.322 C 
HETATM   38  O6  UNL     1      12.013  18.675  14.103  1.00  0.00    -0.255 OA
BRANCH  37  39
HETATM   39  C18 UNL     1      11.084  19.803  15.950  1.00  0.00     0.332 C 
BRANCH  39  40
HETATM   40  C19 UNL     1       9.927  20.357  15.205  1.00  0.00     0.021 C 
HETATM   41  C20 UNL     1       8.996  21.246  16.028  1.00  0.00     0.012 C 
HETATM   42  C21 UNL     1      10.226  20.940  13.849  1.00  0.00     0.012 C 
ENDBRANCH  39  40
BRANCH  39  43
HETATM   43  N5  UNL     1      10.972  18.494  16.487  1.00  0.00     0.104 N 
HETATM   44  C22 UNL     1       9.694  18.021  16.910  1.00  0.00     0.311 C 
BRANCH  43  45
HETATM   45  C23 UNL     1      11.918  18.407  17.621  1.00  0.00     0.223 C 
HETATM   46  C24 UNL     1      11.299  18.776  18.923  1.00  0.00     0.036 C 
HETATM   47  C25 UNL     1      11.747  17.962  20.088  1.00  0.00     0.002 C 
HETATM   48  C26 UNL     1      13.133  18.158  20.551  1.00  0.00     0.000 C 
HETATM   49  C27 UNL     1      14.018  19.030  19.732  1.00  0.00     0.000 C 
HETATM   50  C28 UNL     1      14.594  18.440  18.496  1.00  0.00     0.000 C 
HETATM   51  C29 UNL     1      14.053  17.135  18.046  1.00  0.00     0.002 C 
HETATM   52  C30 UNL     1      12.648  17.142  17.528  1.00  0.00     0.036 C 
ENDBRANCH  43  45
ENDBRANCH  39  43
ENDBRANCH  37  39
ENDBRANCH  32  36
ENDBRANCH  29  32
ENDBRANCH   1  28
TORSDOF 18
ENDMDL
