MODEL 1
REMARK VINA RESULT: -8.701403712      0.000      0.000
REMARK  17 active torsions:
REMARK  status: ('A' for Active; 'I' for Inactive)
REMARK    1  A    between atoms: C2_2  and  C3_3 
REMARK    2  A    between atoms: C3_3  and  O1_4 
REMARK    3  A    between atoms: O1_4  and  C4_5 
REMARK    4  A    between atoms: C6_7  and  C7_8 
REMARK    5  A    between atoms: C7_8  and  N1_9 
REMARK    6  A    between atoms: C10_12  and  N2_13 
REMARK       I    between atoms: N2_13  and  C11_15 
REMARK    7  A    between atoms: C11_15  and  C12_17 
REMARK    8  A    between atoms: C12_17  and  O3_18 
REMARK    9  A    between atoms: O3_18  and  C13_19 
REMARK   10  A    between atoms: C13_19  and  C14_21 
REMARK   11  A    between atoms: C14_21  and  C15_22 
REMARK   12  A    between atoms: N3_25  and  C18_26 
REMARK   13  A    between atoms: C18_26  and  C19_27 
REMARK       I    between atoms: C19_27  and  N4_29 
REMARK   14  A    between atoms: N4_29  and  C20_31 
REMARK   15  A    between atoms: C33_45  and  O7_46 
REMARK   16  A    between atoms: C34_48  and  O8_49 
REMARK   17  A    between atoms: O8_49  and  C35_50 
ROOT
HETATM    1  N2  UNL     1      16.919  21.681  19.357  1.00  0.00    -0.346 N 
ATOM      2  H2  UNL     1      16.476  22.415  19.911  1.00  0.00     0.163 HD
HETATM    3  C11 UNL     1      16.103  20.882  18.547  1.00  0.00     0.242 C 
HETATM    4  O2  UNL     1      16.634  19.980  17.849  1.00  0.00    -0.271 OA
ENDROOT
BRANCH   3   5
HETATM    5  C12 UNL     1      14.651  21.066  18.483  1.00  0.00     0.281 C 
BRANCH   5   6
HETATM    6  O3  UNL     1      13.946  20.050  17.831  1.00  0.00    -0.312 OA
BRANCH   6   7
HETATM    7  C13 UNL     1      12.848  20.261  17.020  1.00  0.00     0.259 C 
HETATM    8  O4  UNL     1      11.713  19.904  17.455  1.00  0.00    -0.265 OA
BRANCH   7   9
HETATM    9  C14 UNL     1      12.895  20.876  15.673  1.00  0.00     0.117 C 
BRANCH   9  10
HETATM   10  C15 UNL     1      14.307  21.360  15.449  1.00  0.00     0.025 C 
HETATM   11  C16 UNL     1      14.704  21.239  13.983  1.00  0.00     0.037 C 
HETATM   12  C17 UNL     1      15.921  22.172  13.970  1.00  0.00     0.273 C 
HETATM   13  N3  UNL     1      15.635  23.236  14.903  1.00  0.00     0.097 N 
HETATM   14  C30 UNL     1      14.427  22.873  15.624  1.00  0.00     0.278 C 
BRANCH  13  15
HETATM   15  C18 UNL     1      16.694  23.316  15.877  1.00  0.00     0.374 C 
BRANCH  15  16
HETATM   16  C19 UNL     1      17.505  24.545  15.770  1.00  0.00     0.246 C 
HETATM   17  O5  UNL     1      16.947  25.639  15.896  1.00  0.00    -0.272 OA
HETATM   18  N4  UNL     1      18.894  24.468  15.524  1.00  0.00    -0.350 N 
ATOM     19  H4  UNL     1      19.313  23.543  15.425  1.00  0.00     0.163 HD
BRANCH  18  20
HETATM   20  C20 UNL     1      19.756  25.621  15.405  1.00  0.00     0.034 C 
HETATM   21  C21 UNL     1      21.090  25.122  14.864  1.00  0.00     0.035 C 
HETATM   22  C22 UNL     1      22.054  26.271  14.736  1.00  0.00    -0.012 C 
HETATM   23  C23 UNL     1      21.493  27.235  13.701  1.00  0.00     0.009 C 
HETATM   24  C27 UNL     1      22.233  26.981  16.045  1.00  0.00     0.009 C 
HETATM   25  C24 UNL     1      20.165  27.723  14.173  1.00  0.00    -0.012 C 
HETATM   26  C25 UNL     1      20.342  28.464  15.481  1.00  0.00     0.009 C 
HETATM   27  C29 UNL     1      19.196  26.585  14.401  1.00  0.00     0.035 C 
HETATM   28  C26 UNL     1      20.883  27.512  16.501  1.00  0.00    -0.012 C 
HETATM   29  C28 UNL     1      19.988  26.305  16.723  1.00  0.00     0.035 C 
ENDBRANCH  18  20
ENDBRANCH  15  16
ENDBRANCH  13  15
ENDBRANCH   9  10
ENDBRANCH   7   9
ENDBRANCH   6   7
ENDBRANCH   5   6
ENDBRANCH   3   5
BRANCH   1  30
HETATM   30  C10 UNL     1      18.359  21.527  19.455  1.00  0.00     0.178 C 
HETATM   31  C9  UNL     1      18.833  21.512  20.892  1.00  0.00     0.054 C 
HETATM   32  C8  UNL     1      19.045  22.977  21.213  1.00  0.00     0.129 C 
HETATM   33  N1  UNL     1      19.165  23.664  19.947  1.00  0.00    -0.346 N 
HETATM   34  C31 UNL     1      19.089  22.697  18.924  1.00  0.00     0.242 C 
HETATM   35  O6  UNL     1      19.585  22.868  17.767  1.00  0.00    -0.271 OA
BRANCH  33  36
HETATM   36  C7  UNL     1      19.340  25.100  19.832  1.00  0.00     0.164 C 
BRANCH  36  37
HETATM   37  C6  UNL     1      20.680  25.525  20.298  1.00  0.00    -0.035 A 
HETATM   38  C5  UNL     1      21.866  25.104  19.712  1.00  0.00     0.048 A 
HETATM   39  C4  UNL     1      23.113  25.499  20.146  1.00  0.00     0.105 A 
HETATM   40  C34 UNL     1      23.214  26.374  21.238  1.00  0.00     0.135 A 
HETATM   41  C33 UNL     1      22.038  26.789  21.814  1.00  0.00     0.102 A 
HETATM   42  C32 UNL     1      20.789  26.388  21.374  1.00  0.00     0.048 A 
BRANCH  39  43
HETATM   43  O1  UNL     1      24.310  25.112  19.606  1.00  0.00    -0.348 OA
BRANCH  43  44
HETATM   44  C3  UNL     1      25.061  25.592  18.567  1.00  0.00     0.175 C 
BRANCH  44  45
HETATM   45  C2  UNL     1      26.143  24.717  18.026  1.00  0.00     0.022 C 
HETATM   46  C1  UNL     1      26.153  23.353  18.703  1.00  0.00     0.007 C 
ENDBRANCH  44  45
ENDBRANCH  43  44
ENDBRANCH  39  43
BRANCH  40  47
HETATM   47  O8  UNL     1      24.452  26.797  21.708  1.00  0.00    -0.346 OA
BRANCH  47  48
HETATM   48  C35 UNL     1      25.025  26.135  22.845  1.00  0.00     0.171 C 
HETATM   49  C36 UNL     1      26.109  25.189  22.438  1.00  0.00     0.034 C 
ENDBRANCH  47  48
ENDBRANCH  40  47
BRANCH  41  50
HETATM   50  O7  UNL     1      22.105  27.657  22.900  1.00  0.00    -0.358 OA
ATOM     51  H7  UNL     1      22.962  27.883  23.242  1.00  0.00     0.217 HD
ENDBRANCH  41  50
ENDBRANCH  36  37
ENDBRANCH  33  36
ENDBRANCH   1  30
TORSDOF 17
ENDMDL
MODEL 2
REMARK VINA RESULT: -8.479535775      3.114      7.607
REMARK  17 active torsions:
REMARK  status: ('A' for Active; 'I' for Inactive)
REMARK    1  A    between atoms: C2_2  and  C3_3 
REMARK    2  A    between atoms: C3_3  and  O1_4 
REMARK    3  A    between atoms: O1_4  and  C4_5 
REMARK    4  A    between atoms: C6_7  and  C7_8 
REMARK    5  A    between atoms: C7_8  and  N1_9 
REMARK    6  A    between atoms: C10_12  and  N2_13 
REMARK       I    between atoms: N2_13  and  C11_15 
REMARK    7  A    between atoms: C11_15  and  C12_17 
REMARK    8  A    between atoms: C12_17  and  O3_18 
REMARK    9  A    between atoms: O3_18  and  C13_19 
REMARK   10  A    between atoms: C13_19  and  C14_21 
REMARK   11  A    between atoms: C14_21  and  C15_22 
REMARK   12  A    between atoms: N3_25  and  C18_26 
REMARK   13  A    between atoms: C18_26  and  C19_27 
REMARK       I    between atoms: C19_27  and  N4_29 
REMARK   14  A    between atoms: N4_29  and  C20_31 
REMARK   15  A    between atoms: C33_45  and  O7_46 
REMARK   16  A    between atoms: C34_48  and  O8_49 
REMARK   17  A    between atoms: O8_49  and  C35_50 
ROOT
HETATM    1  N2  UNL     1      15.213  23.100  16.794  1.00  0.00    -0.346 N 
ATOM      2  H2  UNL     1      14.646  23.908  16.536  1.00  0.00     0.163 HD
HETATM    3  C11 UNL     1      14.855  21.850  16.274  1.00  0.00     0.242 C 
HETATM    4  O2  UNL     1      15.548  20.844  16.572  1.00  0.00    -0.271 OA
ENDROOT
BRANCH   3   5
HETATM    5  C12 UNL     1      13.700  21.677  15.388  1.00  0.00     0.281 C 
BRANCH   5   6
HETATM    6  O3  UNL     1      13.493  20.377  14.919  1.00  0.00    -0.312 OA
BRANCH   6   7
HETATM    7  C13 UNL     1      13.729  19.972  13.620  1.00  0.00     0.259 C 
HETATM    8  O4  UNL     1      14.922  20.011  13.194  1.00  0.00    -0.265 OA
BRANCH   7   9
HETATM    9  C14 UNL     1      12.689  19.490  12.680  1.00  0.00     0.117 C 
BRANCH   9  10
HETATM   10  C15 UNL     1      11.347  19.799  13.298  1.00  0.00     0.025 C 
HETATM   11  C16 UNL     1      10.271  19.944  12.230  1.00  0.00     0.037 C 
HETATM   12  C17 UNL     1       9.021  19.796  13.106  1.00  0.00     0.273 C 
HETATM   13  N3  UNL     1       9.357  18.854  14.148  1.00  0.00     0.097 N 
HETATM   14  C30 UNL     1      10.786  18.607  14.070  1.00  0.00     0.278 C 
BRANCH  13  15
HETATM   15  C18 UNL     1       9.106  19.454  15.434  1.00  0.00     0.374 C 
BRANCH  15  16
HETATM   16  C19 UNL     1       9.872  18.837  16.534  1.00  0.00     0.246 C 
HETATM   17  O5  UNL     1       9.483  17.762  17.001  1.00  0.00    -0.272 OA
HETATM   18  N4  UNL     1      11.028  19.469  17.044  1.00  0.00    -0.350 N 
ATOM     19  H4  UNL     1      11.312  20.356  16.630  1.00  0.00     0.163 HD
BRANCH  18  20
HETATM   20  C20 UNL     1      11.832  18.932  18.118  1.00  0.00     0.034 C 
HETATM   21  C21 UNL     1      12.492  17.666  17.587  1.00  0.00     0.035 C 
HETATM   22  C22 UNL     1      13.330  17.034  18.664  1.00  0.00    -0.012 C 
HETATM   23  C23 UNL     1      14.453  18.002  19.009  1.00  0.00     0.009 C 
HETATM   24  C27 UNL     1      12.517  16.745  19.891  1.00  0.00     0.009 C 
HETATM   25  C24 UNL     1      13.850  19.275  19.501  1.00  0.00    -0.012 C 
HETATM   26  C25 UNL     1      13.049  18.996  20.754  1.00  0.00     0.009 C 
HETATM   27  C29 UNL     1      12.927  19.893  18.476  1.00  0.00     0.035 C 
HETATM   28  C26 UNL     1      11.939  18.051  20.412  1.00  0.00    -0.012 C 
HETATM   29  C28 UNL     1      11.015  18.585  19.332  1.00  0.00     0.035 C 
ENDBRANCH  18  20
ENDBRANCH  15  16
ENDBRANCH  13  15
ENDBRANCH   9  10
ENDBRANCH   7   9
ENDBRANCH   6   7
ENDBRANCH   5   6
ENDBRANCH   3   5
BRANCH   1  30
HETATM   30  C10 UNL     1      16.343  23.312  17.680  1.00  0.00     0.178 C 
HETATM   31  C9  UNL     1      16.349  24.705  18.271  1.00  0.00     0.054 C 
HETATM   32  C8  UNL     1      17.099  25.526  17.242  1.00  0.00     0.129 C 
HETATM   33  N1  UNL     1      17.853  24.592  16.438  1.00  0.00    -0.346 N 
HETATM   34  C31 UNL     1      17.633  23.301  16.959  1.00  0.00     0.242 C 
HETATM   35  O6  UNL     1      18.448  22.338  16.800  1.00  0.00    -0.271 OA
BRANCH  33  36
HETATM   36  C7  UNL     1      18.677  24.992  15.312  1.00  0.00     0.164 C 
BRANCH  36  37
HETATM   37  C6  UNL     1      19.712  25.971  15.715  1.00  0.00    -0.035 A 
HETATM   38  C5  UNL     1      20.675  25.716  16.683  1.00  0.00     0.048 A 
HETATM   39  C4  UNL     1      21.638  26.626  17.058  1.00  0.00     0.105 A 
HETATM   40  C34 UNL     1      21.668  27.887  16.442  1.00  0.00     0.135 A 
HETATM   41  C33 UNL     1      20.714  28.135  15.485  1.00  0.00     0.102 A 
HETATM   42  C32 UNL     1      19.750  27.216  15.113  1.00  0.00     0.048 A 
BRANCH  39  43
HETATM   43  O1  UNL     1      22.606  26.426  18.006  1.00  0.00    -0.348 OA
BRANCH  43  44
HETATM   44  C3  UNL     1      22.603  25.793  19.219  1.00  0.00     0.175 C 
BRANCH  44  45
HETATM   45  C2  UNL     1      21.546  26.175  20.202  1.00  0.00     0.022 C 
HETATM   46  C1  UNL     1      20.579  25.026  20.461  1.00  0.00     0.007 C 
ENDBRANCH  44  45
ENDBRANCH  43  44
ENDBRANCH  39  43
BRANCH  40  47
HETATM   47  O8  UNL     1      22.623  28.836  16.791  1.00  0.00    -0.346 OA
BRANCH  47  48
HETATM   48  C35 UNL     1      23.888  28.827  16.116  1.00  0.00     0.171 C 
HETATM   49  C36 UNL     1      24.072  30.054  15.282  1.00  0.00     0.034 C 
ENDBRANCH  47  48
ENDBRANCH  40  47
BRANCH  41  50
HETATM   50  O7  UNL     1      20.717  29.376  14.855  1.00  0.00    -0.358 OA
ATOM     51  H7  UNL     1      21.523  29.669  14.445  1.00  0.00     0.217 HD
ENDBRANCH  41  50
ENDBRANCH  36  37
ENDBRANCH  33  36
ENDBRANCH   1  30
TORSDOF 17
ENDMDL
MODEL 3
REMARK VINA RESULT: -8.427858350      2.350      9.602
REMARK  17 active torsions:
REMARK  status: ('A' for Active; 'I' for Inactive)
REMARK    1  A    between atoms: C2_2  and  C3_3 
REMARK    2  A    between atoms: C3_3  and  O1_4 
REMARK    3  A    between atoms: O1_4  and  C4_5 
REMARK    4  A    between atoms: C6_7  and  C7_8 
REMARK    5  A    between atoms: C7_8  and  N1_9 
REMARK    6  A    between atoms: C10_12  and  N2_13 
REMARK       I    between atoms: N2_13  and  C11_15 
REMARK    7  A    between atoms: C11_15  and  C12_17 
REMARK    8  A    between atoms: C12_17  and  O3_18 
REMARK    9  A    between atoms: O3_18  and  C13_19 
REMARK   10  A    between atoms: C13_19  and  C14_21 
REMARK   11  A    between atoms: C14_21  and  C15_22 
REMARK   12  A    between atoms: N3_25  and  C18_26 
REMARK   13  A    between atoms: C18_26  and  C19_27 
REMARK       I    between atoms: C19_27  and  N4_29 
REMARK   14  A    between atoms: N4_29  and  C20_31 
REMARK   15  A    between atoms: C33_45  and  O7_46 
REMARK   16  A    between atoms: C34_48  and  O8_49 
REMARK   17  A    between atoms: O8_49  and  C35_50 
ROOT
HETATM    1  N2  UNL     1      18.306  24.358  17.999  1.00  0.00    -0.346 N 
ATOM      2  H2  UNL     1      19.223  23.962  17.788  1.00  0.00     0.163 HD
HETATM    3  C11 UNL     1      17.865  25.445  17.234  1.00  0.00     0.242 C 
HETATM    4  O2  UNL     1      16.734  25.939  17.472  1.00  0.00    -0.271 OA
ENDROOT
BRANCH   3   5
HETATM    5  C12 UNL     1      18.678  26.022  16.160  1.00  0.00     0.281 C 
BRANCH   5   6
HETATM    6  O3  UNL     1      19.738  25.226  15.717  1.00  0.00    -0.312 OA
BRANCH   6   7
HETATM    7  C13 UNL     1      20.630  25.597  14.729  1.00  0.00     0.259 C 
HETATM    8  O4  UNL     1      21.569  24.795  14.448  1.00  0.00    -0.265 OA
BRANCH   7   9
HETATM    9  C14 UNL     1      20.572  26.866  13.966  1.00  0.00     0.117 C 
BRANCH   9  10
HETATM   10  C15 UNL     1      21.812  27.655  14.311  1.00  0.00     0.025 C 
HETATM   11  C16 UNL     1      21.926  28.904  13.447  1.00  0.00     0.037 C 
HETATM   12  C17 UNL     1      22.945  29.695  14.277  1.00  0.00     0.273 C 
HETATM   13  N3  UNL     1      22.676  29.389  15.662  1.00  0.00     0.097 N 
HETATM   14  C30 UNL     1      21.711  28.304  15.690  1.00  0.00     0.278 C 
BRANCH  13  15
HETATM   15  C18 UNL     1      23.878  28.896  16.285  1.00  0.00     0.374 C 
BRANCH  15  16
HETATM   16  C19 UNL     1      23.627  27.931  17.374  1.00  0.00     0.246 C 
HETATM   17  O5  UNL     1      24.235  26.856  17.368  1.00  0.00    -0.272 OA
HETATM   18  N4  UNL     1      22.705  28.233  18.400  1.00  0.00    -0.350 N 
ATOM     19  H4  UNL     1      22.224  29.131  18.364  1.00  0.00     0.163 HD
BRANCH  18  20
HETATM   20  C20 UNL     1      22.403  27.344  19.499  1.00  0.00     0.034 C 
HETATM   21  C21 UNL     1      23.708  27.108  20.249  1.00  0.00     0.035 C 
HETATM   22  C22 UNL     1      23.475  26.166  21.399  1.00  0.00    -0.012 C 
HETATM   23  C23 UNL     1      22.525  26.848  22.373  1.00  0.00     0.009 C 
HETATM   24  C27 UNL     1      22.878  24.872  20.932  1.00  0.00     0.009 C 
HETATM   25  C24 UNL     1      21.241  27.132  21.669  1.00  0.00    -0.012 C 
HETATM   26  C25 UNL     1      20.620  25.828  21.218  1.00  0.00     0.009 C 
HETATM   27  C29 UNL     1      21.449  28.004  20.452  1.00  0.00     0.035 C 
HETATM   28  C26 UNL     1      21.550  25.164  20.251  1.00  0.00    -0.012 C 
HETATM   29  C28 UNL     1      21.858  26.022  19.037  1.00  0.00     0.035 C 
ENDBRANCH  18  20
ENDBRANCH  15  16
ENDBRANCH  13  15
ENDBRANCH   9  10
ENDBRANCH   7   9
ENDBRANCH   6   7
ENDBRANCH   5   6
ENDBRANCH   3   5
BRANCH   1  30
HETATM   30  C10 UNL     1      17.536  23.763  19.075  1.00  0.00     0.178 C 
HETATM   31  C9  UNL     1      18.359  22.792  19.894  1.00  0.00     0.054 C 
HETATM   32  C8  UNL     1      18.200  21.479  19.157  1.00  0.00     0.129 C 
HETATM   33  N1  UNL     1      17.021  21.609  18.332  1.00  0.00    -0.346 N 
HETATM   34  C31 UNL     1      16.461  22.879  18.577  1.00  0.00     0.242 C 
HETATM   35  O6  UNL     1      15.235  23.149  18.383  1.00  0.00    -0.271 OA
BRANCH  33  36
HETATM   36  C7  UNL     1      16.553  20.565  17.437  1.00  0.00     0.164 C 
BRANCH  36  37
HETATM   37  C6  UNL     1      15.152  20.186  17.730  1.00  0.00    -0.035 A 
HETATM   38  C5  UNL     1      14.116  20.310  16.813  1.00  0.00     0.048 A 
HETATM   39  C4  UNL     1      12.812  19.956  17.084  1.00  0.00     0.105 A 
HETATM   40  C34 UNL     1      12.489  19.441  18.349  1.00  0.00     0.135 A 
HETATM   41  C33 UNL     1      13.517  19.320  19.252  1.00  0.00     0.102 A 
HETATM   42  C32 UNL     1      14.824  19.677  18.974  1.00  0.00     0.048 A 
BRANCH  39  43
HETATM   43  O1  UNL     1      11.756  20.060  16.219  1.00  0.00    -0.348 OA
BRANCH  43  44
HETATM   44  C3  UNL     1      11.676  20.227  14.863  1.00  0.00     0.175 C 
BRANCH  44  45
HETATM   45  C2  UNL     1      10.591  21.103  14.330  1.00  0.00     0.022 C 
HETATM   46  C1  UNL     1       9.368  21.097  15.239  1.00  0.00     0.007 C 
ENDBRANCH  44  45
ENDBRANCH  43  44
ENDBRANCH  39  43
BRANCH  40  47
HETATM   47  O8  UNL     1      11.186  19.073  18.665  1.00  0.00    -0.346 OA
BRANCH  47  48
HETATM   48  C35 UNL     1      10.799  17.699  18.520  1.00  0.00     0.171 C 
HETATM   49  C36 UNL     1       9.739  17.536  17.479  1.00  0.00     0.034 C 
ENDBRANCH  47  48
ENDBRANCH  40  47
BRANCH  41  50
HETATM   50  O7  UNL     1      13.230  18.812  20.516  1.00  0.00    -0.358 OA
ATOM     51  H7  UNL     1      12.601  18.103  20.582  1.00  0.00     0.217 HD
ENDBRANCH  41  50
ENDBRANCH  36  37
ENDBRANCH  33  36
ENDBRANCH   1  30
TORSDOF 17
ENDMDL
MODEL 4
REMARK VINA RESULT: -8.372598055      2.147      9.767
REMARK  17 active torsions:
REMARK  status: ('A' for Active; 'I' for Inactive)
REMARK    1  A    between atoms: C2_2  and  C3_3 
REMARK    2  A    between atoms: C3_3  and  O1_4 
REMARK    3  A    between atoms: O1_4  and  C4_5 
REMARK    4  A    between atoms: C6_7  and  C7_8 
REMARK    5  A    between atoms: C7_8  and  N1_9 
REMARK    6  A    between atoms: C10_12  and  N2_13 
REMARK       I    between atoms: N2_13  and  C11_15 
REMARK    7  A    between atoms: C11_15  and  C12_17 
REMARK    8  A    between atoms: C12_17  and  O3_18 
REMARK    9  A    between atoms: O3_18  and  C13_19 
REMARK   10  A    between atoms: C13_19  and  C14_21 
REMARK   11  A    between atoms: C14_21  and  C15_22 
REMARK   12  A    between atoms: N3_25  and  C18_26 
REMARK   13  A    between atoms: C18_26  and  C19_27 
REMARK       I    between atoms: C19_27  and  N4_29 
REMARK   14  A    between atoms: N4_29  and  C20_31 
REMARK   15  A    between atoms: C33_45  and  O7_46 
REMARK   16  A    between atoms: C34_48  and  O8_49 
REMARK   17  A    between atoms: O8_49  and  C35_50 
ROOT
HETATM    1  N2  UNL     1      18.602  24.744  19.108  1.00  0.00    -0.346 N 
ATOM      2  H2  UNL     1      17.936  25.166  19.756  1.00  0.00     0.163 HD
HETATM    3  C11 UNL     1      19.936  24.626  19.517  1.00  0.00     0.242 C 
HETATM    4  O2  UNL     1      20.768  24.098  18.736  1.00  0.00    -0.271 OA
ENDROOT
BRANCH   3   5
HETATM    5  C12 UNL     1      20.392  25.095  20.828  1.00  0.00     0.281 C 
BRANCH   5   6
HETATM    6  O3  UNL     1      20.646  26.466  20.920  1.00  0.00    -0.312 OA
BRANCH   6   7
HETATM    7  C13 UNL     1      21.883  27.012  21.202  1.00  0.00     0.259 C 
HETATM    8  O4  UNL     1      22.105  28.200  20.822  1.00  0.00    -0.265 OA
BRANCH   7   9
HETATM    9  C14 UNL     1      22.975  26.314  21.920  1.00  0.00     0.117 C 
BRANCH   9  10
HETATM   10  C15 UNL     1      24.170  26.282  20.998  1.00  0.00     0.025 C 
HETATM   11  C16 UNL     1      25.236  25.325  21.514  1.00  0.00     0.037 C 
HETATM   12  C17 UNL     1      26.063  25.150  20.234  1.00  0.00     0.273 C 
HETATM   13  N3  UNL     1      25.132  25.200  19.131  1.00  0.00     0.097 N 
HETATM   14  C30 UNL     1      23.845  25.611  19.665  1.00  0.00     0.278 C 
BRANCH  13  15
HETATM   15  C18 UNL     1      25.545  26.222  18.203  1.00  0.00     0.374 C 
BRANCH  15  16
HETATM   16  C19 UNL     1      24.420  26.891  17.520  1.00  0.00     0.246 C 
HETATM   17  O5  UNL     1      24.178  28.071  17.787  1.00  0.00    -0.272 OA
HETATM   18  N4  UNL     1      23.634  26.188  16.579  1.00  0.00    -0.350 N 
ATOM     19  H4  UNL     1      23.869  25.214  16.390  1.00  0.00     0.163 HD
BRANCH  18  20
HETATM   20  C20 UNL     1      22.517  26.769  15.869  1.00  0.00     0.034 C 
HETATM   21  C21 UNL     1      21.966  25.686  14.950  1.00  0.00     0.035 C 
HETATM   22  C22 UNL     1      20.810  26.228  14.155  1.00  0.00    -0.012 C 
HETATM   23  C23 UNL     1      19.698  26.581  15.132  1.00  0.00     0.009 C 
HETATM   24  C27 UNL     1      21.206  27.447  13.376  1.00  0.00     0.009 C 
HETATM   25  C24 UNL     1      20.207  27.616  16.079  1.00  0.00    -0.012 C 
HETATM   26  C25 UNL     1      20.583  28.860  15.303  1.00  0.00     0.009 C 
HETATM   27  C29 UNL     1      21.427  27.139  16.831  1.00  0.00     0.035 C 
HETATM   28  C26 UNL     1      21.684  28.513  14.349  1.00  0.00    -0.012 C 
HETATM   29  C28 UNL     1      22.917  27.957  15.040  1.00  0.00     0.035 C 
ENDBRANCH  18  20
ENDBRANCH  15  16
ENDBRANCH  13  15
ENDBRANCH   9  10
ENDBRANCH   7   9
ENDBRANCH   6   7
ENDBRANCH   5   6
ENDBRANCH   3   5
BRANCH   1  30
HETATM   30  C10 UNL     1      18.111  24.300  17.816  1.00  0.00     0.178 C 
HETATM   31  C9  UNL     1      16.720  24.821  17.527  1.00  0.00     0.054 C 
HETATM   32  C8  UNL     1      15.812  23.777  18.145  1.00  0.00     0.129 C 
HETATM   33  N1  UNL     1      16.605  22.580  18.299  1.00  0.00    -0.346 N 
HETATM   34  C31 UNL     1      17.886  22.840  17.770  1.00  0.00     0.242 C 
HETATM   35  O6  UNL     1      18.662  21.928  17.344  1.00  0.00    -0.271 OA
BRANCH  33  36
HETATM   36  C7  UNL     1      16.099  21.358  18.897  1.00  0.00     0.164 C 
BRANCH  36  37
HETATM   37  C6  UNL     1      14.993  20.779  18.099  1.00  0.00    -0.035 A 
HETATM   38  C5  UNL     1      13.788  20.362  18.647  1.00  0.00     0.048 A 
HETATM   39  C4  UNL     1      12.759  19.824  17.904  1.00  0.00     0.105 A 
HETATM   40  C34 UNL     1      12.915  19.680  16.517  1.00  0.00     0.135 A 
HETATM   41  C33 UNL     1      14.110  20.095  15.980  1.00  0.00     0.102 A 
HETATM   42  C32 UNL     1      15.139  20.634  16.731  1.00  0.00     0.048 A 
BRANCH  39  43
HETATM   43  O1  UNL     1      11.554  19.395  18.394  1.00  0.00    -0.348 OA
BRANCH  43  44
HETATM   44  C3  UNL     1      11.201  18.369  19.228  1.00  0.00     0.175 C 
BRANCH  44  45
HETATM   45  C2  UNL     1      11.863  17.046  19.023  1.00  0.00     0.022 C 
HETATM   46  C1  UNL     1      11.295  16.315  17.813  1.00  0.00     0.007 C 
ENDBRANCH  44  45
ENDBRANCH  43  44
ENDBRANCH  39  43
BRANCH  40  47
HETATM   47  O8  UNL     1      11.903  19.142  15.731  1.00  0.00    -0.346 OA
BRANCH  47  48
HETATM   48  C35 UNL     1      10.855  20.003  15.265  1.00  0.00     0.171 C 
HETATM   49  C36 UNL     1      10.886  20.148  13.777  1.00  0.00     0.034 C 
ENDBRANCH  47  48
ENDBRANCH  40  47
BRANCH  41  50
HETATM   50  O7  UNL     1      14.296  19.966  14.606  1.00  0.00    -0.358 OA
ATOM     51  H7  UNL     1      13.537  19.779  14.066  1.00  0.00     0.217 HD
ENDBRANCH  41  50
ENDBRANCH  36  37
ENDBRANCH  33  36
ENDBRANCH   1  30
TORSDOF 17
ENDMDL
MODEL 5
REMARK VINA RESULT: -8.361806307      3.231     10.312
REMARK  17 active torsions:
REMARK  status: ('A' for Active; 'I' for Inactive)
REMARK    1  A    between atoms: C2_2  and  C3_3 
REMARK    2  A    between atoms: C3_3  and  O1_4 
REMARK    3  A    between atoms: O1_4  and  C4_5 
REMARK    4  A    between atoms: C6_7  and  C7_8 
REMARK    5  A    between atoms: C7_8  and  N1_9 
REMARK    6  A    between atoms: C10_12  and  N2_13 
REMARK       I    between atoms: N2_13  and  C11_15 
REMARK    7  A    between atoms: C11_15  and  C12_17 
REMARK    8  A    between atoms: C12_17  and  O3_18 
REMARK    9  A    between atoms: O3_18  and  C13_19 
REMARK   10  A    between atoms: C13_19  and  C14_21 
REMARK   11  A    between atoms: C14_21  and  C15_22 
REMARK   12  A    between atoms: N3_25  and  C18_26 
REMARK   13  A    between atoms: C18_26  and  C19_27 
REMARK       I    between atoms: C19_27  and  N4_29 
REMARK   14  A    between atoms: N4_29  and  C20_31 
REMARK   15  A    between atoms: C33_45  and  O7_46 
REMARK   16  A    between atoms: C34_48  and  O8_49 
REMARK   17  A    between atoms: O8_49  and  C35_50 
ROOT
HETATM    1  N2  UNL     1      13.588  19.393  17.683  1.00  0.00    -0.346 N 
ATOM      2  H2  UNL     1      13.466  19.259  16.679  1.00  0.00     0.163 HD
HETATM    3  C11 UNL     1      14.091  20.622  18.129  1.00  0.00     0.242 C 
HETATM    4  O2  UNL     1      14.237  20.809  19.364  1.00  0.00    -0.271 OA
ENDROOT
BRANCH   3   5
HETATM    5  C12 UNL     1      14.449  21.698  17.202  1.00  0.00     0.281 C 
BRANCH   5   6
HETATM    6  O3  UNL     1      15.433  21.379  16.263  1.00  0.00    -0.312 OA
BRANCH   6   7
HETATM    7  C13 UNL     1      16.755  21.770  16.356  1.00  0.00     0.259 C 
HETATM    8  O4  UNL     1      17.160  22.679  15.572  1.00  0.00    -0.265 OA
BRANCH   7   9
HETATM    9  C14 UNL     1      17.741  21.207  17.309  1.00  0.00     0.117 C 
BRANCH   9  10
HETATM   10  C15 UNL     1      17.886  22.194  18.441  1.00  0.00     0.025 C 
HETATM   11  C16 UNL     1      17.631  21.528  19.787  1.00  0.00     0.037 C 
HETATM   12  C17 UNL     1      18.264  22.574  20.713  1.00  0.00     0.273 C 
HETATM   13  N3  UNL     1      19.395  23.123  20.003  1.00  0.00     0.097 N 
HETATM   14  C30 UNL     1      19.337  22.627  18.639  1.00  0.00     0.278 C 
BRANCH  13  15
HETATM   15  C18 UNL     1      19.265  24.557  19.932  1.00  0.00     0.374 C 
BRANCH  15  16
HETATM   16  C19 UNL     1      20.025  25.166  18.823  1.00  0.00     0.246 C 
HETATM   17  O5  UNL     1      21.255  25.220  18.904  1.00  0.00    -0.272 OA
HETATM   18  N4  UNL     1      19.353  25.678  17.691  1.00  0.00    -0.350 N 
ATOM     19  H4  UNL     1      18.335  25.613  17.667  1.00  0.00     0.163 HD
BRANCH  18  20
HETATM   20  C20 UNL     1      20.021  26.289  16.565  1.00  0.00     0.034 C 
HETATM   21  C21 UNL     1      20.799  27.482  17.106  1.00  0.00     0.035 C 
HETATM   22  C22 UNL     1      21.505  28.187  15.980  1.00  0.00    -0.012 C 
HETATM   23  C23 UNL     1      22.529  27.224  15.398  1.00  0.00     0.009 C 
HETATM   24  C27 UNL     1      20.542  28.609  14.911  1.00  0.00     0.009 C 
HETATM   25  C24 UNL     1      21.814  26.018  14.887  1.00  0.00    -0.012 C 
HETATM   26  C25 UNL     1      20.859  26.434  13.788  1.00  0.00     0.009 C 
HETATM   27  C29 UNL     1      21.017  25.335  15.974  1.00  0.00     0.035 C 
HETATM   28  C26 UNL     1      19.846  27.373  14.365  1.00  0.00    -0.012 C 
HETATM   29  C28 UNL     1      19.059  26.768  15.514  1.00  0.00     0.035 C 
ENDBRANCH  18  20
ENDBRANCH  15  16
ENDBRANCH  13  15
ENDBRANCH   9  10
ENDBRANCH   7   9
ENDBRANCH   6   7
ENDBRANCH   5   6
ENDBRANCH   3   5
BRANCH   1  30
HETATM   30  C10 UNL     1      13.229  18.299  18.567  1.00  0.00     0.178 C 
HETATM   31  C9  UNL     1      13.414  16.950  17.906  1.00  0.00     0.054 C 
HETATM   32  C8  UNL     1      12.093  16.714  17.203  1.00  0.00     0.129 C 
HETATM   33  N1  UNL     1      11.129  17.589  17.830  1.00  0.00    -0.346 N 
HETATM   34  C31 UNL     1      11.783  18.273  18.874  1.00  0.00     0.242 C 
HETATM   35  O6  UNL     1      11.174  18.759  19.878  1.00  0.00    -0.271 OA
BRANCH  33  36
HETATM   36  C7  UNL     1       9.743  17.685  17.407  1.00  0.00     0.164 C 
BRANCH  36  37
HETATM   37  C6  UNL     1       9.581  18.638  16.286  1.00  0.00    -0.035 A 
HETATM   38  C5  UNL     1       9.517  18.253  14.953  1.00  0.00     0.048 A 
HETATM   39  C4  UNL     1       9.365  19.140  13.910  1.00  0.00     0.105 A 
HETATM   40  C34 UNL     1       9.268  20.513  14.184  1.00  0.00     0.135 A 
HETATM   41  C33 UNL     1       9.331  20.889  15.504  1.00  0.00     0.102 A 
HETATM   42  C32 UNL     1       9.484  19.993  16.547  1.00  0.00     0.048 A 
BRANCH  39  43
HETATM   43  O1  UNL     1       9.299  18.813  12.582  1.00  0.00    -0.348 OA
BRANCH  43  44
HETATM   44  C3  UNL     1      10.230  18.357  11.689  1.00  0.00     0.175 C 
BRANCH  44  45
HETATM   45  C2  UNL     1      11.402  19.234  11.394  1.00  0.00     0.022 C 
HETATM   46  C1  UNL     1      12.465  19.134  12.481  1.00  0.00     0.007 C 
ENDBRANCH  44  45
ENDBRANCH  43  44
ENDBRANCH  39  43
BRANCH  40  47
HETATM   47  O8  UNL     1       9.115  21.442  13.162  1.00  0.00    -0.346 OA
BRANCH  47  48
HETATM   48  C35 UNL     1       7.804  21.951  12.878  1.00  0.00     0.171 C 
HETATM   49  C36 UNL     1       7.366  21.593  11.494  1.00  0.00     0.034 C 
ENDBRANCH  47  48
ENDBRANCH  40  47
BRANCH  41  50
HETATM   50  O7  UNL     1       9.238  22.244  15.810  1.00  0.00    -0.358 OA
ATOM     51  H7  UNL     1       9.472  22.873  15.137  1.00  0.00     0.217 HD
ENDBRANCH  41  50
ENDBRANCH  36  37
ENDBRANCH  33  36
ENDBRANCH   1  30
TORSDOF 17
ENDMDL
