MODEL 1
REMARK VINA RESULT: -8.895427295      0.000      0.000
REMARK  5 active torsions:
REMARK  status: ('A' for Active; 'I' for Inactive)
REMARK    1  A    between atoms: C2_2  and  C3_4 
REMARK    2  A    between atoms: C3_4  and  N1_7 
REMARK       I    between atoms: N1_7  and  C6_9 
REMARK    3  A    between atoms: C6_9  and  C7_11 
REMARK    4  A    between atoms: C12_16  and  C13_17 
REMARK    5  A    between atoms: C13_17  and  C14_19 
ROOT
HETATM    1  C7  UNL     1      81.871   9.972  20.637  1.00  0.00     0.089 C 
HETATM    2  C8  UNL     1      81.932   8.531  21.165  1.00  0.00     0.015 C 
HETATM    3  C9  UNL     1      80.645   7.796  21.026  1.00  0.00     0.001 C 
HETATM    4  C10 UNL     1      79.688   8.587  20.202  1.00  0.00     0.001 C 
HETATM    5  C11 UNL     1      80.382   8.984  18.904  1.00  0.00     0.013 C 
HETATM    6  C12 UNL     1      81.492   9.993  19.196  1.00  0.00     0.069 C 
ENDROOT
BRANCH   1   7
HETATM    7  C6  UNL     1      83.256  10.485  20.780  1.00  0.00     0.223 C 
HETATM    8  N1  UNL     1      84.346   9.828  20.179  1.00  0.00    -0.345 N 
ATOM      9  H1  UNL     1      84.170   8.984  19.635  1.00  0.00     0.163 HD
HETATM   10  O2  UNL     1      83.468  11.522  21.449  1.00  0.00    -0.273 OA
BRANCH   8  11
HETATM   11  C3  UNL     1      85.709  10.307  20.302  1.00  0.00     0.086 C 
HETATM   12  C4  UNL     1      85.761  11.684  20.946  1.00  0.00     0.046 C 
HETATM   13  C5  UNL     1      86.398  10.333  18.958  1.00  0.00     0.046 C 
BRANCH  11  14
HETATM   14  C2  UNL     1      86.477   9.394  21.190  1.00  0.00     0.150 C 
HETATM   15  C1  UNL     1      85.809   8.408  22.080  1.00  0.00     0.093 C 
HETATM   16  O1  UNL     1      87.696   9.426  21.217  1.00  0.00    -0.296 OA
ENDBRANCH  11  14
ENDBRANCH   8  11
ENDBRANCH   1   7
BRANCH   6  17
HETATM   17  C13 UNL     1      81.175  11.317  18.700  1.00  0.00     0.136 C 
HETATM   18  O3  UNL     1      80.488  12.028  19.486  1.00  0.00    -0.297 OA
BRANCH  17  19
HETATM   19  C14 UNL     1      81.512  11.975  17.441  1.00  0.00     0.056 C 
HETATM   20  C15 UNL     1      81.445  13.461  17.480  1.00  0.00     0.012 C 
HETATM   21  C16 UNL     1      82.468  14.085  16.511  1.00  0.00     0.001 C 
HETATM   22  C17 UNL     1      83.874  13.872  16.988  1.00  0.00     0.000 C 
HETATM   23  C18 UNL     1      83.923  12.530  17.688  1.00  0.00     0.001 C 
HETATM   24  C19 UNL     1      82.938  11.627  16.972  1.00  0.00     0.012 C 
ENDBRANCH  17  19
ENDBRANCH   6  17
TORSDOF 5
ENDMDL
MODEL 2
REMARK VINA RESULT: -8.782364250      1.022      1.701
REMARK  5 active torsions:
REMARK  status: ('A' for Active; 'I' for Inactive)
REMARK    1  A    between atoms: C2_2  and  C3_4 
REMARK    2  A    between atoms: C3_4  and  N1_7 
REMARK       I    between atoms: N1_7  and  C6_9 
REMARK    3  A    between atoms: C6_9  and  C7_11 
REMARK    4  A    between atoms: C12_16  and  C13_17 
REMARK    5  A    between atoms: C13_17  and  C14_19 
ROOT
HETATM    1  C7  UNL     1      82.148   9.750  20.541  1.00  0.00     0.089 C 
HETATM    2  C8  UNL     1      82.396   8.263  20.837  1.00  0.00     0.015 C 
HETATM    3  C9  UNL     1      81.174   7.423  20.705  1.00  0.00     0.001 C 
HETATM    4  C10 UNL     1      80.067   8.217  20.100  1.00  0.00     0.001 C 
HETATM    5  C11 UNL     1      80.583   8.866  18.820  1.00  0.00     0.013 C 
HETATM    6  C12 UNL     1      81.620   9.936  19.161  1.00  0.00     0.069 C 
ENDROOT
BRANCH   1   7
HETATM    7  C6  UNL     1      83.488  10.382  20.635  1.00  0.00     0.223 C 
HETATM    8  N1  UNL     1      84.491  10.115  19.685  1.00  0.00    -0.345 N 
ATOM      9  H1  UNL     1      84.283   9.474  18.920  1.00  0.00     0.163 HD
HETATM   10  O2  UNL     1      83.738  11.168  21.577  1.00  0.00    -0.273 OA
BRANCH   8  11
HETATM   11  C3  UNL     1      85.808  10.718  19.753  1.00  0.00     0.086 C 
HETATM   12  C4  UNL     1      86.690  10.017  20.774  1.00  0.00     0.046 C 
HETATM   13  C5  UNL     1      85.713  12.192  20.067  1.00  0.00     0.046 C 
BRANCH  11  14
HETATM   14  C2  UNL     1      86.487  10.575  18.436  1.00  0.00     0.150 C 
HETATM   15  C1  UNL     1      87.051  11.741  17.706  1.00  0.00     0.093 C 
HETATM   16  O1  UNL     1      86.603   9.483  17.908  1.00  0.00    -0.296 OA
ENDBRANCH  11  14
ENDBRANCH   8  11
ENDBRANCH   1   7
BRANCH   6  17
HETATM   17  C13 UNL     1      81.132  11.275  18.902  1.00  0.00     0.136 C 
HETATM   18  O3  UNL     1      80.628  11.859  19.903  1.00  0.00    -0.297 OA
BRANCH  17  19
HETATM   19  C14 UNL     1      81.121  12.072  17.679  1.00  0.00     0.056 C 
HETATM   20  C15 UNL     1      81.217  13.540  17.894  1.00  0.00     0.012 C 
HETATM   21  C16 UNL     1      81.942  14.224  16.718  1.00  0.00     0.001 C 
HETATM   22  C17 UNL     1      83.397  13.867  16.690  1.00  0.00     0.000 C 
HETATM   23  C18 UNL     1      83.531  12.445  17.191  1.00  0.00     0.001 C 
HETATM   24  C19 UNL     1      82.287  11.703  16.740  1.00  0.00     0.012 C 
ENDBRANCH  17  19
ENDBRANCH   6  17
TORSDOF 5
ENDMDL
MODEL 3
REMARK VINA RESULT: -8.496893531      2.138      4.525
REMARK  5 active torsions:
REMARK  status: ('A' for Active; 'I' for Inactive)
REMARK    1  A    between atoms: C2_2  and  C3_4 
REMARK    2  A    between atoms: C3_4  and  N1_7 
REMARK       I    between atoms: N1_7  and  C6_9 
REMARK    3  A    between atoms: C6_9  and  C7_11 
REMARK    4  A    between atoms: C12_16  and  C13_17 
REMARK    5  A    between atoms: C13_17  and  C14_19 
ROOT
HETATM    1  C7  UNL     1      84.595   9.341  20.427  1.00  0.00     0.089 C 
HETATM    2  C8  UNL     1      85.650   9.204  21.536  1.00  0.00     0.015 C 
HETATM    3  C9  UNL     1      87.049   9.261  21.029  1.00  0.00     0.001 C 
HETATM    4  C10 UNL     1      87.060   9.661  19.593  1.00  0.00     0.001 C 
HETATM    5  C11 UNL     1      86.234  10.933  19.441  1.00  0.00     0.013 C 
HETATM    6  C12 UNL     1      84.758  10.628  19.696  1.00  0.00     0.069 C 
ENDROOT
BRANCH   1   7
HETATM    7  C6  UNL     1      83.295   9.353  21.144  1.00  0.00     0.223 C 
HETATM    8  N1  UNL     1      82.885  10.470  21.895  1.00  0.00    -0.345 N 
ATOM      9  H1  UNL     1      83.499  11.282  21.941  1.00  0.00     0.163 HD
HETATM   10  O2  UNL     1      82.545   8.353  21.084  1.00  0.00    -0.273 OA
BRANCH   8  11
HETATM   11  C3  UNL     1      81.620  10.509  22.605  1.00  0.00     0.086 C 
HETATM   12  C4  UNL     1      81.671   9.683  23.880  1.00  0.00     0.046 C 
HETATM   13  C5  UNL     1      80.489  10.039  21.722  1.00  0.00     0.046 C 
BRANCH  11  14
HETATM   14  C2  UNL     1      81.326  11.909  23.017  1.00  0.00     0.150 C 
HETATM   15  C1  UNL     1      80.124  12.639  22.536  1.00  0.00     0.093 C 
HETATM   16  O1  UNL     1      82.073  12.508  23.772  1.00  0.00    -0.296 OA
ENDBRANCH  11  14
ENDBRANCH   8  11
ENDBRANCH   1   7
BRANCH   6  17
HETATM   17  C13 UNL     1      83.964  10.713  18.488  1.00  0.00     0.136 C 
HETATM   18  O3  UNL     1      84.570  10.386  17.429  1.00  0.00    -0.297 OA
BRANCH  17  19
HETATM   19  C14 UNL     1      82.575  11.113  18.279  1.00  0.00     0.056 C 
HETATM   20  C15 UNL     1      82.124  12.253  19.121  1.00  0.00     0.012 C 
HETATM   21  C16 UNL     1      81.052  13.087  18.394  1.00  0.00     0.001 C 
HETATM   22  C17 UNL     1      81.634  13.834  17.231  1.00  0.00     0.000 C 
HETATM   23  C18 UNL     1      82.735  12.978  16.641  1.00  0.00     0.001 C 
HETATM   24  C19 UNL     1      82.310  11.533  16.820  1.00  0.00     0.012 C 
ENDBRANCH  17  19
ENDBRANCH   6  17
TORSDOF 5
ENDMDL
MODEL 4
REMARK VINA RESULT: -8.427624744      1.553      5.485
REMARK  5 active torsions:
REMARK  status: ('A' for Active; 'I' for Inactive)
REMARK    1  A    between atoms: C2_2  and  C3_4 
REMARK    2  A    between atoms: C3_4  and  N1_7 
REMARK       I    between atoms: N1_7  and  C6_9 
REMARK    3  A    between atoms: C6_9  and  C7_11 
REMARK    4  A    between atoms: C12_16  and  C13_17 
REMARK    5  A    between atoms: C13_17  and  C14_19 
ROOT
HETATM    1  C7  UNL     1      85.367  10.427  20.285  1.00  0.00     0.089 C 
HETATM    2  C8  UNL     1      86.781   9.982  19.878  1.00  0.00     0.015 C 
HETATM    3  C9  UNL     1      87.563   9.403  21.003  1.00  0.00     0.001 C 
HETATM    4  C10 UNL     1      86.685   9.201  22.191  1.00  0.00     0.001 C 
HETATM    5  C11 UNL     1      85.453   8.418  21.752  1.00  0.00     0.013 C 
HETATM    6  C12 UNL     1      84.588   9.282  20.834  1.00  0.00     0.069 C 
ENDROOT
BRANCH   1   7
HETATM    7  C6  UNL     1      84.736  10.878  19.020  1.00  0.00     0.223 C 
HETATM    8  N1  UNL     1      83.672  11.799  19.020  1.00  0.00    -0.345 N 
ATOM      9  H1  UNL     1      83.336  12.159  19.913  1.00  0.00     0.163 HD
HETATM   10  O2  UNL     1      85.152  10.433  17.925  1.00  0.00    -0.273 OA
BRANCH   8  11
HETATM   11  C3  UNL     1      83.037  12.257  17.800  1.00  0.00     0.086 C 
HETATM   12  C4  UNL     1      82.674  11.094  16.890  1.00  0.00     0.046 C 
HETATM   13  C5  UNL     1      83.918  13.240  17.066  1.00  0.00     0.046 C 
BRANCH  11  14
HETATM   14  C2  UNL     1      81.762  12.949  18.133  1.00  0.00     0.150 C 
HETATM   15  C1  UNL     1      80.955  12.587  19.328  1.00  0.00     0.093 C 
HETATM   16  O1  UNL     1      81.334  13.845  17.426  1.00  0.00    -0.296 OA
ENDBRANCH  11  14
ENDBRANCH   8  11
ENDBRANCH   1   7
BRANCH   6  17
HETATM   17  C13 UNL     1      83.345   9.677  21.463  1.00  0.00     0.136 C 
HETATM   18  O3  UNL     1      83.338  10.847  21.940  1.00  0.00    -0.297 OA
BRANCH  17  19
HETATM   19  C14 UNL     1      82.090   8.953  21.644  1.00  0.00     0.056 C 
HETATM   20  C15 UNL     1      80.874   9.809  21.649  1.00  0.00     0.012 C 
HETATM   21  C16 UNL     1      79.659   9.047  21.085  1.00  0.00     0.001 C 
HETATM   22  C17 UNL     1      79.802   8.800  19.613  1.00  0.00     0.000 C 
HETATM   23  C18 UNL     1      81.273   8.592  19.323  1.00  0.00     0.001 C 
HETATM   24  C19 UNL     1      81.865   7.903  20.538  1.00  0.00     0.012 C 
ENDBRANCH  17  19
ENDBRANCH   6  17
TORSDOF 5
ENDMDL
MODEL 5
REMARK VINA RESULT: -8.222741098      1.869      4.778
REMARK  5 active torsions:
REMARK  status: ('A' for Active; 'I' for Inactive)
REMARK    1  A    between atoms: C2_2  and  C3_4 
REMARK    2  A    between atoms: C3_4  and  N1_7 
REMARK       I    between atoms: N1_7  and  C6_9 
REMARK    3  A    between atoms: C6_9  and  C7_11 
REMARK    4  A    between atoms: C12_16  and  C13_17 
REMARK    5  A    between atoms: C13_17  and  C14_19 
ROOT
HETATM    1  C7  UNL     1      82.264  12.669  19.003  1.00  0.00     0.089 C 
HETATM    2  C8  UNL     1      81.091  12.677  18.011  1.00  0.00     0.015 C 
HETATM    3  C9  UNL     1      81.294  13.605  16.866  1.00  0.00     0.001 C 
HETATM    4  C10 UNL     1      82.691  14.125  16.865  1.00  0.00     0.001 C 
HETATM    5  C11 UNL     1      83.646  12.939  16.951  1.00  0.00     0.013 C 
HETATM    6  C12 UNL     1      83.531  12.278  18.324  1.00  0.00     0.069 C 
ENDROOT
BRANCH   1   7
HETATM    7  C6  UNL     1      81.909  11.627  19.999  1.00  0.00     0.223 C 
HETATM    8  N1  UNL     1      81.968  10.259  19.680  1.00  0.00    -0.345 N 
ATOM      9  H1  UNL     1      82.263   9.987  18.742  1.00  0.00     0.163 HD
HETATM   10  O2  UNL     1      81.546  11.967  21.149  1.00  0.00    -0.273 OA
BRANCH   8  11
HETATM   11  C3  UNL     1      81.626   9.220  20.632  1.00  0.00     0.086 C 
HETATM   12  C4  UNL     1      81.712   7.838  20.005  1.00  0.00     0.046 C 
HETATM   13  C5  UNL     1      80.249   9.448  21.210  1.00  0.00     0.046 C 
BRANCH  11  14
HETATM   14  C2  UNL     1      82.600   9.238  21.757  1.00  0.00     0.150 C 
HETATM   15  C1  UNL     1      84.041   8.931  21.560  1.00  0.00     0.093 C 
HETATM   16  O1  UNL     1      82.242   9.507  22.890  1.00  0.00    -0.296 OA
ENDBRANCH  11  14
ENDBRANCH   8  11
ENDBRANCH   1   7
BRANCH   6  17
HETATM   17  C13 UNL     1      84.712  12.489  19.135  1.00  0.00     0.136 C 
HETATM   18  O3  UNL     1      84.666  13.501  19.889  1.00  0.00    -0.297 OA
BRANCH  17  19
HETATM   19  C14 UNL     1      85.956  11.730  19.233  1.00  0.00     0.056 C 
HETATM   20  C15 UNL     1      85.849  10.305  18.821  1.00  0.00     0.012 C 
HETATM   21  C16 UNL     1      87.177   9.802  18.223  1.00  0.00     0.001 C 
HETATM   22  C17 UNL     1      87.456  10.440  16.895  1.00  0.00     0.000 C 
HETATM   23  C18 UNL     1      86.907  11.850  16.938  1.00  0.00     0.001 C 
HETATM   24  C19 UNL     1      87.073  12.340  18.364  1.00  0.00     0.012 C 
ENDBRANCH  17  19
ENDBRANCH   6  17
TORSDOF 5
ENDMDL
