MODEL 1
REMARK VINA RESULT: -8.461869306      0.000      0.000
REMARK  5 active torsions:
REMARK  status: ('A' for Active; 'I' for Inactive)
REMARK    1  A    between atoms: C2_2  and  C3_3 
REMARK    2  A    between atoms: C3_3  and  C4_4 
REMARK    3  A    between atoms: C4_4  and  C5_5 
REMARK    4  A    between atoms: C5_5  and  C6_6 
REMARK    5  A    between atoms: C18_20  and  C19_21 
ROOT
HETATM    1  C6  UNL     1      84.481  11.107  20.156  1.00  0.00    -0.037 C 
HETATM    2  C7  UNL     1      85.595  10.558  21.039  1.00  0.00     0.015 C 
HETATM    3  C8  UNL     1      83.276  10.217  20.562  1.00  0.00     0.045 C 
HETATM    4  C9  UNL     1      81.950  10.783  20.270  1.00  0.00     0.229 C 
HETATM    5  C10 UNL     1      81.026  10.615  21.490  1.00  0.00     0.073 C 
HETATM    6  C11 UNL     1      81.493  11.535  22.589  1.00  0.00     0.058 C 
HETATM    7  C12 UNL     1      80.441  12.554  22.971  1.00  0.00     0.045 C 
HETATM    8  C13 UNL     1      81.698  10.652  23.827  1.00  0.00     0.045 C 
HETATM    9  O1  UNL     1      82.692  12.151  22.342  1.00  0.00    -0.346 OA
HETATM   10  C14 UNL     1      82.811  12.752  21.115  1.00  0.00     0.360 C 
HETATM   11  C15 UNL     1      84.263  12.518  20.666  1.00  0.00     0.073 C 
HETATM   12  N1  UNL     1      82.047  12.195  20.062  1.00  0.00     0.117 N 
HETATM   13  C16 UNL     1      80.873  12.865  19.682  1.00  0.00     0.314 C 
ENDROOT
BRANCH   1  14
HETATM   14  C5  UNL     1      84.632  10.944  18.724  1.00  0.00     0.019 C 
BRANCH  14  15
HETATM   15  C4  UNL     1      85.218  11.949  17.788  1.00  0.00    -0.025 A 
HETATM   16  C17 UNL     1      86.632  12.335  18.300  1.00  0.00     0.026 A 
HETATM   17  C18 UNL     1      86.430  11.773  16.973  1.00  0.00     0.096 A 
BRANCH  15  18
HETATM   18  C3  UNL     1      84.365  13.126  17.391  1.00  0.00     0.010 C 
BRANCH  18  19
HETATM   19  C2  UNL     1      83.045  12.968  16.787  1.00  0.00    -0.004 C 
HETATM   20  C1  UNL     1      82.332  14.189  16.283  1.00  0.00     0.005 C 
ENDBRANCH  18  19
ENDBRANCH  15  18
BRANCH  17  21
HETATM   21  C19 UNL     1      87.147  10.514  16.713  1.00  0.00     0.177 C 
HETATM   22  O2  UNL     1      87.188   9.541  17.534  1.00  0.00    -0.648 OA
HETATM   23  O3  UNL     1      87.857  10.267  15.526  1.00  0.00    -0.648 OA
ENDBRANCH  17  21
ENDBRANCH  14  15
ENDBRANCH   1  14
TORSDOF 5
ENDMDL
MODEL 2
REMARK VINA RESULT: -8.293437839      1.899      5.939
REMARK  5 active torsions:
REMARK  status: ('A' for Active; 'I' for Inactive)
REMARK    1  A    between atoms: C2_2  and  C3_3 
REMARK    2  A    between atoms: C3_3  and  C4_4 
REMARK    3  A    between atoms: C4_4  and  C5_5 
REMARK    4  A    between atoms: C5_5  and  C6_6 
REMARK    5  A    between atoms: C18_20  and  C19_21 
ROOT
HETATM    1  C6  UNL     1      83.743  10.116  20.755  1.00  0.00    -0.037 C 
HETATM    2  C7  UNL     1      84.316   8.793  21.248  1.00  0.00     0.015 C 
HETATM    3  C8  UNL     1      84.988  11.042  20.791  1.00  0.00     0.045 C 
HETATM    4  C9  UNL     1      84.911  12.234  19.932  1.00  0.00     0.229 C 
HETATM    5  C10 UNL     1      86.222  12.400  19.141  1.00  0.00     0.073 C 
HETATM    6  C11 UNL     1      86.311  11.308  18.106  1.00  0.00     0.058 C 
HETATM    7  C12 UNL     1      86.359  11.856  16.696  1.00  0.00     0.045 C 
HETATM    8  C13 UNL     1      87.660  10.611  18.336  1.00  0.00     0.045 C 
HETATM    9  O1  UNL     1      85.346  10.343  18.215  1.00  0.00    -0.346 OA
HETATM   10  C14 UNL     1      84.058  10.799  18.336  1.00  0.00     0.360 C 
HETATM   11  C15 UNL     1      83.358   9.842  19.315  1.00  0.00     0.073 C 
HETATM   12  N1  UNL     1      83.892  12.067  18.941  1.00  0.00     0.117 N 
HETATM   13  C16 UNL     1      83.635  13.163  18.102  1.00  0.00     0.314 C 
ENDROOT
BRANCH   1  14
HETATM   14  C5  UNL     1      82.747  10.757  21.590  1.00  0.00     0.019 C 
BRANCH  14  15
HETATM   15  C4  UNL     1      81.287  10.441  21.605  1.00  0.00    -0.025 A 
HETATM   16  C17 UNL     1      80.520  11.681  22.138  1.00  0.00     0.026 A 
HETATM   17  C18 UNL     1      80.244  11.122  20.823  1.00  0.00     0.096 A 
BRANCH  15  18
HETATM   18  C3  UNL     1      80.854   9.136  22.221  1.00  0.00     0.010 C 
BRANCH  18  19
HETATM   19  C2  UNL     1      80.174   8.096  21.455  1.00  0.00    -0.004 C 
HETATM   20  C1  UNL     1      80.960   7.317  20.441  1.00  0.00     0.005 C 
ENDBRANCH  18  19
ENDBRANCH  15  18
BRANCH  17  21
HETATM   21  C19 UNL     1      80.445  12.049  19.696  1.00  0.00     0.177 C 
HETATM   22  O2  UNL     1      80.621  13.303  19.835  1.00  0.00    -0.648 OA
HETATM   23  O3  UNL     1      80.460  11.633  18.355  1.00  0.00    -0.648 OA
ENDBRANCH  17  21
ENDBRANCH  14  15
ENDBRANCH   1  14
TORSDOF 5
ENDMDL
MODEL 3
REMARK VINA RESULT: -7.948885244      1.548      3.115
REMARK  5 active torsions:
REMARK  status: ('A' for Active; 'I' for Inactive)
REMARK    1  A    between atoms: C2_2  and  C3_3 
REMARK    2  A    between atoms: C3_3  and  C4_4 
REMARK    3  A    between atoms: C4_4  and  C5_5 
REMARK    4  A    between atoms: C5_5  and  C6_6 
REMARK    5  A    between atoms: C18_20  and  C19_21 
ROOT
HETATM    1  C6  UNL     1      84.194  12.103  19.741  1.00  0.00    -0.037 C 
HETATM    2  C7  UNL     1      85.064  13.309  20.074  1.00  0.00     0.015 C 
HETATM    3  C8  UNL     1      83.894  11.520  21.147  1.00  0.00     0.045 C 
HETATM    4  C9  UNL     1      82.704  10.660  21.230  1.00  0.00     0.229 C 
HETATM    5  C10 UNL     1      81.860  11.045  22.459  1.00  0.00     0.073 C 
HETATM    6  C11 UNL     1      81.223  12.389  22.215  1.00  0.00     0.058 C 
HETATM    7  C12 UNL     1      79.711  12.319  22.230  1.00  0.00     0.045 C 
HETATM    8  C13 UNL     1      81.619  13.272  23.406  1.00  0.00     0.045 C 
HETATM    9  O1  UNL     1      81.664  13.029  21.087  1.00  0.00    -0.346 OA
HETATM   10  C14 UNL     1      81.675  12.276  19.940  1.00  0.00     0.360 C 
HETATM   11  C15 UNL     1      82.929  12.705  19.161  1.00  0.00     0.073 C 
HETATM   12  N1  UNL     1      81.851  10.881  20.103  1.00  0.00     0.117 N 
HETATM   13  C16 UNL     1      80.715  10.063  19.994  1.00  0.00     0.314 C 
ENDROOT
BRANCH   1  14
HETATM   14  C5  UNL     1      84.813  11.030  18.989  1.00  0.00     0.019 C 
BRANCH  14  15
HETATM   15  C4  UNL     1      86.200  10.511  19.189  1.00  0.00    -0.025 A 
HETATM   16  C17 UNL     1      86.423   9.315  18.225  1.00  0.00     0.026 A 
HETATM   17  C18 UNL     1      87.273  10.495  18.184  1.00  0.00     0.096 A 
BRANCH  15  18
HETATM   18  C3  UNL     1      86.663  10.260  20.601  1.00  0.00     0.010 C 
BRANCH  18  19
HETATM   19  C2  UNL     1      86.760   8.917  21.166  1.00  0.00    -0.004 C 
HETATM   20  C1  UNL     1      85.622   8.400  21.996  1.00  0.00     0.005 C 
ENDBRANCH  18  19
ENDBRANCH  15  18
BRANCH  17  21
HETATM   21  C19 UNL     1      87.291  11.207  16.895  1.00  0.00     0.177 C 
HETATM   22  O2  UNL     1      87.149  12.468  16.782  1.00  0.00    -0.648 OA
HETATM   23  O3  UNL     1      87.469  10.557  15.663  1.00  0.00    -0.648 OA
ENDBRANCH  17  21
ENDBRANCH  14  15
ENDBRANCH   1  14
TORSDOF 5
ENDMDL
MODEL 4
REMARK VINA RESULT: -7.937612153      2.210      3.588
REMARK  5 active torsions:
REMARK  status: ('A' for Active; 'I' for Inactive)
REMARK    1  A    between atoms: C2_2  and  C3_3 
REMARK    2  A    between atoms: C3_3  and  C4_4 
REMARK    3  A    between atoms: C4_4  and  C5_5 
REMARK    4  A    between atoms: C5_5  and  C6_6 
REMARK    5  A    between atoms: C18_20  and  C19_21 
ROOT
HETATM    1  C6  UNL     1      81.905  11.627  19.497  1.00  0.00    -0.037 C 
HETATM    2  C7  UNL     1      80.741  12.169  18.676  1.00  0.00     0.015 C 
HETATM    3  C8  UNL     1      81.183  11.067  20.752  1.00  0.00     0.045 C 
HETATM    4  C9  UNL     1      81.935  10.054  21.510  1.00  0.00     0.229 C 
HETATM    5  C10 UNL     1      81.017   8.866  21.853  1.00  0.00     0.073 C 
HETATM    6  C11 UNL     1      80.707   8.105  20.590  1.00  0.00     0.058 C 
HETATM    7  C12 UNL     1      81.198   6.674  20.645  1.00  0.00     0.045 C 
HETATM    8  C13 UNL     1      79.176   8.025  20.505  1.00  0.00     0.045 C 
HETATM    9  O1  UNL     1      81.133   8.716  19.440  1.00  0.00    -0.346 OA
HETATM   10  C14 UNL     1      82.435   9.150  19.444  1.00  0.00     0.360 C 
HETATM   11  C15 UNL     1      82.442  10.477  18.667  1.00  0.00     0.073 C 
HETATM   12  N1  UNL     1      82.978   9.502  20.702  1.00  0.00     0.117 N 
HETATM   13  C16 UNL     1      83.844   8.584  21.319  1.00  0.00     0.314 C 
ENDROOT
BRANCH   1  14
HETATM   14  C5  UNL     1      82.871  12.588  19.989  1.00  0.00     0.019 C 
BRANCH  14  15
HETATM   15  C4  UNL     1      84.065  13.086  19.242  1.00  0.00    -0.025 A 
HETATM   16  C17 UNL     1      85.093  13.636  20.267  1.00  0.00     0.026 A 
HETATM   17  C18 UNL     1      85.435  12.561  19.348  1.00  0.00     0.096 A 
BRANCH  15  18
HETATM   18  C3  UNL     1      83.832  13.987  18.058  1.00  0.00     0.010 C 
BRANCH  18  19
HETATM   19  C2  UNL     1      83.418  13.477  16.754  1.00  0.00    -0.004 C 
HETATM   20  C1  UNL     1      82.319  14.187  16.018  1.00  0.00     0.005 C 
ENDBRANCH  18  19
ENDBRANCH  15  18
BRANCH  17  21
HETATM   21  C19 UNL     1      85.855  11.303  19.988  1.00  0.00     0.177 C 
HETATM   22  O2  UNL     1      85.938  11.144  21.249  1.00  0.00    -0.648 OA
HETATM   23  O3  UNL     1      86.205  10.152  19.261  1.00  0.00    -0.648 OA
ENDBRANCH  17  21
ENDBRANCH  14  15
ENDBRANCH   1  14
TORSDOF 5
ENDMDL
MODEL 5
REMARK VINA RESULT: -7.872734469      1.052      1.285
REMARK  5 active torsions:
REMARK  status: ('A' for Active; 'I' for Inactive)
REMARK    1  A    between atoms: C2_2  and  C3_3 
REMARK    2  A    between atoms: C3_3  and  C4_4 
REMARK    3  A    between atoms: C4_4  and  C5_5 
REMARK    4  A    between atoms: C5_5  and  C6_6 
REMARK    5  A    between atoms: C18_20  and  C19_21 
ROOT
HETATM    1  C6  UNL     1      84.418  10.833  20.346  1.00  0.00    -0.037 C 
HETATM    2  C7  UNL     1      85.563  10.412  21.260  1.00  0.00     0.015 C 
HETATM    3  C8  UNL     1      83.225  10.030  20.929  1.00  0.00     0.045 C 
HETATM    4  C9  UNL     1      81.892  10.561  20.604  1.00  0.00     0.229 C 
HETATM    5  C10 UNL     1      81.015  10.594  21.870  1.00  0.00     0.073 C 
HETATM    6  C11 UNL     1      81.531  11.666  22.795  1.00  0.00     0.058 C 
HETATM    7  C12 UNL     1      80.501  12.744  23.056  1.00  0.00     0.045 C 
HETATM    8  C13 UNL     1      81.779  10.980  24.146  1.00  0.00     0.045 C 
HETATM    9  O1  UNL     1      82.723  12.221  22.412  1.00  0.00    -0.346 OA
HETATM   10  C14 UNL     1      82.797  12.626  21.103  1.00  0.00     0.360 C 
HETATM   11  C15 UNL     1      84.229  12.308  20.640  1.00  0.00     0.073 C 
HETATM   12  N1  UNL     1      81.989  11.923  20.179  1.00  0.00     0.117 N 
HETATM   13  C16 UNL     1      80.805  12.541  19.745  1.00  0.00     0.314 C 
ENDROOT
BRANCH   1  14
HETATM   14  C5  UNL     1      84.512  10.450  18.951  1.00  0.00     0.019 C 
BRANCH  14  15
HETATM   15  C4  UNL     1      84.532  11.387  17.788  1.00  0.00    -0.025 A 
HETATM   16  C17 UNL     1      85.382  12.628  18.170  1.00  0.00     0.026 A 
HETATM   17  C18 UNL     1      85.720  11.797  17.025  1.00  0.00     0.096 A 
BRANCH  15  18
HETATM   18  C3  UNL     1      83.220  11.719  17.126  1.00  0.00     0.010 C 
BRANCH  18  19
HETATM   19  C2  UNL     1      82.401  10.711  16.461  1.00  0.00    -0.004 C 
HETATM   20  C1  UNL     1      81.395   9.948  17.273  1.00  0.00     0.005 C 
ENDBRANCH  18  19
ENDBRANCH  15  18
BRANCH  17  21
HETATM   21  C19 UNL     1      87.058  11.183  17.072  1.00  0.00     0.177 C 
HETATM   22  O2  UNL     1      87.840  11.269  18.074  1.00  0.00    -0.648 OA
HETATM   23  O3  UNL     1      87.599  10.441  16.009  1.00  0.00    -0.648 OA
ENDBRANCH  17  21
ENDBRANCH  14  15
ENDBRANCH   1  14
TORSDOF 5
ENDMDL
