MODEL 1
REMARK VINA RESULT: -7.009335768      0.000      0.000
REMARK  11 active torsions:
REMARK  status: ('A' for Active; 'I' for Inactive)
REMARK    1  A    between atoms: C2_2  and  O1_5 
REMARK    2  A    between atoms: O1_5  and  C5_6 
REMARK    3  A    between atoms: C5_6  and  O3_8 
REMARK    4  A    between atoms: O3_8  and  C6_9 
REMARK    5  A    between atoms: C6_9  and  C7_10 
REMARK    6  A    between atoms: C9_12  and  O4_13 
REMARK    7  A    between atoms: C10_15  and  C11_16 
REMARK    8  A    between atoms: C11_16  and  O5_17 
REMARK    9  A    between atoms: N1_19  and  O6_21 
REMARK   10  A    between atoms: C12_23  and  O7_24 
REMARK   11  A    between atoms: O7_24  and  O8_25 
ROOT
HETATM    1  C7  UNL     1     -27.752  11.962  78.688  1.00  0.00     0.068 A 
HETATM    2  C8  UNL     1     -27.395  11.018  79.746  1.00  0.00     0.015 A 
HETATM    3  C9  UNL     1     -28.462  10.524  80.321  1.00  0.00     0.054 A 
HETATM    4  C10 UNL     1     -29.732  11.057  79.740  1.00  0.00     0.151 A 
HETATM    5  C12 UNL     1     -29.261  12.049  78.744  1.00  0.00     0.188 A 
ENDROOT
BRANCH   1   6
HETATM    6  C6  UNL     1     -27.407  11.429  77.302  1.00  0.00     0.192 C 
BRANCH   6   7
HETATM    7  O3  UNL     1     -26.170  10.811  77.214  1.00  0.00    -0.297 OA
BRANCH   7   8
HETATM    8  C5  UNL     1     -24.984  11.499  77.148  1.00  0.00     0.407 C 
HETATM    9  O2  UNL     1     -24.629  12.070  76.109  1.00  0.00    -0.229 OA
BRANCH   8  10
HETATM   10  O1  UNL     1     -24.109  11.602  78.222  1.00  0.00    -0.288 OA
BRANCH  10  11
HETATM   11  C2  UNL     1     -23.224  10.636  78.646  1.00  0.00     0.062 C 
HETATM   12  C1  UNL     1     -22.749  11.027  80.052  1.00  0.00     0.046 C 
HETATM   13  C3  UNL     1     -21.957  10.603  77.792  1.00  0.00     0.046 C 
HETATM   14  C4  UNL     1     -23.749   9.247  78.730  1.00  0.00     0.046 C 
ENDBRANCH  10  11
ENDBRANCH   8  10
ENDBRANCH   7   8
ENDBRANCH   6   7
ENDBRANCH   1   6
BRANCH   5  15
HETATM   15  O7  UNL     1     -29.836  11.882  77.501  1.00  0.00    -0.236 OA
BRANCH  15  16
HETATM   16  O8  UNL     1     -30.887  12.648  77.304  1.00  0.00    -0.250 OA
ATOM     17  H8  UNL     1     -30.851  13.135  76.489  1.00  0.00     0.253 HD
ENDBRANCH  15  16
ENDBRANCH   5  15
BRANCH   3  18
HETATM   18  O4  UNL     1     -28.495   9.587  81.378  1.00  0.00    -0.364 OA
ATOM     19  H4  UNL     1     -28.443   8.642  81.301  1.00  0.00     0.217 HD
ENDBRANCH   3  18
BRANCH   4  20
HETATM   20  C11 UNL     1     -30.494   9.925  79.227  1.00  0.00     0.148 C 
HETATM   21  N1  UNL     1     -30.035   8.765  79.051  1.00  0.00    -0.250 N 
ATOM     22  H1  UNL     1     -29.057   8.594  79.282  1.00  0.00     0.196 HD
BRANCH  20  23
HETATM   23  O5  UNL     1     -31.841  10.151  78.906  1.00  0.00    -0.347 OA
ATOM     24  H5  UNL     1     -32.338   9.413  78.574  1.00  0.00     0.219 HD
ENDBRANCH  20  23
BRANCH  21  25
HETATM   25  O6  UNL     1     -30.773   7.726  78.570  1.00  0.00    -0.288 OA
ATOM     26  H6  UNL     1     -30.689   6.832  78.880  1.00  0.00     0.244 HD
ENDBRANCH  21  25
ENDBRANCH   4  20
TORSDOF 11
ENDMDL
MODEL 2
REMARK VINA RESULT: -6.993045397      2.960      6.192
REMARK  11 active torsions:
REMARK  status: ('A' for Active; 'I' for Inactive)
REMARK    1  A    between atoms: C2_2  and  O1_5 
REMARK    2  A    between atoms: O1_5  and  C5_6 
REMARK    3  A    between atoms: C5_6  and  O3_8 
REMARK    4  A    between atoms: O3_8  and  C6_9 
REMARK    5  A    between atoms: C6_9  and  C7_10 
REMARK    6  A    between atoms: C9_12  and  O4_13 
REMARK    7  A    between atoms: C10_15  and  C11_16 
REMARK    8  A    between atoms: C11_16  and  O5_17 
REMARK    9  A    between atoms: N1_19  and  O6_21 
REMARK   10  A    between atoms: C12_23  and  O7_24 
REMARK   11  A    between atoms: O7_24  and  O8_25 
ROOT
HETATM    1  C7  UNL     1     -26.550  11.917  77.776  1.00  0.00     0.068 A 
HETATM    2  C8  UNL     1     -26.752  11.392  79.126  1.00  0.00     0.015 A 
HETATM    3  C9  UNL     1     -25.788  10.575  79.466  1.00  0.00     0.054 A 
HETATM    4  C10 UNL     1     -24.762  10.411  78.391  1.00  0.00     0.151 A 
HETATM    5  C12 UNL     1     -25.308  11.216  77.272  1.00  0.00     0.188 A 
ENDROOT
BRANCH   1   6
HETATM    6  C6  UNL     1     -26.225  13.407  77.782  1.00  0.00     0.192 C 
BRANCH   6   7
HETATM    7  O3  UNL     1     -26.800  14.126  76.747  1.00  0.00    -0.297 OA
BRANCH   7   8
HETATM    8  C5  UNL     1     -28.021  14.746  76.844  1.00  0.00     0.407 C 
HETATM    9  O2  UNL     1     -28.438  15.490  75.948  1.00  0.00    -0.229 OA
BRANCH   8  10
HETATM   10  O1  UNL     1     -28.864  14.587  77.937  1.00  0.00    -0.288 OA
BRANCH  10  11
HETATM   11  C2  UNL     1     -29.958  13.753  78.006  1.00  0.00     0.062 C 
HETATM   12  C1  UNL     1     -31.215  14.630  77.922  1.00  0.00     0.046 C 
HETATM   13  C3  UNL     1     -30.056  13.043  79.356  1.00  0.00     0.046 C 
HETATM   14  C4  UNL     1     -30.072  12.719  76.942  1.00  0.00     0.046 C 
ENDBRANCH  10  11
ENDBRANCH   8  10
ENDBRANCH   7   8
ENDBRANCH   6   7
ENDBRANCH   1   6
BRANCH   5  15
HETATM   15  O7  UNL     1     -24.391  12.101  76.745  1.00  0.00    -0.236 OA
BRANCH  15  16
HETATM   16  O8  UNL     1     -23.874  11.700  75.603  1.00  0.00    -0.250 OA
ATOM     17  H8  UNL     1     -23.817  10.755  75.526  1.00  0.00     0.253 HD
ENDBRANCH  15  16
ENDBRANCH   5  15
BRANCH   3  18
HETATM   18  O4  UNL     1     -25.658   9.885  80.692  1.00  0.00    -0.364 OA
ATOM     19  H4  UNL     1     -25.049   9.184  80.887  1.00  0.00     0.217 HD
ENDBRANCH   3  18
BRANCH   4  20
HETATM   20  C11 UNL     1     -23.478  10.834  78.936  1.00  0.00     0.148 C 
HETATM   21  N1  UNL     1     -23.276  11.166  80.135  1.00  0.00    -0.250 N 
ATOM     22  H1  UNL     1     -24.064  11.141  80.781  1.00  0.00     0.196 HD
BRANCH  20  23
HETATM   23  O5  UNL     1     -22.388  10.872  78.054  1.00  0.00    -0.347 OA
ATOM     24  H5  UNL     1     -21.862  11.663  78.047  1.00  0.00     0.219 HD
ENDBRANCH  20  23
BRANCH  21  25
HETATM   25  O6  UNL     1     -22.063  11.557  80.615  1.00  0.00    -0.288 OA
ATOM     26  H6  UNL     1     -21.418  10.956  80.970  1.00  0.00     0.244 HD
ENDBRANCH  21  25
ENDBRANCH   4  20
TORSDOF 11
ENDMDL
MODEL 3
REMARK VINA RESULT: -6.943413084      0.986      1.098
REMARK  11 active torsions:
REMARK  status: ('A' for Active; 'I' for Inactive)
REMARK    1  A    between atoms: C2_2  and  O1_5 
REMARK    2  A    between atoms: O1_5  and  C5_6 
REMARK    3  A    between atoms: C5_6  and  O3_8 
REMARK    4  A    between atoms: O3_8  and  C6_9 
REMARK    5  A    between atoms: C6_9  and  C7_10 
REMARK    6  A    between atoms: C9_12  and  O4_13 
REMARK    7  A    between atoms: C10_15  and  C11_16 
REMARK    8  A    between atoms: C11_16  and  O5_17 
REMARK    9  A    between atoms: N1_19  and  O6_21 
REMARK   10  A    between atoms: C12_23  and  O7_24 
REMARK   11  A    between atoms: O7_24  and  O8_25 
ROOT
HETATM    1  C7  UNL     1     -27.663  12.674  78.102  1.00  0.00     0.068 A 
HETATM    2  C8  UNL     1     -27.579  11.950  79.369  1.00  0.00     0.015 A 
HETATM    3  C9  UNL     1     -28.763  11.792  79.904  1.00  0.00     0.054 A 
HETATM    4  C10 UNL     1     -29.856  12.388  79.076  1.00  0.00     0.151 A 
HETATM    5  C12 UNL     1     -29.125  13.030  77.957  1.00  0.00     0.188 A 
ENDROOT
BRANCH   1   6
HETATM    6  C6  UNL     1     -27.321  11.787  76.910  1.00  0.00     0.192 C 
BRANCH   6   7
HETATM    7  O3  UNL     1     -26.161  11.043  77.059  1.00  0.00    -0.297 OA
BRANCH   7   8
HETATM    8  C5  UNL     1     -24.904  11.593  77.050  1.00  0.00     0.407 C 
HETATM    9  O2  UNL     1     -24.429  12.097  76.024  1.00  0.00    -0.229 OA
BRANCH   8  10
HETATM   10  O1  UNL     1     -24.084  11.624  78.171  1.00  0.00    -0.288 OA
BRANCH  10  11
HETATM   11  C2  UNL     1     -23.244  10.617  78.592  1.00  0.00     0.062 C 
HETATM   12  C1  UNL     1     -22.772  10.970  80.010  1.00  0.00     0.046 C 
HETATM   13  C3  UNL     1     -21.968  10.545  77.754  1.00  0.00     0.046 C 
HETATM   14  C4  UNL     1     -23.825   9.249  78.651  1.00  0.00     0.046 C 
ENDBRANCH  10  11
ENDBRANCH   8  10
ENDBRANCH   7   8
ENDBRANCH   6   7
ENDBRANCH   1   6
BRANCH   5  15
HETATM   15  O7  UNL     1     -29.623  12.684  76.718  1.00  0.00    -0.236 OA
BRANCH  15  16
HETATM   16  O8  UNL     1     -30.368  13.622  76.174  1.00  0.00    -0.250 OA
ATOM     17  H8  UNL     1     -30.232  13.717  75.239  1.00  0.00     0.253 HD
ENDBRANCH  15  16
ENDBRANCH   5  15
BRANCH   3  18
HETATM   18  O4  UNL     1     -29.061  11.141  81.122  1.00  0.00    -0.364 OA
ATOM     19  H4  UNL     1     -29.510  11.515  81.871  1.00  0.00     0.217 HD
ENDBRANCH   3  18
BRANCH   4  20
HETATM   20  C11 UNL     1     -30.782  11.318  78.726  1.00  0.00     0.148 C 
HETATM   21  N1  UNL     1     -30.705  10.131  79.142  1.00  0.00    -0.250 N 
ATOM     22  H1  UNL     1     -29.940   9.890  79.772  1.00  0.00     0.196 HD
BRANCH  20  23
HETATM   23  O5  UNL     1     -31.836  11.640  77.859  1.00  0.00    -0.347 OA
ATOM     24  H5  UNL     1     -31.637  12.209  77.125  1.00  0.00     0.219 HD
ENDBRANCH  20  23
BRANCH  21  25
HETATM   25  O6  UNL     1     -31.586   9.151  78.797  1.00  0.00    -0.288 OA
ATOM     26  H6  UNL     1     -31.732   8.368  79.314  1.00  0.00     0.244 HD
ENDBRANCH  21  25
ENDBRANCH   4  20
TORSDOF 11
ENDMDL
MODEL 4
REMARK VINA RESULT: -6.892046159      2.422      3.400
REMARK  11 active torsions:
REMARK  status: ('A' for Active; 'I' for Inactive)
REMARK    1  A    between atoms: C2_2  and  O1_5 
REMARK    2  A    between atoms: O1_5  and  C5_6 
REMARK    3  A    between atoms: C5_6  and  O3_8 
REMARK    4  A    between atoms: O3_8  and  C6_9 
REMARK    5  A    between atoms: C6_9  and  C7_10 
REMARK    6  A    between atoms: C9_12  and  O4_13 
REMARK    7  A    between atoms: C10_15  and  C11_16 
REMARK    8  A    between atoms: C11_16  and  O5_17 
REMARK    9  A    between atoms: N1_19  and  O6_21 
REMARK   10  A    between atoms: C12_23  and  O7_24 
REMARK   11  A    between atoms: O7_24  and  O8_25 
ROOT
HETATM    1  C7  UNL     1     -27.547  12.174  78.760  1.00  0.00     0.068 A 
HETATM    2  C8  UNL     1     -28.867  11.829  79.286  1.00  0.00     0.015 A 
HETATM    3  C9  UNL     1     -29.729  12.791  79.074  1.00  0.00     0.054 A 
HETATM    4  C10 UNL     1     -29.127  13.959  78.360  1.00  0.00     0.151 A 
HETATM    5  C12 UNL     1     -27.698  13.585  78.237  1.00  0.00     0.188 A 
ENDROOT
BRANCH   1   6
HETATM    6  C6  UNL     1     -27.165  11.314  77.560  1.00  0.00     0.192 C 
BRANCH   6   7
HETATM    7  O3  UNL     1     -25.930  10.695  77.667  1.00  0.00    -0.297 OA
BRANCH   7   8
HETATM    8  C5  UNL     1     -24.737  11.353  77.500  1.00  0.00     0.407 C 
HETATM    9  O2  UNL     1     -24.478  11.960  76.453  1.00  0.00    -0.229 OA
BRANCH   8  10
HETATM   10  O1  UNL     1     -23.749  11.385  78.476  1.00  0.00    -0.288 OA
BRANCH  10  11
HETATM   11  C2  UNL     1     -22.767  10.438  78.671  1.00  0.00     0.062 C 
HETATM   12  C1  UNL     1     -22.031  10.795  79.970  1.00  0.00     0.046 C 
HETATM   13  C3  UNL     1     -21.698  10.486  77.580  1.00  0.00     0.046 C 
HETATM   14  C4  UNL     1     -23.222   9.028  78.798  1.00  0.00     0.046 C 
ENDBRANCH  10  11
ENDBRANCH   8  10
ENDBRANCH   7   8
ENDBRANCH   6   7
ENDBRANCH   1   6
BRANCH   5  15
HETATM   15  O7  UNL     1     -27.213  13.717  76.953  1.00  0.00    -0.236 OA
BRANCH  15  16
HETATM   16  O8  UNL     1     -26.170  14.514  76.867  1.00  0.00    -0.250 OA
ATOM     17  H8  UNL     1     -25.552  14.256  76.194  1.00  0.00     0.253 HD
ENDBRANCH  15  16
ENDBRANCH   5  15
BRANCH   3  18
HETATM   18  O4  UNL     1     -31.092  12.803  79.446  1.00  0.00    -0.364 OA
ATOM     19  H4  UNL     1     -31.830  13.027  78.892  1.00  0.00     0.217 HD
ENDBRANCH   3  18
BRANCH   4  20
HETATM   20  C11 UNL     1     -29.865  14.145  77.116  1.00  0.00     0.148 C 
HETATM   21  N1  UNL     1     -30.063  15.254  76.552  1.00  0.00    -0.250 N 
ATOM     22  H1  UNL     1     -29.683  16.092  76.991  1.00  0.00     0.196 HD
BRANCH  20  23
HETATM   23  O5  UNL     1     -30.392  12.997  76.505  1.00  0.00    -0.347 OA
ATOM     24  H5  UNL     1     -31.110  13.120  75.896  1.00  0.00     0.219 HD
ENDBRANCH  20  23
BRANCH  21  25
HETATM   25  O6  UNL     1     -30.757  15.396  75.389  1.00  0.00    -0.288 OA
ATOM     26  H6  UNL     1     -31.448  16.036  75.262  1.00  0.00     0.244 HD
ENDBRANCH  21  25
ENDBRANCH   4  20
TORSDOF 11
ENDMDL
MODEL 5
REMARK VINA RESULT: -6.872380064      3.170      6.441
REMARK  11 active torsions:
REMARK  status: ('A' for Active; 'I' for Inactive)
REMARK    1  A    between atoms: C2_2  and  O1_5 
REMARK    2  A    between atoms: O1_5  and  C5_6 
REMARK    3  A    between atoms: C5_6  and  O3_8 
REMARK    4  A    between atoms: O3_8  and  C6_9 
REMARK    5  A    between atoms: C6_9  and  C7_10 
REMARK    6  A    between atoms: C9_12  and  O4_13 
REMARK    7  A    between atoms: C10_15  and  C11_16 
REMARK    8  A    between atoms: C11_16  and  O5_17 
REMARK    9  A    between atoms: N1_19  and  O6_21 
REMARK   10  A    between atoms: C12_23  and  O7_24 
REMARK   11  A    between atoms: O7_24  and  O8_25 
ROOT
HETATM    1  C7  UNL     1     -27.328  11.882  78.023  1.00  0.00     0.068 A 
HETATM    2  C8  UNL     1     -27.103  11.478  79.410  1.00  0.00     0.015 A 
HETATM    3  C9  UNL     1     -26.081  10.665  79.506  1.00  0.00     0.054 A 
HETATM    4  C10 UNL     1     -25.439  10.384  78.186  1.00  0.00     0.151 A 
HETATM    5  C12 UNL     1     -26.305  11.107  77.224  1.00  0.00     0.188 A 
ENDROOT
BRANCH   1   6
HETATM    6  C6  UNL     1     -27.018  13.358  77.797  1.00  0.00     0.192 C 
BRANCH   6   7
HETATM    7  O3  UNL     1     -27.984  14.229  78.272  1.00  0.00    -0.297 OA
BRANCH   7   8
HETATM    8  C5  UNL     1     -29.308  14.155  77.919  1.00  0.00     0.407 C 
HETATM    9  O2  UNL     1     -30.184  13.902  78.755  1.00  0.00    -0.229 OA
BRANCH   8  10
HETATM   10  O1  UNL     1     -29.756  14.356  76.619  1.00  0.00    -0.288 OA
BRANCH  10  11
HETATM   11  C2  UNL     1     -30.030  15.572  76.032  1.00  0.00     0.062 C 
HETATM   12  C1  UNL     1     -30.762  15.294  74.712  1.00  0.00     0.046 C 
HETATM   13  C3  UNL     1     -28.757  16.316  75.633  1.00  0.00     0.046 C 
HETATM   14  C4  UNL     1     -30.877  16.511  76.815  1.00  0.00     0.046 C 
ENDBRANCH  10  11
ENDBRANCH   8  10
ENDBRANCH   7   8
ENDBRANCH   6   7
ENDBRANCH   1   6
BRANCH   5  15
HETATM   15  O7  UNL     1     -25.596  11.919  76.364  1.00  0.00    -0.236 OA
BRANCH  15  16
HETATM   16  O8  UNL     1     -25.348  11.358  75.200  1.00  0.00    -0.250 OA
ATOM     17  H8  UNL     1     -24.440  11.102  75.090  1.00  0.00     0.253 HD
ENDBRANCH  15  16
ENDBRANCH   5  15
BRANCH   3  18
HETATM   18  O4  UNL     1     -25.577  10.077  80.688  1.00  0.00    -0.364 OA
ATOM     19  H4  UNL     1     -24.996   9.329  80.747  1.00  0.00     0.217 HD
ENDBRANCH   3  18
BRANCH   4  20
HETATM   20  C11 UNL     1     -24.049  10.815  78.268  1.00  0.00     0.148 C 
HETATM   21  N1  UNL     1     -23.165  10.575  77.403  1.00  0.00    -0.250 N 
ATOM     22  H1  UNL     1     -23.432  10.038  76.578  1.00  0.00     0.196 HD
BRANCH  20  23
HETATM   23  O5  UNL     1     -23.673  11.553  79.401  1.00  0.00    -0.347 OA
ATOM     24  H5  UNL     1     -23.161  11.102  80.062  1.00  0.00     0.219 HD
ENDBRANCH  20  23
BRANCH  21  25
HETATM   25  O6  UNL     1     -21.872  10.992  77.508  1.00  0.00    -0.288 OA
ATOM     26  H6  UNL     1     -21.494  11.677  76.970  1.00  0.00     0.244 HD
ENDBRANCH  21  25
ENDBRANCH   4  20
TORSDOF 11
ENDMDL
