MODEL 1
REMARK VINA RESULT: -6.998577475      0.000      0.000
REMARK  8 active torsions:
REMARK  status: ('A' for Active; 'I' for Inactive)
REMARK    1  A    between atoms: C2_2  and  O1_3 
REMARK    2  A    between atoms: O1_3  and  C3_4 
REMARK    3  A    between atoms: C3_4  and  C4_6 
REMARK    4  A    between atoms: N1_10  and  C6_11 
REMARK    5  A    between atoms: C8_13  and  O3_14 
REMARK    6  A    between atoms: C9_16  and  C10_17 
REMARK    7  A    between atoms: C10_17  and  O4_18 
REMARK    8  A    between atoms: C12_21  and  O5_22 
ROOT
HETATM    1  C4  UNL     1     -23.919  10.653  78.415  1.00  0.00     0.134 A 
HETATM    2  S1  UNL     1     -24.748  10.171  79.820  1.00  0.00    -0.050 SA
HETATM    3  C5  UNL     1     -26.263  10.869  79.459  1.00  0.00     0.148 A 
HETATM    4  S2  UNL     1     -27.621  10.810  80.408  1.00  0.00    -0.052 SA
HETATM    5  N1  UNL     1     -26.077  11.446  78.277  1.00  0.00    -0.307 N 
HETATM    6  C12 UNL     1     -24.877  11.344  77.727  1.00  0.00     0.168 A 
ENDROOT
BRANCH   5   7
HETATM    7  C6  UNL     1     -27.159  12.166  77.609  1.00  0.00     0.096 C 
HETATM    8  C7  UNL     1     -28.504  11.549  77.698  1.00  0.00     0.058 C 
HETATM    9  C8  UNL     1     -29.314  12.626  76.947  1.00  0.00     0.126 C 
HETATM   10  C9  UNL     1     -28.765  13.886  77.577  1.00  0.00     0.040 C 
HETATM   11  C11 UNL     1     -27.362  13.563  78.072  1.00  0.00     0.035 C 
BRANCH   9  12
HETATM   12  O3  UNL     1     -30.658  12.497  77.171  1.00  0.00    -0.395 OA
ATOM     13  H3  UNL     1     -31.043  13.310  77.476  1.00  0.00     0.210 HD
ENDBRANCH   9  12
BRANCH  10  14
HETATM   14  C10 UNL     1     -28.732  14.958  76.507  1.00  0.00     0.171 C 
BRANCH  14  15
HETATM   15  O4  UNL     1     -27.424  15.269  76.180  1.00  0.00    -0.400 OA
ATOM     16  H4  UNL     1     -27.400  15.817  75.404  1.00  0.00     0.209 HD
ENDBRANCH  14  15
ENDBRANCH  10  14
ENDBRANCH   5   7
BRANCH   6  17
HETATM   17  O5  UNL     1     -24.507  11.903  76.462  1.00  0.00    -0.345 OA
ATOM     18  H5  UNL     1     -23.715  12.428  76.430  1.00  0.00     0.219 HD
ENDBRANCH   6  17
BRANCH   1  19
HETATM   19  C3  UNL     1     -22.512  10.382  78.050  1.00  0.00     0.304 C 
HETATM   20  O2  UNL     1     -21.933  11.138  77.265  1.00  0.00    -0.258 OA
BRANCH  19  21
HETATM   21  O1  UNL     1     -21.859   9.296  78.582  1.00  0.00    -0.317 OA
BRANCH  21  22
HETATM   22  C2  UNL     1     -21.577   8.115  77.890  1.00  0.00     0.174 C 
HETATM   23  C1  UNL     1     -22.779   7.174  77.861  1.00  0.00     0.034 C 
ENDBRANCH  21  22
ENDBRANCH  19  21
ENDBRANCH   1  19
TORSDOF 8
ENDMDL
MODEL 2
REMARK VINA RESULT: -6.995009297      0.949      1.123
REMARK  8 active torsions:
REMARK  status: ('A' for Active; 'I' for Inactive)
REMARK    1  A    between atoms: C2_2  and  O1_3 
REMARK    2  A    between atoms: O1_3  and  C3_4 
REMARK    3  A    between atoms: C3_4  and  C4_6 
REMARK    4  A    between atoms: N1_10  and  C6_11 
REMARK    5  A    between atoms: C8_13  and  O3_14 
REMARK    6  A    between atoms: C9_16  and  C10_17 
REMARK    7  A    between atoms: C10_17  and  O4_18 
REMARK    8  A    between atoms: C12_21  and  O5_22 
ROOT
HETATM    1  C4  UNL     1     -23.704  10.567  78.329  1.00  0.00     0.134 A 
HETATM    2  S1  UNL     1     -24.558  10.097  79.724  1.00  0.00    -0.050 SA
HETATM    3  C5  UNL     1     -26.047  10.846  79.360  1.00  0.00     0.148 A 
HETATM    4  S2  UNL     1     -27.413  10.819  80.300  1.00  0.00    -0.052 SA
HETATM    5  N1  UNL     1     -25.836  11.428  78.185  1.00  0.00    -0.307 N 
HETATM    6  C12 UNL     1     -24.636  11.295  77.642  1.00  0.00     0.168 A 
ENDROOT
BRANCH   5   7
HETATM    7  C6  UNL     1     -26.891  12.189  77.518  1.00  0.00     0.096 C 
HETATM    8  C7  UNL     1     -28.245  11.585  77.545  1.00  0.00     0.058 C 
HETATM    9  C8  UNL     1     -29.021  12.701  76.816  1.00  0.00     0.126 C 
HETATM   10  C9  UNL     1     -28.476  13.928  77.512  1.00  0.00     0.040 C 
HETATM   11  C11 UNL     1     -27.091  13.568  78.032  1.00  0.00     0.035 C 
BRANCH   9  12
HETATM   12  O3  UNL     1     -30.372  12.579  76.998  1.00  0.00    -0.395 OA
ATOM     13  H3  UNL     1     -30.577  12.097  77.791  1.00  0.00     0.210 HD
ENDBRANCH   9  12
BRANCH  10  14
HETATM   14  C10 UNL     1     -28.401  15.041  76.488  1.00  0.00     0.171 C 
BRANCH  14  15
HETATM   15  O4  UNL     1     -29.667  15.356  76.027  1.00  0.00    -0.400 OA
ATOM     16  H4  UNL     1     -29.640  15.550  75.097  1.00  0.00     0.209 HD
ENDBRANCH  14  15
ENDBRANCH  10  14
ENDBRANCH   5   7
BRANCH   6  17
HETATM   17  O5  UNL     1     -24.241  11.855  76.385  1.00  0.00    -0.345 OA
ATOM     18  H5  UNL     1     -23.898  11.259  75.728  1.00  0.00     0.219 HD
ENDBRANCH   6  17
BRANCH   1  19
HETATM   19  C3  UNL     1     -22.304  10.256  77.970  1.00  0.00     0.304 C 
HETATM   20  O2  UNL     1     -21.607  11.125  77.439  1.00  0.00    -0.258 OA
BRANCH  19  21
HETATM   21  O1  UNL     1     -21.788   9.009  78.226  1.00  0.00    -0.317 OA
BRANCH  21  22
HETATM   22  C2  UNL     1     -20.702   8.751  79.068  1.00  0.00     0.174 C 
HETATM   23  C1  UNL     1     -20.758   9.594  80.340  1.00  0.00     0.034 C 
ENDBRANCH  21  22
ENDBRANCH  19  21
ENDBRANCH   1  19
TORSDOF 8
ENDMDL
MODEL 3
REMARK VINA RESULT: -6.925230880      3.034      6.735
REMARK  8 active torsions:
REMARK  status: ('A' for Active; 'I' for Inactive)
REMARK    1  A    between atoms: C2_2  and  O1_3 
REMARK    2  A    between atoms: O1_3  and  C3_4 
REMARK    3  A    between atoms: C3_4  and  C4_6 
REMARK    4  A    between atoms: N1_10  and  C6_11 
REMARK    5  A    between atoms: C8_13  and  O3_14 
REMARK    6  A    between atoms: C9_16  and  C10_17 
REMARK    7  A    between atoms: C10_17  and  O4_18 
REMARK    8  A    between atoms: C12_21  and  O5_22 
ROOT
HETATM    1  C4  UNL     1     -27.623  10.804  79.303  1.00  0.00     0.134 A 
HETATM    2  S1  UNL     1     -27.700  11.500  77.752  1.00  0.00    -0.050 SA
HETATM    3  C5  UNL     1     -26.035  11.445  77.379  1.00  0.00     0.148 A 
HETATM    4  S2  UNL     1     -25.327  11.973  75.976  1.00  0.00    -0.052 SA
HETATM    5  N1  UNL     1     -25.483  10.897  78.456  1.00  0.00    -0.307 N 
HETATM    6  C12 UNL     1     -26.285  10.562  79.454  1.00  0.00     0.168 A 
ENDROOT
BRANCH   5   7
HETATM    7  C6  UNL     1     -24.041  10.673  78.534  1.00  0.00     0.096 C 
HETATM    8  C7  UNL     1     -23.355  11.254  79.714  1.00  0.00     0.058 C 
HETATM    9  C8  UNL     1     -21.926  10.744  79.438  1.00  0.00     0.126 C 
HETATM   10  C9  UNL     1     -22.203   9.304  79.072  1.00  0.00     0.040 C 
HETATM   11  C11 UNL     1     -23.626   9.247  78.533  1.00  0.00     0.035 C 
BRANCH   9  12
HETATM   12  O3  UNL     1     -21.133  10.836  80.550  1.00  0.00    -0.395 OA
ATOM     13  H3  UNL     1     -21.013  11.739  80.822  1.00  0.00     0.210 HD
ENDBRANCH   9  12
BRANCH  10  14
HETATM   14  C10 UNL     1     -21.202   8.899  78.010  1.00  0.00     0.171 C 
BRANCH  14  15
HETATM   15  O4  UNL     1     -21.728   7.900  77.211  1.00  0.00    -0.400 OA
ATOM     16  H4  UNL     1     -21.213   7.808  76.417  1.00  0.00     0.209 HD
ENDBRANCH  14  15
ENDBRANCH  10  14
ENDBRANCH   5   7
BRANCH   6  17
HETATM   17  O5  UNL     1     -25.858   9.963  80.682  1.00  0.00    -0.345 OA
ATOM     18  H5  UNL     1     -25.211  10.432  81.196  1.00  0.00     0.219 HD
ENDBRANCH   6  17
BRANCH   1  19
HETATM   19  C3  UNL     1     -28.737  10.538  80.238  1.00  0.00     0.304 C 
HETATM   20  O2  UNL     1     -28.510  10.475  81.450  1.00  0.00    -0.258 OA
BRANCH  19  21
HETATM   21  O1  UNL     1     -30.012  10.362  79.757  1.00  0.00    -0.317 OA
BRANCH  21  22
HETATM   22  C2  UNL     1     -30.790   9.218  79.957  1.00  0.00     0.174 C 
HETATM   23  C1  UNL     1     -30.211   8.005  79.233  1.00  0.00     0.034 C 
ENDBRANCH  21  22
ENDBRANCH  19  21
ENDBRANCH   1  19
TORSDOF 8
ENDMDL
MODEL 4
REMARK VINA RESULT: -6.856589720      2.282      6.958
REMARK  8 active torsions:
REMARK  status: ('A' for Active; 'I' for Inactive)
REMARK    1  A    between atoms: C2_2  and  O1_3 
REMARK    2  A    between atoms: O1_3  and  C3_4 
REMARK    3  A    between atoms: C3_4  and  C4_6 
REMARK    4  A    between atoms: N1_10  and  C6_11 
REMARK    5  A    between atoms: C8_13  and  O3_14 
REMARK    6  A    between atoms: C9_16  and  C10_17 
REMARK    7  A    between atoms: C10_17  and  O4_18 
REMARK    8  A    between atoms: C12_21  and  O5_22 
ROOT
HETATM    1  C4  UNL     1     -30.354  13.428  77.573  1.00  0.00     0.134 A 
HETATM    2  S1  UNL     1     -30.987  12.068  78.376  1.00  0.00    -0.050 SA
HETATM    3  C5  UNL     1     -29.553  11.146  78.460  1.00  0.00     0.148 A 
HETATM    4  S2  UNL     1     -29.394   9.641  79.136  1.00  0.00    -0.052 SA
HETATM    5  N1  UNL     1     -28.644  11.913  77.869  1.00  0.00    -0.307 N 
HETATM    6  C12 UNL     1     -29.040  13.089  77.407  1.00  0.00     0.168 A 
ENDROOT
BRANCH   5   7
HETATM    7  C6  UNL     1     -27.257  11.473  77.734  1.00  0.00     0.096 C 
HETATM    8  C7  UNL     1     -26.545  11.929  76.516  1.00  0.00     0.058 C 
HETATM    9  C8  UNL     1     -25.159  11.317  76.802  1.00  0.00     0.126 C 
HETATM   10  C9  UNL     1     -24.972  11.702  78.252  1.00  0.00     0.040 C 
HETATM   11  C11 UNL     1     -26.362  11.867  78.852  1.00  0.00     0.035 C 
BRANCH   9  12
HETATM   12  O3  UNL     1     -24.189  11.867  76.008  1.00  0.00    -0.395 OA
ATOM     13  H3  UNL     1     -24.142  11.437  75.162  1.00  0.00     0.210 HD
ENDBRANCH   9  12
BRANCH  10  14
HETATM   14  C10 UNL     1     -24.216  10.579  78.932  1.00  0.00     0.171 C 
BRANCH  14  15
HETATM   15  O4  UNL     1     -23.900   9.591  78.016  1.00  0.00    -0.400 OA
ATOM     16  H4  UNL     1     -23.122   9.832  77.526  1.00  0.00     0.209 HD
ENDBRANCH  14  15
ENDBRANCH  10  14
ENDBRANCH   5   7
BRANCH   6  17
HETATM   17  O5  UNL     1     -28.193  14.036  76.747  1.00  0.00    -0.345 OA
ATOM     18  H5  UNL     1     -27.837  13.790  75.900  1.00  0.00     0.219 HD
ENDBRANCH   6  17
BRANCH   1  19
HETATM   19  C3  UNL     1     -31.066  14.657  77.164  1.00  0.00     0.304 C 
HETATM   20  O2  UNL     1     -32.028  15.051  77.830  1.00  0.00    -0.258 OA
BRANCH  19  21
HETATM   21  O1  UNL     1     -30.658  15.351  76.051  1.00  0.00    -0.317 OA
BRANCH  21  22
HETATM   22  C2  UNL     1     -30.308  16.704  76.037  1.00  0.00     0.174 C 
HETATM   23  C1  UNL     1     -28.979  16.939  75.322  1.00  0.00     0.034 C 
ENDBRANCH  21  22
ENDBRANCH  19  21
ENDBRANCH   1  19
TORSDOF 8
ENDMDL
MODEL 5
REMARK VINA RESULT: -6.770492696      1.852      6.717
REMARK  8 active torsions:
REMARK  status: ('A' for Active; 'I' for Inactive)
REMARK    1  A    between atoms: C2_2  and  O1_3 
REMARK    2  A    between atoms: O1_3  and  C3_4 
REMARK    3  A    between atoms: C3_4  and  C4_6 
REMARK    4  A    between atoms: N1_10  and  C6_11 
REMARK    5  A    between atoms: C8_13  and  O3_14 
REMARK    6  A    between atoms: C9_16  and  C10_17 
REMARK    7  A    between atoms: C10_17  and  O4_18 
REMARK    8  A    between atoms: C12_21  and  O5_22 
ROOT
HETATM    1  C4  UNL     1     -28.439  13.437  77.677  1.00  0.00     0.134 A 
HETATM    2  S1  UNL     1     -29.352  12.873  78.998  1.00  0.00    -0.050 SA
HETATM    3  C5  UNL     1     -28.206  11.782  79.637  1.00  0.00     0.148 A 
HETATM    4  S2  UNL     1     -28.402  10.831  80.981  1.00  0.00    -0.052 SA
HETATM    5  N1  UNL     1     -27.167  11.889  78.816  1.00  0.00    -0.307 N 
HETATM    6  C12 UNL     1     -27.271  12.735  77.803  1.00  0.00     0.168 A 
ENDROOT
BRANCH   5   7
HETATM    7  C6  UNL     1     -25.955  11.101  79.024  1.00  0.00     0.096 C 
HETATM    8  C7  UNL     1     -25.735   9.983  78.074  1.00  0.00     0.058 C 
HETATM    9  C8  UNL     1     -24.372   9.485  78.598  1.00  0.00     0.126 C 
HETATM   10  C9  UNL     1     -23.636  10.796  78.763  1.00  0.00     0.040 C 
HETATM   11  C11 UNL     1     -24.687  11.874  78.982  1.00  0.00     0.035 C 
BRANCH   9  12
HETATM   12  O3  UNL     1     -23.749   8.670  77.692  1.00  0.00    -0.395 OA
ATOM     13  H3  UNL     1     -23.937   7.753  77.857  1.00  0.00     0.210 HD
ENDBRANCH   9  12
BRANCH  10  14
HETATM   14  C10 UNL     1     -22.731  10.665  79.971  1.00  0.00     0.171 C 
BRANCH  14  15
HETATM   15  O4  UNL     1     -21.993   9.497  79.894  1.00  0.00    -0.400 OA
ATOM     16  H4  UNL     1     -22.244   8.902  80.590  1.00  0.00     0.209 HD
ENDBRANCH  14  15
ENDBRANCH  10  14
ENDBRANCH   5   7
BRANCH   6  17
HETATM   17  O5  UNL     1     -26.251  12.973  76.827  1.00  0.00    -0.345 OA
ATOM     18  H5  UNL     1     -26.373  13.706  76.235  1.00  0.00     0.219 HD
ENDBRANCH   6  17
BRANCH   1  19
HETATM   19  C3  UNL     1     -28.830  14.435  76.659  1.00  0.00     0.304 C 
HETATM   20  O2  UNL     1     -27.978  15.207  76.208  1.00  0.00    -0.258 OA
BRANCH  19  21
HETATM   21  O1  UNL     1     -30.131  14.500  76.223  1.00  0.00    -0.317 OA
BRANCH  21  22
HETATM   22  C2  UNL     1     -30.716  15.617  75.620  1.00  0.00     0.174 C 
HETATM   23  C1  UNL     1     -31.102  16.679  76.647  1.00  0.00     0.034 C 
ENDBRANCH  21  22
ENDBRANCH  19  21
ENDBRANCH   1  19
TORSDOF 8
ENDMDL
