MODEL 1
REMARK VINA RESULT: -6.699091012      0.000      0.000
REMARK  5 active torsions:
REMARK  status: ('A' for Active; 'I' for Inactive)
REMARK    1  A    between atoms: N1_1  and  C1_4 
REMARK    2  A    between atoms: N5_15  and  C5_16 
REMARK    3  A    between atoms: C5_16  and  C6_17 
REMARK    4  A    between atoms: C8_19  and  C9_20 
REMARK    5  A    between atoms: C11_23  and  N6_24 
ROOT
HETATM    1  C1  UNL     1       8.746  -6.983  51.621  1.00  0.00     0.679 A 
HETATM    2  N2  UNL     1       8.314  -5.725  51.389  1.00  0.00    -0.175 N 
ATOM      3  H2  UNL     1       7.707  -5.538  50.591  1.00  0.00     0.186 HD
HETATM    4  C2  UNL     1       8.673  -4.721  52.195  1.00  0.00     0.145 A 
HETATM    5  N3  UNL     1       8.247  -3.543  51.948  1.00  0.00    -0.383 N 
ATOM      6  H31 UNL     1       8.521  -2.776  52.563  1.00  0.00     0.157 HD
ATOM      7  H32 UNL     1       7.639  -3.341  51.154  1.00  0.00     0.157 HD
HETATM    8  C3  UNL     1       9.491  -4.993  53.264  1.00  0.00     0.123 A 
HETATM    9  N4  UNL     1      10.026  -4.228  54.244  1.00  0.00    -0.346 N 
ATOM     10  H4  UNL     1       9.883  -3.223  54.345  1.00  0.00     0.167 HD
HETATM   11  C4  UNL     1      10.772  -4.985  55.066  1.00  0.00     0.185 A 
HETATM   12  N5  UNL     1      10.725  -6.250  54.622  1.00  0.00    -0.321 N 
HETATM   13  C16 UNL     1       9.952  -6.278  53.526  1.00  0.00     0.155 A 
HETATM   14  N9  UNL     1       9.548  -7.226  52.675  1.00  0.00    -0.174 N 
ATOM     15  H9  UNL     1       9.864  -8.183  52.832  1.00  0.00     0.186 HD
ENDROOT
BRANCH  12  16
HETATM   16  C5  UNL     1      11.392  -7.367  55.225  1.00  0.00     0.188 C 
BRANCH  16  17
HETATM   17  C6  UNL     1      10.564  -8.117  56.167  1.00  0.00     0.030 A 
HETATM   18  C7  UNL     1      10.774  -9.478  56.262  1.00  0.00     0.041 A 
HETATM   19  C8  UNL     1      10.063 -10.276  57.104  1.00  0.00     0.007 A 
HETATM   20  C10 UNL     1       9.084  -9.699  57.901  1.00  0.00     0.062 A 
HETATM   21  C11 UNL     1       8.868  -8.340  57.811  1.00  0.00     0.104 A 
HETATM   22  N8  UNL     1       9.614  -7.586  56.947  1.00  0.00    -0.344 N 
ATOM     23  H8  UNL     1       9.439  -6.582  56.895  1.00  0.00     0.167 HD
BRANCH  19  24
HETATM   24  C9  UNL     1      10.295 -11.716  57.196  1.00  0.00     0.270 C 
HETATM   25  O1  UNL     1       9.424 -12.534  56.812  1.00  0.00    -0.301 OA
ENDBRANCH  19  24
BRANCH  21  26
HETATM   26  N6  UNL     1       7.868  -7.745  58.624  1.00  0.00    -0.364 N 
HETATM   27  C12 UNL     1       6.888  -8.579  59.284  1.00  0.00     0.152 C 
HETATM   28  C13 UNL     1       6.325  -7.741  60.438  1.00  0.00     0.252 C 
HETATM   29  N7  UNL     1       5.552  -6.648  59.850  1.00  0.00    -0.072 N 
HETATM   30  C14 UNL     1       6.298  -5.965  58.841  1.00  0.00     0.252 C 
ATOM     31  H72 UNL     1       4.654  -6.975  59.494  1.00  0.00     0.277 HD
ATOM     32  H71 UNL     1       5.212  -6.004  60.564  1.00  0.00     0.277 HD
HETATM   33  C15 UNL     1       7.773  -6.314  58.835  1.00  0.00     0.152 C 
ENDBRANCH  21  26
ENDBRANCH  16  17
ENDBRANCH  12  16
BRANCH   1  34
HETATM   34  N1  UNL     1       8.409  -7.969  50.852  1.00  0.00    -0.234 N 
ATOM     35  H12 UNL     1       7.447  -8.026  50.519  1.00  0.00     0.174 HD
ATOM     36  H11 UNL     1       9.080  -8.684  50.575  1.00  0.00     0.174 HD
ENDBRANCH   1  34
TORSDOF 5
ENDMDL
MODEL 2
REMARK VINA RESULT: -6.692300854      4.898      6.286
REMARK  5 active torsions:
REMARK  status: ('A' for Active; 'I' for Inactive)
REMARK    1  A    between atoms: N1_1  and  C1_4 
REMARK    2  A    between atoms: N5_15  and  C5_16 
REMARK    3  A    between atoms: C5_16  and  C6_17 
REMARK    4  A    between atoms: C8_19  and  C9_20 
REMARK    5  A    between atoms: C11_23  and  N6_24 
ROOT
HETATM    1  C1  UNL     1       8.101  -8.013  52.806  1.00  0.00     0.679 A 
HETATM    2  N2  UNL     1       7.046  -7.886  51.973  1.00  0.00    -0.175 N 
ATOM      3  H2  UNL     1       6.165  -8.347  52.201  1.00  0.00     0.186 HD
HETATM    4  C2  UNL     1       7.144  -7.163  50.854  1.00  0.00     0.145 A 
HETATM    5  N3  UNL     1       6.127  -7.062  50.088  1.00  0.00    -0.383 N 
ATOM      6  H31 UNL     1       6.201  -6.510  49.233  1.00  0.00     0.157 HD
ATOM      7  H32 UNL     1       5.239  -7.518  50.302  1.00  0.00     0.157 HD
HETATM    8  C3  UNL     1       8.339  -6.550  50.566  1.00  0.00     0.123 A 
HETATM    9  N4  UNL     1       8.761  -5.769  49.545  1.00  0.00    -0.346 N 
ATOM     10  H4  UNL     1       8.188  -5.488  48.748  1.00  0.00     0.167 HD
HETATM   11  C4  UNL     1      10.044  -5.417  49.732  1.00  0.00     0.185 A 
HETATM   12  N5  UNL     1      10.463  -5.969  50.880  1.00  0.00    -0.321 N 
HETATM   13  C16 UNL     1       9.442  -6.664  51.405  1.00  0.00     0.155 A 
HETATM   14  N9  UNL     1       9.264  -7.404  52.503  1.00  0.00    -0.174 N 
ATOM     15  H9  UNL     1      10.049  -7.513  53.145  1.00  0.00     0.186 HD
ENDROOT
BRANCH  12  16
HETATM   16  C5  UNL     1      11.777  -5.833  51.437  1.00  0.00     0.188 C 
BRANCH  16  17
HETATM   17  C6  UNL     1      11.905  -4.743  52.401  1.00  0.00     0.030 A 
HETATM   18  C7  UNL     1      13.176  -4.397  52.813  1.00  0.00     0.041 A 
HETATM   19  C8  UNL     1      13.415  -3.398  53.707  1.00  0.00     0.007 A 
HETATM   20  C10 UNL     1      12.335  -2.698  54.227  1.00  0.00     0.062 A 
HETATM   21  C11 UNL     1      11.062  -3.038  53.820  1.00  0.00     0.104 A 
HETATM   22  N8  UNL     1      10.881  -4.051  52.919  1.00  0.00    -0.344 N 
ATOM     23  H8  UNL     1       9.932  -4.287  52.630  1.00  0.00     0.167 HD
BRANCH  19  24
HETATM   24  C9  UNL     1      14.765  -3.042  54.135  1.00  0.00     0.270 C 
HETATM   25  O1  UNL     1      15.538  -2.414  53.369  1.00  0.00    -0.301 OA
ENDBRANCH  19  24
BRANCH  21  26
HETATM   26  N6  UNL     1       9.955  -2.325  54.350  1.00  0.00    -0.364 N 
HETATM   27  C12 UNL     1       9.694  -2.356  55.772  1.00  0.00     0.152 C 
HETATM   28  C13 UNL     1       8.819  -1.133  56.070  1.00  0.00     0.252 C 
HETATM   29  N7  UNL     1       7.517  -1.363  55.446  1.00  0.00    -0.072 N 
HETATM   30  C14 UNL     1       7.656  -1.758  54.080  1.00  0.00     0.252 C 
ATOM     31  H72 UNL     1       6.962  -2.036  55.975  1.00  0.00     0.277 HD
ATOM     32  H71 UNL     1       6.908  -0.551  55.540  1.00  0.00     0.277 HD
HETATM   33  C15 UNL     1       9.051  -1.548  53.526  1.00  0.00     0.152 C 
ENDBRANCH  21  26
ENDBRANCH  16  17
ENDBRANCH  12  16
BRANCH   1  34
HETATM   34  N1  UNL     1       8.027  -8.710  53.895  1.00  0.00    -0.234 N 
ATOM     35  H12 UNL     1       7.726  -9.683  53.836  1.00  0.00     0.174 HD
ATOM     36  H11 UNL     1       8.261  -8.310  54.803  1.00  0.00     0.174 HD
ENDBRANCH   1  34
TORSDOF 5
ENDMDL
MODEL 3
REMARK VINA RESULT: -6.685756465      1.481      2.008
REMARK  5 active torsions:
REMARK  status: ('A' for Active; 'I' for Inactive)
REMARK    1  A    between atoms: N1_1  and  C1_4 
REMARK    2  A    between atoms: N5_15  and  C5_16 
REMARK    3  A    between atoms: C5_16  and  C6_17 
REMARK    4  A    between atoms: C8_19  and  C9_20 
REMARK    5  A    between atoms: C11_23  and  N6_24 
ROOT
HETATM    1  C1  UNL     1      10.722  -5.962  50.590  1.00  0.00     0.679 A 
HETATM    2  N2  UNL     1       9.585  -6.036  49.866  1.00  0.00    -0.175 N 
ATOM      3  H2  UNL     1       9.586  -5.732  48.892  1.00  0.00     0.186 HD
HETATM    4  C2  UNL     1       8.458  -6.502  50.411  1.00  0.00     0.145 A 
HETATM    5  N3  UNL     1       7.399  -6.559  49.699  1.00  0.00    -0.383 N 
ATOM      6  H31 UNL     1       6.539  -6.914  50.115  1.00  0.00     0.157 HD
ATOM      7  H32 UNL     1       7.385  -6.259  48.724  1.00  0.00     0.157 HD
HETATM    8  C3  UNL     1       8.477  -6.905  51.724  1.00  0.00     0.123 A 
HETATM    9  N4  UNL     1       7.537  -7.410  52.556  1.00  0.00    -0.346 N 
ATOM     10  H4  UNL     1       6.565  -7.587  52.301  1.00  0.00     0.167 HD
HETATM   11  C4  UNL     1       8.070  -7.646  53.767  1.00  0.00     0.185 A 
HETATM   12  N5  UNL     1       9.363  -7.294  53.727  1.00  0.00    -0.321 N 
HETATM   13  C16 UNL     1       9.633  -6.840  52.494  1.00  0.00     0.155 A 
HETATM   14  N9  UNL     1      10.718  -6.362  51.876  1.00  0.00    -0.174 N 
ATOM     15  H9  UNL     1      11.587  -6.298  52.406  1.00  0.00     0.186 HD
ENDROOT
BRANCH  12  16
HETATM   16  C5  UNL     1      10.284  -7.392  54.821  1.00  0.00     0.188 C 
BRANCH  16  17
HETATM   17  C6  UNL     1       9.772  -8.142  55.966  1.00  0.00     0.030 A 
HETATM   18  C7  UNL     1      10.176  -9.454  56.106  1.00  0.00     0.041 A 
HETATM   19  C8  UNL     1       9.763 -10.247  57.132  1.00  0.00     0.007 A 
HETATM   20  C10 UNL     1       8.899  -9.715  58.078  1.00  0.00     0.062 A 
HETATM   21  C11 UNL     1       8.491  -8.404  57.946  1.00  0.00     0.104 A 
HETATM   22  N8  UNL     1       8.938  -7.653  56.893  1.00  0.00    -0.344 N 
ATOM     23  H8  UNL     1       8.625  -6.686  56.812  1.00  0.00     0.167 HD
BRANCH  19  24
HETATM   24  C9  UNL     1      10.199 -11.635  57.269  1.00  0.00     0.270 C 
HETATM   25  O1  UNL     1       9.475 -12.579  56.867  1.00  0.00    -0.301 OA
ENDBRANCH  19  24
BRANCH  21  26
HETATM   26  N6  UNL     1       7.606  -7.856  58.911  1.00  0.00    -0.364 N 
HETATM   27  C12 UNL     1       6.580  -8.688  59.501  1.00  0.00     0.152 C 
HETATM   28  C13 UNL     1       6.175  -7.999  60.809  1.00  0.00     0.252 C 
HETATM   29  N7  UNL     1       5.492  -6.755  60.456  1.00  0.00    -0.072 N 
HETATM   30  C14 UNL     1       6.250  -5.992  59.516  1.00  0.00     0.252 C 
ATOM     31  H72 UNL     1       4.546  -6.932  60.118  1.00  0.00     0.277 HD
ATOM     32  H71 UNL     1       5.263  -6.207  61.285  1.00  0.00     0.277 HD
HETATM   33  C15 UNL     1       7.676  -6.476  59.349  1.00  0.00     0.152 C 
ENDBRANCH  21  26
ENDBRANCH  16  17
ENDBRANCH  12  16
BRANCH   1  34
HETATM   34  N1  UNL     1      11.824  -5.513  50.080  1.00  0.00    -0.234 N 
ATOM     35  H12 UNL     1      11.819  -4.602  49.621  1.00  0.00     0.174 HD
ATOM     36  H11 UNL     1      12.692  -6.048  50.126  1.00  0.00     0.174 HD
ENDBRANCH   1  34
TORSDOF 5
ENDMDL
MODEL 4
REMARK VINA RESULT: -6.631006913      2.728      4.720
REMARK  5 active torsions:
REMARK  status: ('A' for Active; 'I' for Inactive)
REMARK    1  A    between atoms: N1_1  and  C1_4 
REMARK    2  A    between atoms: N5_15  and  C5_16 
REMARK    3  A    between atoms: C5_16  and  C6_17 
REMARK    4  A    between atoms: C8_19  and  C9_20 
REMARK    5  A    between atoms: C11_23  and  N6_24 
ROOT
HETATM    1  C1  UNL     1       8.389  -4.292  51.703  1.00  0.00     0.679 A 
HETATM    2  N2  UNL     1       8.445  -4.769  50.441  1.00  0.00    -0.175 N 
ATOM      3  H2  UNL     1       8.464  -4.119  49.656  1.00  0.00     0.186 HD
HETATM    4  C2  UNL     1       8.477  -6.085  50.210  1.00  0.00     0.145 A 
HETATM    5  N3  UNL     1       8.530  -6.504  49.005  1.00  0.00    -0.383 N 
ATOM      6  H31 UNL     1       8.553  -7.508  48.828  1.00  0.00     0.157 HD
ATOM      7  H32 UNL     1       8.549  -5.865  48.209  1.00  0.00     0.157 HD
HETATM    8  C3  UNL     1       8.451  -6.944  51.281  1.00  0.00     0.123 A 
HETATM    9  N4  UNL     1       8.469  -8.293  51.392  1.00  0.00    -0.346 N 
ATOM     10  H4  UNL     1       8.510  -8.944  50.608  1.00  0.00     0.167 HD
HETATM   11  C4  UNL     1       8.425  -8.650  52.687  1.00  0.00     0.185 A 
HETATM   12  N5  UNL     1       8.379  -7.532  53.425  1.00  0.00    -0.321 N 
HETATM   13  C16 UNL     1       8.392  -6.481  52.591  1.00  0.00     0.155 A 
HETATM   14  N9  UNL     1       8.364  -5.153  52.738  1.00  0.00    -0.174 N 
ATOM     15  H9  UNL     1       8.321  -4.772  53.683  1.00  0.00     0.186 HD
ENDROOT
BRANCH  12  16
HETATM   16  C5  UNL     1       8.323  -7.483  54.857  1.00  0.00     0.188 C 
BRANCH  16  17
HETATM   17  C6  UNL     1       9.448  -8.139  55.519  1.00  0.00     0.030 A 
HETATM   18  C7  UNL     1       9.210  -9.350  56.140  1.00  0.00     0.041 A 
HETATM   19  C8  UNL     1      10.182 -10.050  56.786  1.00  0.00     0.007 A 
HETATM   20  C10 UNL     1      11.466  -9.525  56.825  1.00  0.00     0.062 A 
HETATM   21  C11 UNL     1      11.712  -8.317  56.208  1.00  0.00     0.104 A 
HETATM   22  N8  UNL     1      10.697  -7.656  55.572  1.00  0.00    -0.344 N 
ATOM     23  H8  UNL     1      10.898  -6.764  55.121  1.00  0.00     0.167 HD
BRANCH  19  24
HETATM   24  C9  UNL     1       9.917 -11.329  57.439  1.00  0.00     0.270 C 
HETATM   25  O1  UNL     1       9.521 -12.320  56.776  1.00  0.00    -0.301 OA
ENDBRANCH  19  24
BRANCH  21  26
HETATM   26  N6  UNL     1      13.024  -7.777  56.246  1.00  0.00    -0.364 N 
HETATM   27  C12 UNL     1      13.995  -8.311  57.174  1.00  0.00     0.152 C 
HETATM   28  C13 UNL     1      15.371  -7.913  56.626  1.00  0.00     0.252 C 
HETATM   29  N7  UNL     1      15.490  -6.462  56.754  1.00  0.00    -0.072 N 
HETATM   30  C14 UNL     1      14.347  -5.794  56.216  1.00  0.00     0.252 C 
ATOM     31  H72 UNL     1      15.664  -6.185  57.721  1.00  0.00     0.277 HD
ATOM     32  H71 UNL     1      16.355  -6.119  56.335  1.00  0.00     0.277 HD
HETATM   33  C15 UNL     1      13.454  -6.693  55.384  1.00  0.00     0.152 C 
ENDBRANCH  21  26
ENDBRANCH  16  17
ENDBRANCH  12  16
BRANCH   1  34
HETATM   34  N1  UNL     1       8.358  -3.021  51.947  1.00  0.00    -0.234 N 
ATOM     35  H12 UNL     1       9.039  -2.628  52.597  1.00  0.00     0.174 HD
ATOM     36  H11 UNL     1       7.672  -2.408  51.507  1.00  0.00     0.174 HD
ENDBRANCH   1  34
TORSDOF 5
ENDMDL
MODEL 5
REMARK VINA RESULT: -6.600396926      5.393      7.505
REMARK  5 active torsions:
REMARK  status: ('A' for Active; 'I' for Inactive)
REMARK    1  A    between atoms: N1_1  and  C1_4 
REMARK    2  A    between atoms: N5_15  and  C5_16 
REMARK    3  A    between atoms: C5_16  and  C6_17 
REMARK    4  A    between atoms: C8_19  and  C9_20 
REMARK    5  A    between atoms: C11_23  and  N6_24 
ROOT
HETATM    1  C1  UNL     1      11.608  -5.348  51.975  1.00  0.00     0.679 A 
HETATM    2  N2  UNL     1      10.886  -6.127  51.141  1.00  0.00    -0.175 N 
ATOM      3  H2  UNL     1      11.344  -6.579  50.350  1.00  0.00     0.186 HD
HETATM    4  C2  UNL     1       9.578  -6.312  51.342  1.00  0.00     0.145 A 
HETATM    5  N3  UNL     1       8.924  -7.055  50.535  1.00  0.00    -0.383 N 
ATOM      6  H31 UNL     1       7.925  -7.197  50.688  1.00  0.00     0.157 HD
ATOM      7  H32 UNL     1       9.368  -7.515  49.739  1.00  0.00     0.157 HD
HETATM    8  C3  UNL     1       8.980  -5.694  52.412  1.00  0.00     0.123 A 
HETATM    9  N4  UNL     1       7.712  -5.673  52.885  1.00  0.00    -0.346 N 
ATOM     10  H4  UNL     1       6.925  -6.170  52.469  1.00  0.00     0.167 HD
HETATM   11  C4  UNL     1       7.642  -4.902  53.984  1.00  0.00     0.185 A 
HETATM   12  N5  UNL     1       8.867  -4.418  54.230  1.00  0.00    -0.321 N 
HETATM   13  C16 UNL     1       9.698  -4.886  53.287  1.00  0.00     0.155 A 
HETATM   14  N9  UNL     1      11.001  -4.751  53.018  1.00  0.00    -0.174 N 
ATOM     15  H9  UNL     1      11.564  -4.166  53.636  1.00  0.00     0.186 HD
ENDROOT
BRANCH  12  16
HETATM   16  C5  UNL     1       9.215  -3.550  55.318  1.00  0.00     0.188 C 
BRANCH  16  17
HETATM   17  C6  UNL     1       8.821  -2.157  55.117  1.00  0.00     0.030 A 
HETATM   18  C7  UNL     1       8.763  -1.687  53.820  1.00  0.00     0.041 A 
HETATM   19  C8  UNL     1       8.409  -0.409  53.514  1.00  0.00     0.007 A 
HETATM   20  C10 UNL     1       8.093   0.460  54.549  1.00  0.00     0.062 A 
HETATM   21  C11 UNL     1       8.148  -0.002  55.847  1.00  0.00     0.104 A 
HETATM   22  N8  UNL     1       8.510  -1.297  56.096  1.00  0.00    -0.344 N 
ATOM     23  H8  UNL     1       8.545  -1.620  57.063  1.00  0.00     0.167 HD
BRANCH  19  24
HETATM   24  C9  UNL     1       8.352   0.075  52.137  1.00  0.00     0.270 C 
HETATM   25  O1  UNL     1       9.403   0.362  51.512  1.00  0.00    -0.301 OA
ENDBRANCH  19  24
BRANCH  21  26
HETATM   26  N6  UNL     1       7.826   0.884  56.908  1.00  0.00    -0.364 N 
HETATM   27  C12 UNL     1       6.925   1.991  56.673  1.00  0.00     0.152 C 
HETATM   28  C13 UNL     1       6.391   2.404  58.050  1.00  0.00     0.252 C 
HETATM   29  N7  UNL     1       7.507   2.981  58.798  1.00  0.00    -0.072 N 
HETATM   30  C14 UNL     1       8.654   2.131  58.764  1.00  0.00     0.252 C 
ATOM     31  H72 UNL     1       7.729   3.922  58.471  1.00  0.00     0.277 HD
ATOM     32  H71 UNL     1       7.238   3.208  59.755  1.00  0.00     0.277 HD
HETATM   33  C15 UNL     1       8.361   0.736  58.247  1.00  0.00     0.152 C 
ENDBRANCH  21  26
ENDBRANCH  16  17
ENDBRANCH  12  16
BRANCH   1  34
HETATM   34  N1  UNL     1      12.876  -5.156  51.797  1.00  0.00    -0.234 N 
ATOM     35  H12 UNL     1      13.350  -5.664  51.050  1.00  0.00     0.174 HD
ATOM     36  H11 UNL     1      13.407  -4.514  52.384  1.00  0.00     0.174 HD
ENDBRANCH   1  34
TORSDOF 5
ENDMDL
