MODEL 1
REMARK VINA RESULT: -6.975835098      0.000      0.000
REMARK  7 active torsions:
REMARK  status: ('A' for Active; 'I' for Inactive)
REMARK    1  A    between atoms: N1_1  and  C1_5 
REMARK    2  A    between atoms: C1_5  and  C2_6 
REMARK    3  A    between atoms: N2_9  and  C5_10 
REMARK    4  A    between atoms: C7_16  and  N5_17 
REMARK    5  A    between atoms: N5_17  and  N6_19 
REMARK    6  A    between atoms: C8_24  and  N8_25 
REMARK    7  A    between atoms: N8_25  and  C9_27 
ROOT
HETATM    1  C5  UNL     1       7.990  -3.098  53.734  1.00  0.00     0.684 A 
HETATM    2  N3  UNL     1       7.976  -4.220  54.478  1.00  0.00    -0.175 N 
ATOM      3  H3  UNL     1       7.793  -4.138  55.479  1.00  0.00     0.186 HD
HETATM    4  C6  UNL     1       8.192  -5.448  53.961  1.00  0.00     0.156 A 
HETATM    5  N4  UNL     1       8.172  -6.547  54.746  1.00  0.00    -0.173 N 
ATOM      6  H4  UNL     1       7.988  -6.449  55.744  1.00  0.00     0.186 HD
HETATM    7  C7  UNL     1       8.390  -7.765  54.231  1.00  0.00     0.699 A 
HETATM    8  N7  UNL     1       8.626  -7.852  52.924  1.00  0.00    -0.174 N 
ATOM      9  H7  UNL     1       8.792  -8.777  52.528  1.00  0.00     0.186 HD
HETATM   10  C8  UNL     1       8.660  -6.770  52.075  1.00  0.00     0.137 A 
HETATM   11  C12 UNL     1       8.438  -5.515  52.592  1.00  0.00     0.122 A 
HETATM   12  C13 UNL     1       8.453  -4.368  51.833  1.00  0.00     0.277 A 
HETATM   13  O1  UNL     1       8.670  -4.369  50.603  1.00  0.00    -0.266 OA
HETATM   14  N9  UNL     1       8.228  -3.157  52.411  1.00  0.00    -0.155 N 
ATOM     15  H9  UNL     1       8.239  -2.306  51.849  1.00  0.00     0.187 HD
ENDROOT
BRANCH   1  16
HETATM   16  N2  UNL     1       7.754  -1.825  54.339  1.00  0.00    -0.217 N 
HETATM   17  C4  UNL     1       7.354  -0.689  53.569  1.00  0.00     0.141 C 
HETATM   18  C3  UNL     1       6.924   0.404  54.521  1.00  0.00     0.027 C 
HETATM   19  C2  UNL     1       8.067   0.731  55.426  1.00  0.00     0.014 C 
HETATM   20  C15 UNL     1       8.756  -0.454  56.018  1.00  0.00     0.027 C 
HETATM   21  C14 UNL     1       7.920  -1.674  55.765  1.00  0.00     0.141 C 
BRANCH  19  22
HETATM   22  C1  UNL     1       7.578   1.665  56.539  1.00  0.00     0.234 C 
BRANCH  22  23
HETATM   23  N1  UNL     1       8.782   2.167  57.193  1.00  0.00    -0.079 N 
ATOM     24  H13 UNL     1       9.555   1.502  57.193  1.00  0.00     0.274 HD
ATOM     25  H12 UNL     1       9.254   2.904  56.669  1.00  0.00     0.274 HD
ATOM     26  H11 UNL     1       8.491   2.454  58.128  1.00  0.00     0.274 HD
ENDBRANCH  22  23
ENDBRANCH  19  22
ENDBRANCH   1  16
BRANCH   7  27
HETATM   27  N5  UNL     1       8.368  -8.828  54.998  1.00  0.00    -0.138 N 
ATOM     28  H5  UNL     1       8.349  -9.748  54.555  1.00  0.00     0.205 HD
BRANCH  27  29
HETATM   29  N6  UNL     1       8.370  -8.762  56.381  1.00  0.00    -0.331 N 
ATOM     30  H62 UNL     1       9.244  -8.976  56.861  1.00  0.00     0.177 HD
ATOM     31  H61 UNL     1       7.545  -8.511  56.926  1.00  0.00     0.177 HD
ENDBRANCH  27  29
ENDBRANCH   7  27
BRANCH  10  32
HETATM   32  N8  UNL     1       8.903  -6.965  50.709  1.00  0.00    -0.370 N 
ATOM     33  H8  UNL     1       9.752  -6.612  50.269  1.00  0.00     0.161 HD
BRANCH  32  34
HETATM   34  C9  UNL     1       7.891  -7.695  49.928  1.00  0.00     0.083 A 
HETATM   35  C10 UNL     1       7.665  -7.217  48.479  1.00  0.00     0.027 A 
HETATM   36  C11 UNL     1       6.627  -6.976  49.516  1.00  0.00     0.027 A 
ENDBRANCH  32  34
ENDBRANCH  10  32
TORSDOF 7
ENDMDL
MODEL 2
REMARK VINA RESULT: -6.505090663      2.899      7.325
REMARK  7 active torsions:
REMARK  status: ('A' for Active; 'I' for Inactive)
REMARK    1  A    between atoms: N1_1  and  C1_5 
REMARK    2  A    between atoms: C1_5  and  C2_6 
REMARK    3  A    between atoms: N2_9  and  C5_10 
REMARK    4  A    between atoms: C7_16  and  N5_17 
REMARK    5  A    between atoms: N5_17  and  N6_19 
REMARK    6  A    between atoms: C8_24  and  N8_25 
REMARK    7  A    between atoms: N8_25  and  C9_27 
ROOT
HETATM    1  C5  UNL     1       9.270  -7.850  54.954  1.00  0.00     0.684 A 
HETATM    2  N3  UNL     1       9.209  -8.085  53.630  1.00  0.00    -0.175 N 
ATOM      3  H3  UNL     1       9.404  -9.028  53.293  1.00  0.00     0.186 HD
HETATM    4  C6  UNL     1       8.901  -7.130  52.727  1.00  0.00     0.156 A 
HETATM    5  N4  UNL     1       8.854  -7.408  51.406  1.00  0.00    -0.173 N 
ATOM      6  H4  UNL     1       9.052  -8.356  51.085  1.00  0.00     0.186 HD
HETATM    7  C7  UNL     1       8.551  -6.457  50.512  1.00  0.00     0.699 A 
HETATM    8  N7  UNL     1       8.300  -5.233  50.970  1.00  0.00    -0.174 N 
ATOM      9  H7  UNL     1       8.069  -4.506  50.293  1.00  0.00     0.186 HD
HETATM   10  C8  UNL     1       8.333  -4.888  52.301  1.00  0.00     0.137 A 
HETATM   11  C12 UNL     1       8.643  -5.856  53.228  1.00  0.00     0.122 A 
HETATM   12  C13 UNL     1       8.706  -5.617  54.582  1.00  0.00     0.277 A 
HETATM   13  O1  UNL     1       8.486  -4.496  55.086  1.00  0.00    -0.266 OA
HETATM   14  N9  UNL     1       9.022  -6.622  55.444  1.00  0.00    -0.155 N 
ATOM     15  H9  UNL     1       9.070  -6.445  56.447  1.00  0.00     0.187 HD
ENDROOT
BRANCH   1  16
HETATM   16  N2  UNL     1       9.602  -8.903  55.861  1.00  0.00    -0.217 N 
HETATM   17  C4  UNL     1       8.617  -9.823  56.337  1.00  0.00     0.141 C 
HETATM   18  C3  UNL     1       9.326 -10.958  57.041  1.00  0.00     0.027 C 
HETATM   19  C2  UNL     1      10.137 -10.396  58.163  1.00  0.00     0.014 C 
HETATM   20  C15 UNL     1      10.955  -9.199  57.805  1.00  0.00     0.027 C 
HETATM   21  C14 UNL     1      10.965  -9.050  56.313  1.00  0.00     0.141 C 
BRANCH  19  22
HETATM   22  C1  UNL     1      11.036 -11.496  58.736  1.00  0.00     0.234 C 
BRANCH  22  23
HETATM   23  N1  UNL     1      12.153 -10.805  59.373  1.00  0.00    -0.079 N 
ATOM     24  H13 UNL     1      12.107  -9.790  59.288  1.00  0.00     0.274 HD
ATOM     25  H12 UNL     1      12.129 -10.845  60.392  1.00  0.00     0.274 HD
ATOM     26  H11 UNL     1      12.997 -11.210  58.969  1.00  0.00     0.274 HD
ENDBRANCH  22  23
ENDBRANCH  19  22
ENDBRANCH   1  16
BRANCH   7  27
HETATM   27  N5  UNL     1       8.507  -6.734  49.231  1.00  0.00    -0.138 N 
ATOM     28  H5  UNL     1       9.043  -6.152  48.588  1.00  0.00     0.205 HD
BRANCH  27  29
HETATM   29  N6  UNL     1       7.765  -7.782  48.711  1.00  0.00    -0.331 N 
ATOM     30  H62 UNL     1       7.218  -8.341  49.366  1.00  0.00     0.177 HD
ATOM     31  H61 UNL     1       7.747  -8.010  47.717  1.00  0.00     0.177 HD
ENDBRANCH  27  29
ENDBRANCH   7  27
BRANCH  10  32
HETATM   32  N8  UNL     1       8.038  -3.574  52.687  1.00  0.00    -0.370 N 
ATOM     33  H8  UNL     1       7.258  -3.371  53.311  1.00  0.00     0.161 HD
BRANCH  32  34
HETATM   34  C9  UNL     1       8.892  -2.496  52.163  1.00  0.00     0.083 A 
HETATM   35  C10 UNL     1       9.637  -1.641  53.209  1.00  0.00     0.027 A 
HETATM   36  C11 UNL     1       8.506  -1.060  52.438  1.00  0.00     0.027 A 
ENDBRANCH  32  34
ENDBRANCH  10  32
TORSDOF 7
ENDMDL
MODEL 3
REMARK VINA RESULT: -6.501695617      2.819      7.327
REMARK  7 active torsions:
REMARK  status: ('A' for Active; 'I' for Inactive)
REMARK    1  A    between atoms: N1_1  and  C1_5 
REMARK    2  A    between atoms: C1_5  and  C2_6 
REMARK    3  A    between atoms: N2_9  and  C5_10 
REMARK    4  A    between atoms: C7_16  and  N5_17 
REMARK    5  A    between atoms: N5_17  and  N6_19 
REMARK    6  A    between atoms: C8_24  and  N8_25 
REMARK    7  A    between atoms: N8_25  and  C9_27 
ROOT
HETATM    1  C5  UNL     1       9.641  -7.469  54.970  1.00  0.00     0.684 A 
HETATM    2  N3  UNL     1       9.581  -7.734  53.651  1.00  0.00    -0.175 N 
ATOM      3  H3  UNL     1       9.850  -8.664  53.328  1.00  0.00     0.186 HD
HETATM    4  C6  UNL     1       9.183  -6.825  52.736  1.00  0.00     0.156 A 
HETATM    5  N4  UNL     1       9.142  -7.132  51.421  1.00  0.00    -0.173 N 
ATOM      6  H4  UNL     1       9.413  -8.066  51.114  1.00  0.00     0.186 HD
HETATM    7  C7  UNL     1       8.749  -6.227  50.514  1.00  0.00     0.699 A 
HETATM    8  N7  UNL     1       8.403  -5.019  50.953  1.00  0.00    -0.174 N 
ATOM      9  H7  UNL     1       8.104  -4.327  50.267  1.00  0.00     0.186 HD
HETATM   10  C8  UNL     1       8.425  -4.647  52.277  1.00  0.00     0.137 A 
HETATM   11  C12 UNL     1       8.827  -5.568  53.217  1.00  0.00     0.122 A 
HETATM   12  C13 UNL     1       8.889  -5.298  54.565  1.00  0.00     0.277 A 
HETATM   13  O1  UNL     1       8.583  -4.189  55.052  1.00  0.00    -0.266 OA
HETATM   14  N9  UNL     1       9.298  -6.256  55.441  1.00  0.00    -0.155 N 
ATOM     15  H9  UNL     1       9.344  -6.057  56.440  1.00  0.00     0.187 HD
ENDROOT
BRANCH   1  16
HETATM   16  N2  UNL     1      10.071  -8.473  55.890  1.00  0.00    -0.217 N 
HETATM   17  C4  UNL     1      11.404  -8.988  55.874  1.00  0.00     0.141 C 
HETATM   18  C3  UNL     1      11.613  -9.812  57.124  1.00  0.00     0.027 C 
HETATM   19  C2  UNL     1      10.602 -10.912  57.150  1.00  0.00     0.014 C 
HETATM   20  C15 UNL     1       9.204 -10.485  56.841  1.00  0.00     0.027 C 
HETATM   21  C14 UNL     1       9.140  -8.986  56.868  1.00  0.00     0.141 C 
BRANCH  19  22
HETATM   22  C1  UNL     1      10.649 -11.609  58.513  1.00  0.00     0.234 C 
BRANCH  22  23
HETATM   23  N1  UNL     1      11.137 -10.607  59.456  1.00  0.00    -0.079 N 
ATOM     24  H13 UNL     1      11.267 -10.966  60.402  1.00  0.00     0.274 HD
ATOM     25  H12 UNL     1      12.107 -10.334  59.294  1.00  0.00     0.274 HD
ATOM     26  H11 UNL     1      10.480  -9.830  59.400  1.00  0.00     0.274 HD
ENDBRANCH  22  23
ENDBRANCH  19  22
ENDBRANCH   1  16
BRANCH   7  27
HETATM   27  N5  UNL     1       8.711  -6.532  49.239  1.00  0.00    -0.138 N 
ATOM     28  H5  UNL     1       9.305  -6.009  48.595  1.00  0.00     0.205 HD
BRANCH  27  29
HETATM   29  N6  UNL     1       7.900  -7.530  48.726  1.00  0.00    -0.331 N 
ATOM     30  H62 UNL     1       7.140  -7.869  49.317  1.00  0.00     0.177 HD
ATOM     31  H61 UNL     1       8.032  -7.931  47.798  1.00  0.00     0.177 HD
ENDBRANCH  27  29
ENDBRANCH   7  27
BRANCH  10  32
HETATM   32  N8  UNL     1       8.028  -3.354  52.644  1.00  0.00    -0.370 N 
ATOM     33  H8  UNL     1       7.166  -3.197  53.167  1.00  0.00     0.161 HD
BRANCH  32  34
HETATM   34  C9  UNL     1       8.893  -2.232  52.250  1.00  0.00     0.083 A 
HETATM   35  C10 UNL     1       9.250  -1.219  53.358  1.00  0.00     0.027 A 
HETATM   36  C11 UNL     1       8.323  -0.831  52.261  1.00  0.00     0.027 A 
ENDBRANCH  32  34
ENDBRANCH  10  32
TORSDOF 7
ENDMDL
MODEL 4
REMARK VINA RESULT: -6.345578048      1.793      3.739
REMARK  7 active torsions:
REMARK  status: ('A' for Active; 'I' for Inactive)
REMARK    1  A    between atoms: N1_1  and  C1_5 
REMARK    2  A    between atoms: C1_5  and  C2_6 
REMARK    3  A    between atoms: N2_9  and  C5_10 
REMARK    4  A    between atoms: C7_16  and  N5_17 
REMARK    5  A    between atoms: N5_17  and  N6_19 
REMARK    6  A    between atoms: C8_24  and  N8_25 
REMARK    7  A    between atoms: N8_25  and  C9_27 
ROOT
HETATM    1  C5  UNL     1       7.589  -3.207  54.616  1.00  0.00     0.684 A 
HETATM    2  N3  UNL     1       7.805  -3.661  53.367  1.00  0.00    -0.175 N 
ATOM      3  H3  UNL     1       7.775  -2.995  52.595  1.00  0.00     0.186 HD
HETATM    4  C6  UNL     1       8.061  -4.957  53.089  1.00  0.00     0.156 A 
HETATM    5  N4  UNL     1       8.268  -5.371  51.820  1.00  0.00    -0.173 N 
ATOM      6  H4  UNL     1       8.233  -4.692  51.059  1.00  0.00     0.186 HD
HETATM    7  C7  UNL     1       8.518  -6.658  51.546  1.00  0.00     0.699 A 
HETATM    8  N7  UNL     1       8.554  -7.513  52.567  1.00  0.00    -0.174 N 
ATOM      9  H7  UNL     1       8.744  -8.494  52.363  1.00  0.00     0.186 HD
HETATM   10  C8  UNL     1       8.350  -7.153  53.879  1.00  0.00     0.137 A 
HETATM   11  C12 UNL     1       8.093  -5.834  54.171  1.00  0.00     0.122 A 
HETATM   12  C13 UNL     1       7.872  -5.368  55.447  1.00  0.00     0.277 A 
HETATM   13  O1  UNL     1       7.887  -6.108  56.453  1.00  0.00    -0.266 OA
HETATM   14  N9  UNL     1       7.619  -4.049  55.665  1.00  0.00    -0.155 N 
ATOM     15  H9  UNL     1       7.455  -3.704  56.611  1.00  0.00     0.187 HD
ENDROOT
BRANCH   1  16
HETATM   16  N2  UNL     1       7.324  -1.822  54.847  1.00  0.00    -0.217 N 
HETATM   17  C4  UNL     1       6.548  -1.043  53.934  1.00  0.00     0.141 C 
HETATM   18  C3  UNL     1       6.223   0.279  54.593  1.00  0.00     0.027 C 
HETATM   19  C2  UNL     1       7.502   0.965  54.948  1.00  0.00     0.014 C 
HETATM   20  C15 UNL     1       8.512   0.098  55.624  1.00  0.00     0.027 C 
HETATM   21  C14 UNL     1       7.850  -1.186  56.031  1.00  0.00     0.141 C 
BRANCH  19  22
HETATM   22  C1  UNL     1       7.193   2.189  55.818  1.00  0.00     0.234 C 
BRANCH  22  23
HETATM   23  N1  UNL     1       8.358   2.369  56.678  1.00  0.00    -0.079 N 
ATOM     24  H13 UNL     1       8.682   1.506  57.113  1.00  0.00     0.274 HD
ATOM     25  H12 UNL     1       9.215   2.578  56.165  1.00  0.00     0.274 HD
ATOM     26  H11 UNL     1       8.099   3.092  57.349  1.00  0.00     0.274 HD
ENDBRANCH  22  23
ENDBRANCH  19  22
ENDBRANCH   1  16
BRANCH   7  27
HETATM   27  N5  UNL     1       8.718  -7.053  50.312  1.00  0.00    -0.138 N 
ATOM     28  H5  UNL     1       9.470  -6.616  49.778  1.00  0.00     0.205 HD
BRANCH  27  29
HETATM   29  N6  UNL     1       7.957  -8.034  49.701  1.00  0.00    -0.331 N 
ATOM     30  H62 UNL     1       7.021  -8.202  50.070  1.00  0.00     0.177 HD
ATOM     31  H61 UNL     1       8.292  -8.585  48.910  1.00  0.00     0.177 HD
ENDBRANCH  27  29
ENDBRANCH   7  27
BRANCH  10  32
HETATM   32  N8  UNL     1       8.424  -8.124  54.886  1.00  0.00    -0.370 N 
ATOM     33  H8  UNL     1       7.599  -8.385  55.427  1.00  0.00     0.161 HD
BRANCH  32  34
HETATM   34  C9  UNL     1       9.729  -8.754  55.140  1.00  0.00     0.083 A 
HETATM   35  C10 UNL     1      10.205  -8.779  56.607  1.00  0.00     0.027 A 
HETATM   36  C11 UNL     1      10.876  -7.893  55.618  1.00  0.00     0.027 A 
ENDBRANCH  32  34
ENDBRANCH  10  32
TORSDOF 7
ENDMDL
MODEL 5
REMARK VINA RESULT: -6.317160570      1.483      1.875
REMARK  7 active torsions:
REMARK  status: ('A' for Active; 'I' for Inactive)
REMARK    1  A    between atoms: N1_1  and  C1_5 
REMARK    2  A    between atoms: C1_5  and  C2_6 
REMARK    3  A    between atoms: N2_9  and  C5_10 
REMARK    4  A    between atoms: C7_16  and  N5_17 
REMARK    5  A    between atoms: N5_17  and  N6_19 
REMARK    6  A    between atoms: C8_24  and  N8_25 
REMARK    7  A    between atoms: N8_25  and  C9_27 
ROOT
HETATM    1  C5  UNL     1       8.472  -1.799  54.968  1.00  0.00     0.684 A 
HETATM    2  N3  UNL     1       8.433  -3.043  55.481  1.00  0.00    -0.175 N 
ATOM      3  H3  UNL     1       8.405  -3.151  56.495  1.00  0.00     0.186 HD
HETATM    4  C6  UNL     1       8.429  -4.155  54.715  1.00  0.00     0.156 A 
HETATM    5  N4  UNL     1       8.393  -5.385  55.273  1.00  0.00    -0.173 N 
ATOM      6  H4  UNL     1       8.366  -5.476  56.288  1.00  0.00     0.186 HD
HETATM    7  C7  UNL     1       8.392  -6.487  54.511  1.00  0.00     0.699 A 
HETATM    8  N7  UNL     1       8.428  -6.327  53.189  1.00  0.00    -0.174 N 
ATOM      9  H7  UNL     1       8.428  -7.163  52.606  1.00  0.00     0.186 HD
HETATM   10  C8  UNL     1       8.467  -5.102  52.564  1.00  0.00     0.137 A 
HETATM   11  C12 UNL     1       8.468  -3.964  53.337  1.00  0.00     0.122 A 
HETATM   12  C13 UNL     1       8.508  -2.692  52.813  1.00  0.00     0.277 A 
HETATM   13  O1  UNL     1       8.546  -2.462  51.586  1.00  0.00    -0.266 OA
HETATM   14  N9  UNL     1       8.510  -1.609  53.636  1.00  0.00    -0.155 N 
ATOM     15  H9  UNL     1       8.540  -0.666  53.249  1.00  0.00     0.187 HD
ENDROOT
BRANCH   1  16
HETATM   16  N2  UNL     1       8.474  -0.660  55.831  1.00  0.00    -0.217 N 
HETATM   17  C4  UNL     1       8.275   0.663  55.330  1.00  0.00     0.141 C 
HETATM   18  C3  UNL     1       8.058   1.590  56.505  1.00  0.00     0.027 C 
HETATM   19  C2  UNL     1       9.251   1.518  57.401  1.00  0.00     0.014 C 
HETATM   20  C15 UNL     1       9.724   0.134  57.704  1.00  0.00     0.027 C 
HETATM   21  C14 UNL     1       8.681  -0.843  57.248  1.00  0.00     0.141 C 
BRANCH  19  22
HETATM   22  C1  UNL     1       8.950   2.267  58.703  1.00  0.00     0.234 C 
BRANCH  22  23
HETATM   23  N1  UNL     1       7.588   2.772  58.565  1.00  0.00    -0.079 N 
ATOM     24  H13 UNL     1       7.541   3.742  58.255  1.00  0.00     0.274 HD
ATOM     25  H12 UNL     1       7.080   2.367  57.779  1.00  0.00     0.274 HD
ATOM     26  H11 UNL     1       7.139   2.610  59.467  1.00  0.00     0.274 HD
ENDBRANCH  22  23
ENDBRANCH  19  22
ENDBRANCH   1  16
BRANCH   7  27
HETATM   27  N5  UNL     1       8.356  -7.678  55.058  1.00  0.00    -0.138 N 
ATOM     28  H5  UNL     1       8.571  -7.764  56.051  1.00  0.00     0.205 HD
BRANCH  27  29
HETATM   29  N6  UNL     1       8.040  -8.825  54.349  1.00  0.00    -0.331 N 
ATOM     30  H62 UNL     1       7.676  -9.619  54.877  1.00  0.00     0.177 HD
ATOM     31  H61 UNL     1       8.155  -8.904  53.339  1.00  0.00     0.177 HD
ENDBRANCH  27  29
ENDBRANCH   7  27
BRANCH  10  32
HETATM   32  N8  UNL     1       8.488  -5.036  51.165  1.00  0.00    -0.370 N 
ATOM     33  H8  UNL     1       8.397  -4.144  50.678  1.00  0.00     0.161 HD
BRANCH  32  34
HETATM   34  C9  UNL     1       8.645  -6.294  50.419  1.00  0.00     0.083 A 
HETATM   35  C10 UNL     1       8.278  -6.255  48.921  1.00  0.00     0.027 A 
HETATM   36  C11 UNL     1       7.411  -6.985  49.883  1.00  0.00     0.027 A 
ENDBRANCH  32  34
ENDBRANCH  10  32
TORSDOF 7
ENDMDL
