MODEL 1
REMARK VINA RESULT: -7.537959441      0.000      0.000
REMARK  8 active torsions:
REMARK  status: ('A' for Active; 'I' for Inactive)
REMARK    1  A    between atoms: C3_4  and  C4_5 
REMARK    2  A    between atoms: C4_5  and  C5_6 
REMARK    3  A    between atoms: C5_6  and  C6_7 
REMARK    4  A    between atoms: C6_7  and  N1_8 
REMARK    5  A    between atoms: N1_8  and  C7_11 
REMARK    6  A    between atoms: C7_11  and  C8_12 
REMARK    7  A    between atoms: C8_12  and  N2_13 
REMARK    8  A    between atoms: N2_13  and  C9_15 
ROOT
HETATM    1  C7  UNL     1     -11.031  10.275 -19.748  1.00  0.00     0.251 C 
ENDROOT
BRANCH   1   2
HETATM    2  N1  UNL     1      -9.985   9.910 -20.632  1.00  0.00    -0.074 N 
ATOM      3  H12 UNL     1     -10.180   9.012 -21.077  1.00  0.00     0.277 HD
ATOM      4  H11 UNL     1      -9.142   9.659 -20.115  1.00  0.00     0.277 HD
BRANCH   2   5
HETATM    5  C6  UNL     1      -9.700  10.932 -21.627  1.00  0.00     0.232 C 
BRANCH   5   6
HETATM    6  C5  UNL     1      -8.284  11.436 -21.538  1.00  0.00     0.033 C 
BRANCH   6   7
HETATM    7  C4  UNL     1      -7.583  10.762 -20.383  1.00  0.00     0.060 C 
BRANCH   7   8
HETATM    8  C3  UNL     1      -6.950  11.686 -19.443  1.00  0.00     0.029 A 
HETATM    9  C2  UNL     1      -6.371  12.904 -19.659  1.00  0.00     0.070 A 
HETATM   10  C1  UNL     1      -5.920  13.375 -18.449  1.00  0.00     0.119 A 
HETATM   11 CL1  UNL     1      -5.092  14.908 -18.158  1.00  0.00    -0.063 Cl
HETATM   12  N5  UNL     1      -6.223  12.448 -17.515  1.00  0.00    -0.290 N 
HETATM   13  N4  UNL     1      -6.835  11.447 -18.118  1.00  0.00    -0.304 N 
ATOM     14  H5  UNL     1      -6.015  12.511 -16.518  1.00  0.00     0.188 HD
ATOM     15  H4  UNL     1      -7.176  10.608 -17.649  1.00  0.00     0.186 HD
ENDBRANCH   7   8
ENDBRANCH   6   7
ENDBRANCH   5   6
ENDBRANCH   2   5
ENDBRANCH   1   2
BRANCH   1  16
HETATM   16  C8  UNL     1     -10.570  10.643 -18.365  1.00  0.00     0.147 C 
BRANCH  16  17
HETATM   17  N2  UNL     1     -10.923  11.961 -17.947  1.00  0.00    -0.386 N 
ATOM     18  H2  UNL     1     -11.760  12.030 -17.368  1.00  0.00     0.159 HD
BRANCH  17  19
HETATM   19  C9  UNL     1     -10.278  13.174 -18.224  1.00  0.00     0.056 A 
HETATM   20  C10 UNL     1     -10.319  13.770 -19.460  1.00  0.00     0.031 A 
HETATM   21  C11 UNL     1      -9.645  14.945 -19.711  1.00  0.00     0.003 A 
HETATM   22  C12 UNL     1      -8.916  15.527 -18.690  1.00  0.00     0.014 A 
HETATM   23  C13 UNL     1      -8.861  14.937 -17.428  1.00  0.00    -0.007 A 
HETATM   24  C14 UNL     1      -8.136  15.505 -16.397  1.00  0.00     0.015 A 
HETATM   25  C17 UNL     1      -9.537  13.763 -17.184  1.00  0.00     0.069 A 
HETATM   26  C15 UNL     1      -8.100  14.892 -15.146  1.00  0.00     0.018 A 
HETATM   27  C16 UNL     1      -8.788  13.715 -14.933  1.00  0.00     0.088 A 
HETATM   28  N3  UNL     1      -9.473  13.205 -15.958  1.00  0.00    -0.363 N 
ATOM     29  H3  UNL     1      -9.983  12.335 -15.803  1.00  0.00     0.165 HD
ENDBRANCH  17  19
ENDBRANCH  16  17
ENDBRANCH   1  16
TORSDOF 8
ENDMDL
MODEL 2
REMARK VINA RESULT: -7.288018852      1.376      1.742
REMARK  8 active torsions:
REMARK  status: ('A' for Active; 'I' for Inactive)
REMARK    1  A    between atoms: C3_4  and  C4_5 
REMARK    2  A    between atoms: C4_5  and  C5_6 
REMARK    3  A    between atoms: C5_6  and  C6_7 
REMARK    4  A    between atoms: C6_7  and  N1_8 
REMARK    5  A    between atoms: N1_8  and  C7_11 
REMARK    6  A    between atoms: C7_11  and  C8_12 
REMARK    7  A    between atoms: C8_12  and  N2_13 
REMARK    8  A    between atoms: N2_13  and  C9_15 
ROOT
HETATM    1  C7  UNL     1      -9.606  10.274 -19.538  1.00  0.00     0.251 C 
ENDROOT
BRANCH   1   2
HETATM    2  N1  UNL     1      -8.574   9.859 -18.659  1.00  0.00    -0.074 N 
ATOM      3  H12 UNL     1      -8.295   8.897 -18.853  1.00  0.00     0.277 HD
ATOM      4  H11 UNL     1      -8.931   9.740 -17.710  1.00  0.00     0.277 HD
BRANCH   2   5
HETATM    5  C6  UNL     1      -7.423  10.748 -18.673  1.00  0.00     0.232 C 
BRANCH   5   6
HETATM    6  C5  UNL     1      -7.013  11.129 -20.071  1.00  0.00     0.033 C 
BRANCH   6   7
HETATM    7  C4  UNL     1      -6.918  12.633 -20.174  1.00  0.00     0.060 C 
BRANCH   7   8
HETATM    8  C3  UNL     1      -5.668  13.192 -19.662  1.00  0.00     0.029 A 
HETATM    9  C2  UNL     1      -5.454  14.147 -18.710  1.00  0.00     0.070 A 
HETATM   10  C1  UNL     1      -4.096  14.323 -18.589  1.00  0.00     0.119 A 
HETATM   11 CL1  UNL     1      -3.273  15.443 -17.498  1.00  0.00    -0.063 Cl
HETATM   12  N5  UNL     1      -3.499  13.483 -19.461  1.00  0.00    -0.290 N 
HETATM   13  N4  UNL     1      -4.445  12.815 -20.095  1.00  0.00    -0.304 N 
ATOM     14  H5  UNL     1      -2.495  13.382 -19.605  1.00  0.00     0.188 HD
ATOM     15  H4  UNL     1      -4.276  12.110 -20.812  1.00  0.00     0.186 HD
ENDBRANCH   7   8
ENDBRANCH   6   7
ENDBRANCH   5   6
ENDBRANCH   2   5
ENDBRANCH   1   2
BRANCH   1  16
HETATM   16  C8  UNL     1     -10.897  10.626 -18.853  1.00  0.00     0.147 C 
BRANCH  16  17
HETATM   17  N2  UNL     1     -10.830  11.770 -18.001  1.00  0.00    -0.386 N 
ATOM     18  H2  UNL     1     -11.237  11.652 -17.073  1.00  0.00     0.159 HD
BRANCH  17  19
HETATM   19  C9  UNL     1     -10.281  13.031 -18.264  1.00  0.00     0.056 A 
HETATM   20  C10 UNL     1     -10.443  13.674 -19.468  1.00  0.00     0.031 A 
HETATM   21  C11 UNL     1      -9.861  14.899 -19.709  1.00  0.00     0.003 A 
HETATM   22  C12 UNL     1      -9.101  15.485 -18.713  1.00  0.00     0.014 A 
HETATM   23  C13 UNL     1      -8.925  14.849 -17.485  1.00  0.00    -0.007 A 
HETATM   24  C14 UNL     1      -8.168  15.420 -16.479  1.00  0.00     0.015 A 
HETATM   25  C17 UNL     1      -9.508  13.625 -17.250  1.00  0.00     0.069 A 
HETATM   26  C15 UNL     1      -8.009  14.761 -15.262  1.00  0.00     0.018 A 
HETATM   27  C16 UNL     1      -8.607  13.534 -15.057  1.00  0.00     0.088 A 
HETATM   28  N3  UNL     1      -9.327  13.023 -16.056  1.00  0.00    -0.363 N 
ATOM     29  H3  UNL     1      -9.771  12.116 -15.908  1.00  0.00     0.165 HD
ENDBRANCH  17  19
ENDBRANCH  16  17
ENDBRANCH   1  16
TORSDOF 8
ENDMDL
MODEL 3
REMARK VINA RESULT: -6.959947672      2.370      5.264
REMARK  8 active torsions:
REMARK  status: ('A' for Active; 'I' for Inactive)
REMARK    1  A    between atoms: C3_4  and  C4_5 
REMARK    2  A    between atoms: C4_5  and  C5_6 
REMARK    3  A    between atoms: C5_6  and  C6_7 
REMARK    4  A    between atoms: C6_7  and  N1_8 
REMARK    5  A    between atoms: N1_8  and  C7_11 
REMARK    6  A    between atoms: C7_11  and  C8_12 
REMARK    7  A    between atoms: C8_12  and  N2_13 
REMARK    8  A    between atoms: N2_13  and  C9_15 
ROOT
HETATM    1  C7  UNL     1      -8.182  13.641 -15.643  1.00  0.00     0.251 C 
ENDROOT
BRANCH   1   2
HETATM    2  N1  UNL     1      -9.480  13.680 -16.213  1.00  0.00    -0.074 N 
ATOM      3  H12 UNL     1     -10.157  14.064 -15.552  1.00  0.00     0.277 HD
ATOM      4  H11 UNL     1      -9.861  12.739 -16.314  1.00  0.00     0.277 HD
BRANCH   2   5
HETATM    5  C6  UNL     1      -9.524  14.397 -17.477  1.00  0.00     0.232 C 
BRANCH   5   6
HETATM    6  C5  UNL     1     -10.128  13.572 -18.582  1.00  0.00     0.033 C 
BRANCH   6   7
HETATM    7  C4  UNL     1     -10.636  12.267 -18.013  1.00  0.00     0.060 C 
BRANCH   7   8
HETATM    8  C3  UNL     1     -10.916  11.243 -19.018  1.00  0.00     0.029 A 
HETATM    9  C2  UNL     1     -11.004  11.342 -20.377  1.00  0.00     0.070 A 
HETATM   10  C1  UNL     1     -11.289  10.091 -20.871  1.00  0.00     0.119 A 
HETATM   11 CL1  UNL     1     -11.510   9.656 -22.569  1.00  0.00    -0.063 Cl
HETATM   12  N5  UNL     1     -11.373   9.249 -19.820  1.00  0.00    -0.290 N 
HETATM   13  N4  UNL     1     -11.149   9.946 -18.722  1.00  0.00    -0.304 N 
ATOM     14  H5  UNL     1     -11.573   8.250 -19.866  1.00  0.00     0.188 HD
ATOM     15  H4  UNL     1     -11.152   9.558 -17.778  1.00  0.00     0.186 HD
ENDBRANCH   7   8
ENDBRANCH   6   7
ENDBRANCH   5   6
ENDBRANCH   2   5
ENDBRANCH   1   2
BRANCH   1  16
HETATM   16  C8  UNL     1      -7.559  12.273 -15.621  1.00  0.00     0.147 C 
BRANCH  16  17
HETATM   17  N2  UNL     1      -6.608  12.032 -16.658  1.00  0.00    -0.386 N 
ATOM     18  H2  UNL     1      -5.630  12.037 -16.369  1.00  0.00     0.159 HD
BRANCH  17  19
HETATM   19  C9  UNL     1      -6.835  11.788 -18.019  1.00  0.00     0.056 A 
HETATM   20  C10 UNL     1      -7.284  10.579 -18.491  1.00  0.00     0.031 A 
HETATM   21  C11 UNL     1      -7.464  10.359 -19.839  1.00  0.00     0.003 A 
HETATM   22  C12 UNL     1      -7.184  11.382 -20.725  1.00  0.00     0.014 A 
HETATM   23  C13 UNL     1      -6.726  12.617 -20.266  1.00  0.00    -0.007 A 
HETATM   24  C14 UNL     1      -6.440  13.650 -21.139  1.00  0.00     0.015 A 
HETATM   25  C17 UNL     1      -6.548  12.830 -18.919  1.00  0.00     0.069 A 
HETATM   26  C15 UNL     1      -5.984  14.873 -20.651  1.00  0.00     0.018 A 
HETATM   27  C16 UNL     1      -5.816  15.055 -19.293  1.00  0.00     0.088 A 
HETATM   28  N3  UNL     1      -6.104  14.030 -18.491  1.00  0.00    -0.363 N 
ATOM     29  H3  UNL     1      -5.981  14.163 -17.487  1.00  0.00     0.165 HD
ENDBRANCH  17  19
ENDBRANCH  16  17
ENDBRANCH   1  16
TORSDOF 8
ENDMDL
MODEL 4
REMARK VINA RESULT: -6.956075707      1.392      1.758
REMARK  8 active torsions:
REMARK  status: ('A' for Active; 'I' for Inactive)
REMARK    1  A    between atoms: C3_4  and  C4_5 
REMARK    2  A    between atoms: C4_5  and  C5_6 
REMARK    3  A    between atoms: C5_6  and  C6_7 
REMARK    4  A    between atoms: C6_7  and  N1_8 
REMARK    5  A    between atoms: N1_8  and  C7_11 
REMARK    6  A    between atoms: C7_11  and  C8_12 
REMARK    7  A    between atoms: C8_12  and  N2_13 
REMARK    8  A    between atoms: N2_13  and  C9_15 
ROOT
HETATM    1  C7  UNL     1     -10.068  10.312 -19.617  1.00  0.00     0.251 C 
ENDROOT
BRANCH   1   2
HETATM    2  N1  UNL     1      -9.130   9.910 -18.632  1.00  0.00    -0.074 N 
ATOM      3  H12 UNL     1      -9.322   8.960 -18.312  1.00  0.00     0.277 HD
ATOM      4  H11 UNL     1      -9.280  10.414 -17.759  1.00  0.00     0.277 HD
BRANCH   2   5
HETATM    5  C6  UNL     1      -7.751  10.039 -19.076  1.00  0.00     0.232 C 
BRANCH   5   6
HETATM    6  C5  UNL     1      -7.154  11.372 -18.707  1.00  0.00     0.033 C 
BRANCH   6   7
HETATM    7  C4  UNL     1      -6.320  11.883 -19.858  1.00  0.00     0.060 C 
BRANCH   7   8
HETATM    8  C3  UNL     1      -5.810  13.241 -19.674  1.00  0.00     0.029 A 
HETATM    9  C2  UNL     1      -5.718  14.276 -20.560  1.00  0.00     0.070 A 
HETATM   10  C1  UNL     1      -5.167  15.348 -19.898  1.00  0.00     0.119 A 
HETATM   11 CL1  UNL     1      -4.826  16.942 -20.578  1.00  0.00    -0.063 Cl
HETATM   12  N5  UNL     1      -4.930  14.961 -18.627  1.00  0.00    -0.290 N 
HETATM   13  N4  UNL     1      -5.317  13.705 -18.505  1.00  0.00    -0.304 N 
ATOM     14  H5  UNL     1      -4.524  15.537 -17.890  1.00  0.00     0.188 HD
ATOM     15  H4  UNL     1      -5.253  13.159 -17.646  1.00  0.00     0.186 HD
ENDBRANCH   7   8
ENDBRANCH   6   7
ENDBRANCH   5   6
ENDBRANCH   2   5
ENDBRANCH   1   2
BRANCH   1  16
HETATM   16  C8  UNL     1     -11.236  11.088 -19.075  1.00  0.00     0.147 C 
BRANCH  16  17
HETATM   17  N2  UNL     1     -10.892  12.114 -18.143  1.00  0.00    -0.386 N 
ATOM     18  H2  UNL     1     -11.221  11.969 -17.189  1.00  0.00     0.159 HD
BRANCH  17  19
HETATM   19  C9  UNL     1     -10.164  13.290 -18.360  1.00  0.00     0.056 A 
HETATM   20  C10 UNL     1     -10.110  13.915 -19.582  1.00  0.00     0.031 A 
HETATM   21  C11 UNL     1      -9.356  15.052 -19.773  1.00  0.00     0.003 A 
HETATM   22  C12 UNL     1      -8.644  15.567 -18.706  1.00  0.00     0.014 A 
HETATM   23  C13 UNL     1      -8.685  14.948 -17.457  1.00  0.00    -0.007 A 
HETATM   24  C14 UNL     1      -7.978  15.450 -16.380  1.00  0.00     0.015 A 
HETATM   25  C17 UNL     1      -9.439  13.812 -17.273  1.00  0.00     0.069 A 
HETATM   26  C15 UNL     1      -8.038  14.809 -15.144  1.00  0.00     0.018 A 
HETATM   27  C16 UNL     1      -8.804  13.671 -14.992  1.00  0.00     0.088 A 
HETATM   28  N3  UNL     1      -9.468  13.225 -16.059  1.00  0.00    -0.363 N 
ATOM     29  H3  UNL     1     -10.035  12.384 -15.949  1.00  0.00     0.165 HD
ENDBRANCH  17  19
ENDBRANCH  16  17
ENDBRANCH   1  16
TORSDOF 8
ENDMDL
MODEL 5
REMARK VINA RESULT: -6.906845075      2.027      3.372
REMARK  8 active torsions:
REMARK  status: ('A' for Active; 'I' for Inactive)
REMARK    1  A    between atoms: C3_4  and  C4_5 
REMARK    2  A    between atoms: C4_5  and  C5_6 
REMARK    3  A    between atoms: C5_6  and  C6_7 
REMARK    4  A    between atoms: C6_7  and  N1_8 
REMARK    5  A    between atoms: N1_8  and  C7_11 
REMARK    6  A    between atoms: C7_11  and  C8_12 
REMARK    7  A    between atoms: C8_12  and  N2_13 
REMARK    8  A    between atoms: N2_13  and  C9_15 
ROOT
HETATM    1  C7  UNL     1      -8.701  10.349 -19.640  1.00  0.00     0.251 C 
ENDROOT
BRANCH   1   2
HETATM    2  N1  UNL     1      -9.634  10.015 -18.626  1.00  0.00    -0.074 N 
ATOM      3  H12 UNL     1      -9.164   9.596 -17.823  1.00  0.00     0.277 HD
ATOM      4  H11 UNL     1     -10.214   9.225 -18.910  1.00  0.00     0.277 HD
BRANCH   2   5
HETATM    5  C6  UNL     1     -10.456  11.142 -18.216  1.00  0.00     0.232 C 
BRANCH   5   6
HETATM    6  C5  UNL     1     -10.685  12.120 -19.339  1.00  0.00     0.033 C 
BRANCH   6   7
HETATM    7  C4  UNL     1     -10.346  13.514 -18.867  1.00  0.00     0.060 C 
BRANCH   7   8
HETATM    8  C3  UNL     1      -9.506  14.273 -19.791  1.00  0.00     0.029 A 
HETATM    9  C2  UNL     1      -9.165  15.596 -19.790  1.00  0.00     0.070 A 
HETATM   10  C1  UNL     1      -8.352  15.821 -20.875  1.00  0.00     0.119 A 
HETATM   11 CL1  UNL     1      -7.628  17.363 -21.345  1.00  0.00    -0.063 Cl
HETATM   12  N5  UNL     1      -8.205  14.646 -21.523  1.00  0.00    -0.290 N 
HETATM   13  N4  UNL     1      -8.897  13.732 -20.869  1.00  0.00    -0.304 N 
ATOM     14  H5  UNL     1      -7.656  14.492 -22.368  1.00  0.00     0.188 HD
ATOM     15  H4  UNL     1      -8.963  12.751 -21.139  1.00  0.00     0.186 HD
ENDBRANCH   7   8
ENDBRANCH   6   7
ENDBRANCH   5   6
ENDBRANCH   2   5
ENDBRANCH   1   2
BRANCH   1  16
HETATM   16  C8  UNL     1      -7.264  10.285 -19.203  1.00  0.00     0.147 C 
BRANCH  16  17
HETATM   17  N2  UNL     1      -6.935  11.135 -18.104  1.00  0.00    -0.386 N 
ATOM     18  H2  UNL     1      -6.887  10.678 -17.193  1.00  0.00     0.159 HD
BRANCH  17  19
HETATM   19  C9  UNL     1      -6.668  12.510 -18.105  1.00  0.00     0.056 A 
HETATM   20  C10 UNL     1      -5.855  13.107 -19.037  1.00  0.00     0.031 A 
HETATM   21  C11 UNL     1      -5.583  14.457 -18.990  1.00  0.00     0.003 A 
HETATM   22  C12 UNL     1      -6.146  15.216 -17.982  1.00  0.00     0.014 A 
HETATM   23  C13 UNL     1      -6.974  14.629 -17.026  1.00  0.00    -0.007 A 
HETATM   24  C14 UNL     1      -7.545  15.374 -16.010  1.00  0.00     0.015 A 
HETATM   25  C17 UNL     1      -7.241  13.280 -17.078  1.00  0.00     0.069 A 
HETATM   26  C15 UNL     1      -8.368  14.760 -15.069  1.00  0.00     0.018 A 
HETATM   27  C16 UNL     1      -8.616  13.404 -15.148  1.00  0.00     0.088 A 
HETATM   28  N3  UNL     1      -8.044  12.728 -16.145  1.00  0.00    -0.363 N 
ATOM     29  H3  UNL     1      -8.226  11.726 -16.205  1.00  0.00     0.165 HD
ENDBRANCH  17  19
ENDBRANCH  16  17
ENDBRANCH   1  16
TORSDOF 8
ENDMDL
