MODEL 1
REMARK VINA RESULT: -7.749737094      0.000      0.000
REMARK  9 active torsions:
REMARK  status: ('A' for Active; 'I' for Inactive)
REMARK    1  A    between atoms: N1_1  and  C1_5 
REMARK    2  A    between atoms: C1_5  and  C2_6 
REMARK    3  A    between atoms: C1_5  and  C4_14 
REMARK    4  A    between atoms: C4_14  and  C5_15 
REMARK    5  A    between atoms: C4_14  and  N5_23 
REMARK    6  A    between atoms: C5_15  and  C6_16 
REMARK    7  A    between atoms: C6_16  and  C7_17 
REMARK    8  A    between atoms: N5_23  and  C13_25 
REMARK    9  A    between atoms: C13_25  and  C14_26 
ROOT
HETATM    1  C4  UNL     1      -9.287  10.398 -19.288  1.00  0.00     0.119 C 
ENDROOT
BRANCH   1   2
HETATM    2  C1  UNL     1     -10.351  10.701 -20.339  1.00  0.00     0.274 C 
BRANCH   2   3
HETATM    3  N1  UNL     1     -11.167   9.585 -20.678  1.00  0.00    -0.066 N 
ATOM      4  H13 UNL     1     -11.155   9.398 -21.681  1.00  0.00     0.275 HD
ATOM      5  H12 UNL     1     -10.762   8.707 -20.355  1.00  0.00     0.275 HD
ATOM      6  H11 UNL     1     -12.117   9.714 -20.328  1.00  0.00     0.275 HD
ENDBRANCH   2   3
BRANCH   2   7
HETATM    7  C2  UNL     1      -9.800  11.319 -21.542  1.00  0.00     0.130 A 
HETATM    8  N2  UNL     1      -9.155  10.640 -22.537  1.00  0.00    -0.338 N 
HETATM    9  C3  UNL     1      -8.781  11.474 -23.506  1.00  0.00     0.198 A 
ATOM     10  H2  UNL     1      -8.985   9.635 -22.537  1.00  0.00     0.168 HD
HETATM   11  N3  UNL     1      -9.191  12.686 -23.119  1.00  0.00    -0.295 N 
HETATM   12  N4  UNL     1      -9.798  12.596 -21.951  1.00  0.00    -0.286 N 
ATOM     13  H3  UNL     1      -9.057  13.549 -23.646  1.00  0.00     0.187 HD
ATOM     14  H4  UNL     1     -10.204  13.378 -21.437  1.00  0.00     0.188 HD
ENDBRANCH   2   7
ENDBRANCH   1   2
BRANCH   1  15
HETATM   15  C5  UNL     1      -9.728  10.934 -17.984  1.00  0.00     0.032 C 
BRANCH  15  16
HETATM   16  C6  UNL     1     -10.295  12.297 -17.928  1.00  0.00     0.041 C 
BRANCH  16  17
HETATM   17  C7  UNL     1      -9.562  13.288 -17.135  1.00  0.00    -0.058 A 
HETATM   18  C8  UNL     1      -8.968  12.909 -15.928  1.00  0.00     0.007 A 
HETATM   19  C9  UNL     1      -8.282  13.795 -15.141  1.00  0.00     0.001 A 
HETATM   20  C10 UNL     1      -8.153  15.108 -15.514  1.00  0.00     0.000 A 
HETATM   21  C11 UNL     1      -8.726  15.512 -16.693  1.00  0.00     0.001 A 
HETATM   22  C12 UNL     1      -9.424  14.604 -17.492  1.00  0.00     0.007 A 
ENDBRANCH  16  17
ENDBRANCH  15  16
ENDBRANCH   1  15
BRANCH   1  23
HETATM   23  N5  UNL     1      -7.969  10.690 -19.683  1.00  0.00    -0.391 N 
ATOM     24  H5  UNL     1      -7.694  10.573 -20.658  1.00  0.00     0.159 HD
BRANCH  23  25
HETATM   25  C13 UNL     1      -7.029  11.140 -18.741  1.00  0.00     0.095 C 
BRANCH  25  26
HETATM   26  C14 UNL     1      -6.658  12.585 -18.914  1.00  0.00    -0.018 A 
HETATM   27  C15 UNL     1      -7.088  13.215 -20.061  1.00  0.00     0.013 A 
HETATM   28  C16 UNL     1      -6.791  14.549 -20.304  1.00  0.00     0.004 A 
HETATM   29  C17 UNL     1      -6.052  15.267 -19.387  1.00  0.00     0.042 A 
HETATM   30  C18 UNL     1      -5.610  14.648 -18.225  1.00  0.00     0.117 A 
HETATM   31  F1  UNL     1      -4.882  15.346 -17.320  1.00  0.00    -0.206 F 
HETATM   32  C19 UNL     1      -5.928  13.303 -18.014  1.00  0.00     0.055 A 
ENDBRANCH  25  26
ENDBRANCH  23  25
ENDBRANCH   1  23
TORSDOF 9
ENDMDL
MODEL 2
REMARK VINA RESULT: -7.732513255      3.657      5.086
REMARK  9 active torsions:
REMARK  status: ('A' for Active; 'I' for Inactive)
REMARK    1  A    between atoms: N1_1  and  C1_5 
REMARK    2  A    between atoms: C1_5  and  C2_6 
REMARK    3  A    between atoms: C1_5  and  C4_14 
REMARK    4  A    between atoms: C4_14  and  C5_15 
REMARK    5  A    between atoms: C4_14  and  N5_23 
REMARK    6  A    between atoms: C5_15  and  C6_16 
REMARK    7  A    between atoms: C6_16  and  C7_17 
REMARK    8  A    between atoms: N5_23  and  C13_25 
REMARK    9  A    between atoms: C13_25  and  C14_26 
ROOT
HETATM    1  C4  UNL     1      -7.866  14.750 -20.513  1.00  0.00     0.119 C 
ENDROOT
BRANCH   1   2
HETATM    2  C1  UNL     1      -8.519  13.401 -20.799  1.00  0.00     0.274 C 
BRANCH   2   3
HETATM    3  N1  UNL     1      -9.923  13.374 -20.566  1.00  0.00    -0.066 N 
ATOM      4  H13 UNL     1     -10.436  13.043 -21.384  1.00  0.00     0.275 HD
ATOM      5  H12 UNL     1     -10.185  12.636 -19.913  1.00  0.00     0.275 HD
ATOM      6  H11 UNL     1     -10.254  14.288 -20.256  1.00  0.00     0.275 HD
ENDBRANCH   2   3
BRANCH   2   7
HETATM    7  C2  UNL     1      -7.862  12.296 -20.107  1.00  0.00     0.130 A 
HETATM    8  N2  UNL     1      -8.511  11.222 -19.568  1.00  0.00    -0.338 N 
HETATM    9  C3  UNL     1      -7.642  10.376 -19.018  1.00  0.00     0.198 A 
ATOM     10  H2  UNL     1      -9.522  11.087 -19.585  1.00  0.00     0.168 HD
HETATM   11  N3  UNL     1      -6.435  10.921 -19.210  1.00  0.00    -0.295 N 
HETATM   12  N4  UNL     1      -6.565  12.063 -19.858  1.00  0.00    -0.286 N 
ATOM     13  H3  UNL     1      -5.551  10.516 -18.904  1.00  0.00     0.187 HD
ATOM     14  H4  UNL     1      -5.796  12.676 -20.129  1.00  0.00     0.188 HD
ENDBRANCH   2   7
ENDBRANCH   1   2
BRANCH   1  15
HETATM   15  C5  UNL     1      -8.313  15.235 -19.191  1.00  0.00     0.032 C 
BRANCH  15  16
HETATM   16  C6  UNL     1      -7.358  15.217 -18.065  1.00  0.00     0.041 C 
BRANCH  16  17
HETATM   17  C7  UNL     1      -7.822  14.618 -16.810  1.00  0.00    -0.058 A 
HETATM   18  C8  UNL     1      -8.383  15.429 -15.820  1.00  0.00     0.007 A 
HETATM   19  C9  UNL     1      -8.822  14.926 -14.625  1.00  0.00     0.001 A 
HETATM   20  C10 UNL     1      -8.725  13.586 -14.352  1.00  0.00     0.000 A 
HETATM   21  C11 UNL     1      -8.179  12.763 -15.303  1.00  0.00     0.001 A 
HETATM   22  C12 UNL     1      -7.732  13.282 -16.521  1.00  0.00     0.007 A 
ENDBRANCH  16  17
ENDBRANCH  15  16
ENDBRANCH   1  15
BRANCH   1  23
HETATM   23  N5  UNL     1      -7.917  15.668 -21.577  1.00  0.00    -0.391 N 
ATOM     24  H5  UNL     1      -8.191  15.351 -22.508  1.00  0.00     0.159 HD
BRANCH  23  25
HETATM   25  C13 UNL     1      -7.593  17.019 -21.367  1.00  0.00     0.095 C 
BRANCH  25  26
HETATM   26  C14 UNL     1      -8.549  17.970 -22.027  1.00  0.00    -0.018 A 
HETATM   27  C15 UNL     1      -8.136  18.576 -23.193  1.00  0.00     0.013 A 
HETATM   28  C16 UNL     1      -8.955  19.470 -23.869  1.00  0.00     0.004 A 
HETATM   29  C17 UNL     1     -10.209  19.763 -23.374  1.00  0.00     0.042 A 
HETATM   30  C18 UNL     1     -10.642  19.162 -22.200  1.00  0.00     0.117 A 
HETATM   31  F1  UNL     1     -11.872  19.446 -21.707  1.00  0.00    -0.206 F 
HETATM   32  C19 UNL     1      -9.790  18.267 -21.546  1.00  0.00     0.055 A 
ENDBRANCH  25  26
ENDBRANCH  23  25
ENDBRANCH   1  23
TORSDOF 9
ENDMDL
MODEL 3
REMARK VINA RESULT: -7.608603166      3.287      5.403
REMARK  9 active torsions:
REMARK  status: ('A' for Active; 'I' for Inactive)
REMARK    1  A    between atoms: N1_1  and  C1_5 
REMARK    2  A    between atoms: C1_5  and  C2_6 
REMARK    3  A    between atoms: C1_5  and  C4_14 
REMARK    4  A    between atoms: C4_14  and  C5_15 
REMARK    5  A    between atoms: C4_14  and  N5_23 
REMARK    6  A    between atoms: C5_15  and  C6_16 
REMARK    7  A    between atoms: C6_16  and  C7_17 
REMARK    8  A    between atoms: N5_23  and  C13_25 
REMARK    9  A    between atoms: C13_25  and  C14_26 
ROOT
HETATM    1  C4  UNL     1      -7.556  15.896 -20.213  1.00  0.00     0.119 C 
ENDROOT
BRANCH   1   2
HETATM    2  C1  UNL     1      -6.836  16.550 -21.388  1.00  0.00     0.274 C 
BRANCH   2   3
HETATM    3  N1  UNL     1      -5.739  17.376 -21.010  1.00  0.00    -0.066 N 
ATOM      4  H13 UNL     1      -5.812  18.310 -21.414  1.00  0.00     0.275 HD
ATOM      5  H12 UNL     1      -5.779  17.632 -20.024  1.00  0.00     0.275 HD
ATOM      6  H11 UNL     1      -4.853  16.928 -21.249  1.00  0.00     0.275 HD
ENDBRANCH   2   3
BRANCH   2   7
HETATM    7  C2  UNL     1      -7.742  17.274 -22.275  1.00  0.00     0.130 A 
HETATM    8  N2  UNL     1      -8.304  18.486 -21.990  1.00  0.00    -0.338 N 
HETATM    9  C3  UNL     1      -9.072  18.896 -22.999  1.00  0.00     0.198 A 
ATOM     10  H2  UNL     1      -8.157  19.004 -21.124  1.00  0.00     0.168 HD
HETATM   11  N3  UNL     1      -8.993  17.935 -23.927  1.00  0.00    -0.295 N 
HETATM   12  N4  UNL     1      -8.202  16.970 -23.498  1.00  0.00    -0.286 N 
ATOM     13  H3  UNL     1      -9.470  17.947 -24.828  1.00  0.00     0.187 HD
ATOM     14  H4  UNL     1      -7.975  16.122 -24.017  1.00  0.00     0.188 HD
ENDBRANCH   2   7
ENDBRANCH   1   2
BRANCH   1  15
HETATM   15  C5  UNL     1      -6.653  14.917 -19.575  1.00  0.00     0.032 C 
BRANCH  15  16
HETATM   16  C6  UNL     1      -6.224  15.145 -18.180  1.00  0.00     0.041 C 
BRANCH  16  17
HETATM   17  C7  UNL     1      -6.993  14.471 -17.131  1.00  0.00    -0.058 A 
HETATM   18  C8  UNL     1      -7.767  15.224 -16.245  1.00  0.00     0.007 A 
HETATM   19  C9  UNL     1      -8.496  14.648 -15.239  1.00  0.00     0.001 A 
HETATM   20  C10 UNL     1      -8.492  13.289 -15.061  1.00  0.00     0.000 A 
HETATM   21  C11 UNL     1      -7.741  12.520 -15.915  1.00  0.00     0.001 A 
HETATM   22  C12 UNL     1      -7.000  13.114 -16.940  1.00  0.00     0.007 A 
ENDBRANCH  16  17
ENDBRANCH  15  16
ENDBRANCH   1  15
BRANCH   1  23
HETATM   23  N5  UNL     1      -8.866  15.466 -20.490  1.00  0.00    -0.391 N 
ATOM     24  H5  UNL     1      -9.192  15.421 -21.456  1.00  0.00     0.159 HD
BRANCH  23  25
HETATM   25  C13 UNL     1      -9.729  15.097 -19.444  1.00  0.00     0.095 C 
BRANCH  25  26
HETATM   26  C14 UNL     1      -9.960  13.616 -19.357  1.00  0.00    -0.018 A 
HETATM   27  C15 UNL     1     -10.495  13.126 -18.187  1.00  0.00     0.013 A 
HETATM   28  C16 UNL     1     -10.741  11.770 -18.019  1.00  0.00     0.004 A 
HETATM   29  C17 UNL     1     -10.449  10.887 -19.037  1.00  0.00     0.042 A 
HETATM   30  C18 UNL     1      -9.908  11.363 -20.224  1.00  0.00     0.117 A 
HETATM   31  F1  UNL     1      -9.617  10.501 -21.229  1.00  0.00    -0.206 F 
HETATM   32  C19 UNL     1      -9.673  12.735 -20.358  1.00  0.00     0.055 A 
ENDBRANCH  25  26
ENDBRANCH  23  25
ENDBRANCH   1  23
TORSDOF 9
ENDMDL
MODEL 4
REMARK VINA RESULT: -7.592899927      3.701      5.119
REMARK  9 active torsions:
REMARK  status: ('A' for Active; 'I' for Inactive)
REMARK    1  A    between atoms: N1_1  and  C1_5 
REMARK    2  A    between atoms: C1_5  and  C2_6 
REMARK    3  A    between atoms: C1_5  and  C4_14 
REMARK    4  A    between atoms: C4_14  and  C5_15 
REMARK    5  A    between atoms: C4_14  and  N5_23 
REMARK    6  A    between atoms: C5_15  and  C6_16 
REMARK    7  A    between atoms: C6_16  and  C7_17 
REMARK    8  A    between atoms: N5_23  and  C13_25 
REMARK    9  A    between atoms: C13_25  and  C14_26 
ROOT
HETATM    1  C4  UNL     1      -7.932  14.667 -20.557  1.00  0.00     0.119 C 
ENDROOT
BRANCH   1   2
HETATM    2  C1  UNL     1      -8.603  13.323 -20.828  1.00  0.00     0.274 C 
BRANCH   2   3
HETATM    3  N1  UNL     1     -10.006  13.315 -20.588  1.00  0.00    -0.066 N 
ATOM      4  H13 UNL     1     -10.236  12.851 -19.709  1.00  0.00     0.275 HD
ATOM      5  H12 UNL     1     -10.357  14.246 -20.366  1.00  0.00     0.275 HD
ATOM      6  H11 UNL     1     -10.503  12.900 -21.376  1.00  0.00     0.275 HD
ENDBRANCH   2   3
BRANCH   2   7
HETATM    7  C2  UNL     1      -7.955  12.217 -20.129  1.00  0.00     0.130 A 
HETATM    8  N2  UNL     1      -8.606  11.119 -19.643  1.00  0.00    -0.338 N 
HETATM    9  C3  UNL     1      -7.745  10.279 -19.070  1.00  0.00     0.198 A 
ATOM     10  H2  UNL     1      -9.612  10.964 -19.709  1.00  0.00     0.168 HD
HETATM   11  N3  UNL     1      -6.543  10.851 -19.196  1.00  0.00    -0.295 N 
HETATM   12  N4  UNL     1      -6.666  12.004 -19.826  1.00  0.00    -0.286 N 
ATOM     13  H3  UNL     1      -5.665  10.457 -18.858  1.00  0.00     0.187 HD
ATOM     14  H4  UNL     1      -5.898  12.637 -20.049  1.00  0.00     0.188 HD
ENDBRANCH   2   7
ENDBRANCH   1   2
BRANCH   1  15
HETATM   15  C5  UNL     1      -8.367  15.169 -19.238  1.00  0.00     0.032 C 
BRANCH  15  16
HETATM   16  C6  UNL     1      -7.399  15.174 -18.123  1.00  0.00     0.041 C 
BRANCH  16  17
HETATM   17  C7  UNL     1      -7.845  14.591 -16.854  1.00  0.00    -0.058 A 
HETATM   18  C8  UNL     1      -8.422  15.409 -15.879  1.00  0.00     0.007 A 
HETATM   19  C9  UNL     1      -8.845  14.921 -14.672  1.00  0.00     0.001 A 
HETATM   20  C10 UNL     1      -8.716  13.590 -14.371  1.00  0.00     0.000 A 
HETATM   21  C11 UNL     1      -8.153  12.760 -15.307  1.00  0.00     0.001 A 
HETATM   22  C12 UNL     1      -7.722  13.263 -16.537  1.00  0.00     0.007 A 
ENDBRANCH  16  17
ENDBRANCH  15  16
ENDBRANCH   1  15
BRANCH   1  23
HETATM   23  N5  UNL     1      -7.978  15.576 -21.630  1.00  0.00    -0.391 N 
ATOM     24  H5  UNL     1      -8.304  15.264 -22.545  1.00  0.00     0.159 HD
BRANCH  23  25
HETATM   25  C13 UNL     1      -7.576  16.910 -21.448  1.00  0.00     0.095 C 
BRANCH  25  26
HETATM   26  C14 UNL     1      -8.487  17.901 -22.114  1.00  0.00    -0.018 A 
HETATM   27  C15 UNL     1      -9.648  18.236 -21.453  1.00  0.00     0.013 A 
HETATM   28  C16 UNL     1     -10.549  19.143 -21.994  1.00  0.00     0.004 A 
HETATM   29  C17 UNL     1     -10.286  19.727 -23.216  1.00  0.00     0.042 A 
HETATM   30  C18 UNL     1      -9.121  19.401 -23.897  1.00  0.00     0.117 A 
HETATM   31  F1  UNL     1      -8.857  19.969 -25.098  1.00  0.00    -0.206 F 
HETATM   32  C19 UNL     1      -8.237  18.483 -23.321  1.00  0.00     0.055 A 
ENDBRANCH  25  26
ENDBRANCH  23  25
ENDBRANCH   1  23
TORSDOF 9
ENDMDL
MODEL 5
REMARK VINA RESULT: -7.570643869      2.057      4.492
REMARK  9 active torsions:
REMARK  status: ('A' for Active; 'I' for Inactive)
REMARK    1  A    between atoms: N1_1  and  C1_5 
REMARK    2  A    between atoms: C1_5  and  C2_6 
REMARK    3  A    between atoms: C1_5  and  C4_14 
REMARK    4  A    between atoms: C4_14  and  C5_15 
REMARK    5  A    between atoms: C4_14  and  N5_23 
REMARK    6  A    between atoms: C5_15  and  C6_16 
REMARK    7  A    between atoms: C6_16  and  C7_17 
REMARK    8  A    between atoms: N5_23  and  C13_25 
REMARK    9  A    between atoms: C13_25  and  C14_26 
ROOT
HETATM    1  C4  UNL     1      -7.735  14.475 -19.615  1.00  0.00     0.119 C 
ENDROOT
BRANCH   1   2
HETATM    2  C1  UNL     1      -7.219  13.861 -20.913  1.00  0.00     0.274 C 
BRANCH   2   3
HETATM    3  N1  UNL     1      -7.940  14.264 -22.073  1.00  0.00    -0.066 N 
ATOM      4  H13 UNL     1      -7.359  14.228 -22.911  1.00  0.00     0.275 HD
ATOM      5  H12 UNL     1      -8.640  13.574 -22.343  1.00  0.00     0.275 HD
ATOM      6  H11 UNL     1      -8.351  15.188 -21.938  1.00  0.00     0.275 HD
ENDBRANCH   2   3
BRANCH   2   7
HETATM    7  C2  UNL     1      -7.119  12.406 -20.850  1.00  0.00     0.130 A 
HETATM    8  N2  UNL     1      -6.915  11.691 -19.705  1.00  0.00    -0.338 N 
HETATM    9  C3  UNL     1      -6.884  10.385 -19.966  1.00  0.00     0.198 A 
ATOM     10  H2  UNL     1      -6.803  12.100 -18.777  1.00  0.00     0.168 HD
HETATM   11  N3  UNL     1      -7.069  10.276 -21.286  1.00  0.00    -0.295 N 
HETATM   12  N4  UNL     1      -7.209  11.477 -21.814  1.00  0.00    -0.286 N 
ATOM     13  H3  UNL     1      -7.098   9.398 -21.806  1.00  0.00     0.187 HD
ATOM     14  H4  UNL     1      -7.362  11.670 -22.803  1.00  0.00     0.188 HD
ENDBRANCH   2   7
ENDBRANCH   1   2
BRANCH   1  15
HETATM   15  C5  UNL     1      -9.082  15.034 -19.845  1.00  0.00     0.032 C 
BRANCH  15  16
HETATM   16  C6  UNL     1     -10.237  14.413 -19.163  1.00  0.00     0.041 C 
BRANCH  16  17
HETATM   17  C7  UNL     1     -10.358  12.955 -19.258  1.00  0.00    -0.058 A 
HETATM   18  C8  UNL     1     -10.589  12.358 -20.500  1.00  0.00     0.007 A 
HETATM   19  C9  UNL     1     -10.723  11.003 -20.646  1.00  0.00     0.001 A 
HETATM   20  C10 UNL     1     -10.634  10.170 -19.560  1.00  0.00     0.000 A 
HETATM   21  C11 UNL     1     -10.407  10.726 -18.327  1.00  0.00     0.001 A 
HETATM   22  C12 UNL     1     -10.272  12.109 -18.184  1.00  0.00     0.007 A 
ENDBRANCH  16  17
ENDBRANCH  15  16
ENDBRANCH   1  15
BRANCH   1  23
HETATM   23  N5  UNL     1      -6.811  15.297 -18.944  1.00  0.00    -0.391 N 
ATOM     24  H5  UNL     1      -6.612  16.232 -19.300  1.00  0.00     0.159 HD
BRANCH  23  25
HETATM   25  C13 UNL     1      -6.162  14.838 -17.786  1.00  0.00     0.095 C 
BRANCH  25  26
HETATM   26  C14 UNL     1      -7.107  14.486 -16.674  1.00  0.00    -0.018 A 
HETATM   27  C15 UNL     1      -7.252  13.152 -16.365  1.00  0.00     0.013 A 
HETATM   28  C16 UNL     1      -8.105  12.735 -15.352  1.00  0.00     0.004 A 
HETATM   29  C17 UNL     1      -8.826  13.666 -14.634  1.00  0.00     0.042 A 
HETATM   30  C18 UNL     1      -8.693  15.016 -14.932  1.00  0.00     0.117 A 
HETATM   31  F1  UNL     1      -9.399  15.937 -14.232  1.00  0.00    -0.206 F 
HETATM   32  C19 UNL     1      -7.825  15.399 -15.959  1.00  0.00     0.055 A 
ENDBRANCH  25  26
ENDBRANCH  23  25
ENDBRANCH   1  23
TORSDOF 9
ENDMDL
