MODEL 1
REMARK VINA RESULT: -6.247359296      0.000      0.000
REMARK  10 active torsions:
REMARK  status: ('A' for Active; 'I' for Inactive)
REMARK    1  A    between atoms: N1_1  and  C1_5 
REMARK    2  A    between atoms: C1_5  and  C2_6 
REMARK    3  A    between atoms: C5_9  and  C6_10 
REMARK    4  A    between atoms: C6_10  and  O1_11 
REMARK    5  A    between atoms: C6_10  and  C7_13 
REMARK    6  A    between atoms: C7_13  and  N2_14 
REMARK    7  A    between atoms: N2_14  and  C8_16 
REMARK    8  A    between atoms: C8_16  and  C9_17 
REMARK    9  A    between atoms: C9_17  and  S1_18 
REMARK   10  A    between atoms: S1_18  and  C10_19 
ROOT
HETATM    1  C6  UNL     1      -6.937  14.877 -20.110  1.00  0.00     0.168 C 
ENDROOT
BRANCH   1   2
HETATM    2  C5  UNL     1      -7.342  15.074 -18.712  1.00  0.00    -0.028 A 
HETATM    3  C4  UNL     1      -8.677  15.253 -18.430  1.00  0.00     0.010 A 
HETATM    4  C3  UNL     1      -9.112  15.443 -17.143  1.00  0.00     0.009 A 
HETATM    5  C2  UNL     1      -8.225  15.462 -16.079  1.00  0.00    -0.033 A 
HETATM    6  C17 UNL     1      -6.895  15.280 -16.392  1.00  0.00     0.009 A 
HETATM    7  C16 UNL     1      -6.437  15.088 -17.679  1.00  0.00     0.010 A 
BRANCH   5   8
HETATM    8  C1  UNL     1      -8.648  15.659 -14.682  1.00  0.00     0.268 C 
BRANCH   8   9
HETATM    9  N1  UNL     1      -9.898  14.976 -14.413  1.00  0.00    -0.075 N 
ATOM     10  H13 UNL     1     -10.406  15.411 -13.643  1.00  0.00     0.274 HD
ATOM     11  H12 UNL     1     -10.578  15.132 -15.157  1.00  0.00     0.274 HD
ATOM     12  H11 UNL     1      -9.745  13.981 -14.247  1.00  0.00     0.274 HD
ENDBRANCH   8   9
ENDBRANCH   5   8
ENDBRANCH   1   2
BRANCH   1  13
HETATM   13  O1  UNL     1      -5.879  14.002 -20.238  1.00  0.00    -0.389 OA
ATOM     14  H1  UNL     1      -5.175  14.189 -19.629  1.00  0.00     0.210 HD
ENDBRANCH   1  13
BRANCH   1  15
HETATM   15  C7  UNL     1      -8.158  14.425 -20.910  1.00  0.00     0.150 C 
BRANCH  15  16
HETATM   16  N2  UNL     1      -7.717  14.133 -22.233  1.00  0.00    -0.418 N 
ATOM     17  H2  UNL     1      -7.280  14.841 -22.823  1.00  0.00     0.153 HD
BRANCH  16  18
HETATM   18  C8  UNL     1      -7.919  12.797 -22.686  1.00  0.00     0.124 C 
BRANCH  18  19
HETATM   19  C9  UNL     1      -9.302  12.339 -22.335  1.00  0.00     0.098 C 
BRANCH  19  20
HETATM   20  S1  UNL     1      -9.334  10.841 -21.341  1.00  0.00    -0.128 SA
BRANCH  20  21
HETATM   21  C10 UNL     1      -8.845  11.216 -19.663  1.00  0.00     0.000 A 
HETATM   22  C11 UNL     1      -7.559  11.142 -19.235  1.00  0.00     0.020 A 
HETATM   23  C12 UNL     1      -7.220  11.444 -17.915  1.00  0.00     0.025 A 
HETATM   24  C13 UNL     1      -8.169  11.829 -16.988  1.00  0.00     0.034 A 
HETATM   25 CL1  UNL     1      -7.765  12.215 -15.326  1.00  0.00    -0.084 Cl
HETATM   26  C14 UNL     1      -9.480  11.899 -17.441  1.00  0.00     0.025 A 
HETATM   27  C15 UNL     1      -9.822  11.603 -18.741  1.00  0.00     0.020 A 
ENDBRANCH  20  21
ENDBRANCH  19  20
ENDBRANCH  18  19
ENDBRANCH  16  18
ENDBRANCH  15  16
ENDBRANCH   1  15
TORSDOF 10
ENDMDL
MODEL 2
REMARK VINA RESULT: -6.240083995      2.761      4.876
REMARK  10 active torsions:
REMARK  status: ('A' for Active; 'I' for Inactive)
REMARK    1  A    between atoms: N1_1  and  C1_5 
REMARK    2  A    between atoms: C1_5  and  C2_6 
REMARK    3  A    between atoms: C5_9  and  C6_10 
REMARK    4  A    between atoms: C6_10  and  O1_11 
REMARK    5  A    between atoms: C6_10  and  C7_13 
REMARK    6  A    between atoms: C7_13  and  N2_14 
REMARK    7  A    between atoms: N2_14  and  C8_16 
REMARK    8  A    between atoms: C8_16  and  C9_17 
REMARK    9  A    between atoms: C9_17  and  S1_18 
REMARK   10  A    between atoms: S1_18  and  C10_19 
ROOT
HETATM    1  C6  UNL     1      -5.634  10.014 -20.914  1.00  0.00     0.168 C 
ENDROOT
BRANCH   1   2
HETATM    2  C5  UNL     1      -6.955  10.332 -20.356  1.00  0.00    -0.028 A 
HETATM    3  C4  UNL     1      -7.974  10.668 -21.218  1.00  0.00     0.010 A 
HETATM    4  C3  UNL     1      -9.226  10.975 -20.753  1.00  0.00     0.009 A 
HETATM    5  C2  UNL     1      -9.515  10.958 -19.398  1.00  0.00    -0.033 A 
HETATM    6  C17 UNL     1      -8.475  10.618 -18.558  1.00  0.00     0.009 A 
HETATM    7  C16 UNL     1      -7.209  10.306 -19.007  1.00  0.00     0.010 A 
BRANCH   5   8
HETATM    8  C1  UNL     1     -10.846  11.276 -18.854  1.00  0.00     0.268 C 
BRANCH   8   9
HETATM    9  N1  UNL     1     -11.884  10.543 -19.551  1.00  0.00    -0.075 N 
ATOM     10  H13 UNL     1     -11.887  10.753 -20.549  1.00  0.00     0.274 HD
ATOM     11  H12 UNL     1     -11.670   9.546 -19.602  1.00  0.00     0.274 HD
ATOM     12  H11 UNL     1     -12.799  10.709 -19.130  1.00  0.00     0.274 HD
ENDBRANCH   8   9
ENDBRANCH   5   8
ENDBRANCH   1   2
BRANCH   1  13
HETATM   13  O1  UNL     1      -5.583   8.757 -21.478  1.00  0.00    -0.389 OA
ATOM     14  H1  UNL     1      -4.944   8.695 -22.177  1.00  0.00     0.210 HD
ENDBRANCH   1  13
BRANCH   1  15
HETATM   15  C7  UNL     1      -5.254  11.108 -21.911  1.00  0.00     0.150 C 
BRANCH  15  16
HETATM   16  N2  UNL     1      -4.442  12.053 -21.217  1.00  0.00    -0.418 N 
ATOM     17  H2  UNL     1      -3.567  11.783 -20.767  1.00  0.00     0.153 HD
BRANCH  16  18
HETATM   18  C8  UNL     1      -4.921  13.395 -21.186  1.00  0.00     0.124 C 
BRANCH  18  19
HETATM   19  C9  UNL     1      -5.500  13.704 -19.839  1.00  0.00     0.098 C 
BRANCH  19  20
HETATM   20  S1  UNL     1      -7.230  14.194 -19.894  1.00  0.00    -0.128 SA
BRANCH  20  21
HETATM   21  C10 UNL     1      -7.817  14.533 -18.240  1.00  0.00     0.000 A 
HETATM   22  C11 UNL     1      -9.091  14.284 -17.844  1.00  0.00     0.020 A 
HETATM   23  C12 UNL     1      -9.509  14.564 -16.541  1.00  0.00     0.025 A 
HETATM   24  C13 UNL     1      -8.653  15.103 -15.601  1.00  0.00     0.034 A 
HETATM   25 CL1  UNL     1      -9.156  15.460 -13.960  1.00  0.00    -0.084 Cl
HETATM   26  C14 UNL     1      -7.354  15.353 -16.022  1.00  0.00     0.025 A 
HETATM   27  C15 UNL     1      -6.934  15.080 -17.304  1.00  0.00     0.020 A 
ENDBRANCH  20  21
ENDBRANCH  19  20
ENDBRANCH  18  19
ENDBRANCH  16  18
ENDBRANCH  15  16
ENDBRANCH   1  15
TORSDOF 10
ENDMDL
MODEL 3
REMARK VINA RESULT: -6.198262750      2.474      3.539
REMARK  10 active torsions:
REMARK  status: ('A' for Active; 'I' for Inactive)
REMARK    1  A    between atoms: N1_1  and  C1_5 
REMARK    2  A    between atoms: C1_5  and  C2_6 
REMARK    3  A    between atoms: C5_9  and  C6_10 
REMARK    4  A    between atoms: C6_10  and  O1_11 
REMARK    5  A    between atoms: C6_10  and  C7_13 
REMARK    6  A    between atoms: C7_13  and  N2_14 
REMARK    7  A    between atoms: N2_14  and  C8_16 
REMARK    8  A    between atoms: C8_16  and  C9_17 
REMARK    9  A    between atoms: C9_17  and  S1_18 
REMARK   10  A    between atoms: S1_18  and  C10_19 
ROOT
HETATM    1  C6  UNL     1      -8.080  14.362 -20.556  1.00  0.00     0.168 C 
ENDROOT
BRANCH   1   2
HETATM    2  C5  UNL     1      -6.712  14.409 -20.022  1.00  0.00    -0.028 A 
HETATM    3  C4  UNL     1      -5.821  13.431 -20.400  1.00  0.00     0.010 A 
HETATM    4  C3  UNL     1      -4.532  13.425 -19.931  1.00  0.00     0.009 A 
HETATM    5  C2  UNL     1      -4.078  14.402 -19.062  1.00  0.00    -0.033 A 
HETATM    6  C17 UNL     1      -4.993  15.369 -18.701  1.00  0.00     0.009 A 
HETATM    7  C16 UNL     1      -6.293  15.393 -19.161  1.00  0.00     0.010 A 
BRANCH   5   8
HETATM    8  C1  UNL     1      -2.702  14.437 -18.537  1.00  0.00     0.268 C 
BRANCH   8   9
HETATM    9  N1  UNL     1      -2.532  13.489 -17.453  1.00  0.00    -0.075 N 
ATOM     10  H13 UNL     1      -3.411  13.314 -16.966  1.00  0.00     0.274 HD
ATOM     11  H12 UNL     1      -2.358  12.547 -17.803  1.00  0.00     0.274 HD
ATOM     12  H11 UNL     1      -1.800  13.793 -16.811  1.00  0.00     0.274 HD
ENDBRANCH   8   9
ENDBRANCH   5   8
ENDBRANCH   1   2
BRANCH   1  13
HETATM   13  O1  UNL     1      -8.446  15.534 -21.183  1.00  0.00    -0.389 OA
ATOM     14  H1  UNL     1      -9.110  16.014 -20.703  1.00  0.00     0.210 HD
ENDBRANCH   1  13
BRANCH   1  15
HETATM   15  C7  UNL     1      -8.198  13.152 -21.481  1.00  0.00     0.150 C 
BRANCH  15  16
HETATM   16  N2  UNL     1      -9.587  12.907 -21.687  1.00  0.00    -0.418 N 
ATOM     17  H2  UNL     1     -10.231  13.652 -21.950  1.00  0.00     0.153 HD
BRANCH  16  18
HETATM   18  C8  UNL     1     -10.024  11.562 -21.504  1.00  0.00     0.124 C 
BRANCH  18  19
HETATM   19  C9  UNL     1      -8.964  10.767 -20.805  1.00  0.00     0.098 C 
BRANCH  19  20
HETATM   20  S1  UNL     1      -9.358  10.389 -19.092  1.00  0.00    -0.128 SA
BRANCH  20  21
HETATM   21  C10 UNL     1      -8.943  11.783 -18.052  1.00  0.00     0.000 A 
HETATM   22  C11 UNL     1      -7.725  11.933 -17.473  1.00  0.00     0.020 A 
HETATM   23  C12 UNL     1      -7.442  13.038 -16.667  1.00  0.00     0.025 A 
HETATM   24  C13 UNL     1      -8.380  14.021 -16.423  1.00  0.00     0.034 A 
HETATM   25 CL1  UNL     1      -8.045  15.418 -15.416  1.00  0.00    -0.084 Cl
HETATM   26  C14 UNL     1      -9.621  13.852 -17.022  1.00  0.00     0.025 A 
HETATM   27  C15 UNL     1      -9.908  12.766 -17.818  1.00  0.00     0.020 A 
ENDBRANCH  20  21
ENDBRANCH  19  20
ENDBRANCH  18  19
ENDBRANCH  16  18
ENDBRANCH  15  16
ENDBRANCH   1  15
TORSDOF 10
ENDMDL
MODEL 4
REMARK VINA RESULT: -6.195484372      2.283      3.292
REMARK  10 active torsions:
REMARK  status: ('A' for Active; 'I' for Inactive)
REMARK    1  A    between atoms: N1_1  and  C1_5 
REMARK    2  A    between atoms: C1_5  and  C2_6 
REMARK    3  A    between atoms: C5_9  and  C6_10 
REMARK    4  A    between atoms: C6_10  and  O1_11 
REMARK    5  A    between atoms: C6_10  and  C7_13 
REMARK    6  A    between atoms: C7_13  and  N2_14 
REMARK    7  A    between atoms: N2_14  and  C8_16 
REMARK    8  A    between atoms: C8_16  and  C9_17 
REMARK    9  A    between atoms: C9_17  and  S1_18 
REMARK   10  A    between atoms: S1_18  and  C10_19 
ROOT
HETATM    1  C6  UNL     1      -5.263  13.548 -18.512  1.00  0.00     0.168 C 
ENDROOT
BRANCH   1   2
HETATM    2  C5  UNL     1      -6.315  13.767 -17.511  1.00  0.00    -0.028 A 
HETATM    3  C4  UNL     1      -6.648  15.059 -17.174  1.00  0.00     0.010 A 
HETATM    4  C3  UNL     1      -7.621  15.323 -16.244  1.00  0.00     0.009 A 
HETATM    5  C2  UNL     1      -8.307  14.300 -15.610  1.00  0.00    -0.033 A 
HETATM    6  C17 UNL     1      -7.952  13.017 -15.968  1.00  0.00     0.009 A 
HETATM    7  C16 UNL     1      -6.977  12.730 -16.900  1.00  0.00     0.010 A 
BRANCH   5   8
HETATM    8  C1  UNL     1      -9.361  14.537 -14.610  1.00  0.00     0.268 C 
BRANCH   8   9
HETATM    9  N1  UNL     1      -9.082  15.725 -13.828  1.00  0.00    -0.075 N 
ATOM     10  H13 UNL     1      -9.874  15.982 -13.238  1.00  0.00     0.274 HD
ATOM     11  H12 UNL     1      -8.396  15.541 -13.096  1.00  0.00     0.274 HD
ATOM     12  H11 UNL     1      -8.793  16.499 -14.427  1.00  0.00     0.274 HD
ENDBRANCH   8   9
ENDBRANCH   5   8
ENDBRANCH   1   2
BRANCH   1  13
HETATM   13  O1  UNL     1      -5.577  12.542 -19.401  1.00  0.00    -0.389 OA
ATOM     14  H1  UNL     1      -5.004  12.530 -20.158  1.00  0.00     0.210 HD
ENDBRANCH   1  13
BRANCH   1  15
HETATM   15  C7  UNL     1      -4.982  14.873 -19.219  1.00  0.00     0.150 C 
BRANCH  15  16
HETATM   16  N2  UNL     1      -4.721  14.578 -20.589  1.00  0.00    -0.418 N 
ATOM     17  H2  UNL     1      -4.262  13.714 -20.875  1.00  0.00     0.153 HD
BRANCH  16  18
HETATM   18  C8  UNL     1      -5.137  15.559 -21.536  1.00  0.00     0.124 C 
BRANCH  18  19
HETATM   19  C9  UNL     1      -5.983  16.598 -20.864  1.00  0.00     0.098 C 
BRANCH  19  20
HETATM   20  S1  UNL     1      -7.712  16.547 -21.353  1.00  0.00    -0.128 SA
BRANCH  20  21
HETATM   21  C10 UNL     1      -8.548  15.221 -20.493  1.00  0.00     0.000 A 
HETATM   22  C11 UNL     1      -8.316  13.910 -20.756  1.00  0.00     0.020 A 
HETATM   23  C12 UNL     1      -8.991  12.905 -20.060  1.00  0.00     0.025 A 
HETATM   24  C13 UNL     1      -9.919  13.195 -19.080  1.00  0.00     0.034 A 
HETATM   25 CL1  UNL     1     -10.776  11.949 -18.192  1.00  0.00    -0.084 Cl
HETATM   26  C14 UNL     1     -10.146  14.540 -18.823  1.00  0.00     0.025 A 
HETATM   27  C15 UNL     1      -9.484  15.537 -19.505  1.00  0.00     0.020 A 
ENDBRANCH  20  21
ENDBRANCH  19  20
ENDBRANCH  18  19
ENDBRANCH  16  18
ENDBRANCH  15  16
ENDBRANCH   1  15
TORSDOF 10
ENDMDL
MODEL 5
REMARK VINA RESULT: -6.181296729      2.474      3.681
REMARK  10 active torsions:
REMARK  status: ('A' for Active; 'I' for Inactive)
REMARK    1  A    between atoms: N1_1  and  C1_5 
REMARK    2  A    between atoms: C1_5  and  C2_6 
REMARK    3  A    between atoms: C5_9  and  C6_10 
REMARK    4  A    between atoms: C6_10  and  O1_11 
REMARK    5  A    between atoms: C6_10  and  C7_13 
REMARK    6  A    between atoms: C7_13  and  N2_14 
REMARK    7  A    between atoms: N2_14  and  C8_16 
REMARK    8  A    between atoms: C8_16  and  C9_17 
REMARK    9  A    between atoms: C9_17  and  S1_18 
REMARK   10  A    between atoms: S1_18  and  C10_19 
ROOT
HETATM    1  C6  UNL     1      -8.098  14.372 -20.547  1.00  0.00     0.168 C 
ENDROOT
BRANCH   1   2
HETATM    2  C5  UNL     1      -6.724  14.415 -20.029  1.00  0.00    -0.028 A 
HETATM    3  C4  UNL     1      -5.864  13.391 -20.350  1.00  0.00     0.010 A 
HETATM    4  C3  UNL     1      -4.571  13.378 -19.893  1.00  0.00     0.009 A 
HETATM    5  C2  UNL     1      -4.082  14.397 -19.091  1.00  0.00    -0.033 A 
HETATM    6  C17 UNL     1      -4.966  15.409 -18.786  1.00  0.00     0.009 A 
HETATM    7  C16 UNL     1      -6.270  15.440 -19.236  1.00  0.00     0.010 A 
BRANCH   5   8
HETATM    8  C1  UNL     1      -2.700  14.427 -18.581  1.00  0.00     0.268 C 
BRANCH   8   9
HETATM    9  N1  UNL     1      -2.528  13.495 -17.484  1.00  0.00    -0.075 N 
ATOM     10  H13 UNL     1      -3.290  13.565 -16.809  1.00  0.00     0.274 HD
ATOM     11  H12 UNL     1      -2.675  12.531 -17.784  1.00  0.00     0.274 HD
ATOM     12  H11 UNL     1      -1.619  13.616 -17.038  1.00  0.00     0.274 HD
ENDBRANCH   8   9
ENDBRANCH   5   8
ENDBRANCH   1   2
BRANCH   1  13
HETATM   13  O1  UNL     1      -8.461  15.538 -21.186  1.00  0.00    -0.389 OA
ATOM     14  H1  UNL     1      -7.713  16.030 -21.503  1.00  0.00     0.210 HD
ENDBRANCH   1  13
BRANCH   1  15
HETATM   15  C7  UNL     1      -8.235  13.151 -21.455  1.00  0.00     0.150 C 
BRANCH  15  16
HETATM   16  N2  UNL     1      -9.629  12.916 -21.645  1.00  0.00    -0.418 N 
ATOM     17  H2  UNL     1     -10.280  13.675 -21.845  1.00  0.00     0.153 HD
BRANCH  16  18
HETATM   18  C8  UNL     1     -10.061  11.562 -21.540  1.00  0.00     0.124 C 
BRANCH  18  19
HETATM   19  C9  UNL     1      -9.054  10.758 -20.773  1.00  0.00     0.098 C 
BRANCH  19  20
HETATM   20  S1  UNL     1      -9.529  10.448 -19.067  1.00  0.00    -0.128 SA
BRANCH  20  21
HETATM   21  C10 UNL     1      -9.107  11.859 -18.054  1.00  0.00     0.000 A 
HETATM   22  C11 UNL     1      -9.981  12.863 -17.786  1.00  0.00     0.020 A 
HETATM   23  C12 UNL     1      -9.611  13.948 -16.990  1.00  0.00     0.025 A 
HETATM   24  C13 UNL     1      -8.348  14.051 -16.440  1.00  0.00     0.034 A 
HETATM   25 CL1  UNL     1      -7.863  15.404 -15.435  1.00  0.00    -0.084 Cl
HETATM   26  C14 UNL     1      -7.466  13.018 -16.723  1.00  0.00     0.025 A 
HETATM   27  C15 UNL     1      -7.823  11.944 -17.508  1.00  0.00     0.020 A 
ENDBRANCH  20  21
ENDBRANCH  19  20
ENDBRANCH  18  19
ENDBRANCH  16  18
ENDBRANCH  15  16
ENDBRANCH   1  15
TORSDOF 10
ENDMDL
