MODEL 1
REMARK VINA RESULT: -7.122196000      0.000      0.000
REMARK  10 active torsions:
REMARK  status: ('A' for Active; 'I' for Inactive)
REMARK    1  A    between atoms: N1_1  and  C1_5 
REMARK    2  A    between atoms: C3_7  and  O1_8 
REMARK    3  A    between atoms: N2_11  and  C5_12 
REMARK    4  A    between atoms: C5_12  and  C6_13 
REMARK    5  A    between atoms: C6_13  and  C7_14 
REMARK    6  A    between atoms: C7_14  and  C8_15 
REMARK    7  A    between atoms: C8_15  and  C9_16 
REMARK    8  A    between atoms: C9_16  and  C10_17 
REMARK    9  A    between atoms: C10_17  and  N3_18 
REMARK   10  A    between atoms: N3_18  and  C11_20 
ROOT
HETATM    1  C6  UNL     1     -10.354  13.310 -18.240  1.00  0.00     0.044 C 
ENDROOT
BRANCH   1   2
HETATM    2  C5  UNL     1     -10.648  11.897 -18.659  1.00  0.00     0.058 C 
BRANCH   2   3
HETATM    3  N2  UNL     1      -9.749  11.350 -19.589  1.00  0.00    -0.389 N 
HETATM    4  C4  UNL     1     -10.285  10.799 -20.783  1.00  0.00     0.153 C 
HETATM    5  C3  UNL     1      -9.310  11.212 -21.895  1.00  0.00     0.138 C 
HETATM    6  C2  UNL     1      -7.896  11.175 -21.480  1.00  0.00     0.067 C 
HETATM    7  C1  UNL     1      -7.578  10.508 -20.192  1.00  0.00     0.203 C 
HETATM    8  C17 UNL     1      -8.586  10.700 -19.100  1.00  0.00     0.154 C 
BRANCH   5   9
HETATM    9  O1  UNL     1      -9.696  12.533 -22.232  1.00  0.00    -0.394 OA
ATOM     10  H1  UNL     1     -10.478  12.785 -21.755  1.00  0.00     0.210 HD
ENDBRANCH   5   9
BRANCH   7  11
HETATM   11  N1  UNL     1      -6.313  11.056 -19.712  1.00  0.00    -0.073 N 
ATOM     12  H13 UNL     1      -6.022  11.889 -20.224  1.00  0.00     0.274 HD
ATOM     13  H12 UNL     1      -6.390  11.485 -18.791  1.00  0.00     0.274 HD
ATOM     14  H11 UNL     1      -5.622  10.308 -19.745  1.00  0.00     0.274 HD
ENDBRANCH   7  11
ENDBRANCH   2   3
ENDBRANCH   1   2
BRANCH   1  15
HETATM   15  C7  UNL     1     -10.537  14.277 -19.380  1.00  0.00     0.005 C 
BRANCH  15  16
HETATM   16  C8  UNL     1      -9.409  15.260 -19.456  1.00  0.00     0.002 C 
BRANCH  16  17
HETATM   17  C9  UNL     1      -8.110  14.615 -19.859  1.00  0.00     0.020 C 
BRANCH  17  18
HETATM   18  C10 UNL     1      -6.924  15.396 -19.300  1.00  0.00     0.119 C 
BRANCH  18  19
HETATM   19  N3  UNL     1      -6.295  14.718 -18.198  1.00  0.00    -0.390 N 
ATOM     20  H3  UNL     1      -5.284  14.585 -18.223  1.00  0.00     0.159 HD
BRANCH  19  21
HETATM   21  C11 UNL     1      -7.013  14.229 -17.081  1.00  0.00     0.029 A 
HETATM   22  C12 UNL     1      -7.127  12.897 -16.750  1.00  0.00     0.029 A 
HETATM   23  C13 UNL     1      -7.831  12.480 -15.632  1.00  0.00     0.004 A 
HETATM   24  C14 UNL     1      -8.454  13.380 -14.795  1.00  0.00     0.024 A 
HETATM   25  C15 UNL     1      -8.351  14.718 -15.113  1.00  0.00     0.036 A 
HETATM   26 CL1  UNL     1      -9.140  15.871 -14.051  1.00  0.00    -0.084 Cl
HETATM   27  C16 UNL     1      -7.651  15.132 -16.222  1.00  0.00     0.052 A 
ENDBRANCH  19  21
ENDBRANCH  18  19
ENDBRANCH  17  18
ENDBRANCH  16  17
ENDBRANCH  15  16
ENDBRANCH   1  15
TORSDOF 10
ENDMDL
MODEL 2
REMARK VINA RESULT: -6.830667497      1.790      2.871
REMARK  10 active torsions:
REMARK  status: ('A' for Active; 'I' for Inactive)
REMARK    1  A    between atoms: N1_1  and  C1_5 
REMARK    2  A    between atoms: C3_7  and  O1_8 
REMARK    3  A    between atoms: N2_11  and  C5_12 
REMARK    4  A    between atoms: C5_12  and  C6_13 
REMARK    5  A    between atoms: C6_13  and  C7_14 
REMARK    6  A    between atoms: C7_14  and  C8_15 
REMARK    7  A    between atoms: C8_15  and  C9_16 
REMARK    8  A    between atoms: C9_16  and  C10_17 
REMARK    9  A    between atoms: C10_17  and  N3_18 
REMARK   10  A    between atoms: N3_18  and  C11_20 
ROOT
HETATM    1  C6  UNL     1      -6.804  10.961 -20.266  1.00  0.00     0.044 C 
ENDROOT
BRANCH   1   2
HETATM    2  C5  UNL     1      -7.704  10.957 -21.470  1.00  0.00     0.058 C 
BRANCH   2   3
HETATM    3  N2  UNL     1      -9.079  10.916 -21.188  1.00  0.00    -0.389 N 
HETATM    4  C4  UNL     1      -9.979  11.256 -22.233  1.00  0.00     0.153 C 
HETATM    5  C3  UNL     1     -11.148  10.268 -22.100  1.00  0.00     0.138 C 
HETATM    6  C2  UNL     1     -11.511   9.973 -20.703  1.00  0.00     0.067 C 
HETATM    7  C1  UNL     1     -10.923  10.834 -19.646  1.00  0.00     0.203 C 
HETATM    8  C17 UNL     1      -9.512  11.276 -19.885  1.00  0.00     0.154 C 
BRANCH   5   9
HETATM    9  O1  UNL     1     -10.698   9.096 -22.757  1.00  0.00    -0.394 OA
ATOM     10  H1  UNL     1      -9.821   9.222 -23.101  1.00  0.00     0.210 HD
ENDBRANCH   5   9
BRANCH   7  11
HETATM   11  N1  UNL     1     -10.930  10.071 -18.402  1.00  0.00    -0.073 N 
ATOM     12  H13 UNL     1     -11.596  10.431 -17.719  1.00  0.00     0.274 HD
ATOM     13  H12 UNL     1     -11.336   9.142 -18.508  1.00  0.00     0.274 HD
ATOM     14  H11 UNL     1      -9.973  10.048 -18.050  1.00  0.00     0.274 HD
ENDBRANCH   7  11
ENDBRANCH   2   3
ENDBRANCH   1   2
BRANCH   1  15
HETATM   15  C7  UNL     1      -5.535  11.730 -20.524  1.00  0.00     0.005 C 
BRANCH  15  16
HETATM   16  C8  UNL     1      -5.766  13.209 -20.471  1.00  0.00     0.002 C 
BRANCH  16  17
HETATM   17  C9  UNL     1      -4.832  13.903 -19.516  1.00  0.00     0.020 C 
BRANCH  17  18
HETATM   18  C10 UNL     1      -5.534  15.071 -18.828  1.00  0.00     0.119 C 
BRANCH  18  19
HETATM   19  N3  UNL     1      -6.929  14.808 -18.595  1.00  0.00    -0.390 N 
ATOM     20  H3  UNL     1      -7.592  15.001 -19.346  1.00  0.00     0.159 HD
BRANCH  19  21
HETATM   21  C11 UNL     1      -7.425  14.294 -17.373  1.00  0.00     0.029 A 
HETATM   22  C12 UNL     1      -7.445  12.958 -17.040  1.00  0.00     0.029 A 
HETATM   23  C13 UNL     1      -7.928  12.517 -15.818  1.00  0.00     0.004 A 
HETATM   24  C14 UNL     1      -8.415  13.395 -14.876  1.00  0.00     0.024 A 
HETATM   25  C15 UNL     1      -8.404  14.737 -15.194  1.00  0.00     0.036 A 
HETATM   26 CL1  UNL     1      -9.022  15.864 -13.998  1.00  0.00    -0.084 Cl
HETATM   27  C16 UNL     1      -7.924  15.175 -16.406  1.00  0.00     0.052 A 
ENDBRANCH  19  21
ENDBRANCH  18  19
ENDBRANCH  17  18
ENDBRANCH  16  17
ENDBRANCH  15  16
ENDBRANCH   1  15
TORSDOF 10
ENDMDL
MODEL 3
REMARK VINA RESULT: -6.779537591      1.423      2.218
REMARK  10 active torsions:
REMARK  status: ('A' for Active; 'I' for Inactive)
REMARK    1  A    between atoms: N1_1  and  C1_5 
REMARK    2  A    between atoms: C3_7  and  O1_8 
REMARK    3  A    between atoms: N2_11  and  C5_12 
REMARK    4  A    between atoms: C5_12  and  C6_13 
REMARK    5  A    between atoms: C6_13  and  C7_14 
REMARK    6  A    between atoms: C7_14  and  C8_15 
REMARK    7  A    between atoms: C8_15  and  C9_16 
REMARK    8  A    between atoms: C9_16  and  C10_17 
REMARK    9  A    between atoms: C10_17  and  N3_18 
REMARK   10  A    between atoms: N3_18  and  C11_20 
ROOT
HETATM    1  C6  UNL     1     -10.388  12.334 -18.330  1.00  0.00     0.044 C 
ENDROOT
BRANCH   1   2
HETATM    2  C5  UNL     1      -9.530  11.907 -19.488  1.00  0.00     0.058 C 
BRANCH   2   3
HETATM    3  N2  UNL     1     -10.223  11.319 -20.560  1.00  0.00    -0.389 N 
HETATM    4  C4  UNL     1     -10.056  11.892 -21.849  1.00  0.00     0.153 C 
HETATM    5  C3  UNL     1      -9.982  10.701 -22.816  1.00  0.00     0.138 C 
HETATM    6  C2  UNL     1     -10.900   9.602 -22.466  1.00  0.00     0.067 C 
HETATM    7  C1  UNL     1     -11.935   9.877 -21.438  1.00  0.00     0.203 C 
HETATM    8  C17 UNL     1     -11.507  10.768 -20.312  1.00  0.00     0.154 C 
BRANCH   5   9
HETATM    9  O1  UNL     1      -8.635  10.268 -22.742  1.00  0.00    -0.394 OA
ATOM     10  H1  UNL     1      -8.100  10.728 -23.379  1.00  0.00     0.210 HD
ENDBRANCH   5   9
BRANCH   7  11
HETATM   11  N1  UNL     1     -12.324   8.598 -20.851  1.00  0.00    -0.073 N 
ATOM     12  H13 UNL     1     -12.504   7.879 -21.551  1.00  0.00     0.274 HD
ATOM     13  H12 UNL     1     -11.554   8.130 -20.373  1.00  0.00     0.274 HD
ATOM     14  H11 UNL     1     -13.123   8.769 -20.241  1.00  0.00     0.274 HD
ENDBRANCH   7  11
ENDBRANCH   2   3
ENDBRANCH   1   2
BRANCH   1  15
HETATM   15  C7  UNL     1     -10.538  13.831 -18.272  1.00  0.00     0.005 C 
BRANCH  15  16
HETATM   16  C8  UNL     1     -10.057  14.483 -19.532  1.00  0.00     0.002 C 
BRANCH  16  17
HETATM   17  C9  UNL     1      -9.081  15.598 -19.267  1.00  0.00     0.020 C 
BRANCH  17  18
HETATM   18  C10 UNL     1      -7.644  15.103 -19.417  1.00  0.00     0.119 C 
BRANCH  18  19
HETATM   19  N3  UNL     1      -6.931  15.113 -18.168  1.00  0.00    -0.390 N 
ATOM     20  H3  UNL     1      -6.033  15.595 -18.125  1.00  0.00     0.159 HD
BRANCH  19  21
HETATM   21  C11 UNL     1      -7.416  14.487 -16.995  1.00  0.00     0.029 A 
HETATM   22  C12 UNL     1      -7.332  13.137 -16.741  1.00  0.00     0.029 A 
HETATM   23  C13 UNL     1      -7.812  12.583 -15.564  1.00  0.00     0.004 A 
HETATM   24  C14 UNL     1      -8.399  13.360 -14.589  1.00  0.00     0.024 A 
HETATM   25  C15 UNL     1      -8.493  14.714 -14.829  1.00  0.00     0.036 A 
HETATM   26 CL1  UNL     1      -9.238  15.711 -13.591  1.00  0.00    -0.084 Cl
HETATM   27  C16 UNL     1      -8.016  15.264 -15.996  1.00  0.00     0.052 A 
ENDBRANCH  19  21
ENDBRANCH  18  19
ENDBRANCH  17  18
ENDBRANCH  16  17
ENDBRANCH  15  16
ENDBRANCH   1  15
TORSDOF 10
ENDMDL
MODEL 4
REMARK VINA RESULT: -6.747212113      1.822      3.108
REMARK  10 active torsions:
REMARK  status: ('A' for Active; 'I' for Inactive)
REMARK    1  A    between atoms: N1_1  and  C1_5 
REMARK    2  A    between atoms: C3_7  and  O1_8 
REMARK    3  A    between atoms: N2_11  and  C5_12 
REMARK    4  A    between atoms: C5_12  and  C6_13 
REMARK    5  A    between atoms: C6_13  and  C7_14 
REMARK    6  A    between atoms: C7_14  and  C8_15 
REMARK    7  A    between atoms: C8_15  and  C9_16 
REMARK    8  A    between atoms: C9_16  and  C10_17 
REMARK    9  A    between atoms: C10_17  and  N3_18 
REMARK   10  A    between atoms: N3_18  and  C11_20 
ROOT
HETATM    1  C6  UNL     1      -6.695  12.178 -21.465  1.00  0.00     0.044 C 
ENDROOT
BRANCH   1   2
HETATM    2  C5  UNL     1      -7.838  13.022 -20.976  1.00  0.00     0.058 C 
BRANCH   2   3
HETATM    3  N2  UNL     1      -8.806  12.337 -20.222  1.00  0.00    -0.389 N 
HETATM    4  C4  UNL     1      -9.086  10.989 -20.573  1.00  0.00     0.153 C 
HETATM    5  C3  UNL     1      -9.266  10.251 -19.239  1.00  0.00     0.138 C 
HETATM    6  C2  UNL     1      -9.970  11.047 -18.217  1.00  0.00     0.067 C 
HETATM    7  C1  UNL     1     -10.637  12.297 -18.663  1.00  0.00     0.203 C 
HETATM    8  C17 UNL     1      -9.916  13.069 -19.726  1.00  0.00     0.154 C 
BRANCH   5   9
HETATM    9  O1  UNL     1      -7.946   9.955 -18.817  1.00  0.00    -0.394 OA
ATOM     10  H1  UNL     1      -7.943   9.209 -18.228  1.00  0.00     0.210 HD
ENDBRANCH   5   9
BRANCH   7  11
HETATM   11  N1  UNL     1     -10.755  13.172 -17.501  1.00  0.00    -0.073 N 
ATOM     12  H13 UNL     1     -11.629  13.040 -16.993  1.00  0.00     0.274 HD
ATOM     13  H12 UNL     1     -10.121  12.916 -16.745  1.00  0.00     0.274 HD
ATOM     14  H11 UNL     1     -10.623  14.130 -17.822  1.00  0.00     0.274 HD
ENDBRANCH   7  11
ENDBRANCH   2   3
ENDBRANCH   1   2
BRANCH   1  15
HETATM   15  C7  UNL     1      -5.471  12.349 -20.603  1.00  0.00     0.005 C 
BRANCH  15  16
HETATM   16  C8  UNL     1      -5.050  13.785 -20.522  1.00  0.00     0.002 C 
BRANCH  16  17
HETATM   17  C9  UNL     1      -4.318  14.097 -19.244  1.00  0.00     0.020 C 
BRANCH  17  18
HETATM   18  C10 UNL     1      -5.033  15.201 -18.469  1.00  0.00     0.119 C 
BRANCH  18  19
HETATM   19  N3  UNL     1      -6.450  14.974 -18.379  1.00  0.00    -0.390 N 
ATOM     20  H3  UNL     1      -7.040  15.266 -19.158  1.00  0.00     0.159 HD
BRANCH  19  21
HETATM   21  C11 UNL     1      -7.065  14.364 -17.259  1.00  0.00     0.029 A 
HETATM   22  C12 UNL     1      -7.058  13.011 -17.007  1.00  0.00     0.029 A 
HETATM   23  C13 UNL     1      -7.665  12.474 -15.882  1.00  0.00     0.004 A 
HETATM   24  C14 UNL     1      -8.307  13.271 -14.959  1.00  0.00     0.024 A 
HETATM   25  C15 UNL     1      -8.324  14.629 -15.198  1.00  0.00     0.036 A 
HETATM   26 CL1  UNL     1      -9.138  15.652 -14.026  1.00  0.00    -0.084 Cl
HETATM   27  C16 UNL     1      -7.721  15.162 -16.314  1.00  0.00     0.052 A 
ENDBRANCH  19  21
ENDBRANCH  18  19
ENDBRANCH  17  18
ENDBRANCH  16  17
ENDBRANCH  15  16
ENDBRANCH   1  15
TORSDOF 10
ENDMDL
MODEL 5
REMARK VINA RESULT: -6.628705789      2.831      4.614
REMARK  10 active torsions:
REMARK  status: ('A' for Active; 'I' for Inactive)
REMARK    1  A    between atoms: N1_1  and  C1_5 
REMARK    2  A    between atoms: C3_7  and  O1_8 
REMARK    3  A    between atoms: N2_11  and  C5_12 
REMARK    4  A    between atoms: C5_12  and  C6_13 
REMARK    5  A    between atoms: C6_13  and  C7_14 
REMARK    6  A    between atoms: C7_14  and  C8_15 
REMARK    7  A    between atoms: C8_15  and  C9_16 
REMARK    8  A    between atoms: C9_16  and  C10_17 
REMARK    9  A    between atoms: C10_17  and  N3_18 
REMARK   10  A    between atoms: N3_18  and  C11_20 
ROOT
HETATM    1  C6  UNL     1      -6.830  12.492 -17.333  1.00  0.00     0.044 C 
ENDROOT
BRANCH   1   2
HETATM    2  C5  UNL     1      -7.226  11.326 -18.194  1.00  0.00     0.058 C 
BRANCH   2   3
HETATM    3  N2  UNL     1      -6.668  11.318 -19.483  1.00  0.00    -0.389 N 
HETATM    4  C4  UNL     1      -6.527  12.564 -20.150  1.00  0.00     0.153 C 
HETATM    5  C3  UNL     1      -5.173  12.488 -20.871  1.00  0.00     0.138 C 
HETATM    6  C2  UNL     1      -4.886  11.159 -21.442  1.00  0.00     0.067 C 
HETATM    7  C1  UNL     1      -6.002  10.182 -21.495  1.00  0.00     0.203 C 
HETATM    8  C17 UNL     1      -6.944  10.214 -20.331  1.00  0.00     0.154 C 
BRANCH   5   9
HETATM    9  O1  UNL     1      -4.222  12.818 -19.875  1.00  0.00    -0.394 OA
ATOM     10  H1  UNL     1      -3.648  12.080 -19.702  1.00  0.00     0.210 HD
ENDBRANCH   5   9
BRANCH   7  11
HETATM   11  N1  UNL     1      -5.416   8.846 -21.538  1.00  0.00    -0.073 N 
ATOM     12  H13 UNL     1      -6.079   8.113 -21.288  1.00  0.00     0.274 HD
ATOM     13  H12 UNL     1      -5.217   8.529 -22.486  1.00  0.00     0.274 HD
ATOM     14  H11 UNL     1      -4.589   8.854 -20.941  1.00  0.00     0.274 HD
ENDBRANCH   7  11
ENDBRANCH   2   3
ENDBRANCH   1   2
BRANCH   1  15
HETATM   15  C7  UNL     1      -6.977  12.177 -15.868  1.00  0.00     0.005 C 
BRANCH  15  16
HETATM   16  C8  UNL     1      -8.088  12.965 -15.243  1.00  0.00     0.002 C 
BRANCH  16  17
HETATM   17  C9  UNL     1      -8.101  14.400 -15.697  1.00  0.00     0.020 C 
BRANCH  17  18
HETATM   18  C10 UNL     1      -9.513  14.830 -16.086  1.00  0.00     0.119 C 
BRANCH  18  19
HETATM   19  N3  UNL     1     -10.305  13.729 -16.567  1.00  0.00    -0.390 N 
ATOM     20  H3  UNL     1     -10.898  13.231 -15.904  1.00  0.00     0.159 HD
BRANCH  19  21
HETATM   21  C11 UNL     1     -10.299  13.306 -17.918  1.00  0.00     0.029 A 
HETATM   22  C12 UNL     1      -9.921  14.095 -18.981  1.00  0.00     0.029 A 
HETATM   23  C13 UNL     1      -9.922  13.618 -20.282  1.00  0.00     0.004 A 
HETATM   24  C14 UNL     1     -10.303  12.327 -20.576  1.00  0.00     0.024 A 
HETATM   25  C15 UNL     1     -10.686  11.524 -19.523  1.00  0.00     0.036 A 
HETATM   26 CL1  UNL     1     -11.171   9.877 -19.889  1.00  0.00    -0.084 Cl
HETATM   27  C16 UNL     1     -10.685  11.997 -18.231  1.00  0.00     0.052 A 
ENDBRANCH  19  21
ENDBRANCH  18  19
ENDBRANCH  17  18
ENDBRANCH  16  17
ENDBRANCH  15  16
ENDBRANCH   1  15
TORSDOF 10
ENDMDL
