MODEL 1
REMARK VINA RESULT: -7.002643711      0.000      0.000
REMARK  10 active torsions:
REMARK  status: ('A' for Active; 'I' for Inactive)
REMARK    1  A    between atoms: N1_1  and  C1_4 
REMARK    2  A    between atoms: C3_11  and  C4_12 
REMARK    3  A    between atoms: C4_12  and  C5_13 
REMARK    4  A    between atoms: C5_13  and  C6_14 
REMARK    5  A    between atoms: C6_14  and  C7_15 
REMARK    6  A    between atoms: C7_15  and  C8_16 
REMARK    7  A    between atoms: C8_16  and  C9_17 
REMARK    8  A    between atoms: C9_17  and  S1_18 
REMARK    9  A    between atoms: S1_18  and  C10_19 
REMARK   10  A    between atoms: C11_22  and  O1_23 
ROOT
HETATM    1  C5  UNL     1      -9.795  14.315 -18.987  1.00  0.00    -0.023 C 
ENDROOT
BRANCH   1   2
HETATM    2  C4  UNL     1      -9.434  13.807 -20.304  1.00  0.00     0.045 C 
BRANCH   2   3
HETATM    3  C3  UNL     1      -9.809  12.492 -20.772  1.00  0.00     0.122 A 
HETATM    4  N4  UNL     1      -9.824  12.088 -22.060  1.00  0.00    -0.316 N 
HETATM    5  C2  UNL     1     -10.177  10.860 -22.468  1.00  0.00     0.208 A 
ATOM      6  H4  UNL     1      -9.548  12.763 -22.773  1.00  0.00     0.170 HD
HETATM    7  N2  UNL     1     -10.548   9.952 -21.524  1.00  0.00    -0.164 N 
HETATM    8  N3  UNL     1     -10.180  10.469 -23.833  1.00  0.00    -0.063 NA
HETATM    9  C1  UNL     1     -10.541  10.331 -20.245  1.00  0.00     0.679 A 
ATOM     10  H2  UNL     1     -10.823   9.005 -21.788  1.00  0.00     0.187 HD
HETATM   11  N7  UNL     1     -10.183  11.567 -19.863  1.00  0.00    -0.177 N 
ATOM     12  H7  UNL     1     -10.194  11.811 -18.873  1.00  0.00     0.185 HD
BRANCH   9  13
HETATM   13  N1  UNL     1     -10.887   9.506 -19.291  1.00  0.00    -0.234 N 
ATOM     14  H12 UNL     1     -10.438   8.590 -19.299  1.00  0.00     0.174 HD
ATOM     15  H11 UNL     1     -11.570   9.773 -18.582  1.00  0.00     0.174 HD
ENDBRANCH   9  13
ENDBRANCH   2   3
ENDBRANCH   1   2
BRANCH   1  16
HETATM   16  C6  UNL     1      -9.102  15.430 -18.322  1.00  0.00     0.027 C 
BRANCH  16  17
HETATM   17  C7  UNL     1      -8.652  15.170 -16.946  1.00  0.00     0.004 C 
BRANCH  17  18
HETATM   18  C8  UNL     1      -7.126  15.178 -16.820  1.00  0.00     0.011 C 
BRANCH  18  19
HETATM   19  C9  UNL     1      -6.463  15.415 -18.136  1.00  0.00     0.082 C 
BRANCH  19  20
HETATM   20  S1  UNL     1      -5.008  14.345 -18.329  1.00  0.00    -0.094 SA
BRANCH  20  21
HETATM   21  C10 UNL     1      -5.553  12.791 -19.013  1.00  0.00     0.147 A 
HETATM   22  N5  UNL     1      -6.536  12.043 -18.485  1.00  0.00    -0.315 N 
HETATM   23  C11 UNL     1      -6.706  10.935 -19.233  1.00  0.00     0.181 A 
ATOM     24  H5  UNL     1      -7.070  12.278 -17.647  1.00  0.00     0.170 HD
HETATM   25  C12 UNL     1      -5.800  10.993 -20.261  1.00  0.00     0.156 A 
HETATM   26 CL1  UNL     1      -5.615   9.793 -21.509  1.00  0.00    -0.060 Cl
HETATM   27  N6  UNL     1      -5.106  12.127 -20.114  1.00  0.00    -0.324 N 
ATOM     28  H6  UNL     1      -4.359  12.445 -20.731  1.00  0.00     0.169 HD
BRANCH  23  29
HETATM   29  O1  UNL     1      -7.625   9.928 -19.003  1.00  0.00    -0.344 OA
ATOM     30  H1  UNL     1      -8.443   9.799 -19.467  1.00  0.00     0.219 HD
ENDBRANCH  23  29
ENDBRANCH  20  21
ENDBRANCH  19  20
ENDBRANCH  18  19
ENDBRANCH  17  18
ENDBRANCH  16  17
ENDBRANCH   1  16
TORSDOF 10
ENDMDL
MODEL 2
REMARK VINA RESULT: -6.991204805      1.736      2.534
REMARK  10 active torsions:
REMARK  status: ('A' for Active; 'I' for Inactive)
REMARK    1  A    between atoms: N1_1  and  C1_4 
REMARK    2  A    between atoms: C3_11  and  C4_12 
REMARK    3  A    between atoms: C4_12  and  C5_13 
REMARK    4  A    between atoms: C5_13  and  C6_14 
REMARK    5  A    between atoms: C6_14  and  C7_15 
REMARK    6  A    between atoms: C7_15  and  C8_16 
REMARK    7  A    between atoms: C8_16  and  C9_17 
REMARK    8  A    between atoms: C9_17  and  S1_18 
REMARK    9  A    between atoms: S1_18  and  C10_19 
REMARK   10  A    between atoms: C11_22  and  O1_23 
ROOT
HETATM    1  C5  UNL     1      -9.791  12.294 -17.985  1.00  0.00    -0.023 C 
ENDROOT
BRANCH   1   2
HETATM    2  C4  UNL     1      -9.858  10.885 -18.348  1.00  0.00     0.045 C 
BRANCH   2   3
HETATM    3  C3  UNL     1     -10.375  10.419 -19.614  1.00  0.00     0.122 A 
HETATM    4  N4  UNL     1     -11.420   9.579 -19.779  1.00  0.00    -0.316 N 
HETATM    5  C2  UNL     1     -11.879   9.163 -20.968  1.00  0.00     0.208 A 
ATOM      6  H4  UNL     1     -11.892   9.238 -18.942  1.00  0.00     0.170 HD
HETATM    7  N2  UNL     1     -11.255   9.612 -22.092  1.00  0.00    -0.164 N 
HETATM    8  N3  UNL     1     -12.982   8.279 -21.104  1.00  0.00    -0.063 NA
HETATM    9  C1  UNL     1     -10.220  10.442 -21.950  1.00  0.00     0.679 A 
ATOM     10  H2  UNL     1     -11.571   9.321 -23.017  1.00  0.00     0.187 HD
HETATM   11  N7  UNL     1      -9.780  10.844 -20.748  1.00  0.00    -0.177 N 
ATOM     12  H7  UNL     1      -8.984  11.480 -20.691  1.00  0.00     0.185 HD
BRANCH   9  13
HETATM   13  N1  UNL     1      -9.578  10.908 -22.991  1.00  0.00    -0.234 N 
ATOM     14  H12 UNL     1      -9.931  11.779 -23.387  1.00  0.00     0.174 HD
ATOM     15  H11 UNL     1      -8.770  10.419 -23.376  1.00  0.00     0.174 HD
ENDBRANCH   9  13
ENDBRANCH   2   3
ENDBRANCH   1   2
BRANCH   1  16
HETATM   16  C6  UNL     1      -9.124  12.798 -16.774  1.00  0.00     0.027 C 
BRANCH  16  17
HETATM   17  C7  UNL     1      -9.413  14.196 -16.423  1.00  0.00     0.004 C 
BRANCH  17  18
HETATM   18  C8  UNL     1      -8.493  15.182 -17.149  1.00  0.00     0.011 C 
BRANCH  18  19
HETATM   19  C9  UNL     1      -7.152  15.268 -16.502  1.00  0.00     0.082 C 
BRANCH  19  20
HETATM   20  S1  UNL     1      -5.828  15.152 -17.739  1.00  0.00    -0.094 SA
BRANCH  20  21
HETATM   21  C10 UNL     1      -6.180  13.759 -18.796  1.00  0.00     0.147 A 
HETATM   22  N5  UNL     1      -6.619  13.871 -20.061  1.00  0.00    -0.315 N 
HETATM   23  C11 UNL     1      -6.788  12.641 -20.586  1.00  0.00     0.181 A 
ATOM     24  H5  UNL     1      -6.797  14.750 -20.548  1.00  0.00     0.170 HD
HETATM   25  C12 UNL     1      -6.445  11.732 -19.617  1.00  0.00     0.156 A 
HETATM   26 CL1  UNL     1      -6.491  10.001 -19.799  1.00  0.00    -0.060 Cl
HETATM   27  N6  UNL     1      -6.077  12.428 -18.535  1.00  0.00    -0.324 N 
ATOM     28  H6  UNL     1      -5.767  12.022 -17.652  1.00  0.00     0.169 HD
BRANCH  23  29
HETATM   29  O1  UNL     1      -7.228  12.352 -21.864  1.00  0.00    -0.344 OA
ATOM     30  H1  UNL     1      -8.126  12.396 -22.171  1.00  0.00     0.219 HD
ENDBRANCH  23  29
ENDBRANCH  20  21
ENDBRANCH  19  20
ENDBRANCH  18  19
ENDBRANCH  17  18
ENDBRANCH  16  17
ENDBRANCH   1  16
TORSDOF 10
ENDMDL
MODEL 3
REMARK VINA RESULT: -6.971976644      2.239      3.283
REMARK  10 active torsions:
REMARK  status: ('A' for Active; 'I' for Inactive)
REMARK    1  A    between atoms: N1_1  and  C1_4 
REMARK    2  A    between atoms: C3_11  and  C4_12 
REMARK    3  A    between atoms: C4_12  and  C5_13 
REMARK    4  A    between atoms: C5_13  and  C6_14 
REMARK    5  A    between atoms: C6_14  and  C7_15 
REMARK    6  A    between atoms: C7_15  and  C8_16 
REMARK    7  A    between atoms: C8_16  and  C9_17 
REMARK    8  A    between atoms: C9_17  and  S1_18 
REMARK    9  A    between atoms: S1_18  and  C10_19 
REMARK   10  A    between atoms: C11_22  and  O1_23 
ROOT
HETATM    1  C5  UNL     1      -8.632  13.601 -15.687  1.00  0.00    -0.023 C 
ENDROOT
BRANCH   1   2
HETATM    2  C4  UNL     1      -9.496  13.165 -16.776  1.00  0.00     0.045 C 
BRANCH   2   3
HETATM    3  C3  UNL     1      -9.126  12.127 -17.710  1.00  0.00     0.122 A 
HETATM    4  N4  UNL     1      -7.876  11.868 -18.149  1.00  0.00    -0.316 N 
HETATM    5  C2  UNL     1      -7.560  10.897 -19.017  1.00  0.00     0.208 A 
ATOM      6  H4  UNL     1      -7.118  12.453 -17.795  1.00  0.00     0.170 HD
HETATM    7  N2  UNL     1      -8.565  10.112 -19.496  1.00  0.00    -0.164 N 
HETATM    8  N3  UNL     1      -6.232  10.653 -19.456  1.00  0.00    -0.063 NA
HETATM    9  C1  UNL     1      -9.808  10.351 -19.076  1.00  0.00     0.679 A 
ATOM     10  H2  UNL     1      -8.371   9.360 -20.158  1.00  0.00     0.187 HD
HETATM   11  N7  UNL     1     -10.098  11.330 -18.205  1.00  0.00    -0.177 N 
ATOM     12  H7  UNL     1     -11.064  11.475 -17.913  1.00  0.00     0.185 HD
BRANCH   9  13
HETATM   13  N1  UNL     1     -10.817   9.633 -19.499  1.00  0.00    -0.234 N 
ATOM     14  H12 UNL     1     -11.159   9.841 -20.437  1.00  0.00     0.174 HD
ATOM     15  H11 UNL     1     -11.230   8.906 -18.914  1.00  0.00     0.174 HD
ENDBRANCH   9  13
ENDBRANCH   2   3
ENDBRANCH   1   2
BRANCH   1  16
HETATM   16  C6  UNL     1      -8.025  14.939 -15.608  1.00  0.00     0.027 C 
BRANCH  16  17
HETATM   17  C7  UNL     1      -7.681  15.559 -16.896  1.00  0.00     0.004 C 
BRANCH  17  18
HETATM   18  C8  UNL     1      -6.267  15.194 -17.360  1.00  0.00     0.011 C 
BRANCH  18  19
HETATM   19  C9  UNL     1      -6.175  15.124 -18.848  1.00  0.00     0.082 C 
BRANCH  19  20
HETATM   20  S1  UNL     1      -7.801  15.393 -19.611  1.00  0.00    -0.094 SA
BRANCH  20  21
HETATM   21  C10 UNL     1      -8.094  14.069 -20.769  1.00  0.00     0.147 A 
HETATM   22  N5  UNL     1      -9.316  13.613 -21.092  1.00  0.00    -0.315 N 
HETATM   23  C11 UNL     1      -9.197  12.615 -21.990  1.00  0.00     0.181 A 
ATOM     24  H5  UNL     1     -10.195  13.968 -20.716  1.00  0.00     0.170 HD
HETATM   25  C12 UNL     1      -7.858  12.441 -22.234  1.00  0.00     0.156 A 
HETATM   26 CL1  UNL     1      -7.177  11.267 -23.325  1.00  0.00    -0.060 Cl
HETATM   27  N6  UNL     1      -7.201  13.333 -21.485  1.00  0.00    -0.324 N 
ATOM     28  H6  UNL     1      -6.187  13.444 -21.455  1.00  0.00     0.169 HD
BRANCH  23  29
HETATM   29  O1  UNL     1     -10.235  11.899 -22.556  1.00  0.00    -0.344 OA
ATOM     30  H1  UNL     1     -11.151  11.950 -22.310  1.00  0.00     0.219 HD
ENDBRANCH  23  29
ENDBRANCH  20  21
ENDBRANCH  19  20
ENDBRANCH  18  19
ENDBRANCH  17  18
ENDBRANCH  16  17
ENDBRANCH   1  16
TORSDOF 10
ENDMDL
MODEL 4
REMARK VINA RESULT: -6.962129924      2.231      4.692
REMARK  10 active torsions:
REMARK  status: ('A' for Active; 'I' for Inactive)
REMARK    1  A    between atoms: N1_1  and  C1_4 
REMARK    2  A    between atoms: C3_11  and  C4_12 
REMARK    3  A    between atoms: C4_12  and  C5_13 
REMARK    4  A    between atoms: C5_13  and  C6_14 
REMARK    5  A    between atoms: C6_14  and  C7_15 
REMARK    6  A    between atoms: C7_15  and  C8_16 
REMARK    7  A    between atoms: C8_16  and  C9_17 
REMARK    8  A    between atoms: C9_17  and  S1_18 
REMARK    9  A    between atoms: S1_18  and  C10_19 
REMARK   10  A    between atoms: C11_22  and  O1_23 
ROOT
HETATM    1  C5  UNL     1      -8.097  13.255 -15.619  1.00  0.00    -0.023 C 
ENDROOT
BRANCH   1   2
HETATM    2  C4  UNL     1      -7.020  12.369 -16.040  1.00  0.00     0.045 C 
BRANCH   2   3
HETATM    3  C3  UNL     1      -6.509  12.334 -17.391  1.00  0.00     0.122 A 
HETATM    4  N4  UNL     1      -5.744  13.285 -17.970  1.00  0.00    -0.316 N 
HETATM    5  C2  UNL     1      -5.283  13.227 -19.228  1.00  0.00     0.208 A 
ATOM      6  H4  UNL     1      -5.500  14.103 -17.412  1.00  0.00     0.170 HD
HETATM    7  N2  UNL     1      -5.604  12.140 -19.981  1.00  0.00    -0.164 N 
HETATM    8  N3  UNL     1      -4.478  14.246 -19.804  1.00  0.00    -0.063 NA
HETATM    9  C1  UNL     1      -6.360  11.190 -19.429  1.00  0.00     0.679 A 
ATOM     10  H2  UNL     1      -5.274  12.054 -20.943  1.00  0.00     0.187 HD
HETATM   11  N7  UNL     1      -6.809  11.271 -18.167  1.00  0.00    -0.177 N 
ATOM     12  H7  UNL     1      -7.385  10.519 -17.788  1.00  0.00     0.185 HD
BRANCH   9  13
HETATM   13  N1  UNL     1      -6.704  10.121 -20.100  1.00  0.00    -0.234 N 
ATOM     14  H12 UNL     1      -6.345   9.232 -19.751  1.00  0.00     0.174 HD
ATOM     15  H11 UNL     1      -7.299  10.184 -20.927  1.00  0.00     0.174 HD
ENDBRANCH   9  13
ENDBRANCH   2   3
ENDBRANCH   1   2
BRANCH   1  16
HETATM   16  C6  UNL     1      -7.950  14.712 -15.477  1.00  0.00     0.027 C 
BRANCH  16  17
HETATM   17  C7  UNL     1      -8.837  15.527 -16.320  1.00  0.00     0.004 C 
BRANCH  17  18
HETATM   18  C8  UNL     1      -8.469  15.445 -17.805  1.00  0.00     0.011 C 
BRANCH  18  19
HETATM   19  C9  UNL     1      -9.559  14.820 -18.611  1.00  0.00     0.082 C 
BRANCH  19  20
HETATM   20  S1  UNL     1      -8.901  14.110 -20.147  1.00  0.00    -0.094 SA
BRANCH  20  21
HETATM   21  C10 UNL     1      -9.770  12.585 -20.467  1.00  0.00     0.147 A 
HETATM   22  N5  UNL     1      -9.973  11.632 -19.543  1.00  0.00    -0.315 N 
HETATM   23  C11 UNL     1     -10.659  10.612 -20.098  1.00  0.00     0.181 A 
ATOM     24  H5  UNL     1      -9.658  11.673 -18.574  1.00  0.00     0.170 HD
HETATM   25  C12 UNL     1     -10.889  10.939 -21.410  1.00  0.00     0.156 A 
HETATM   26 CL1  UNL     1     -11.740   9.948 -22.561  1.00  0.00    -0.060 Cl
HETATM   27  N6  UNL     1     -10.343  12.143 -21.619  1.00  0.00    -0.324 N 
ATOM     28  H6  UNL     1     -10.355  12.649 -22.504  1.00  0.00     0.169 HD
BRANCH  23  29
HETATM   29  O1  UNL     1     -11.053   9.451 -19.459  1.00  0.00    -0.344 OA
ATOM     30  H1  UNL     1     -11.760   8.876 -19.727  1.00  0.00     0.219 HD
ENDBRANCH  23  29
ENDBRANCH  20  21
ENDBRANCH  19  20
ENDBRANCH  18  19
ENDBRANCH  17  18
ENDBRANCH  16  17
ENDBRANCH   1  16
TORSDOF 10
ENDMDL
MODEL 5
REMARK VINA RESULT: -6.902976259      2.886      5.940
REMARK  10 active torsions:
REMARK  status: ('A' for Active; 'I' for Inactive)
REMARK    1  A    between atoms: N1_1  and  C1_4 
REMARK    2  A    between atoms: C3_11  and  C4_12 
REMARK    3  A    between atoms: C4_12  and  C5_13 
REMARK    4  A    between atoms: C5_13  and  C6_14 
REMARK    5  A    between atoms: C6_14  and  C7_15 
REMARK    6  A    between atoms: C7_15  and  C8_16 
REMARK    7  A    between atoms: C8_16  and  C9_17 
REMARK    8  A    between atoms: C9_17  and  S1_18 
REMARK    9  A    between atoms: S1_18  and  C10_19 
REMARK   10  A    between atoms: C11_22  and  O1_23 
ROOT
HETATM    1  C5  UNL     1      -7.182  15.468 -16.635  1.00  0.00    -0.023 C 
ENDROOT
BRANCH   1   2
HETATM    2  C4  UNL     1      -6.840  15.217 -18.029  1.00  0.00     0.045 C 
BRANCH   2   3
HETATM    3  C3  UNL     1      -5.560  14.691 -18.445  1.00  0.00     0.122 A 
HETATM    4  N4  UNL     1      -4.371  14.955 -17.860  1.00  0.00    -0.316 N 
HETATM    5  C2  UNL     1      -3.196  14.453 -18.267  1.00  0.00     0.208 A 
ATOM      6  H4  UNL     1      -4.366  15.579 -17.054  1.00  0.00     0.170 HD
HETATM    7  N2  UNL     1      -3.192  13.619 -19.344  1.00  0.00    -0.164 N 
HETATM    8  N3  UNL     1      -1.964  14.751 -17.627  1.00  0.00    -0.063 NA
HETATM    9  C1  UNL     1      -4.356  13.347 -19.937  1.00  0.00     0.679 A 
ATOM     10  H2  UNL     1      -2.321  13.214 -19.688  1.00  0.00     0.187 HD
HETATM   11  N7  UNL     1      -5.519  13.862 -19.509  1.00  0.00    -0.177 N 
ATOM     12  H7  UNL     1      -6.383  13.625 -19.995  1.00  0.00     0.185 HD
BRANCH   9  13
HETATM   13  N1  UNL     1      -4.418  12.554 -20.976  1.00  0.00    -0.234 N 
ATOM     14  H12 UNL     1      -3.573  12.026 -21.193  1.00  0.00     0.174 HD
ATOM     15  H11 UNL     1      -5.271  12.477 -21.531  1.00  0.00     0.174 HD
ENDBRANCH   9  13
ENDBRANCH   2   3
ENDBRANCH   1   2
BRANCH   1  16
HETATM   16  C6  UNL     1      -8.543  15.339 -16.090  1.00  0.00     0.027 C 
BRANCH  16  17
HETATM   17  C7  UNL     1      -8.744  14.239 -15.136  1.00  0.00     0.004 C 
BRANCH  17  18
HETATM   18  C8  UNL     1      -8.566  12.863 -15.784  1.00  0.00     0.011 C 
BRANCH  18  19
HETATM   19  C9  UNL     1      -9.437  12.700 -16.985  1.00  0.00     0.082 C 
BRANCH  19  20
HETATM   20  S1  UNL     1      -8.570  11.789 -18.295  1.00  0.00    -0.094 SA
BRANCH  20  21
HETATM   21  C10 UNL     1      -9.788  11.201 -19.457  1.00  0.00     0.147 A 
HETATM   22  N5  UNL     1     -10.147  11.867 -20.567  1.00  0.00    -0.315 N 
HETATM   23  C11 UNL     1     -11.083  11.159 -21.230  1.00  0.00     0.181 A 
ATOM     24  H5  UNL     1      -9.769  12.768 -20.862  1.00  0.00     0.170 HD
HETATM   25  C12 UNL     1     -11.317  10.015 -20.510  1.00  0.00     0.156 A 
HETATM   26 CL1  UNL     1     -12.447   8.765 -20.945  1.00  0.00    -0.060 Cl
HETATM   27  N6  UNL     1     -10.521  10.055 -19.435  1.00  0.00    -0.324 N 
ATOM     28  H6  UNL     1     -10.472   9.338 -18.712  1.00  0.00     0.169 HD
BRANCH  23  29
HETATM   29  O1  UNL     1     -11.695  11.524 -22.415  1.00  0.00    -0.344 OA
ATOM     30  H1  UNL     1     -12.290  10.988 -22.926  1.00  0.00     0.219 HD
ENDBRANCH  23  29
ENDBRANCH  20  21
ENDBRANCH  19  20
ENDBRANCH  18  19
ENDBRANCH  17  18
ENDBRANCH  16  17
ENDBRANCH   1  16
TORSDOF 10
ENDMDL
